REMARK  8 active torsions:
REMARK  status: ('A' for Active; 'I' for Inactive)
REMARK    1  A    between atoms: N_2  and  C_3 
REMARK    2  A    between atoms: N_2  and  C_22 
REMARK    3  A    between atoms: C_3  and  C_4 
REMARK    4  A    between atoms: C_4  and  C_5 
REMARK    5  A    between atoms: C_5  and  C_6 
REMARK    6  A    between atoms: C_6  and  N_7 
REMARK       I    between atoms: N_7  and  C_8 
REMARK    7  A    between atoms: C_8  and  C_10 
REMARK    8  A    between atoms: C_13  and  C_14 
ROOT
ATOM      1  C   UNL d   1       7.089   3.587 -12.693  0.00  0.00     0.029 C 
ENDROOT
BRANCH   1   2
ATOM      2  C   UNL d   1       6.384   2.925 -13.876  0.00  0.00     0.037 C 
BRANCH   2   3
ATOM      3  C   UNL d   1       6.431   1.378 -13.838  0.00  0.00     0.250 C 
BRANCH   3   4
ATOM      4  N   UNL d   1       5.886   0.764 -15.053  0.00  0.00     0.137 N 
ATOM      5  C   UNL d   1       5.631  -0.668 -14.826  0.00  0.00     0.285 C 
BRANCH   4   6
ATOM      6  C   UNL d   1       6.666   1.039 -16.274  0.00  0.00     0.224 C 
ATOM      7  C   UNL d   1       5.808   0.780 -17.538  0.00  0.00     0.062 C 
ATOM      8  C   UNL d   1       6.615   0.757 -18.817  0.00  0.00     0.014 A 
ATOM      9  C   UNL d   1       8.025   0.634 -18.817  0.00  0.00     0.075 A 
ATOM     10  C   UNL d   1       5.980   0.800 -20.068  0.00  0.00     0.115 A 
ATOM     11  C   UNL d   1       8.842   0.576 -17.537  0.00  0.00     0.048 C 
ATOM     12  N   UNL d   1       8.714   0.576 -19.973  0.00  0.00    -0.062 NA
ATOM     13  C   UNL d   1       8.002   0.267 -16.300  0.00  0.00     0.040 C 
ATOM     14  C   UNL d   1       7.999   0.638 -21.096  0.00  0.00     0.768 A 
ATOM     15  N   UNL d   1       8.712   0.599 -22.259  0.00  0.00     0.062 N 
ATOM     16  N   UNL d   1       6.680   0.749 -21.218  0.00  0.00    -0.057 NA
ENDBRANCH   4   6
ENDBRANCH   3   4
ENDBRANCH   2   3
ENDBRANCH   1   2
BRANCH   1  17
ATOM     17  C   UNL d   1       7.003   5.127 -12.741  0.00  0.00     0.129 C 
BRANCH  17  18
ATOM     18  N   UNL d   1       7.671   5.726 -11.595  0.00  0.00    -0.234 NA
ATOM     19  C   UNL d   1       8.999   5.864 -11.476  0.00  0.00     0.275 C 
ATOM     20  O   UNL d   1       9.800   5.585 -12.369  0.00  0.00    -0.266 OA
BRANCH  19  21
ATOM     21  C   UNL d   1       9.463   6.427 -10.166  0.00  0.00     0.058 A 
ATOM     22  C   UNL d   1       9.057   5.849  -8.944  0.00  0.00     0.005 A 
ATOM     23  C   UNL d   1       9.508   6.389  -7.724  0.00  0.00     0.000 A 
ATOM     24  C   UNL d   1      10.377   7.501  -7.692  0.00  0.00     0.000 A 
ATOM     25  C   UNL d   1      10.782   8.070  -8.919  0.00  0.00     0.000 A 
ATOM     26  C   UNL d   1      10.333   7.539 -10.144  0.00  0.00     0.005 A 
BRANCH  24  27
ATOM     27  C   UNL d   1      10.839   8.055  -6.406  0.00  0.00     0.000 A 
ATOM     28  C   UNL d   1      10.724   9.436  -6.140  0.00  0.00     0.000 A 
ATOM     29  C   UNL d   1      11.159   9.980  -4.918  0.00  0.00     0.000 A 
ATOM     30  C   UNL d   1      11.732   9.146  -3.939  0.00  0.00     0.000 A 
ATOM     31  C   UNL d   1      11.858   7.765  -4.188  0.00  0.00     0.000 A 
ATOM     32  C   UNL d   1      11.404   7.226  -5.410  0.00  0.00     0.000 A 
ENDBRANCH  24  27
ENDBRANCH  19  21
ENDBRANCH  17  18
ENDBRANCH   1  17
TORSDOF 8
