REMARK  7 active torsions:
REMARK  status: ('A' for Active; 'I' for Inactive)
REMARK    1  A    between atoms: C_6  and  N_7 
REMARK    2  A    between atoms: N_10  and  C_11 
REMARK    3  A    between atoms: C_11  and  C_12 
REMARK    4  A    between atoms: C_12  and  C_13 
REMARK    5  A    between atoms: C_13  and  C_14 
REMARK    6  A    between atoms: C_14  and  C_15 
REMARK    7  A    between atoms: N_17  and  C_18 
ROOT
ATOM      1  C   UNL d   1       8.480   6.693 -12.311  0.00  0.00     0.009 C 
ENDROOT
BRANCH   1   2
ATOM      2  C   UNL d   1       9.513   5.660 -12.810  0.00  0.00     0.036 C 
BRANCH   2   3
ATOM      3  C   UNL d   1       8.876   4.458 -13.494  0.00  0.00     0.250 C 
BRANCH   3   4
ATOM      4  N   UNL d   1       9.931   3.608 -14.045  0.00  0.00     0.141 N 
ATOM      5  C   UNL d   1      10.358   4.113 -15.355  0.00  0.00     0.274 C 
ATOM      6  C   UNL d   1      11.456   3.215 -15.968  0.00  0.00     0.137 C 
ATOM      7  N   UNL d   1      10.985   1.830 -16.029  0.00  0.00    -0.344 N 
ATOM      8  C   UNL d   1      10.473   1.305 -14.771  0.00  0.00     0.137 C 
ATOM      9  C   UNL d   1       9.400   2.257 -14.207  0.00  0.00     0.274 C 
BRANCH   7  10
ATOM     10  C   UNL d   1      10.960   1.113 -17.231  0.00  0.00     0.068 A 
ATOM     11  C   UNL d   1      12.140   1.056 -18.007  0.00  0.00     0.018 A 
ATOM     12  C   UNL d   1      12.191   0.332 -19.212  0.00  0.00     0.002 A 
ATOM     13  C   UNL d   1      11.045  -0.341 -19.671  0.00  0.00     0.012 A 
ATOM     14  C   UNL d   1       9.858  -0.291 -18.927  0.00  0.00     0.070 A 
ATOM     15 CL   UNL d   1       8.464  -1.110 -19.535  0.00  0.00    -0.081 Cl
ATOM     16  C   UNL d   1       9.798   0.434 -17.717  0.00  0.00     0.084 A 
ATOM     17 CL   UNL d   1       8.274   0.522 -16.896  0.00  0.00    -0.080 Cl
ENDBRANCH   7  10
ENDBRANCH   3   4
ENDBRANCH   2   3
ENDBRANCH   1   2
BRANCH   1  18
ATOM     18  C   UNL d   1       9.131   7.945 -11.690  0.00  0.00     0.049 C 
BRANCH  18  19
ATOM     19  C   UNL d   1       9.725   7.727 -10.317  0.00  0.00     0.101 A 
ATOM     20  N   UNL d   1      10.208   6.487  -9.911  0.00  0.00    -0.133 NA
ATOM     21  N   UNL d   1      10.598   6.551  -8.684  0.00  0.00    -0.060 NA
ATOM     22  N   UNL d   1      10.435   7.828  -8.279  0.00  0.00    -0.209 N 
ATOM     23  C   UNL d   1       9.878   8.603  -9.286  0.00  0.00     0.119 A 
BRANCH  22  24
ATOM     24  C   UNL d   1      10.833   8.202  -6.977  0.00  0.00     0.085 A 
ATOM     25  C   UNL d   1      11.110   7.224  -5.993  0.00  0.00     0.019 A 
ATOM     26  C   UNL d   1      11.531   7.617  -4.710  0.00  0.00     0.002 A 
ATOM     27  C   UNL d   1      11.656   8.991  -4.389  0.00  0.00     0.000 A 
ATOM     28  C   UNL d   1      11.850   6.644  -3.744  0.00  0.00     0.000 A 
ATOM     29  C   UNL d   1      11.371   9.965  -5.363  0.00  0.00     0.002 A 
ATOM     30  C   UNL d   1      12.071   9.377  -3.104  0.00  0.00     0.000 A 
ATOM     31  C   UNL d   1      10.982   9.564  -6.647  0.00  0.00     0.019 A 
ATOM     32  C   UNL d   1      12.375   8.401  -2.144  0.00  0.00     0.000 A 
ATOM     33  C   UNL d   1      12.262   7.034  -2.457  0.00  0.00     0.000 A 
ENDBRANCH  22  24
ENDBRANCH  18  19
ENDBRANCH   1  18
TORSDOF 7
