REMARK  7 active torsions:
REMARK  status: ('A' for Active; 'I' for Inactive)
REMARK    1  A    between atoms: C_2  and  C_3 
REMARK    2  A    between atoms: C_3  and  C_4 
REMARK    3  A    between atoms: C_4  and  O_5 
REMARK    4  A    between atoms: O_5  and  C_6 
REMARK    5  A    between atoms: C_9  and  C_10 
REMARK    6  A    between atoms: N_13  and  C_14 
REMARK    7  A    between atoms: C_14  and  C_15 
ROOT
ATOM      1  C   UNL d   1      11.417   9.186  -6.438  0.00  0.00     0.094 A 
ATOM      2  C   UNL d   1      12.125   8.765  -7.587  0.00  0.00     0.024 A 
ATOM      3  C   UNL d   1      11.453   8.014  -8.576  0.00  0.00    -0.002 A 
ATOM      4  C   UNL d   1      10.079   7.687  -8.444  0.00  0.00    -0.022 A 
ATOM      5  C   UNL d   1       9.376   8.104  -7.318  0.00  0.00    -0.002 A 
ATOM      6  C   UNL d   1      10.049   8.845  -6.345  0.00  0.00     0.024 A 
ENDROOT
BRANCH   4   7
ATOM      7  C   UNL d   1       9.328   6.902  -9.485  0.00  0.00     0.026 C 
ATOM      8  C   UNL d   1       9.437   7.603 -10.849  0.00  0.00     0.040 C 
ATOM      9  C   UNL d   1       8.798   6.743 -11.941  0.00  0.00     0.251 C 
ATOM     10  N   UNL d   1       9.455   5.441 -12.011  0.00  0.00     0.137 N 
ATOM     11  C   UNL d   1       9.257   4.731 -10.744  0.00  0.00     0.251 C 
ATOM     12  C   UNL d   1       9.863   5.494  -9.555  0.00  0.00     0.040 C 
BRANCH  10  13
ATOM     13  C   UNL d   1       8.885   4.660 -13.111  0.00  0.00     0.250 C 
BRANCH  13  14
ATOM     14  C   UNL d   1       9.911   3.671 -13.688  0.00  0.00     0.035 C 
ATOM     15  C   UNL d   1       9.312   2.795 -14.795  0.00  0.00     0.002 C 
ENDBRANCH  13  14
ENDBRANCH  10  13
ENDBRANCH   4   7
BRANCH   1  16
ATOM     16  O   UNL d   1      12.034   9.926  -5.443  0.00  0.00    -0.331 OA
BRANCH  16  17
ATOM     17  C   UNL d   1      11.409  10.043  -4.150  0.00  0.00     0.149 C 
BRANCH  17  18
ATOM     18  C   UNL d   1      12.040   9.108  -3.124  0.00  0.00     0.033 C 
BRANCH  18  19
ATOM     19  C   UNL d   1      11.980   7.641  -3.579  0.00  0.00     0.003 C 
ATOM     20  C   UNL d   1      12.123   6.663  -2.417  0.00  0.00     0.000 C 
ENDBRANCH  18  19
ENDBRANCH  17  18
ENDBRANCH  16  17
ENDBRANCH   1  16
TORSDOF 7
