REMARK  6 active torsions:
REMARK  status: ('A' for Active; 'I' for Inactive)
REMARK    1  A    between atoms: C_2  and  C_3 
REMARK    2  A    between atoms: C_6  and  C_7 
REMARK    3  A    between atoms: C_10  and  C_11 
REMARK       I    between atoms: C_11  and  N_13 
REMARK    4  A    between atoms: N_13  and  C_14 
REMARK    5  A    between atoms: N_17  and  C_18 
REMARK    6  A    between atoms: C_18  and  C_19 
ROOT
ATOM      1  C   UNL d   1       8.738   5.848 -11.710  0.00  0.00     0.275 C 
ATOM      2  O   UNL d   1       9.370   6.030 -12.750  0.00  0.00    -0.266 OA
ATOM      3  N   UNL d   1       7.540   5.243 -11.661  0.00  0.00    -0.234 NA
ENDROOT
BRANCH   1   4
ATOM      4  C   UNL d   1       9.256   6.342 -10.394  0.00  0.00     0.058 A 
ATOM      5  C   UNL d   1      10.057   7.504 -10.343  0.00  0.00     0.005 A 
ATOM      6  C   UNL d   1      10.546   7.978  -9.109  0.00  0.00     0.000 A 
ATOM      7  C   UNL d   1      10.244   7.300  -7.908  0.00  0.00     0.000 A 
ATOM      8  C   UNL d   1       9.444   6.139  -7.974  0.00  0.00     0.000 A 
ATOM      9  C   UNL d   1       8.967   5.650  -9.202  0.00  0.00     0.005 A 
BRANCH   7  10
ATOM     10  C   UNL d   1      10.752   7.787  -6.613  0.00  0.00     0.000 A 
ATOM     11  C   UNL d   1      10.816   9.166  -6.326  0.00  0.00     0.000 A 
ATOM     12  C   UNL d   1      11.312   9.624  -5.089  0.00  0.00     0.003 A 
ATOM     13  C   UNL d   1      11.753   8.703  -4.117  0.00  0.00     0.042 A 
ATOM     14  C   UNL d   1      11.686   7.325  -4.388  0.00  0.00     0.003 A 
ATOM     15  C   UNL d   1      11.190   6.878  -5.625  0.00  0.00     0.000 A 
BRANCH  13  16
ATOM     16  C   UNL d   1      12.255   9.182  -2.820  0.00  0.00     0.234 C 
ATOM     17  O   UNL d   1      12.661   8.445  -1.919  0.00  0.00    -0.283 OA
ENDBRANCH  13  16
ENDBRANCH   7  10
ENDBRANCH   1   4
BRANCH   3  18
ATOM     18  C   UNL d   1       6.830   4.715 -12.815  0.00  0.00     0.142 C 
ATOM     19  C   UNL d   1       7.646   3.680 -13.598  0.00  0.00     0.275 C 
ATOM     20  N   UNL d   1       6.639   2.760 -14.113  0.00  0.00     0.143 N 
ATOM     21  C   UNL d   1       5.706   2.600 -12.998  0.00  0.00     0.253 C 
ATOM     22  C   UNL d   1       5.541   3.994 -12.436  0.00  0.00     0.062 C 
BRANCH  20  23
ATOM     23  C   UNL d   1       7.245   1.500 -14.548  0.00  0.00     0.277 C 
BRANCH  23  24
ATOM     24  C   UNL d   1       6.257   0.524 -15.165  0.00  0.00     0.011 A 
ATOM     25  C   UNL d   1       5.369  -0.209 -14.347  0.00  0.00    -0.002 A 
ATOM     26  C   UNL d   1       4.415  -1.071 -14.921  0.00  0.00    -0.000 A 
ATOM     27  C   UNL d   1       4.373  -1.241 -16.317  0.00  0.00    -0.000 A 
ATOM     28  C   UNL d   1       5.273  -0.534 -17.138  0.00  0.00    -0.000 A 
ATOM     29  C   UNL d   1       6.210   0.351 -16.563  0.00  0.00    -0.002 A 
ENDBRANCH  23  24
ENDBRANCH  20  23
ENDBRANCH   3  18
TORSDOF 6
