REMARK  8 active torsions:
REMARK  status: ('A' for Active; 'I' for Inactive)
REMARK    1  A    between atoms: O_2  and  C_3 
REMARK    2  A    between atoms: C_8  and  C_9 
REMARK       I    between atoms: C_9  and  N_11 
REMARK    3  A    between atoms: N_11  and  C_12 
REMARK    4  A    between atoms: C_12  and  C_13 
REMARK    5  A    between atoms: C_13  and  C_14 
REMARK    6  A    between atoms: C_14  and  C_16 
REMARK    7  A    between atoms: C_16  and  N_17 
REMARK    8  A    between atoms: N_20  and  C_21 
ROOT
ATOM      1  C   UNL d   1       8.535   4.712 -12.891  0.00  0.00     0.196 C 
ATOM      2  F   UNL d   1       8.214   5.805 -13.611  0.00  0.00    -0.235 F 
ENDROOT
BRANCH   1   3
ATOM      3  C   UNL d   1       9.447   5.154 -11.756  0.00  0.00     0.064 C 
BRANCH   3   4
ATOM      4  C   UNL d   1       8.709   6.146 -10.865  0.00  0.00     0.132 C 
BRANCH   4   5
ATOM      5  N   UNL d   1       9.477   6.395  -9.659  0.00  0.00    -0.233 NA
ATOM      6  C   UNL d   1       9.990   7.577  -9.296  0.00  0.00     0.298 C 
ATOM      7  O   UNL d   1       9.985   8.580 -10.013  0.00  0.00    -0.263 OA
BRANCH   6   8
ATOM      8  C   UNL d   1      10.485   7.632  -7.920  0.00  0.00     0.157 A 
ATOM      9  O   UNL d   1      10.596   8.867  -7.349  0.00  0.00    -0.302 OA
ATOM     10  C   UNL d   1      11.065   8.688  -6.069  0.00  0.00     0.100 A 
ATOM     11  C   UNL d   1      11.333   9.689  -5.144  0.00  0.00     0.027 A 
ATOM     12  C   UNL d   1      11.266   7.311  -5.824  0.00  0.00     0.027 A 
ATOM     13  C   UNL d   1      11.854   9.324  -3.889  0.00  0.00     0.026 A 
ATOM     14  C   UNL d   1      12.096   7.961  -3.582  0.00  0.00     0.094 A 
ATOM     15  C   UNL d   1      11.787   6.965  -4.538  0.00  0.00     0.026 A 
ATOM     16  C   UNL d   1      10.894   6.641  -7.039  0.00  0.00     0.032 A 
BRANCH  14  17
ATOM     17  O   UNL d   1      12.629   7.520  -2.384  0.00  0.00    -0.328 OA
ATOM     18  C   UNL d   1      13.053   8.523  -1.465  0.00  0.00     0.181 C 
ENDBRANCH  14  17
ENDBRANCH   6   8
ENDBRANCH   4   5
ENDBRANCH   3   4
ENDBRANCH   1   3
BRANCH   1  19
ATOM     19  C   UNL d   1       9.195   3.693 -13.883  0.00  0.00     0.285 C 
BRANCH  19  20
ATOM     20  N   UNL d   1       8.497   2.413 -14.053  0.00  0.00     0.144 N 
ATOM     21  C   UNL d   1       7.017   2.509 -14.155  0.00  0.00     0.274 C 
ATOM     22  C   UNL d   1       6.386   1.112 -14.231  0.00  0.00     0.137 C 
ATOM     23  N   UNL d   1       6.951   0.385 -15.336  0.00  0.00    -0.344 N 
ATOM     24  C   UNL d   1       8.402   0.326 -15.396  0.00  0.00     0.137 C 
ATOM     25  C   UNL d   1       9.024   1.739 -15.232  0.00  0.00     0.274 C 
BRANCH  23  26
ATOM     26  C   UNL d   1       6.114  -0.097 -16.372  0.00  0.00     0.068 A 
ATOM     27  C   UNL d   1       6.253   0.311 -17.722  0.00  0.00     0.084 A 
ATOM     28  C   UNL d   1       5.409  -0.251 -18.713  0.00  0.00     0.070 A 
ATOM     29 CL   UNL d   1       7.407   1.507 -18.224  0.00  0.00    -0.080 Cl
ATOM     30  C   UNL d   1       4.443  -1.201 -18.355  0.00  0.00     0.012 A 
ATOM     31 CL   UNL d   1       5.576   0.220 -20.364  0.00  0.00    -0.081 Cl
ATOM     32  C   UNL d   1       4.277  -1.582 -17.019  0.00  0.00     0.002 A 
ATOM     33  C   UNL d   1       5.105  -1.018 -16.019  0.00  0.00     0.018 A 
ENDBRANCH  23  26
ENDBRANCH  19  20
ENDBRANCH   1  19
TORSDOF 8
