REMARK  9 active torsions:
REMARK  status: ('A' for Active; 'I' for Inactive)
REMARK    1  A    between atoms: C_2  and  C_4 
REMARK    2  A    between atoms: N_7  and  C_8 
REMARK    3  A    between atoms: C_12  and  O_13 
REMARK    4  A    between atoms: O_13  and  C_14 
REMARK       I    between atoms: C_14  and  N_16 
REMARK    5  A    between atoms: N_16  and  C_17 
REMARK    6  A    between atoms: C_17  and  C_18 
REMARK    7  A    between atoms: C_18  and  C_19 
REMARK    8  A    between atoms: C_19  and  N_20 
REMARK    9  A    between atoms: N_23  and  C_24 
ROOT
ATOM      1  C   UNL d   1       9.141   4.383 -13.387  0.00  0.00     0.388 C 
ATOM      2  O   UNL d   1       9.460   3.588 -12.509  0.00  0.00    -0.236 OA
ATOM      3  N   UNL d   1       8.627   5.649 -13.188  0.00  0.00    -0.212 NA
ENDROOT
BRANCH   1   4
ATOM      4  O   UNL d   1       9.192   4.139 -14.703  0.00  0.00    -0.258 OA
BRANCH   4   5
ATOM      5  C   UNL d   1       9.251   2.839 -15.139  0.00  0.00     0.106 A 
ATOM      6  C   UNL d   1      10.473   2.196 -15.450  0.00  0.00     0.025 A 
ATOM      7  C   UNL d   1      10.459   0.884 -15.973  0.00  0.00     0.004 A 
ATOM      8  C   UNL d   1       9.233   0.224 -16.204  0.00  0.00     0.018 A 
ATOM      9  C   UNL d   1       8.017   0.866 -15.899  0.00  0.00     0.066 A 
ATOM     10  C   UNL d   1       8.034   2.169 -15.368  0.00  0.00     0.042 A 
BRANCH   9  11
ATOM     11  N   UNL d   1       6.784   0.217 -16.128  0.00  0.00    -0.304 N 
ATOM     12  C   UNL d   1       5.868  -0.131 -15.152  0.00  0.00     0.080 A 
ATOM     13  C   UNL d   1       4.819  -0.765 -15.761  0.00  0.00     0.025 A 
ATOM     14  C   UNL d   1       5.083  -0.802 -17.160  0.00  0.00     0.078 A 
ATOM     15  C   UNL d   1       6.286  -0.178 -17.359  0.00  0.00     0.085 A 
BRANCH  14  16
ATOM     16  C   UNL d   1       4.284  -1.334 -18.284  0.00  0.00     0.298 C 
ATOM     17  N   UNL d   1       3.530  -2.414 -18.038  0.00  0.00    -0.102 N 
ATOM     18  O   UNL d   1       4.336  -0.838 -19.406  0.00  0.00    -0.264 OA
ENDBRANCH  14  16
ENDBRANCH   9  11
ENDBRANCH   4   5
ENDBRANCH   1   4
BRANCH   3  19
ATOM     19  C   UNL d   1       8.246   6.192 -11.882  0.00  0.00     0.133 C 
BRANCH  19  20
ATOM     20  C   UNL d   1       9.405   6.185 -10.873  0.00  0.00     0.062 C 
BRANCH  20  21
ATOM     21  C   UNL d   1       9.184   7.138  -9.719  0.00  0.00     0.253 C 
BRANCH  21  22
ATOM     22  N   UNL d   1      10.335   7.132  -8.827  0.00  0.00     0.141 N 
ATOM     23  C   UNL d   1      10.611   8.499  -8.362  0.00  0.00     0.274 C 
ATOM     24  C   UNL d   1      11.789   8.494  -7.378  0.00  0.00     0.137 C 
ATOM     25  N   UNL d   1      11.451   7.622  -6.253  0.00  0.00    -0.344 N 
ATOM     26  C   UNL d   1      11.142   6.268  -6.684  0.00  0.00     0.137 C 
ATOM     27  C   UNL d   1       9.985   6.302  -7.671  0.00  0.00     0.274 C 
BRANCH  25  28
ATOM     28  C   UNL d   1      11.658   7.958  -4.901  0.00  0.00     0.056 A 
ATOM     29  C   UNL d   1      11.857   6.968  -3.897  0.00  0.00     0.017 A 
ATOM     30  C   UNL d   1      12.026   7.314  -2.545  0.00  0.00     0.002 A 
ATOM     31  C   UNL d   1      12.037   8.662  -2.180  0.00  0.00     0.000 A 
ATOM     32  C   UNL d   1      11.865   9.656  -3.150  0.00  0.00     0.002 A 
ATOM     33  C   UNL d   1      11.675   9.317  -4.503  0.00  0.00     0.017 A 
ENDBRANCH  25  28
ENDBRANCH  21  22
ENDBRANCH  20  21
ENDBRANCH  19  20
ENDBRANCH   3  19
TORSDOF 9
