REMARK  0 active torsions:
REMARK  status: ('A' for Active; 'I' for Inactive)
ROOT
ATOM      1 BR   UNL d   1      11.077  10.386  -5.819  0.00  0.00    -0.049 Br
ATOM      2  C   UNL d   1      11.516   9.103  -4.493  0.00  0.00     0.035 A 
ATOM      3  C   UNL d   1      11.488   7.736  -4.814  0.00  0.00     0.007 A 
ATOM      4  C   UNL d   1      11.854   6.788  -3.840  0.00  0.00     0.001 A 
ATOM      5  C   UNL d   1      12.241   7.196  -2.548  0.00  0.00     0.000 A 
ATOM      6  C   UNL d   1      12.262   8.566  -2.229  0.00  0.00     0.001 A 
ATOM      7  C   UNL d   1      11.878   9.516  -3.196  0.00  0.00     0.007 A 
ENDROOT
TORSDOF 0
