REMARK  5 active torsions:
REMARK  status: ('A' for Active; 'I' for Inactive)
REMARK    1  A    between atoms: C_2  and  C_5 
REMARK    2  A    between atoms: C_8  and  O_9 
REMARK    3  A    between atoms: O_9  and  C_10 
REMARK    4  A    between atoms: C_10  and  C_11 
REMARK    5  A    between atoms: N_16  and  C_17 
ROOT
ATOM      1  C   UNL d   1       8.962   4.601 -13.156  0.00  0.00     0.064 C 
ATOM      2  C   UNL d   1       8.475   5.270 -14.407  0.00  0.00     0.007 C 
ATOM      3  C   UNL d   1       9.500   5.090 -15.531  0.00  0.00     0.035 C 
ATOM      4  C   UNL d   1       9.804   3.611 -15.745  0.00  0.00     0.242 C 
ATOM      5  C   UNL d   1      10.866   3.471 -16.854  0.00  0.00     0.153 C 
ATOM      6  N   UNL d   1      11.192   2.069 -17.051  0.00  0.00    -0.179 N 
ATOM      7  C   UNL d   1      11.661   1.477 -15.815  0.00  0.00     0.155 C 
ATOM      8  C   UNL d   1      10.628   1.655 -14.689  0.00  0.00     0.275 C 
ATOM      9  N   UNL d   1      10.313   3.056 -14.489  0.00  0.00     0.139 N 
ATOM     10  C   UNL d   1       9.301   3.145 -13.444  0.00  0.00     0.253 C 
ENDROOT
BRANCH   1  11
ATOM     11  C   UNL d   1       7.869   4.805 -12.064  0.00  0.00     0.151 C 
BRANCH  11  12
ATOM     12  O   UNL d   1       8.315   4.474 -10.767  0.00  0.00    -0.331 OA
BRANCH  12  13
ATOM     13  C   UNL d   1       9.046   5.401 -10.063  0.00  0.00     0.094 A 
ATOM     14  C   UNL d   1       9.221   5.138  -8.696  0.00  0.00     0.024 A 
ATOM     15  C   UNL d   1       9.938   6.034  -7.883  0.00  0.00    -0.002 A 
ATOM     16  C   UNL d   1      10.546   7.186  -8.431  0.00  0.00    -0.023 A 
ATOM     17  C   UNL d   1      10.390   7.429  -9.810  0.00  0.00    -0.002 A 
ATOM     18  C   UNL d   1       9.619   6.577 -10.608  0.00  0.00     0.024 A 
BRANCH  16  19
ATOM     19  C   UNL d   1      11.332   8.191  -7.584  0.00  0.00     0.019 C 
ATOM     20  C   UNL d   1      12.772   8.293  -8.110  0.00  0.00     0.004 C 
ATOM     21  C   UNL d   1      11.367   7.823  -6.088  0.00  0.00     0.004 C 
ATOM     22  C   UNL d   1      10.675   9.564  -7.710  0.00  0.00     0.004 C 
ENDBRANCH  16  19
ENDBRANCH  12  13
ENDBRANCH  11  12
ENDBRANCH   1  11
BRANCH   6  23
ATOM     23  C   UNL d   1      11.096   1.386 -18.256  0.00  0.00     0.727 A 
ATOM     24  N   UNL d   1      11.798   0.255 -18.384  0.00  0.00    -0.060 NA
ATOM     25  C   UNL d   1      11.699  -0.408 -19.543  0.00  0.00     0.120 A 
ATOM     26  C   UNL d   1      10.872   0.046 -20.592  0.00  0.00     0.043 A 
ATOM     27  C   UNL d   1      10.177   1.247 -20.346  0.00  0.00     0.120 A 
ATOM     28  N   UNL d   1      10.293   1.912 -19.191  0.00  0.00    -0.060 NA
ENDBRANCH   6  23
TORSDOF 5
