REMARK  6 active torsions:
REMARK  status: ('A' for Active; 'I' for Inactive)
REMARK    1  A    between atoms: C_2  and  C_3 
REMARK       I    between atoms: C_2  and  N_5 
REMARK    2  A    between atoms: N_5  and  C_6 
REMARK    3  A    between atoms: C_9  and  C_10 
REMARK    4  A    between atoms: C_10  and  C_11 
REMARK    5  A    between atoms: C_11  and  N_12 
REMARK    6  A    between atoms: N_15  and  C_16 
ROOT
ATOM      1  N   UNL d   1       7.808   5.569 -12.678  0.00  0.00     0.141 N 
ATOM      2  C   UNL d   1       9.111   5.732 -13.318  0.00  0.00     0.274 C 
ATOM      3  C   UNL d   1       9.061   5.181 -14.743  0.00  0.00     0.137 C 
ATOM      4  N   UNL d   1       8.661   3.777 -14.680  0.00  0.00    -0.343 N 
ATOM      5  C   UNL d   1       7.398   3.526 -13.969  0.00  0.00     0.137 C 
ATOM      6  C   UNL d   1       7.457   4.155 -12.574  0.00  0.00     0.274 C 
ENDROOT
BRANCH   1   7
ATOM      7  C   UNL d   1       7.837   6.203 -11.372  0.00  0.00     0.250 C 
BRANCH   7   8
ATOM      8  C   UNL d   1       8.999   5.721 -10.474  0.00  0.00     0.035 C 
BRANCH   8   9
ATOM      9  C   UNL d   1       9.100   6.461  -9.145  0.00  0.00     0.002 C 
ATOM     10  C   UNL d   1       9.923   5.609  -8.193  0.00  0.00     0.002 C 
ATOM     11  C   UNL d   1      10.118   6.315  -6.860  0.00  0.00     0.024 C 
ATOM     12  C   UNL d   1      10.783   7.689  -7.014  0.00  0.00     0.106 C 
ATOM     13  C   UNL d   1       9.959   8.560  -7.979  0.00  0.00     0.024 C 
ATOM     14  C   UNL d   1       9.755   7.851  -9.328  0.00  0.00     0.002 C 
BRANCH  12  15
ATOM     15  N   UNL d   1      10.915   8.360  -5.726  0.00  0.00    -0.238 NA
ATOM     16  C   UNL d   1      11.461   7.853  -4.606  0.00  0.00     0.285 C 
ATOM     17  O   UNL d   1      11.906   6.714  -4.505  0.00  0.00    -0.268 OA
BRANCH  16  18
ATOM     18  C   UNL d   1      11.530   8.776  -3.401  0.00  0.00     0.271 C 
ATOM     19  O   UNL d   1      12.655   9.586  -3.543  0.00  0.00    -0.210 OA
ENDBRANCH  16  18
ENDBRANCH  12  15
ENDBRANCH   8   9
ENDBRANCH   7   8
ENDBRANCH   1   7
BRANCH   4  20
ATOM     20  C   UNL d   1       9.402   2.744 -15.255  0.00  0.00     0.081 A 
ATOM     21  C   UNL d   1       8.803   1.587 -15.802  0.00  0.00     0.135 A 
ATOM     22  C   UNL d   1       9.564   0.581 -16.383  0.00  0.00     0.121 A 
ATOM     23  O   UNL d   1       7.492   1.252 -15.908  0.00  0.00    -0.298 OA
ATOM     24  C   UNL d   1      10.960   0.668 -16.460  0.00  0.00     0.026 A 
ATOM     25  O   UNL d   1       8.758  -0.411 -16.843  0.00  0.00    -0.299 OA
ATOM     26  C   UNL d   1      11.578   1.813 -15.935  0.00  0.00     0.004 A 
ATOM     27  C   UNL d   1      10.815   2.831 -15.322  0.00  0.00     0.019 A 
ATOM     28  C   UNL d   1       7.449  -0.003 -16.544  0.00  0.00     0.304 A 
ENDBRANCH   4  20
TORSDOF 6
