REMARK  6 active torsions:
REMARK  status: ('A' for Active; 'I' for Inactive)
REMARK    1  A    between atoms: O_2  and  C_3 
REMARK    2  A    between atoms: C_6  and  O_7 
REMARK    3  A    between atoms: O_7  and  C_8 
REMARK    4  A    between atoms: C_8  and  C_9 
REMARK    5  A    between atoms: C_9  and  N_10 
REMARK       I    between atoms: N_13  and  C_14 
REMARK    6  A    between atoms: C_14  and  C_16 
ROOT
ATOM      1  N   UNL d   1      10.221   2.689 -15.211  0.00  0.00     0.144 N 
ATOM      2  C   UNL d   1       9.062   3.514 -15.556  0.00  0.00     0.274 C 
ATOM      3  C   UNL d   1       9.165   4.894 -14.889  0.00  0.00     0.140 C 
ATOM      4  N   UNL d   1       9.295   4.781 -13.447  0.00  0.00    -0.311 N 
ATOM      5  C   UNL d   1       8.447   5.400 -12.584  0.00  0.00     0.275 C 
ATOM      6  O   UNL d   1       7.273   5.573 -12.879  0.00  0.00    -0.266 OA
ATOM      7  C   UNL d   1      10.361   3.877 -13.030  0.00  0.00     0.140 C 
ATOM      8  C   UNL d   1      10.214   2.526 -13.762  0.00  0.00     0.274 C 
ENDROOT
BRANCH   5   9
ATOM      9  C   UNL d   1       9.066   6.135 -11.473  0.00  0.00     0.133 A 
ATOM     10  C   UNL d   1       9.347   7.478 -11.304  0.00  0.00     0.002 A 
ATOM     11  C   UNL d   1       9.887   7.645  -9.981  0.00  0.00     0.015 A 
ATOM     12  C   UNL d   1       9.054   8.557 -12.273  0.00  0.00     0.033 C 
ATOM     13  C   UNL d   1       9.903   6.362  -9.360  0.00  0.00     0.081 A 
ATOM     14  C   UNL d   1      10.337   8.746  -9.203  0.00  0.00     0.001 A 
ATOM     15  N   UNL d   1       9.408   5.473 -10.298  0.00  0.00    -0.241 NA
ATOM     16  C   UNL d   1      10.363   6.190  -8.045  0.00  0.00     0.019 A 
ATOM     17  C   UNL d   1      10.820   7.295  -7.300  0.00  0.00     0.002 A 
ATOM     18  C   UNL d   1      10.798   8.577  -7.879  0.00  0.00     0.000 A 
ENDBRANCH   5   9
BRANCH   1  19
ATOM     19  C   UNL d   1      10.159   1.361 -15.816  0.00  0.00     0.283 C 
BRANCH  19  20
ATOM     20  C   UNL d   1      10.398   1.407 -17.341  0.00  0.00     0.184 C 
BRANCH  20  21
ATOM     21  O   UNL d   1      10.135   0.155 -17.956  0.00  0.00    -0.329 OA
BRANCH  21  22
ATOM     22  C   UNL d   1       8.820  -0.237 -18.127  0.00  0.00     0.094 A 
ATOM     23  C   UNL d   1       8.595  -1.456 -18.800  0.00  0.00     0.026 A 
ATOM     24  C   UNL d   1       7.290  -1.953 -18.979  0.00  0.00     0.026 A 
ATOM     25  C   UNL d   1       6.179  -1.249 -18.481  0.00  0.00     0.094 A 
ATOM     26  C   UNL d   1       6.393  -0.021 -17.814  0.00  0.00     0.026 A 
ATOM     27  C   UNL d   1       7.696   0.497 -17.669  0.00  0.00     0.026 A 
BRANCH  25  28
ATOM     28  O   UNL d   1       4.935  -1.804 -18.683  0.00  0.00    -0.328 OA
ATOM     29  C   UNL d   1       3.807  -1.119 -18.159  0.00  0.00     0.181 C 
ENDBRANCH  25  28
ENDBRANCH  21  22
ENDBRANCH  20  21
ENDBRANCH  19  20
ENDBRANCH   1  19
TORSDOF 6
