REMARK  6 active torsions:
REMARK  status: ('A' for Active; 'I' for Inactive)
REMARK    1  A    between atoms: N_2  and  C_3 
REMARK    2  A    between atoms: N_2  and  C_18 
REMARK    3  A    between atoms: C_3  and  C_4 
REMARK    4  A    between atoms: C_4  and  N_5 
REMARK    5  A    between atoms: N_8  and  C_9 
REMARK    6  A    between atoms: C_18  and  C_19 
ROOT
ATOM      1  C   UNL d   1       7.953   5.873 -11.545  0.00  0.00     0.141 C 
ENDROOT
BRANCH   1   2
ATOM      2  C   UNL d   1       8.967   5.535 -10.405  0.00  0.00     0.275 C 
BRANCH   2   3
ATOM      3  N   UNL d   1       9.403   6.692  -9.602  0.00  0.00     0.146 N 
ATOM      4  C   UNL d   1       9.670   7.877 -10.441  0.00  0.00     0.286 C 
BRANCH   3   5
ATOM      5  C   UNL d   1      10.582   6.315  -8.809  0.00  0.00     0.283 C 
BRANCH   5   6
ATOM      6  C   UNL d   1      10.804   7.100  -7.541  0.00  0.00     0.040 A 
ATOM      7  S   UNL d   1      10.246   8.732  -7.375  0.00  0.00    -0.089 SA
ATOM      8  C   UNL d   1      10.912   8.853  -5.781  0.00  0.00     0.029 A 
ATOM      9  C   UNL d   1      11.452   7.605  -5.350  0.00  0.00     0.006 A 
ATOM     10  C   UNL d   1      10.924   9.988  -4.963  0.00  0.00     0.006 A 
ATOM     11  C   UNL d   1      11.422   6.624  -6.402  0.00  0.00     0.005 A 
ATOM     12  C   UNL d   1      11.968   7.547  -4.023  0.00  0.00     0.001 A 
ATOM     13  C   UNL d   1      11.971   8.686  -3.183  0.00  0.00     0.000 A 
ATOM     14  C   UNL d   1      11.460   9.905  -3.670  0.00  0.00     0.001 A 
ENDBRANCH   5   6
ENDBRANCH   3   5
ENDBRANCH   2   3
ENDBRANCH   1   2
BRANCH   1  15
ATOM     15  N   UNL d   1       7.768   4.756 -12.438  0.00  0.00    -0.298 N 
ATOM     16  C   UNL d   1       8.738   4.273 -13.222  0.00  0.00     0.328 C 
ATOM     17  N   UNL d   1       8.204   3.359 -14.044  0.00  0.00    -0.280 N 
ATOM     18  O   UNL d   1       9.926   4.633 -13.193  0.00  0.00    -0.247 OA
ATOM     19  C   UNL d   1       6.758   3.231 -13.832  0.00  0.00     0.135 C 
ATOM     20  C   UNL d   1       6.447   4.290 -12.779  0.00  0.00     0.131 C 
BRANCH  17  21
ATOM     21  C   UNL d   1       8.972   2.537 -14.933  0.00  0.00     0.065 A 
ATOM     22  C   UNL d   1      10.023   3.084 -15.694  0.00  0.00     0.029 A 
ATOM     23  C   UNL d   1      10.805   2.277 -16.536  0.00  0.00     0.059 A 
ATOM     24  C   UNL d   1      10.507   0.905 -16.651  0.00  0.00     0.011 A 
ATOM     25 CL   UNL d   1      12.108   2.990 -17.413  0.00  0.00    -0.082 Cl
ATOM     26  C   UNL d   1       9.450   0.352 -15.907  0.00  0.00     0.002 A 
ATOM     27  C   UNL d   1       8.671   1.160 -15.048  0.00  0.00     0.017 A 
ENDBRANCH  17  21
ENDBRANCH   1  15
TORSDOF 6
