REMARK  8 active torsions:
REMARK  status: ('A' for Active; 'I' for Inactive)
REMARK    1  A    between atoms: C_2  and  C_3 
REMARK    2  A    between atoms: C_8  and  C_9 
REMARK    3  A    between atoms: N_16  and  C_17 
REMARK    4  A    between atoms: C_17  and  C_18 
REMARK    5  A    between atoms: C_18  and  C_19 
REMARK    6  A    between atoms: C_19  and  C_20 
REMARK    7  A    between atoms: C_21  and  C_22 
REMARK    8  A    between atoms: C_21  and  C_29 
ROOT
ATOM      1  C   UNL d   1       8.140   6.403 -12.836  0.00  0.00     0.251 C 
ENDROOT
BRANCH   1   2
ATOM      2  N   UNL d   1       8.633   6.611 -11.487  0.00  0.00     0.137 N 
ATOM      3  C   UNL d   1       9.229   7.950 -11.359  0.00  0.00     0.253 C 
ATOM      4  C   UNL d   1       9.659   8.261  -9.902  0.00  0.00     0.070 C 
ATOM      5  C   UNL d   1      10.589   7.188  -9.349  0.00  0.00     0.149 C 
ATOM      6  O   UNL d   1      11.801   7.351 -10.039  0.00  0.00    -0.221 OA
ATOM      7  C   UNL d   1       9.945   5.803  -9.641  0.00  0.00     0.070 C 
ATOM      8  C   UNL d   1       9.576   5.582 -11.095  0.00  0.00     0.253 C 
BRANCH   5   9
ATOM      9  C   UNL d   1      10.814   7.399  -7.844  0.00  0.00     0.005 A 
ATOM     10  C   UNL d   1      11.260   8.643  -7.363  0.00  0.00     0.003 A 
ATOM     11  C   UNL d   1      11.511   8.800  -5.980  0.00  0.00     0.082 A 
ATOM     12  C   UNL d   1      11.404   7.735  -5.060  0.00  0.00     0.062 A 
ATOM     13  C   UNL d   1      10.921   6.526  -5.537  0.00  0.00     0.011 A 
ATOM     14 CL   UNL d   1      11.907   7.838  -3.391  0.00  0.00    -0.082 Cl
ATOM     15  C   UNL d   1      10.622   6.385  -6.904  0.00  0.00    -0.001 A 
BRANCH  11  16
ATOM     16  C   UNL d   1      11.974  10.102  -5.466  0.00  0.00     0.420 C 
ATOM     17  F   UNL d   1      12.151  11.017  -6.400  0.00  0.00    -0.166 F 
ATOM     18  F   UNL d   1      11.052  10.528  -4.608  0.00  0.00    -0.166 F 
ATOM     19  F   UNL d   1      13.126   9.850  -4.844  0.00  0.00    -0.166 F 
ENDBRANCH  11  16
ENDBRANCH   5   9
ENDBRANCH   1   2
BRANCH   1  20
ATOM     20  C   UNL d   1       7.467   5.028 -13.048  0.00  0.00     0.040 C 
BRANCH  20  21
ATOM     21  C   UNL d   1       8.362   4.129 -13.927  0.00  0.00     0.028 C 
BRANCH  21  22
ATOM     22  C   UNL d   1       7.601   2.937 -14.483  0.00  0.00    -0.026 C 
ATOM     23  C   UNL d   1       7.989   2.052 -15.441  0.00  0.00    -0.004 C 
BRANCH  23  24
ATOM     24  C   UNL d   1       9.299   2.135 -16.140  0.00  0.00    -0.000 A 
ATOM     25  C   UNL d   1      10.078   0.956 -16.315  0.00  0.00     0.002 A 
ATOM     26  C   UNL d   1      11.311   0.996 -16.995  0.00  0.00     0.030 A 
ATOM     27  C   UNL d   1      11.820   2.221 -17.465  0.00  0.00     0.140 A 
ATOM     28  C   UNL d   1      11.059   3.396 -17.299  0.00  0.00     0.030 A 
ATOM     29  F   UNL d   1      13.011   2.265 -18.112  0.00  0.00    -0.204 F 
ATOM     30  C   UNL d   1       9.792   3.345 -16.687  0.00  0.00     0.002 A 
ENDBRANCH  23  24
BRANCH  23  31
ATOM     31  C   UNL d   1       7.066   0.942 -15.800  0.00  0.00    -0.000 A 
ATOM     32  C   UNL d   1       7.018   0.463 -17.136  0.00  0.00     0.002 A 
ATOM     33  C   UNL d   1       6.160  -0.591 -17.496  0.00  0.00     0.030 A 
ATOM     34  C   UNL d   1       5.319  -1.177 -16.538  0.00  0.00     0.140 A 
ATOM     35  C   UNL d   1       5.342  -0.711 -15.209  0.00  0.00     0.030 A 
ATOM     36  F   UNL d   1       4.497  -2.187 -16.893  0.00  0.00    -0.204 F 
ATOM     37  C   UNL d   1       6.210   0.338 -14.846  0.00  0.00     0.002 A 
ENDBRANCH  23  31
ENDBRANCH  21  22
ENDBRANCH  20  21
ENDBRANCH   1  20
TORSDOF 8
