REMARK  7 active torsions:
REMARK  status: ('A' for Active; 'I' for Inactive)
REMARK    1  A    between atoms: O_2  and  C_3 
REMARK    2  A    between atoms: C_8  and  N_9 
REMARK    3  A    between atoms: N_12  and  C_13 
REMARK    4  A    between atoms: C_13  and  C_14 
REMARK    5  A    between atoms: C_14  and  C_15 
REMARK    6  A    between atoms: C_15  and  C_16 
REMARK    7  A    between atoms: C_16  and  N_17 
ROOT
ATOM      1  N   UNL d   1       9.177   3.796 -14.829  0.00  0.00    -0.343 N 
ATOM      2  C   UNL d   1      10.140   4.303 -13.870  0.00  0.00     0.137 C 
ATOM      3  C   UNL d   1      11.564   3.934 -14.340  0.00  0.00     0.274 C 
ATOM      4  N   UNL d   1      11.809   4.437 -15.703  0.00  0.00     0.141 N 
ATOM      5  C   UNL d   1      10.840   3.809 -16.616  0.00  0.00     0.274 C 
ATOM      6  C   UNL d   1       9.409   4.166 -16.211  0.00  0.00     0.137 C 
ENDROOT
BRANCH   4   7
ATOM      7  C   UNL d   1      13.166   4.083 -16.106  0.00  0.00     0.251 C 
BRANCH   7   8
ATOM      8  C   UNL d   1      13.610   4.829 -17.374  0.00  0.00     0.037 C 
BRANCH   8   9
ATOM      9  C   UNL d   1      14.946   4.329 -17.947  0.00  0.00     0.029 C 
BRANCH   9  10
ATOM     10  C   UNL d   1      15.320   5.004 -19.285  0.00  0.00     0.132 C 
BRANCH  10  11
ATOM     11  N   UNL d   1      15.457   6.461 -19.155  0.00  0.00    -0.202 N 
ATOM     12  C   UNL d   1      16.646   7.039 -18.809  0.00  0.00     0.349 A 
ATOM     13  N   UNL d   1      16.622   8.406 -18.680  0.00  0.00    -0.244 N 
ATOM     14  O   UNL d   1      17.663   6.368 -18.619  0.00  0.00    -0.245 OA
ATOM     15  C   UNL d   1      15.498   9.164 -18.842  0.00  0.00     0.285 A 
ATOM     16  C   UNL d   1      17.896   9.065 -18.337  0.00  0.00     0.139 C 
ATOM     17  C   UNL d   1      14.257   8.442 -19.205  0.00  0.00     0.181 A 
ATOM     18  O   UNL d   1      15.458  10.383 -18.707  0.00  0.00    -0.265 OA
ATOM     19  N   UNL d   1      14.287   7.161 -19.372  0.00  0.00    -0.159 NA
ENDBRANCH  10  11
ENDBRANCH   9  10
ENDBRANCH   8   9
ENDBRANCH   7   8
ENDBRANCH   4   7
BRANCH   1  20
ATOM     20  C   UNL d   1       8.061   3.043 -14.438  0.00  0.00     0.079 A 
ATOM     21  C   UNL d   1       7.084   3.592 -13.572  0.00  0.00     0.110 A 
ATOM     22  C   UNL d   1       5.971   2.794 -13.199  0.00  0.00     0.026 A 
ATOM     23  C   UNL d   1       5.859   1.466 -13.645  0.00  0.00     0.002 A 
ATOM     24  C   UNL d   1       6.834   0.929 -14.502  0.00  0.00     0.002 A 
ATOM     25  C   UNL d   1       7.927   1.717 -14.903  0.00  0.00     0.019 A 
BRANCH  21  26
ATOM     26  O   UNL d   1       7.271   4.891 -13.140  0.00  0.00    -0.327 OA
ATOM     27  C   UNL d   1       6.369   5.419 -12.178  0.00  0.00     0.181 C 
ENDBRANCH  21  26
ENDBRANCH   1  20
TORSDOF 7
