REMARK  6 active torsions:
REMARK  status: ('A' for Active; 'I' for Inactive)
REMARK       I    between atoms: C_2  and  N_3 
REMARK    1  A    between atoms: C_2  and  C_26 
REMARK    2  A    between atoms: N_3  and  C_4 
REMARK    3  A    between atoms: C_7  and  C_8 
REMARK    4  A    between atoms: C_8  and  C_9 
REMARK    5  A    between atoms: C_9  and  N_10 
REMARK    6  A    between atoms: N_13  and  C_14 
ROOT
ATOM      1  C   UNL d   1      10.053   6.499 -10.319  0.00  0.00     0.035 C 
ENDROOT
BRANCH   1   2
ATOM      2  C   UNL d   1      10.105   7.580  -9.221  0.00  0.00     0.002 C 
ATOM      3  C   UNL d   1       9.292   7.180  -7.974  0.00  0.00     0.002 C 
ATOM      4  C   UNL d   1       9.379   8.268  -6.888  0.00  0.00     0.024 C 
ATOM      5  C   UNL d   1      10.838   8.508  -6.531  0.00  0.00     0.106 C 
ATOM      6  C   UNL d   1      11.718   8.874  -7.721  0.00  0.00     0.024 C 
ATOM      7  C   UNL d   1      11.558   7.815  -8.804  0.00  0.00     0.002 C 
BRANCH   5   8
ATOM      8  N   UNL d   1      10.988   9.522  -5.481  0.00  0.00    -0.240 NA
ATOM      9  C   UNL d   1      11.341   9.302  -4.207  0.00  0.00     0.251 C 
ATOM     10  O   UNL d   1      11.464  10.236  -3.421  0.00  0.00    -0.271 OA
BRANCH   9  11
ATOM     11  C   UNL d   1      11.445   7.861  -3.686  0.00  0.00     0.081 C 
ATOM     12  C   UNL d   1      12.707   7.216  -4.087  0.00  0.00     0.009 C 
ATOM     13  C   UNL d   1      12.975   6.166  -3.065  0.00  0.00     0.001 C 
ATOM     14  C   UNL d   1      12.135   6.387  -1.901  0.00  0.00     0.001 C 
ATOM     15  C   UNL d   1      11.547   7.736  -2.158  0.00  0.00     0.009 C 
ENDBRANCH   9  11
ENDBRANCH   5   8
ENDBRANCH   1   2
BRANCH   1  16
ATOM     16  C   UNL d   1       8.660   6.135 -10.857  0.00  0.00     0.250 C 
BRANCH  16  17
ATOM     17  N   UNL d   1       8.715   5.506 -12.170  0.00  0.00     0.141 N 
ATOM     18  C   UNL d   1       9.284   4.172 -12.040  0.00  0.00     0.274 C 
ATOM     19  C   UNL d   1       9.387   3.449 -13.388  0.00  0.00     0.137 C 
ATOM     20  N   UNL d   1       8.072   3.402 -14.004  0.00  0.00    -0.344 N 
ATOM     21  C   UNL d   1       7.366   4.665 -14.032  0.00  0.00     0.137 C 
ATOM     22  C   UNL d   1       7.340   5.371 -12.668  0.00  0.00     0.274 C 
BRANCH  20  23
ATOM     23  C   UNL d   1       7.472   2.207 -14.428  0.00  0.00     0.068 A 
ATOM     24  C   UNL d   1       6.239   1.749 -13.887  0.00  0.00     0.084 A 
ATOM     25  C   UNL d   1       5.678   0.543 -14.333  0.00  0.00     0.070 A 
ATOM     26 CL   UNL d   1       5.414   2.608 -12.629  0.00  0.00    -0.080 Cl
ATOM     27  C   UNL d   1       6.313  -0.221 -15.324  0.00  0.00     0.012 A 
ATOM     28 CL   UNL d   1       4.187  -0.013 -13.673  0.00  0.00    -0.081 Cl
ATOM     29  C   UNL d   1       7.533   0.229 -15.862  0.00  0.00     0.002 A 
ATOM     30  C   UNL d   1       8.117   1.421 -15.410  0.00  0.00     0.018 A 
ENDBRANCH  20  23
ENDBRANCH  16  17
ENDBRANCH   1  16
TORSDOF 6
