REMARK  11 active torsions:
REMARK  status: ('A' for Active; 'I' for Inactive)
REMARK    1  A    between atoms: O_2  and  C_3 
REMARK    2  A    between atoms: C_7  and  C_8 
REMARK    3  A    between atoms: C_8  and  C_9 
REMARK    4  A    between atoms: C_9  and  C_10 
REMARK    5  A    between atoms: C_15  and  O_16 
REMARK    6  A    between atoms: O_16  and  C_17 
REMARK    7  A    between atoms: C_17  and  C_18 
REMARK    8  A    between atoms: C_18  and  C_19 
REMARK    9  A    between atoms: C_19  and  C_20 
REMARK   10  A    between atoms: C_20  and  C_21 
REMARK   11  A    between atoms: C_21  and  N_22 
ROOT
ATOM      1  C   UNL d   1       9.639   2.799 -15.621  0.00  0.00     0.001 A 
ATOM      2  C   UNL d   1      10.768   2.677 -16.472  0.00  0.00    -0.002 A 
ATOM      3  C   UNL d   1      12.002   3.273 -16.119  0.00  0.00    -0.000 A 
ATOM      4  C   UNL d   1      12.098   3.961 -14.910  0.00  0.00     0.002 A 
ATOM      5  C   UNL d   1      10.998   4.057 -14.050  0.00  0.00     0.024 A 
ATOM      6  C   UNL d   1       9.733   3.512 -14.403  0.00  0.00     0.090 A 
ENDROOT
BRANCH   6   7
ATOM      7  O   UNL d   1       8.601   3.582 -13.613  0.00  0.00    -0.331 OA
BRANCH   7   8
ATOM      8  C   UNL d   1       8.259   4.791 -12.942  0.00  0.00     0.149 C 
BRANCH   8   9
ATOM      9  C   UNL d   1       9.105   5.007 -11.672  0.00  0.00     0.033 C 
BRANCH   9  10
ATOM     10  C   UNL d   1       8.724   6.198 -10.817  0.00  0.00     0.005 C 
BRANCH  10  11
ATOM     11  C   UNL d   1       9.869   6.504  -9.819  0.00  0.00     0.035 C 
BRANCH  11  12
ATOM     12  C   UNL d   1       9.560   7.755  -8.999  0.00  0.00     0.251 C 
BRANCH  12  13
ATOM     13  N   UNL d   1      10.582   7.995  -7.982  0.00  0.00     0.142 N 
ATOM     14  C   UNL d   1      10.164   7.337  -6.740  0.00  0.00     0.276 C 
ATOM     15  C   UNL d   1      11.061   7.655  -5.557  0.00  0.00     0.007 A 
ATOM     16  C   UNL d   1      11.837   8.828  -5.543  0.00  0.00    -0.022 A 
ATOM     17  C   UNL d   1      11.082   6.796  -4.441  0.00  0.00    -0.003 A 
ATOM     18  C   UNL d   1      11.864   9.708  -6.769  0.00  0.00     0.061 C 
ATOM     19  C   UNL d   1      12.641   9.131  -4.421  0.00  0.00    -0.004 A 
ATOM     20  C   UNL d   1      10.688   9.426  -7.720  0.00  0.00     0.255 C 
ATOM     21  C   UNL d   1      12.653   8.269  -3.306  0.00  0.00    -0.000 A 
ATOM     22  C   UNL d   1      11.866   7.100  -3.316  0.00  0.00    -0.000 A 
ENDBRANCH  12  13
ENDBRANCH  11  12
ENDBRANCH  10  11
ENDBRANCH   9  10
ENDBRANCH   8   9
ENDBRANCH   7   8
ENDBRANCH   6   7
BRANCH   1  23
ATOM     23  C   UNL d   1       8.335   2.147 -16.041  0.00  0.00     0.033 C 
BRANCH  23  24
ATOM     24  C   UNL d   1       8.203   0.706 -15.518  0.00  0.00     0.031 C 
BRANCH  24  25
ATOM     25  C   UNL d   1       6.926   0.056 -16.012  0.00  0.00    -0.020 A 
ATOM     26  C   UNL d   1       6.755  -0.213 -17.382  0.00  0.00    -0.004 A 
ATOM     27  C   UNL d   1       5.576  -0.832 -17.832  0.00  0.00     0.002 A 
ATOM     28  C   UNL d   1       4.565  -1.177 -16.910  0.00  0.00     0.024 A 
ATOM     29  C   UNL d   1       4.711  -0.875 -15.543  0.00  0.00     0.094 A 
ATOM     30  C   UNL d   1       5.915  -0.276 -15.095  0.00  0.00     0.020 A 
BRANCH  29  31
ATOM     31  O   UNL d   1       3.675  -1.183 -14.696  0.00  0.00    -0.328 OA
ATOM     32  C   UNL d   1       3.421  -0.253 -13.653  0.00  0.00     0.181 C 
ENDBRANCH  29  31
ENDBRANCH  24  25
ENDBRANCH  23  24
ENDBRANCH   1  23
TORSDOF 11
