REMARK  2 active torsions:
REMARK  status: ('A' for Active; 'I' for Inactive)
REMARK    1  A    between atoms: C_2  and  C_3 
REMARK    2  A    between atoms: C_3  and  N_4 
ROOT
ATOM      1  N   UNL d   1      11.106   8.528  -4.357  0.00  0.00     0.135 N 
ATOM      2  C   UNL d   1      11.723   9.806  -4.730  0.00  0.00     0.251 C 
ATOM      3  C   UNL d   1      11.892   9.806  -6.252  0.00  0.00     0.042 C 
ATOM      4  C   UNL d   1      11.434   8.407  -6.641  0.00  0.00     0.055 C 
ATOM      5  C   UNL d   1      10.905   8.157  -8.015  0.00  0.00    -0.022 A 
ATOM      6  C   UNL d   1      11.463   8.836  -9.089  0.00  0.00    -0.004 A 
ATOM      7  C   UNL d   1      11.027   8.566 -10.389  0.00  0.00     0.002 A 
ATOM      8  C   UNL d   1      10.048   7.587 -10.612  0.00  0.00     0.027 A 
ATOM      9  C   UNL d   1       9.514   6.863  -9.549  0.00  0.00     0.127 A 
ATOM     10  O   UNL d   1       8.574   5.926  -9.797  0.00  0.00    -0.191 OA
ATOM     11  C   UNL d   1       9.916   7.164  -8.230  0.00  0.00    -0.001 A 
ATOM     12  C   UNL d   1       9.258   6.434  -7.073  0.00  0.00     0.030 C 
ATOM     13  C   UNL d   1       9.906   6.692  -5.712  0.00  0.00     0.038 C 
ATOM     14  C   UNL d   1      10.417   8.126  -5.581  0.00  0.00     0.224 C 
ENDROOT
BRANCH   1  15
ATOM     15  C   UNL d   1      12.118   7.567  -3.866  0.00  0.00     0.250 C 
BRANCH  15  16
ATOM     16  C   UNL d   1      12.328   7.619  -2.354  0.00  0.00     0.035 C 
ATOM     17  C   UNL d   1      12.909   8.934  -1.869  0.00  0.00     0.002 C 
ENDBRANCH  15  16
ENDBRANCH   1  15
TORSDOF 2
