REMARK  7 active torsions:
REMARK  status: ('A' for Active; 'I' for Inactive)
REMARK    1  A    between atoms: C_2  and  C_3 
REMARK    2  A    between atoms: C_3  and  N_4 
REMARK    3  A    between atoms: N_4  and  C_5 
REMARK    4  A    between atoms: N_4  and  C_19 
REMARK    5  A    between atoms: C_5  and  C_6 
REMARK    6  A    between atoms: C_6  and  N_7 
REMARK    7  A    between atoms: N_10  and  C_11 
ROOT
ATOM      1  N   UNL d   1       7.492   4.673 -12.062  0.00  0.00     0.137 N 
ENDROOT
BRANCH   1   2
ATOM      2  C   UNL d   1       6.923   5.657 -12.982  0.00  0.00     0.250 C 
BRANCH   2   3
ATOM      3  C   UNL d   1       6.247   6.902 -12.367  0.00  0.00     0.035 C 
ATOM      4  C   UNL d   1       5.773   7.979 -13.329  0.00  0.00     0.002 C 
ENDBRANCH   2   3
ENDBRANCH   1   2
BRANCH   1   5
ATOM      5  C   UNL d   1       8.441   3.815 -12.792  0.00  0.00     0.285 C 
BRANCH   5   6
ATOM      6  C   UNL d   1       7.821   2.919 -13.890  0.00  0.00     0.286 C 
BRANCH   6   7
ATOM      7  N   UNL d   1       8.734   1.931 -14.447  0.00  0.00     0.143 N 
ATOM      8  C   UNL d   1       9.855   2.561 -15.163  0.00  0.00     0.274 C 
ATOM      9  C   UNL d   1      10.847   1.532 -15.716  0.00  0.00     0.137 C 
ATOM     10  N   UNL d   1      10.139   0.570 -16.559  0.00  0.00    -0.344 N 
ATOM     11  C   UNL d   1       8.963  -0.046 -15.954  0.00  0.00     0.137 C 
ATOM     12  C   UNL d   1       8.036   1.029 -15.373  0.00  0.00     0.274 C 
BRANCH  10  13
ATOM     13  C   UNL d   1      10.560   0.294 -17.865  0.00  0.00     0.056 A 
ATOM     14  C   UNL d   1      11.939   0.273 -18.173  0.00  0.00     0.017 A 
ATOM     15  C   UNL d   1      12.383   0.008 -19.474  0.00  0.00     0.002 A 
ATOM     16  C   UNL d   1      11.455  -0.243 -20.502  0.00  0.00     0.000 A 
ATOM     17  C   UNL d   1      10.078  -0.226 -20.210  0.00  0.00     0.002 A 
ATOM     18  C   UNL d   1       9.629   0.039 -18.907  0.00  0.00     0.017 A 
ENDBRANCH  10  13
ENDBRANCH   6   7
ENDBRANCH   5   6
ENDBRANCH   1   5
BRANCH   1  19
ATOM     19  C   UNL d   1       8.068   5.300 -10.851  0.00  0.00     0.224 C 
ATOM     20  C   UNL d   1       9.349   6.113 -11.072  0.00  0.00     0.059 C 
ATOM     21  C   UNL d   1       9.902   6.624  -9.751  0.00  0.00    -0.023 A 
ATOM     22  C   UNL d   1       9.518   6.109  -8.488  0.00  0.00    -0.026 A 
ATOM     23  C   UNL d   1      10.851   7.649  -9.809  0.00  0.00     0.016 A 
ATOM     24  C   UNL d   1       8.481   5.038  -8.377  0.00  0.00     0.028 C 
ATOM     25  C   UNL d   1      10.102   6.573  -7.299  0.00  0.00    -0.003 A 
ATOM     26  C   UNL d   1       8.312   4.363  -9.698  0.00  0.00     0.038 C 
ATOM     27  C   UNL d   1      11.053   7.596  -7.370  0.00  0.00     0.021 A 
ATOM     28  C   UNL d   1      11.389   8.118  -8.618  0.00  0.00     0.103 A 
ATOM     29  N   UNL d   1      12.272   9.149  -8.678  0.00  0.00    -0.148 N 
ENDBRANCH   1  19
TORSDOF 7
