REMARK  5 active torsions:
REMARK  status: ('A' for Active; 'I' for Inactive)
REMARK    1  A    between atoms: C_2  and  O_3 
REMARK    2  A    between atoms: O_3  and  C_4 
REMARK    3  A    between atoms: C_9  and  N_10 
REMARK    4  A    between atoms: N_13  and  C_14 
REMARK    5  A    between atoms: C_14  and  C_15 
ROOT
ATOM      1  N   UNL d   1      10.100   2.977 -14.813  0.00  0.00    -0.343 N 
ATOM      2  C   UNL d   1      10.875   4.184 -15.020  0.00  0.00     0.137 C 
ATOM      3  C   UNL d   1      10.174   5.358 -14.316  0.00  0.00     0.275 C 
ATOM      4  N   UNL d   1       9.953   5.083 -12.888  0.00  0.00     0.145 N 
ATOM      5  C   UNL d   1       9.107   3.888 -12.779  0.00  0.00     0.275 C 
ATOM      6  C   UNL d   1       9.756   2.687 -13.443  0.00  0.00     0.137 C 
ENDROOT
BRANCH   4   7
ATOM      7  C   UNL d   1       9.303   6.235 -12.246  0.00  0.00     0.277 C 
BRANCH   7   8
ATOM      8  C   UNL d   1       9.264   6.196 -10.705  0.00  0.00     0.011 C 
ATOM      9  C   UNL d   1       9.925   7.157  -9.882  0.00  0.00    -0.002 A 
ATOM     10  C   UNL d   1       9.848   7.055  -8.463  0.00  0.00    -0.000 A 
ATOM     11  C   UNL d   1      10.651   8.251 -10.417  0.00  0.00    -0.000 A 
ATOM     12  C   UNL d   1       9.159   5.999  -7.859  0.00  0.00    -0.000 C 
ATOM     13  C   UNL d   1      10.444   8.017  -7.625  0.00  0.00    -0.000 A 
ATOM     14  C   UNL d   1       8.522   5.048  -8.666  0.00  0.00    -0.000 C 
ATOM     15  C   UNL d   1       8.505   5.188 -10.060  0.00  0.00    -0.002 C 
ATOM     16  C   UNL d   1      11.166   9.083  -8.182  0.00  0.00    -0.000 A 
ATOM     17  C   UNL d   1      11.272   9.181  -9.581  0.00  0.00    -0.000 A 
ENDBRANCH   7   8
ENDBRANCH   4   7
BRANCH   1  18
ATOM     18  C   UNL d   1       9.708   2.140 -15.870  0.00  0.00     0.079 A 
ATOM     19  C   UNL d   1       8.408   1.569 -15.948  0.00  0.00     0.109 A 
ATOM     20  C   UNL d   1       8.108   0.739 -17.057  0.00  0.00     0.026 A 
ATOM     21  C   UNL d   1       9.060   0.505 -18.065  0.00  0.00     0.002 A 
ATOM     22  C   UNL d   1      10.338   1.074 -17.974  0.00  0.00     0.002 A 
ATOM     23  C   UNL d   1      10.661   1.881 -16.874  0.00  0.00     0.019 A 
BRANCH  19  24
ATOM     24  O   UNL d   1       7.464   1.884 -14.978  0.00  0.00    -0.329 OA
BRANCH  24  25
ATOM     25  C   UNL d   1       6.267   1.113 -14.875  0.00  0.00     0.149 C 
ATOM     26  C   UNL d   1       6.545  -0.260 -14.240  0.00  0.00     0.035 C 
ENDBRANCH  24  25
ENDBRANCH  19  24
ENDBRANCH   1  18
TORSDOF 5
