REMARK  9 active torsions:
REMARK  status: ('A' for Active; 'I' for Inactive)
REMARK    1  A    between atoms: C_2  and  C_5 
REMARK    2  A    between atoms: C_7  and  N_8 
REMARK    3  A    between atoms: N_11  and  C_12 
REMARK    4  A    between atoms: C_12  and  C_13 
REMARK    5  A    between atoms: C_13  and  C_14 
REMARK    6  A    between atoms: C_14  and  C_15 
REMARK    7  A    between atoms: C_15  and  N_16 
REMARK       I    between atoms: N_16  and  C_17 
REMARK    8  A    between atoms: C_17  and  C_19 
REMARK    9  A    between atoms: C_31  and  C_32 
ROOT
ATOM      1  N   UNL d   1      11.433   3.109 -15.416  0.00  0.00    -0.330 N 
ATOM      2  C   UNL d   1      11.522   4.488 -14.940  0.00  0.00     0.138 C 
ATOM      3  C   UNL d   1      10.163   4.979 -14.435  0.00  0.00     0.274 C 
ATOM      4  N   UNL d   1       9.651   4.102 -13.379  0.00  0.00     0.141 N 
ATOM      5  C   UNL d   1       9.458   2.765 -13.969  0.00  0.00     0.274 C 
ATOM      6  C   UNL d   1      10.793   2.185 -14.476  0.00  0.00     0.138 C 
ENDROOT
BRANCH   4   7
ATOM      7  C   UNL d   1       8.376   4.584 -12.832  0.00  0.00     0.251 C 
BRANCH   7   8
ATOM      8  C   UNL d   1       8.443   6.010 -12.229  0.00  0.00     0.037 C 
BRANCH   8   9
ATOM      9  C   UNL d   1       9.202   6.037 -10.890  0.00  0.00     0.029 C 
BRANCH   9  10
ATOM     10  C   UNL d   1       9.786   7.419 -10.564  0.00  0.00     0.129 C 
BRANCH  10  11
ATOM     11  N   UNL d   1      10.240   7.473  -9.185  0.00  0.00    -0.233 NA
ATOM     12  C   UNL d   1      10.799   8.545  -8.620  0.00  0.00     0.294 C 
ATOM     13  O   UNL d   1      11.056   9.587  -9.239  0.00  0.00    -0.264 OA
BRANCH  12  14
ATOM     14  C   UNL d   1      11.025   8.415  -7.159  0.00  0.00     0.158 A 
ATOM     15  N   UNL d   1      11.200   7.196  -6.509  0.00  0.00    -0.222 NA
ATOM     16  C   UNL d   1      11.454   7.498  -5.238  0.00  0.00     0.148 A 
ATOM     17  N   UNL d   1      11.400   8.898  -5.040  0.00  0.00    -0.288 N 
ATOM     18  C   UNL d   1      11.739   6.697  -4.104  0.00  0.00     0.037 A 
ATOM     19  C   UNL d   1      11.137   9.454  -6.278  0.00  0.00     0.106 A 
ATOM     20  C   UNL d   1      11.594   9.471  -3.819  0.00  0.00     0.082 A 
ATOM     21  C   UNL d   1      11.879   8.678  -2.732  0.00  0.00     0.019 A 
ATOM     22  C   UNL d   1      11.947   7.274  -2.873  0.00  0.00     0.005 A 
ENDBRANCH  12  14
ENDBRANCH  10  11
ENDBRANCH   9  10
ENDBRANCH   8   9
ENDBRANCH   7   8
ENDBRANCH   4   7
BRANCH   1  23
ATOM     23  C   UNL d   1      11.785   2.755 -16.702  0.00  0.00     0.143 A 
ATOM     24  N   UNL d   1      11.160   1.693 -17.273  0.00  0.00    -0.214 NA
ATOM     25  C   UNL d   1      11.523   1.330 -18.501  0.00  0.00     0.140 A 
ATOM     26  N   UNL d   1      12.422   1.967 -19.256  0.00  0.00    -0.227 NA
ATOM     27  C   UNL d   1      13.072   3.020 -18.719  0.00  0.00     0.157 A 
ATOM     28  C   UNL d   1      12.776   3.468 -17.420  0.00  0.00     0.060 A 
BRANCH  25  29
ATOM     29  C   UNL d   1      10.697   0.216 -19.164  0.00  0.00     0.052 C 
ATOM     30  C   UNL d   1       9.389   0.791 -19.730  0.00  0.00     0.008 C 
ATOM     31  C   UNL d   1      10.356  -0.900 -18.148  0.00  0.00     0.008 C 
ATOM     32  C   UNL d   1      11.504  -0.436 -20.310  0.00  0.00     0.008 C 
ENDBRANCH  25  29
BRANCH  27  33
ATOM     33  C   UNL d   1      14.131   3.691 -19.588  0.00  0.00     0.435 C 
ATOM     34  F   UNL d   1      14.745   4.682 -18.944  0.00  0.00    -0.165 F 
ATOM     35  F   UNL d   1      15.054   2.801 -19.959  0.00  0.00    -0.165 F 
ATOM     36  F   UNL d   1      13.553   4.191 -20.680  0.00  0.00    -0.165 F 
ENDBRANCH  27  33
ENDBRANCH   1  23
TORSDOF 9
