REMARK  3 active torsions:
REMARK  status: ('A' for Active; 'I' for Inactive)
REMARK    1  A    between atoms: C_2  and  N_3 
REMARK    2  A    between atoms: C_5  and  C_6 
REMARK    3  A    between atoms: C_15  and  N_16 
ROOT
ATOM      1  N   UNL d   1       8.463   5.010 -10.032  0.00  0.00    -0.324 N 
ATOM      2  C   UNL d   1       8.192   4.768 -11.364  0.00  0.00     0.085 C 
ATOM      3  C   UNL d   1       8.630   5.547 -12.382  0.00  0.00     0.120 C 
ATOM      4  C   UNL d   1       9.339   6.791 -12.016  0.00  0.00     0.204 C 
ATOM      5  O   UNL d   1       9.659   7.634 -12.836  0.00  0.00    -0.286 OA
ATOM      6  C   UNL d   1       9.589   7.047 -10.590  0.00  0.00     0.060 C 
ATOM      7  C   UNL d   1      10.261   8.237 -10.280  0.00  0.00     0.036 C 
ATOM      8  C   UNL d   1      10.504   8.566  -8.973  0.00  0.00     0.158 C 
ATOM      9  F   UNL d   1      11.299   9.617  -8.742  0.00  0.00    -0.203 F 
ATOM     10  C   UNL d   1       9.998   7.782  -7.914  0.00  0.00     0.113 C 
ATOM     11  C   UNL d   1       9.209   6.653  -8.241  0.00  0.00     0.173 C 
ATOM     12  F   UNL d   1       8.545   6.086  -7.197  0.00  0.00    -0.201 F 
ATOM     13  C   UNL d   1       9.092   6.197  -9.575  0.00  0.00     0.092 C 
ENDROOT
BRANCH  10  14
ATOM     14  N   UNL d   1      10.310   8.084  -6.599  0.00  0.00    -0.341 N 
ATOM     15  C   UNL d   1      10.371   7.089  -5.528  0.00  0.00     0.138 C 
ATOM     16  C   UNL d   1      11.545   7.456  -4.605  0.00  0.00     0.279 C 
ATOM     17  N   UNL d   1      11.504   8.825  -4.104  0.00  0.00     0.341 N 
ATOM     18  C   UNL d   1      11.744   6.493  -3.474  0.00  0.00     0.040 C 
ATOM     19  C   UNL d   1      11.482   9.736  -5.248  0.00  0.00     0.314 C 
ATOM     20  C   UNL d   1      10.271   9.453  -6.136  0.00  0.00     0.140 C 
ENDBRANCH  10  14
BRANCH   1  21
ATOM     21  C   UNL d   1       7.892   4.108  -9.052  0.00  0.00     0.106 C 
ATOM     22  C   UNL d   1       8.875   3.290  -8.275  0.00  0.00     0.026 C 
ENDBRANCH   1  21
BRANCH   3  23
ATOM     23  C   UNL d   1       8.411   5.065 -13.720  0.00  0.00     0.215 C 
ATOM     24  O   UNL d   1       9.219   5.215 -14.652  0.00  0.00    -0.644 OA
ATOM     25  O   UNL d   1       7.252   4.373 -13.884  0.00  0.00    -0.644 OA
ENDBRANCH   3  23
TORSDOF 3
