REMARK  7 active torsions:
REMARK  status: ('A' for Active; 'I' for Inactive)
REMARK    1  A    between atoms: O_2  and  C_3 
REMARK    2  A    between atoms: C_4  and  C_5 
REMARK       I    between atoms: C_5  and  N_7 
REMARK    3  A    between atoms: N_7  and  C_8 
REMARK    4  A    between atoms: C_8  and  C_9 
REMARK    5  A    between atoms: C_9  and  C_10 
REMARK    6  A    between atoms: N_13  and  C_14 
REMARK    7  A    between atoms: C_14  and  C_15 
ROOT
ATOM      1  C   UNL d   1       9.059   5.083 -12.884  0.00  0.00     0.277 C 
ATOM      2  O   UNL d   1       9.956   5.834 -13.231  0.00  0.00    -0.266 OA
ATOM      3  N   UNL d   1       8.518   5.163 -11.659  0.00  0.00    -0.234 NA
ENDROOT
BRANCH   1   4
ATOM      4  C   UNL d   1       8.575   3.968 -13.787  0.00  0.00     0.080 A 
ATOM      5  C   UNL d   1       9.343   3.572 -14.921  0.00  0.00     0.099 A 
ATOM      6  C   UNL d   1       8.885   2.509 -15.728  0.00  0.00     0.023 A 
ATOM      7  C   UNL d   1       7.713   1.796 -15.379  0.00  0.00     0.008 A 
ATOM      8  C   UNL d   1       9.610   2.180 -16.899  0.00  0.00     0.002 A 
ATOM      9  C   UNL d   1       6.958   2.161 -14.234  0.00  0.00     0.035 A 
ATOM     10  C   UNL d   1       7.303   0.719 -16.184  0.00  0.00     0.001 A 
ATOM     11  C   UNL d   1       7.371   3.284 -13.497  0.00  0.00     0.013 A 
ATOM     12 BR   UNL d   1       5.509   1.109 -13.582  0.00  0.00    -0.049 Br
ATOM     13  C   UNL d   1       8.027   0.392 -17.348  0.00  0.00     0.000 A 
ATOM     14  C   UNL d   1       9.169   1.124 -17.704  0.00  0.00     0.000 A 
BRANCH   5  15
ATOM     15  O   UNL d   1      10.490   4.231 -15.299  0.00  0.00    -0.328 OA
ATOM     16  C   UNL d   1      11.700   3.692 -14.780  0.00  0.00     0.181 C 
ENDBRANCH   5  15
ENDBRANCH   1   4
BRANCH   3  17
ATOM     17  C   UNL d   1       9.016   6.010 -10.595  0.00  0.00     0.129 C 
BRANCH  17  18
ATOM     18  C   UNL d   1       9.455   7.455 -11.035  0.00  0.00     0.029 C 
BRANCH  18  19
ATOM     19  C   UNL d   1      10.167   8.276  -9.953  0.00  0.00     0.037 C 
ATOM     20  C   UNL d   1       9.340   8.516  -8.699  0.00  0.00     0.251 C 
ATOM     21  N   UNL d   1      10.359   8.539  -7.660  0.00  0.00     0.141 N 
ATOM     22  C   UNL d   1      11.244   7.423  -8.008  0.00  0.00     0.251 C 
ATOM     23  C   UNL d   1      11.459   7.609  -9.501  0.00  0.00     0.037 C 
BRANCH  21  24
ATOM     24  C   UNL d   1       9.713   8.343  -6.372  0.00  0.00     0.277 C 
BRANCH  24  25
ATOM     25  C   UNL d   1      10.708   8.317  -5.243  0.00  0.00     0.011 A 
ATOM     26  C   UNL d   1      11.067   9.519  -4.605  0.00  0.00    -0.002 A 
ATOM     27  C   UNL d   1      11.974   9.484  -3.528  0.00  0.00    -0.000 A 
ATOM     28  C   UNL d   1      12.542   8.262  -3.119  0.00  0.00    -0.000 A 
ATOM     29  C   UNL d   1      12.181   7.067  -3.766  0.00  0.00    -0.000 A 
ATOM     30  C   UNL d   1      11.270   7.094  -4.833  0.00  0.00    -0.002 A 
ENDBRANCH  24  25
ENDBRANCH  21  24
ENDBRANCH  18  19
ENDBRANCH  17  18
ENDBRANCH   3  17
TORSDOF 7
