REMARK  3 active torsions:
REMARK  status: ('A' for Active; 'I' for Inactive)
REMARK    1  A    between atoms: C_7  and  N_8 
REMARK    2  A    between atoms: N_11  and  C_12 
REMARK    3  A    between atoms: C_12  and  C_13 
ROOT
ATOM      1  N   UNL d   1      10.356   7.916  -6.655  0.00  0.00    -0.344 N 
ATOM      2  C   UNL d   1      10.556   8.997  -7.604  0.00  0.00     0.137 C 
ATOM      3  C   UNL d   1      10.919   8.453  -8.986  0.00  0.00     0.275 C 
ATOM      4  N   UNL d   1       9.871   7.531  -9.438  0.00  0.00     0.149 N 
ATOM      5  C   UNL d   1       9.803   6.396  -8.507  0.00  0.00     0.275 C 
ATOM      6  C   UNL d   1       9.412   6.892  -7.101  0.00  0.00     0.137 C 
ENDROOT
BRANCH   4   7
ATOM      7  C   UNL d   1      10.226   7.070 -10.771  0.00  0.00     0.315 C 
BRANCH   7   8
ATOM      8  C   UNL d   1       9.215   6.209 -11.438  0.00  0.00     0.175 A 
ATOM      9  N   UNL d   1       9.478   5.185 -12.269  0.00  0.00    -0.208 NA
ATOM     10  C   UNL d   1       8.234   4.687 -12.634  0.00  0.00     0.182 A 
ATOM     11  C   UNL d   1       7.219   5.438 -11.988  0.00  0.00     0.118 A 
ATOM     12  N   UNL d   1       7.991   3.658 -13.455  0.00  0.00    -0.224 NA
ATOM     13  N   UNL d   1       7.876   6.373 -11.256  0.00  0.00    -0.226 NA
ATOM     14  C   UNL d   1       5.872   5.109 -12.202  0.00  0.00     0.024 A 
ATOM     15  C   UNL d   1       5.595   4.021 -13.051  0.00  0.00     0.022 A 
ATOM     16  C   UNL d   1       6.684   3.341 -13.647  0.00  0.00     0.101 A 
ENDBRANCH   7   8
ENDBRANCH   4   7
BRANCH   1  17
ATOM     17  C   UNL d   1      11.020   7.880  -5.408  0.00  0.00     0.067 A 
ATOM     18  C   UNL d   1      11.237   9.036  -4.615  0.00  0.00     0.073 A 
ATOM     19 CL   UNL d   1      10.667  10.587  -5.017  0.00  0.00    -0.081 Cl
ATOM     20  C   UNL d   1      11.901   8.958  -3.381  0.00  0.00     0.013 A 
ATOM     21  C   UNL d   1      12.326   7.724  -2.884  0.00  0.00     0.001 A 
ATOM     22  C   UNL d   1      12.100   6.569  -3.641  0.00  0.00     0.002 A 
ATOM     23  C   UNL d   1      11.463   6.650  -4.897  0.00  0.00     0.018 A 
ENDBRANCH   1  17
TORSDOF 3
