REMARK  5 active torsions:
REMARK  status: ('A' for Active; 'I' for Inactive)
REMARK    1  A    between atoms: C_2  and  C_3 
REMARK    2  A    between atoms: C_3  and  N_4 
REMARK    3  A    between atoms: N_4  and  C_5 
REMARK    4  A    between atoms: N_4  and  C_8 
REMARK    5  A    between atoms: C_5  and  C_6 
ROOT
ATOM      1  C   UNL d   1      11.139   7.098  -6.626  0.00  0.00     0.224 C 
ATOM      2  C   UNL d   1       9.680   6.614  -6.428  0.00  0.00     0.038 C 
ATOM      3  C   UNL d   1       9.127   5.844  -7.619  0.00  0.00     0.028 C 
ATOM      4  C   UNL d   1       9.452   6.489  -8.950  0.00  0.00    -0.024 A 
ATOM      5  C   UNL d   1       8.703   6.086 -10.081  0.00  0.00    -0.004 A 
ATOM      6  C   UNL d   1       8.922   6.734 -11.311  0.00  0.00     0.002 A 
ATOM      7  C   UNL d   1       9.816   7.807 -11.398  0.00  0.00     0.027 A 
ATOM      8  C   UNL d   1      10.598   8.177 -10.288  0.00  0.00     0.127 A 
ATOM      9  O   UNL d   1      11.503   9.178 -10.405  0.00  0.00    -0.191 OA
ATOM     10  C   UNL d   1      10.453   7.477  -9.074  0.00  0.00     0.001 A 
ATOM     11  C   UNL d   1      11.285   7.951  -7.906  0.00  0.00     0.061 C 
ENDROOT
BRANCH   1  12
ATOM     12  N   UNL d   1      11.666   7.782  -5.415  0.00  0.00     0.135 N 
BRANCH  12  13
ATOM     13  C   UNL d   1      11.928   6.811  -4.335  0.00  0.00     0.250 C 
BRANCH  13  14
ATOM     14  C   UNL d   1      12.534   7.460  -3.072  0.00  0.00     0.035 C 
ATOM     15  C   UNL d   1      12.677   6.491  -1.915  0.00  0.00     0.002 C 
ENDBRANCH  13  14
ENDBRANCH  12  13
BRANCH  12  16
ATOM     16  C   UNL d   1      10.883   8.935  -4.938  0.00  0.00     0.250 C 
BRANCH  16  17
ATOM     17  C   UNL d   1      10.868  10.218  -5.760  0.00  0.00     0.035 C 
ATOM     18  C   UNL d   1      12.288  10.540  -6.234  0.00  0.00     0.002 C 
ENDBRANCH  16  17
ENDBRANCH  12  16
ENDBRANCH   1  12
TORSDOF 5
