REMARK  7 active torsions:
REMARK  status: ('A' for Active; 'I' for Inactive)
REMARK    1  A    between atoms: C_6  and  C_7 
REMARK    2  A    between atoms: C_10  and  S_11 
REMARK    3  A    between atoms: S_11  and  C_12 
REMARK    4  A    between atoms: C_12  and  C_13 
REMARK    5  A    between atoms: C_13  and  C_14 
REMARK    6  A    between atoms: C_14  and  N_15 
REMARK    7  A    between atoms: C_19  and  C_20 
ROOT
ATOM      1  C   UNL d   1      10.021   5.007 -14.368  0.00  0.00     0.047 C 
ENDROOT
BRANCH   1   2
ATOM      2  C   UNL d   1      10.705   3.652 -14.074  0.00  0.00     0.067 C 
BRANCH   2   3
ATOM      3  S   UNL d   1      10.980   2.608 -15.528  0.00  0.00    -0.075 SA
BRANCH   3   4
ATOM      4  C   UNL d   1       9.375   1.872 -15.640  0.00  0.00     0.193 A 
ATOM      5  N   UNL d   1       8.637   1.488 -14.597  0.00  0.00    -0.122 NA
ATOM      6  N   UNL d   1       7.477   0.982 -15.131  0.00  0.00    -0.126 NA
ATOM      7  C   UNL d   1       7.601   1.097 -16.457  0.00  0.00     0.191 A 
ATOM      8  N   UNL d   1       8.779   1.653 -16.822  0.00  0.00    -0.287 N 
ATOM      9  C   UNL d   1       9.304   1.933 -18.144  0.00  0.00     0.134 C 
BRANCH   7  10
ATOM     10  C   UNL d   1       6.563   0.634 -17.375  0.00  0.00     0.151 A 
ATOM     11  C   UNL d   1       5.483  -0.202 -17.210  0.00  0.00     0.087 A 
ATOM     12  C   UNL d   1       5.000  -0.927 -15.991  0.00  0.00     0.054 C 
ATOM     13  N   UNL d   1       4.826  -0.307 -18.428  0.00  0.00    -0.221 NA
ATOM     14  C   UNL d   1       5.532   0.448 -19.259  0.00  0.00     0.225 A 
ATOM     15  O   UNL d   1       6.603   1.053 -18.680  0.00  0.00    -0.282 OA
ENDBRANCH   7  10
ENDBRANCH   3   4
ENDBRANCH   2   3
ENDBRANCH   1   2
BRANCH   1  16
ATOM     16  C   UNL d   1       8.947   5.430 -13.331  0.00  0.00     0.251 C 
BRANCH  16  17
ATOM     17  N   UNL d   1       9.448   5.542 -11.957  0.00  0.00     0.137 N 
ATOM     18  C   UNL d   1       8.530   6.289 -11.089  0.00  0.00     0.254 C 
ATOM     19  C   UNL d   1       8.932   5.858  -9.681  0.00  0.00     0.052 A 
ATOM     20  C   UNL d   1       9.553   4.518  -9.859  0.00  0.00     0.039 A 
ATOM     21  C   UNL d   1       8.272   4.604  -9.090  0.00  0.00     0.008 A 
ATOM     22  C   UNL d   1       9.561   4.223 -11.342  0.00  0.00     0.251 C 
BRANCH  19  23
ATOM     23  C   UNL d   1       9.728   6.871  -8.857  0.00  0.00    -0.020 A 
ATOM     24  C   UNL d   1      10.033   6.589  -7.483  0.00  0.00     0.008 A 
ATOM     25  C   UNL d   1      10.736   7.507  -6.693  0.00  0.00     0.068 A 
ATOM     26  C   UNL d   1      11.132   8.749  -7.223  0.00  0.00     0.068 A 
ATOM     27 CL   UNL d   1      11.112   7.088  -5.050  0.00  0.00    -0.082 Cl
ATOM     28  C   UNL d   1      10.884   9.018  -8.595  0.00  0.00     0.012 A 
ATOM     29 CL   UNL d   1      11.901   9.934  -6.221  0.00  0.00    -0.082 Cl
ATOM     30  C   UNL d   1      10.210   8.078  -9.396  0.00  0.00    -0.003 A 
ENDBRANCH  19  23
ENDBRANCH  16  17
ENDBRANCH   1  16
TORSDOF 7
