REMARK  6 active torsions:
REMARK  status: ('A' for Active; 'I' for Inactive)
REMARK    1  A    between atoms: C_2  and  S_3 
REMARK    2  A    between atoms: S_3  and  C_6 
REMARK    3  A    between atoms: C_9  and  O_10 
REMARK    4  A    between atoms: C_12  and  C_13 
REMARK    5  A    between atoms: C_16  and  C_17 
REMARK    6  A    between atoms: C_17  and  N_18 
ROOT
ATOM      1  C   UNL d   1       8.049   3.180 -14.204  0.00  0.00     0.084 A 
ATOM      2  C   UNL d   1       6.641   3.099 -14.208  0.00  0.00     0.013 A 
ATOM      3  C   UNL d   1       5.908   3.974 -13.406  0.00  0.00     0.025 A 
ATOM      4  C   UNL d   1       6.532   5.002 -12.667  0.00  0.00     0.096 A 
ATOM      5  C   UNL d   1       7.962   5.155 -12.747  0.00  0.00     0.041 A 
ATOM      6  C   UNL d   1       8.700   4.199 -13.493  0.00  0.00     0.015 A 
ENDROOT
BRANCH   5   7
ATOM      7  C   UNL d   1       8.708   6.178 -12.038  0.00  0.00     0.083 A 
ATOM      8  N   UNL d   1       9.506   5.870 -10.972  0.00  0.00    -0.248 NA
ATOM      9  C   UNL d   1      10.058   7.004 -10.418  0.00  0.00     0.092 A 
ATOM     10  C   UNL d   1       9.578   8.077 -11.117  0.00  0.00     0.018 A 
ATOM     11  C   UNL d   1       8.779   7.558 -12.159  0.00  0.00     0.020 A 
BRANCH   9  12
ATOM     12  C   UNL d   1      11.019   6.967  -9.302  0.00  0.00     0.296 C 
BRANCH  12  13
ATOM     13  N   UNL d   1      10.723   7.893  -8.226  0.00  0.00     0.143 N 
ATOM     14  C   UNL d   1       9.638   7.381  -7.392  0.00  0.00     0.251 C 
ATOM     15  C   UNL d   1       9.753   8.221  -6.129  0.00  0.00     0.037 C 
ATOM     16  C   UNL d   1      11.215   8.661  -6.076  0.00  0.00     0.037 C 
ATOM     17  C   UNL d   1      11.845   8.025  -7.311  0.00  0.00     0.251 C 
ENDBRANCH  12  13
ENDBRANCH   9  12
ENDBRANCH   5   7
BRANCH   4  18
ATOM     18  O   UNL d   1       5.744   5.860 -11.914  0.00  0.00    -0.328 OA
ATOM     19  C   UNL d   1       5.595   7.204 -12.360  0.00  0.00     0.181 C 
ENDBRANCH   4  18
BRANCH   1  20
ATOM     20  S   UNL d   1       9.003   1.972 -15.130  0.00  0.00     0.190 S 
ATOM     21  O   UNL d   1      10.441   2.168 -14.802  0.00  0.00    -0.222 OA
ATOM     22  O   UNL d   1       8.579   2.032 -16.517  0.00  0.00    -0.222 OA
BRANCH  20  23
ATOM     23  C   UNL d   1       8.504   0.324 -14.437  0.00  0.00     0.127 C 
ATOM     24  C   UNL d   1       7.044  -0.060 -14.761  0.00  0.00     0.018 C 
ENDBRANCH  20  23
ENDBRANCH   1  20
TORSDOF 6
