REMARK  6 active torsions:
REMARK  status: ('A' for Active; 'I' for Inactive)
REMARK    1  A    between atoms: O_2  and  C_3 
REMARK    2  A    between atoms: N_11  and  C_12 
REMARK    3  A    between atoms: C_12  and  C_13 
REMARK    4  A    between atoms: C_18  and  C_19 
REMARK    5  A    between atoms: C_19  and  N_20 
REMARK       I    between atoms: N_20  and  C_21 
REMARK    6  A    between atoms: C_21  and  C_23 
ROOT
ATOM      1  C   UNL d   1      10.283   1.353 -16.155  0.00  0.00     0.058 A 
ATOM      2  C   UNL d   1      11.322   2.096 -16.790  0.00  0.00     0.005 A 
ATOM      3  C   UNL d   1      11.946   1.571 -17.940  0.00  0.00     0.010 A 
ATOM      4  C   UNL d   1      11.526   0.333 -18.466  0.00  0.00     0.068 A 
ATOM      5  C   UNL d   1      12.168  -0.201 -19.637  0.00  0.00     0.101 C 
ATOM      6  N   UNL d   1      12.689  -0.624 -20.581  0.00  0.00    -0.191 NA
ATOM      7  C   UNL d   1      10.474  -0.395 -17.866  0.00  0.00     0.010 A 
ATOM      8  C   UNL d   1       9.858   0.140 -16.721  0.00  0.00     0.005 A 
ENDROOT
BRANCH   1   9
ATOM      9  C   UNL d   1       9.691   1.789 -14.848  0.00  0.00     0.275 C 
ATOM     10  N   UNL d   1      10.099   2.975 -14.390  0.00  0.00    -0.229 NA
ATOM     11  O   UNL d   1       8.873   1.071 -14.259  0.00  0.00    -0.266 OA
BRANCH  10  12
ATOM     12  C   UNL d   1       9.857   3.548 -13.080  0.00  0.00     0.155 C 
BRANCH  12  13
ATOM     13  C   UNL d   1       8.526   4.300 -12.977  0.00  0.00     0.000 A 
ATOM     14  C   UNL d   1       8.426   5.617 -12.434  0.00  0.00     0.009 A 
ATOM     15  C   UNL d   1       7.160   6.242 -12.357  0.00  0.00    -0.003 A 
ATOM     16  C   UNL d   1       6.013   5.544 -12.792  0.00  0.00    -0.000 A 
ATOM     17  C   UNL d   1       6.108   4.245 -13.308  0.00  0.00    -0.000 A 
ATOM     18  C   UNL d   1       7.346   3.627 -13.387  0.00  0.00    -0.003 A 
BRANCH  14  19
ATOM     19  C   UNL d   1       9.608   6.428 -11.877  0.00  0.00     0.277 C 
BRANCH  19  20
ATOM     20  N   UNL d   1       9.517   6.739 -10.450  0.00  0.00     0.146 N 
ATOM     21  C   UNL d   1      10.757   7.405 -10.034  0.00  0.00     0.277 C 
ATOM     22  C   UNL d   1      10.832   7.686  -8.547  0.00  0.00     0.009 A 
ATOM     23  C   UNL d   1      10.028   6.947  -7.654  0.00  0.00    -0.020 A 
ATOM     24  C   UNL d   1      11.742   8.638  -8.056  0.00  0.00     0.027 A 
ATOM     25  C   UNL d   1      10.125   7.179  -6.266  0.00  0.00     0.022 A 
ATOM     26  C   UNL d   1       9.051   5.927  -8.217  0.00  0.00     0.061 C 
ATOM     27  C   UNL d   1      11.018   8.153  -5.770  0.00  0.00     0.119 A 
ATOM     28  C   UNL d   1      11.823   8.883  -6.669  0.00  0.00     0.153 A 
ATOM     29  O   UNL d   1      12.649   9.860  -6.194  0.00  0.00    -0.188 OA
ATOM     30  C   UNL d   1       9.364   5.521  -9.655  0.00  0.00     0.256 C 
BRANCH  27  31
ATOM     31  O   UNL d   1      11.065   8.399  -4.426  0.00  0.00    -0.326 OA
ATOM     32  C   UNL d   1      12.257   8.031  -3.763  0.00  0.00     0.181 C 
ENDBRANCH  27  31
ENDBRANCH  19  20
ENDBRANCH  14  19
ENDBRANCH  12  13
ENDBRANCH  10  12
ENDBRANCH   1   9
TORSDOF 6
