REMARK  7 active torsions:
REMARK  status: ('A' for Active; 'I' for Inactive)
REMARK    1  A    between atoms: C_3  and  S_4 
REMARK    2  A    between atoms: S_4  and  C_5 
REMARK    3  A    between atoms: C_5  and  C_6 
REMARK    4  A    between atoms: C_6  and  C_7 
REMARK    5  A    between atoms: C_7  and  N_8 
REMARK    6  A    between atoms: C_13  and  C_14 
REMARK    7  A    between atoms: C_25  and  C_26 
ROOT
ATOM      1  C   UNL d   1       7.688   0.811 -16.124  0.00  0.00     0.251 C 
ENDROOT
BRANCH   1   2
ATOM      2  C   UNL d   1       7.697   1.716 -17.370  0.00  0.00     0.047 C 
BRANCH   2   3
ATOM      3  C   UNL d   1       8.265   1.024 -18.615  0.00  0.00     0.067 C 
BRANCH   3   4
ATOM      4  S   UNL d   1       8.596   2.199 -19.964  0.00  0.00    -0.075 SA
BRANCH   4   5
ATOM      5  C   UNL d   1      10.332   2.357 -19.718  0.00  0.00     0.193 A 
ATOM      6  N   UNL d   1      11.213   1.462 -20.207  0.00  0.00    -0.289 N 
ATOM      7  C   UNL d   1      10.935   0.278 -21.006  0.00  0.00     0.134 C 
ATOM      8  C   UNL d   1      12.396   1.956 -19.766  0.00  0.00     0.168 A 
ATOM      9  N   UNL d   1      12.246   3.091 -19.069  0.00  0.00    -0.128 NA
ATOM     10  N   UNL d   1      10.895   3.351 -19.037  0.00  0.00    -0.122 NA
BRANCH   8  11
ATOM     11  C   UNL d   1      13.713   1.360 -20.003  0.00  0.00     0.055 A 
ATOM     12  C   UNL d   1      14.844   2.183 -20.208  0.00  0.00     0.102 A 
ATOM     13  N   UNL d   1      16.085   1.702 -20.441  0.00  0.00    -0.242 NA
ATOM     14  C   UNL d   1      16.250   0.365 -20.487  0.00  0.00     0.099 A 
ATOM     15  C   UNL d   1      15.193  -0.544 -20.305  0.00  0.00     0.021 A 
ATOM     16  C   UNL d   1      13.910  -0.039 -20.038  0.00  0.00     0.006 A 
ENDBRANCH   8  11
ENDBRANCH   4   5
ENDBRANCH   3   4
ENDBRANCH   2   3
ENDBRANCH   1   2
BRANCH   1  17
ATOM     17  N   UNL d   1       6.599   1.129 -15.216  0.00  0.00     0.137 N 
ATOM     18  C   UNL d   1       6.761   2.439 -14.626  0.00  0.00     0.251 C 
ATOM     19  C   UNL d   1       5.881   2.437 -13.396  0.00  0.00     0.038 A 
ATOM     20  C   UNL d   1       5.676   0.985 -13.074  0.00  0.00     0.038 C 
ATOM     21  C   UNL d   1       5.983   3.505 -12.293  0.00  0.00     0.026 A 
ATOM     22  C   UNL d   1       4.759   3.458 -13.203  0.00  0.00     0.007 A 
ATOM     23  C   UNL d   1       6.579   0.247 -14.060  0.00  0.00     0.250 C 
BRANCH  21  24
ATOM     24  C   UNL d   1       6.928   4.649 -12.399  0.00  0.00     0.005 A 
ATOM     25  C   UNL d   1       8.323   4.485 -12.603  0.00  0.00     0.138 A 
ATOM     26  C   UNL d   1       9.159   5.601 -12.750  0.00  0.00     0.059 A 
ATOM     27  F   UNL d   1       8.917   3.269 -12.713  0.00  0.00    -0.204 F 
ATOM     28  C   UNL d   1       8.628   6.897 -12.648  0.00  0.00     0.142 A 
ATOM     29  C   UNL d   1       7.252   7.078 -12.445  0.00  0.00     0.029 A 
ATOM     30  F   UNL d   1       9.453   7.968 -12.725  0.00  0.00    -0.204 F 
ATOM     31  C   UNL d   1       6.407   5.963 -12.314  0.00  0.00     0.000 A 
ENDBRANCH  21  24
ENDBRANCH   1  17
TORSDOF 7
