REMARK  3 active torsions:
REMARK  status: ('A' for Active; 'I' for Inactive)
REMARK    1  A    between atoms: C_5  and  C_6 
REMARK    2  A    between atoms: C_6  and  C_7 
REMARK    3  A    between atoms: C_7  and  N_8 
ROOT
ATOM      1  N   UNL d   1       9.106   6.302 -10.660  0.00  0.00     0.138 N 
ATOM      2  C   UNL d   1       8.674   7.066 -11.842  0.00  0.00     0.253 C 
ATOM      3  C   UNL d   1       7.321   6.565 -12.385  0.00  0.00     0.063 C 
ATOM      4  C   UNL d   1       7.393   5.071 -12.745  0.00  0.00     0.103 C 
ATOM      5  C   UNL d   1       6.020   4.475 -13.127  0.00  0.00     0.033 C 
ATOM      6  C   UNL d   1       6.135   2.997 -13.510  0.00  0.00     0.031 C 
ATOM      7  C   UNL d   1       7.384   2.720 -14.337  0.00  0.00     0.002 A 
ATOM      8  C   UNL d   1       7.527   1.484 -14.993  0.00  0.00    -0.002 A 
ATOM      9  C   UNL d   1       8.675   1.215 -15.757  0.00  0.00     0.002 A 
ATOM     10  C   UNL d   1       9.677   2.185 -15.871  0.00  0.00     0.032 A 
ATOM     11  C   UNL d   1       9.551   3.417 -15.209  0.00  0.00     0.162 A 
ATOM     12  F   UNL d   1      10.540   4.356 -15.327  0.00  0.00    -0.202 F 
ATOM     13  C   UNL d   1       8.405   3.675 -14.435  0.00  0.00     0.117 A 
ATOM     14  O   UNL d   1       8.315   4.937 -13.825  0.00  0.00    -0.334 OA
ATOM     15  C   UNL d   1       7.992   4.372 -11.527  0.00  0.00     0.063 C 
ATOM     16  C   UNL d   1       9.306   4.918 -11.027  0.00  0.00     0.253 C 
ENDROOT
BRANCH   1  17
ATOM     17  C   UNL d   1      10.327   6.818 -10.078  0.00  0.00     0.255 C 
BRANCH  17  18
ATOM     18  C   UNL d   1      10.098   8.158  -9.373  0.00  0.00     0.064 C 
BRANCH  18  19
ATOM     19  C   UNL d   1      10.469   8.083  -7.915  0.00  0.00     0.007 A 
ATOM     20  C   UNL d   1      11.477   8.921  -7.406  0.00  0.00     0.000 A 
ATOM     21  C   UNL d   1      11.812   8.867  -6.042  0.00  0.00     0.029 A 
ATOM     22  C   UNL d   1      11.185   7.938  -5.197  0.00  0.00     0.142 A 
ATOM     23  F   UNL d   1      11.552   7.847  -3.900  0.00  0.00    -0.204 F 
ATOM     24  C   UNL d   1      10.190   7.093  -5.711  0.00  0.00     0.059 A 
ATOM     25  C   UNL d   1       9.815   7.170  -7.060  0.00  0.00     0.138 A 
ATOM     26  F   UNL d   1       8.838   6.352  -7.526  0.00  0.00    -0.204 F 
ENDBRANCH  18  19
ENDBRANCH  17  18
ENDBRANCH   1  17
TORSDOF 3
