REMARK  7 active torsions:
REMARK  status: ('A' for Active; 'I' for Inactive)
REMARK    1  A    between atoms: C_2  and  O_3 
REMARK    2  A    between atoms: O_3  and  N_4 
REMARK    3  A    between atoms: C_5  and  C_6 
REMARK    4  A    between atoms: C_5  and  C_20 
REMARK    5  A    between atoms: C_6  and  C_7 
REMARK    6  A    between atoms: C_7  and  N_8 
REMARK    7  A    between atoms: N_11  and  C_12 
ROOT
ATOM      1  C   UNL d   1       9.220   5.118 -11.100  0.00  0.00     0.257 C 
ENDROOT
BRANCH   1   2
ATOM      2  C   UNL d   1       8.335   5.532 -12.279  0.00  0.00     0.083 C 
BRANCH   2   3
ATOM      3  C   UNL d   1       8.423   4.477 -13.402  0.00  0.00     0.087 C 
ATOM      4  N   UNL d   1       9.417   4.426 -14.199  0.00  0.00    -0.136 NA
BRANCH   4   5
ATOM      5  O   UNL d   1      10.361   5.452 -14.022  0.00  0.00    -0.237 OA
BRANCH   5   6
ATOM      6  C   UNL d   1      11.368   5.334 -15.022  0.00  0.00     0.176 C 
ATOM      7  C   UNL d   1      10.878   5.426 -16.487  0.00  0.00     0.038 C 
ENDBRANCH   5   6
ENDBRANCH   4   5
BRANCH   3   8
ATOM      8  C   UNL d   1       7.365   3.425 -13.499  0.00  0.00     0.016 A 
ATOM      9  C   UNL d   1       7.645   2.170 -14.126  0.00  0.00     0.001 A 
ATOM     10  C   UNL d   1       6.701   1.113 -14.130  0.00  0.00     0.000 A 
ATOM     11  C   UNL d   1       5.464   1.288 -13.491  0.00  0.00     0.000 A 
ATOM     12  C   UNL d   1       5.175   2.519 -12.862  0.00  0.00     0.000 A 
ATOM     13  C   UNL d   1       6.092   3.581 -12.899  0.00  0.00     0.001 A 
ENDBRANCH   3   8
ENDBRANCH   2   3
ENDBRANCH   1   2
BRANCH   1  14
ATOM     14  N   UNL d   1       9.031   6.005  -9.969  0.00  0.00     0.141 N 
ATOM     15  C   UNL d   1       9.918   7.172 -10.048  0.00  0.00     0.274 C 
ATOM     16  C   UNL d   1       9.671   8.171  -8.894  0.00  0.00     0.137 C 
ATOM     17  N   UNL d   1       9.764   7.466  -7.621  0.00  0.00    -0.344 N 
ATOM     18  C   UNL d   1       8.905   6.302  -7.529  0.00  0.00     0.137 C 
ATOM     19  C   UNL d   1       9.208   5.330  -8.685  0.00  0.00     0.274 C 
BRANCH  17  20
ATOM     20  C   UNL d   1      10.578   7.906  -6.543  0.00  0.00     0.056 A 
ATOM     21  C   UNL d   1      11.016   7.026  -5.527  0.00  0.00     0.017 A 
ATOM     22  C   UNL d   1      11.822   7.474  -4.460  0.00  0.00     0.002 A 
ATOM     23  C   UNL d   1      12.229   8.818  -4.411  0.00  0.00     0.000 A 
ATOM     24  C   UNL d   1      11.807   9.704  -5.421  0.00  0.00     0.002 A 
ATOM     25  C   UNL d   1      10.982   9.257  -6.468  0.00  0.00     0.017 A 
ENDBRANCH  17  20
ENDBRANCH   1  14
TORSDOF 7
