REMARK  6 active torsions:
REMARK  status: ('A' for Active; 'I' for Inactive)
REMARK    1  A    between atoms: C_5  and  C_6 
REMARK       I    between atoms: C_6  and  N_8 
REMARK    2  A    between atoms: N_8  and  C_9 
REMARK    3  A    between atoms: C_12  and  C_13 
REMARK    4  A    between atoms: C_13  and  C_14 
REMARK    5  A    between atoms: C_14  and  N_15 
REMARK    6  A    between atoms: N_18  and  C_19 
ROOT
ATOM      1  C   UNL d   1       9.205   5.000 -12.982  0.00  0.00     0.035 C 
ENDROOT
BRANCH   1   2
ATOM      2  C   UNL d   1       9.559   5.598 -11.622  0.00  0.00     0.002 C 
ATOM      3  C   UNL d   1       9.008   7.010 -11.442  0.00  0.00     0.002 C 
ATOM      4  C   UNL d   1       9.483   7.586 -10.091  0.00  0.00     0.024 C 
ATOM      5  C   UNL d   1       9.027   6.673  -8.910  0.00  0.00     0.106 C 
ATOM      6  C   UNL d   1       9.512   5.227  -9.076  0.00  0.00     0.024 C 
ATOM      7  C   UNL d   1       9.126   4.689 -10.454  0.00  0.00     0.002 C 
BRANCH   5   8
ATOM      8  N   UNL d   1       9.328   7.242  -7.599  0.00  0.00    -0.240 NA
ATOM      9  C   UNL d   1      10.557   7.372  -7.096  0.00  0.00     0.251 C 
ATOM     10  O   UNL d   1      11.579   7.204  -7.751  0.00  0.00    -0.271 OA
BRANCH   9  11
ATOM     11  C   UNL d   1      10.666   7.688  -5.623  0.00  0.00     0.085 C 
ATOM     12  C   UNL d   1      11.398   9.023  -5.425  0.00  0.00     0.045 C 
ATOM     13  C   UNL d   1      11.607   9.272  -3.927  0.00  0.00     0.251 C 
ATOM     14  N   UNL d   1      12.364   8.187  -3.307  0.00  0.00     0.139 N 
ATOM     15  C   UNL d   1      12.535   8.486  -1.899  0.00  0.00     0.285 C 
ATOM     16  C   UNL d   1      11.662   6.894  -3.417  0.00  0.00     0.251 C 
ATOM     17  C   UNL d   1      11.430   6.569  -4.899  0.00  0.00     0.045 C 
ENDBRANCH   9  11
ENDBRANCH   5   8
ENDBRANCH   1   2
BRANCH   1  18
ATOM     18  C   UNL d   1       9.763   3.579 -13.241  0.00  0.00     0.250 C 
BRANCH  18  19
ATOM     19  N   UNL d   1       9.609   3.155 -14.635  0.00  0.00     0.141 N 
ATOM     20  C   UNL d   1      10.195   1.821 -14.822  0.00  0.00     0.274 C 
ATOM     21  C   UNL d   1      10.069   1.362 -16.297  0.00  0.00     0.137 C 
ATOM     22  N   UNL d   1       8.675   1.410 -16.695  0.00  0.00    -0.343 N 
ATOM     23  C   UNL d   1       8.014   2.668 -16.456  0.00  0.00     0.137 C 
ATOM     24  C   UNL d   1       8.188   3.063 -14.973  0.00  0.00     0.274 C 
BRANCH  22  25
ATOM     25  C   UNL d   1       8.004   0.356 -17.307  0.00  0.00     0.081 A 
ATOM     26  C   UNL d   1       8.537  -0.283 -18.441  0.00  0.00     0.135 A 
ATOM     27  C   UNL d   1       7.889  -1.326 -19.055  0.00  0.00     0.121 A 
ATOM     28  O   UNL d   1       9.671   0.021 -19.122  0.00  0.00    -0.298 OA
ATOM     29  C   UNL d   1       6.667  -1.830 -18.581  0.00  0.00     0.026 A 
ATOM     30  O   UNL d   1       8.607  -1.730 -20.141  0.00  0.00    -0.299 OA
ATOM     31  C   UNL d   1       6.098  -1.194 -17.443  0.00  0.00     0.004 A 
ATOM     32  C   UNL d   1       6.757  -0.106 -16.828  0.00  0.00     0.019 A 
ATOM     33  C   UNL d   1       9.722  -0.881 -20.191  0.00  0.00     0.304 A 
ENDBRANCH  22  25
ENDBRANCH  18  19
ENDBRANCH   1  18
TORSDOF 6
