REMARK  5 active torsions:
REMARK  status: ('A' for Active; 'I' for Inactive)
REMARK    1  A    between atoms: C_2  and  C_3 
REMARK    2  A    between atoms: C_2  and  C_17 
REMARK    3  A    between atoms: C_3  and  C_4 
REMARK    4  A    between atoms: C_4  and  C_5 
REMARK    5  A    between atoms: C_5  and  N_6 
ROOT
ATOM      1  C   UNL d   1       9.579   5.406 -11.907  0.00  0.00     0.251 C 
ENDROOT
BRANCH   1   2
ATOM      2  C   UNL d   1       8.458   5.934 -10.984  0.00  0.00     0.043 C 
BRANCH   2   3
ATOM      3  C   UNL d   1       8.961   6.230  -9.563  0.00  0.00     0.071 C 
BRANCH   3   4
ATOM      4  C   UNL d   1       9.872   7.459  -9.424  0.00  0.00     0.173 C 
ATOM      5  O   UNL d   1      10.170   8.135 -10.410  0.00  0.00    -0.291 OA
BRANCH   4   6
ATOM      6  C   UNL d   1      10.359   7.788  -8.057  0.00  0.00     0.035 A 
ATOM      7  C   UNL d   1      10.154   6.925  -6.953  0.00  0.00     0.004 A 
ATOM      8  C   UNL d   1      10.652   7.271  -5.682  0.00  0.00     0.011 A 
ATOM      9  C   UNL d   1      11.342   8.484  -5.498  0.00  0.00     0.058 A 
ATOM     10  C   UNL d   1      11.552   9.345  -6.591  0.00  0.00     0.011 A 
ATOM     11 CL   UNL d   1      11.932   8.920  -3.937  0.00  0.00    -0.082 Cl
ATOM     12  C   UNL d   1      11.069   8.991  -7.865  0.00  0.00     0.004 A 
ENDBRANCH   4   6
ENDBRANCH   3   4
ENDBRANCH   2   3
ENDBRANCH   1   2
BRANCH   1  13
ATOM     13  N   UNL d   1       9.098   4.872 -13.179  0.00  0.00     0.138 N 
ATOM     14  C   UNL d   1       8.477   3.567 -12.929  0.00  0.00     0.255 C 
ATOM     15  C   UNL d   1       7.567   3.104 -14.063  0.00  0.00     0.061 C 
ATOM     16  C   UNL d   1       8.291   2.470 -15.242  0.00  0.00    -0.024 A 
ATOM     17  C   UNL d   1       9.337   3.121 -15.923  0.00  0.00    -0.024 A 
ATOM     18  C   UNL d   1       7.848   1.193 -15.671  0.00  0.00    -0.004 A 
ATOM     19  C   UNL d   1       9.839   4.513 -15.541  0.00  0.00     0.061 C 
ATOM     20  C   UNL d   1       9.935   2.489 -17.044  0.00  0.00    -0.004 A 
ATOM     21  C   UNL d   1      10.242   4.692 -14.072  0.00  0.00     0.255 C 
ATOM     22  C   UNL d   1       9.487   1.228 -17.466  0.00  0.00    -0.000 A 
ATOM     23  C   UNL d   1       8.447   0.578 -16.782  0.00  0.00    -0.000 A 
ENDBRANCH   1  13
TORSDOF 5
