REMARK  10 active torsions:
REMARK  status: ('A' for Active; 'I' for Inactive)
REMARK    1  A    between atoms: O_2  and  C_3 
REMARK    2  A    between atoms: C_8  and  C_9 
REMARK    3  A    between atoms: C_11  and  C_12 
REMARK    4  A    between atoms: C_12  and  N_13 
REMARK    5  A    between atoms: N_13  and  C_14 
REMARK    6  A    between atoms: C_14  and  C_15 
REMARK    7  A    between atoms: C_15  and  C_16 
REMARK    8  A    between atoms: C_16  and  C_17 
REMARK    9  A    between atoms: C_17  and  O_18 
REMARK   10  A    between atoms: O_18  and  C_19 
ROOT
ATOM      1  C   UNL d   1       9.973   7.791 -11.172  0.00  0.00     0.041 C 
ENDROOT
BRANCH   1   2
ATOM      2  C   UNL d   1       8.617   7.235 -11.488  0.00  0.00     0.290 C 
BRANCH   2   3
ATOM      3  N   UNL d   1       8.642   6.322 -12.608  0.00  0.00     0.339 N 
BRANCH   3   4
ATOM      4  C   UNL d   1       7.272   5.885 -12.814  0.00  0.00     0.290 C 
BRANCH   4   5
ATOM      5  C   UNL d   1       7.302   4.792 -13.843  0.00  0.00     0.041 A 
ATOM      6  C   UNL d   1       7.273   3.364 -13.429  0.00  0.00     0.026 A 
ATOM      7  C   UNL d   1       6.069   3.961 -14.092  0.00  0.00     0.007 A 
BRANCH   6   8
ATOM      8  C   UNL d   1       8.183   2.387 -14.127  0.00  0.00    -0.000 A 
ATOM      9  C   UNL d   1       7.652   1.198 -14.679  0.00  0.00     0.090 A 
ATOM     10  C   UNL d   1       8.522   0.322 -15.359  0.00  0.00     0.024 A 
ATOM     11  C   UNL d   1       9.901   0.586 -15.453  0.00  0.00     0.002 A 
ATOM     12  C   UNL d   1      10.428   1.753 -14.875  0.00  0.00    -0.000 A 
ATOM     13  C   UNL d   1       9.571   2.650 -14.215  0.00  0.00    -0.002 A 
BRANCH   9  14
ATOM     14  O   UNL d   1       6.300   0.971 -14.526  0.00  0.00    -0.328 OA
ATOM     15  C   UNL d   1       5.751  -0.235 -15.046  0.00  0.00     0.181 C 
ENDBRANCH   9  14
ENDBRANCH   6   8
ENDBRANCH   4   5
ENDBRANCH   3   4
ENDBRANCH   2   3
ENDBRANCH   1   2
BRANCH   1  16
ATOM     16  C   UNL d   1       9.959   8.642  -9.890  0.00  0.00     0.035 C 
BRANCH  16  17
ATOM     17  C   UNL d   1      11.398   8.918  -9.425  0.00  0.00     0.149 C 
BRANCH  17  18
ATOM     18  O   UNL d   1      11.385   9.548  -8.156  0.00  0.00    -0.331 OA
BRANCH  18  19
ATOM     19  C   UNL d   1      11.459   8.773  -7.028  0.00  0.00     0.096 A 
ATOM     20  C   UNL d   1      11.965   9.362  -5.839  0.00  0.00     0.043 A 
ATOM     21  C   UNL d   1      12.023   8.599  -4.651  0.00  0.00     0.082 A 
ATOM     22  C   UNL d   1      11.577   7.268  -4.683  0.00  0.00    -0.004 A 
ATOM     23  N   UNL d   1      12.621   9.081  -3.450  0.00  0.00    -0.212 NA
ATOM     24  C   UNL d   1      11.061   6.706  -5.854  0.00  0.00    -0.001 A 
ATOM     25  C   UNL d   1      11.754   6.393  -3.492  0.00  0.00     0.038 C 
ATOM     26  C   UNL d   1      11.036   7.430  -7.035  0.00  0.00     0.024 A 
ATOM     27  C   UNL d   1      11.700   7.176  -2.199  0.00  0.00     0.095 C 
ATOM     28  C   UNL d   1      12.557   8.434  -2.271  0.00  0.00     0.256 C 
ATOM     29  O   UNL d   1      13.141   8.800  -1.264  0.00  0.00    -0.270 OA
ENDBRANCH  18  19
ENDBRANCH  17  18
ENDBRANCH  16  17
ENDBRANCH   1  16
TORSDOF 10
