REMARK  4 active torsions:
REMARK  status: ('A' for Active; 'I' for Inactive)
REMARK    1  A    between atoms: N_2  and  C_4 
REMARK    2  A    between atoms: C_4  and  C_5 
REMARK    3  A    between atoms: C_5  and  C_6 
REMARK    4  A    between atoms: C_6  and  C_7 
ROOT
ATOM      1  C   UNL d   1       8.673   1.735 -15.018  0.00  0.00     0.174 A 
ATOM      2  O   UNL d   1      10.057   1.545 -14.668  0.00  0.00    -0.322 OA
ATOM      3  C   UNL d   1      10.841   1.849 -15.755  0.00  0.00     0.120 A 
ATOM      4  C   UNL d   1      10.166   2.187 -16.854  0.00  0.00     0.066 A 
ATOM      5  C   UNL d   1       8.771   2.112 -16.499  0.00  0.00     0.204 A 
ATOM      6  O   UNL d   1       7.811   2.301 -17.250  0.00  0.00    -0.288 OA
ENDROOT
BRANCH   1   7
ATOM      7  C   UNL d   1       7.986   0.343 -14.814  0.00  0.00     0.075 C 
BRANCH   7   8
ATOM      8  C   UNL d   1       6.523   0.177 -15.339  0.00  0.00     0.254 C 
BRANCH   8   9
ATOM      9  N   UNL d   1       5.658  -0.444 -14.329  0.00  0.00     0.141 N 
ATOM     10  C   UNL d   1       5.314   0.412 -13.190  0.00  0.00     0.285 C 
ATOM     11  C   UNL d   1       4.394  -0.857 -14.943  0.00  0.00     0.285 C 
ENDBRANCH   8   9
ENDBRANCH   7   8
ENDBRANCH   1   7
BRANCH   1  12
ATOM     12  C   UNL d   1       8.028   2.866 -14.198  0.00  0.00     0.009 A 
ATOM     13  C   UNL d   1       8.851   3.858 -13.573  0.00  0.00    -0.002 A 
ATOM     14  C   UNL d   1       8.232   4.899 -12.798  0.00  0.00    -0.000 A 
ATOM     15  C   UNL d   1       6.819   4.939 -12.615  0.00  0.00    -0.000 A 
ATOM     16  C   UNL d   1       6.041   3.941 -13.248  0.00  0.00    -0.000 A 
ATOM     17  C   UNL d   1       6.612   2.987 -14.044  0.00  0.00    -0.002 A 
ENDBRANCH   1  12
TORSDOF 4
