REMARK  2 active torsions:
REMARK  status: ('A' for Active; 'I' for Inactive)
REMARK    1  A    between atoms: O_2  and  C_3 
REMARK    2  A    between atoms: C_8  and  C_9 
ROOT
ATOM      1  C   UNL d   1       5.921  -0.624 -16.625  0.00  0.00     0.002 C 
ATOM      2  C   UNL d   1       4.645  -1.235 -16.570  0.00  0.00     0.000 C 
ATOM      3  C   UNL d   1       3.775  -1.050 -15.488  0.00  0.00    -0.000 C 
ATOM      4  C   UNL d   1       4.147  -0.198 -14.444  0.00  0.00    -0.004 C 
ATOM      5  C   UNL d   1       5.423   0.407 -14.463  0.00  0.00    -0.020 C 
ATOM      6  C   UNL d   1       6.355   0.147 -15.493  0.00  0.00    -0.004 C 
ATOM      7  C   UNL d   1       7.711   0.751 -15.322  0.00  0.00    -0.003 A 
ATOM      8  C   UNL d   1       8.903   0.169 -15.833  0.00  0.00    -0.000 A 
ATOM      9  C   UNL d   1      10.163   0.780 -15.742  0.00  0.00    -0.000 A 
ATOM     10  C   UNL d   1      10.300   2.009 -15.076  0.00  0.00    -0.004 A 
ATOM     11  C   UNL d   1       9.178   2.609 -14.489  0.00  0.00    -0.022 A 
ATOM     12  C   UNL d   1       7.914   1.968 -14.618  0.00  0.00     0.005 A 
ATOM     13  C   UNL d   1       6.654   2.590 -13.979  0.00  0.00     0.246 C 
ATOM     14  C   UNL d   1       5.748   1.456 -13.416  0.00  0.00     0.064 C 
ATOM     15  N   UNL d   1       6.918   3.627 -12.961  0.00  0.00     0.142 N 
ATOM     16  C   UNL d   1       5.727   4.331 -12.518  0.00  0.00     0.286 C 
ATOM     17  C   UNL d   1       7.868   4.585 -13.492  0.00  0.00     0.255 C 
ATOM     18  C   UNL d   1       9.214   3.887 -13.669  0.00  0.00     0.061 C 
ENDROOT
BRANCH   1  19
ATOM     19  C   UNL d   1       6.709  -0.827 -17.876  0.00  0.00     0.022 A 
ATOM     20  C   UNL d   1       7.348   0.240 -18.574  0.00  0.00     0.094 A 
ATOM     21  C   UNL d   1       8.159  -0.049 -19.698  0.00  0.00     0.024 A 
ATOM     22  C   UNL d   1       8.267  -1.358 -20.195  0.00  0.00     0.002 A 
ATOM     23  C   UNL d   1       7.580  -2.403 -19.561  0.00  0.00     0.000 A 
ATOM     24  C   UNL d   1       6.819  -2.134 -18.414  0.00  0.00     0.002 A 
BRANCH  20  25
ATOM     25  O   UNL d   1       7.174   1.538 -18.134  0.00  0.00    -0.328 OA
ATOM     26  C   UNL d   1       8.245   2.454 -18.330  0.00  0.00     0.181 C 
ENDBRANCH  20  25
ENDBRANCH   1  19
TORSDOF 2
