REMARK  0 active torsions:
REMARK  status: ('A' for Active; 'I' for Inactive)
ROOT
ATOM      1  O   UNL d   1      12.271   7.009  -2.549  0.00  0.00    -0.188 OA
ATOM      2  C   UNL d   1      11.859   7.526  -3.747  0.00  0.00     0.158 A 
ATOM      3  C   UNL d   1      11.537   6.670  -4.814  0.00  0.00     0.030 A 
ATOM      4  C   UNL d   1      11.058   7.192  -6.029  0.00  0.00     0.004 A 
ATOM      5  C   UNL d   1      10.900   8.581  -6.188  0.00  0.00     0.030 A 
ATOM      6  C   UNL d   1      11.221   9.442  -5.123  0.00  0.00     0.158 A 
ATOM      7  O   UNL d   1      11.059  10.787  -5.255  0.00  0.00    -0.188 OA
ATOM      8  C   UNL d   1      11.683   8.913  -3.900  0.00  0.00     0.181 A 
ATOM      9  O   UNL d   1      11.896   9.742  -2.842  0.00  0.00    -0.186 OA
ENDROOT
TORSDOF 0
