REMARK  5 active torsions:
REMARK  status: ('A' for Active; 'I' for Inactive)
REMARK    1  A    between atoms: O_2  and  C_3 
REMARK    2  A    between atoms: C_9  and  C_10 
REMARK    3  A    between atoms: C_11  and  C_12 
REMARK    4  A    between atoms: C_15  and  S_16 
REMARK    5  A    between atoms: S_16  and  C_19 
ROOT
ATOM      1  C   UNL d   1       9.492   6.997  -8.609  0.00  0.00     0.082 A 
ATOM      2  C   UNL d   1      10.873   7.262  -8.699  0.00  0.00     0.020 A 
ATOM      3  C   UNL d   1      11.482   8.101  -7.753  0.00  0.00     0.015 A 
ATOM      4  C   UNL d   1      10.660   8.713  -6.783  0.00  0.00     0.107 A 
ATOM      5  C   UNL d   1       9.293   8.406  -6.769  0.00  0.00     0.110 A 
ATOM      6  N   UNL d   1       8.738   7.525  -7.613  0.00  0.00    -0.243 NA
ENDROOT
BRANCH   1   7
ATOM      7  C   UNL d   1       8.777   6.222  -9.634  0.00  0.00     0.019 C 
ATOM      8  C   UNL d   1       9.250   5.948 -10.873  0.00  0.00     0.004 C 
BRANCH   8   9
ATOM      9  C   UNL d   1       8.591   5.146 -11.925  0.00  0.00     0.022 A 
ATOM     10  C   UNL d   1       9.341   4.689 -13.047  0.00  0.00     0.096 A 
ATOM     11  C   UNL d   1       8.713   3.868 -14.019  0.00  0.00     0.054 A 
ATOM     12  C   UNL d   1       7.361   3.512 -13.889  0.00  0.00     0.142 A 
ATOM     13  F   UNL d   1       6.774   2.729 -14.822  0.00  0.00    -0.204 F 
ATOM     14  C   UNL d   1       6.620   3.973 -12.787  0.00  0.00     0.030 A 
ATOM     15  C   UNL d   1       7.236   4.774 -11.808  0.00  0.00     0.004 A 
BRANCH  10  16
ATOM     16  O   UNL d   1      10.648   5.085 -13.164  0.00  0.00    -0.328 OA
ATOM     17  C   UNL d   1      11.524   4.348 -14.008  0.00  0.00     0.181 C 
ENDBRANCH  10  16
ENDBRANCH   8   9
ENDBRANCH   1   7
BRANCH   4  18
ATOM     18  S   UNL d   1      11.385   9.714  -5.491  0.00  0.00     0.214 S 
ATOM     19  O   UNL d   1      12.643  10.236  -6.025  0.00  0.00    -0.217 OA
ATOM     20  O   UNL d   1      10.369  10.598  -4.908  0.00  0.00    -0.217 OA
BRANCH  18  21
ATOM     21  C   UNL d   1      11.768   8.587  -4.193  0.00  0.00     0.115 A 
ATOM     22  C   UNL d   1      11.976   9.084  -2.894  0.00  0.00     0.151 A 
ATOM     23  C   UNL d   1      12.294   8.212  -1.836  0.00  0.00     0.030 A 
ATOM     24  F   UNL d   1      11.862  10.393  -2.666  0.00  0.00    -0.203 F 
ATOM     25  C   UNL d   1      12.415   6.836  -2.108  0.00  0.00     0.002 A 
ATOM     26  C   UNL d   1      12.251   6.380  -3.417  0.00  0.00     0.001 A 
ATOM     27  C   UNL d   1      11.875   7.218  -4.462  0.00  0.00     0.014 A 
ENDBRANCH  18  21
ENDBRANCH   4  18
TORSDOF 5
