REMARK  7 active torsions:
REMARK  status: ('A' for Active; 'I' for Inactive)
REMARK    1  A    between atoms: N_2  and  S_4 
REMARK    2  A    between atoms: S_4  and  N_7 
REMARK    3  A    between atoms: N_7  and  C_8 
REMARK    4  A    between atoms: C_11  and  C_12 
REMARK    5  A    between atoms: C_12  and  C_13 
REMARK    6  A    between atoms: C_13  and  N_14 
REMARK    7  A    between atoms: N_17  and  C_18 
ROOT
ATOM      1  N   UNL d   1       7.628   5.157 -12.007  0.00  0.00     0.141 N 
ATOM      2  C   UNL d   1       8.687   4.310 -12.579  0.00  0.00     0.274 C 
ATOM      3  C   UNL d   1       8.333   3.934 -14.013  0.00  0.00     0.138 C 
ATOM      4  N   UNL d   1       7.042   3.269 -14.046  0.00  0.00    -0.330 N 
ATOM      5  C   UNL d   1       5.949   4.000 -13.426  0.00  0.00     0.138 C 
ATOM      6  C   UNL d   1       6.351   4.410 -12.001  0.00  0.00     0.274 C 
ENDROOT
BRANCH   1   7
ATOM      7  C   UNL d   1       7.969   5.514 -10.633  0.00  0.00     0.250 C 
BRANCH   7   8
ATOM      8  C   UNL d   1       9.153   6.508 -10.535  0.00  0.00     0.035 C 
BRANCH   8   9
ATOM      9  C   UNL d   1       9.829   6.520  -9.152  0.00  0.00     0.002 C 
ATOM     10  C   UNL d   1      11.024   7.500  -9.131  0.00  0.00     0.002 C 
ATOM     11  C   UNL d   1      11.733   7.506  -7.768  0.00  0.00     0.025 C 
ATOM     12  C   UNL d   1      10.741   7.833  -6.650  0.00  0.00     0.117 C 
ATOM     13  C   UNL d   1       9.580   6.836  -6.659  0.00  0.00     0.025 C 
ATOM     14  C   UNL d   1       8.856   6.841  -8.000  0.00  0.00     0.002 C 
BRANCH  12  15
ATOM     15  N   UNL d   1      11.414   7.718  -5.366  0.00  0.00    -0.173 NA
BRANCH  15  16
ATOM     16  S   UNL d   1      11.800   9.098  -4.432  0.00  0.00     0.340 S 
ATOM     17  O   UNL d   1      10.666  10.036  -4.453  0.00  0.00    -0.181 OA
ATOM     18  O   UNL d   1      13.135   9.566  -4.824  0.00  0.00    -0.181 OA
BRANCH  16  19
ATOM     19  N   UNL d   1      11.886   8.375  -2.857  0.00  0.00    -0.257 N 
ATOM     20  C   UNL d   1      12.139   6.931  -2.697  0.00  0.00     0.140 C 
ATOM     21  C   UNL d   1      12.569   9.170  -1.842  0.00  0.00     0.140 C 
ENDBRANCH  16  19
ENDBRANCH  15  16
ENDBRANCH  12  15
ENDBRANCH   8   9
ENDBRANCH   7   8
ENDBRANCH   1   7
BRANCH   4  22
ATOM     22  C   UNL d   1       6.851   2.037 -14.695  0.00  0.00     0.142 A 
ATOM     23  C   UNL d   1       7.604   1.659 -15.852  0.00  0.00     0.059 A 
ATOM     24  C   UNL d   1       7.295   0.394 -16.412  0.00  0.00     0.104 A 
ATOM     25  C   UNL d   1       8.642   2.207 -16.694  0.00  0.00     0.032 A 
ATOM     26  C   UNL d   1       6.298  -0.424 -15.892  0.00  0.00     0.045 A 
ATOM     27  O   UNL d   1       8.126   0.149 -17.490  0.00  0.00    -0.305 OA
ATOM     28  C   UNL d   1       5.616   0.041 -14.767  0.00  0.00     0.103 A 
ATOM     29  N   UNL d   1       5.896   1.221 -14.181  0.00  0.00    -0.227 NA
ATOM     30  C   UNL d   1       8.924   1.249 -17.635  0.00  0.00     0.123 A 
ENDBRANCH   4  22
TORSDOF 7
