REMARK  4 active torsions:
REMARK  status: ('A' for Active; 'I' for Inactive)
REMARK    1  A    between atoms: N_7  and  C_8 
REMARK    2  A    between atoms: C_8  and  C_9 
REMARK    3  A    between atoms: C_9  and  C_10 
REMARK    4  A    between atoms: C_20  and  C_21 
ROOT
ATOM      1  O   UNL d   1       6.891   6.274 -12.397  0.00  0.00    -0.296 OA
ATOM      2  C   UNL d   1       7.511   5.220 -12.457  0.00  0.00     0.159 C 
ATOM      3  C   UNL d   1       7.275   4.234 -13.587  0.00  0.00     0.092 C 
ATOM      4  C   UNL d   1       8.596   3.606 -14.065  0.00  0.00     0.104 C 
ATOM      5  C   UNL d   1       9.508   4.565 -14.856  0.00  0.00     0.063 C 
ATOM      6  C   UNL d   1      10.744   3.817 -15.373  0.00  0.00     0.253 C 
ATOM      7  N   UNL d   1      10.336   2.750 -16.279  0.00  0.00     0.138 N 
ATOM      8  C   UNL d   1       9.515   1.756 -15.573  0.00  0.00     0.253 C 
ATOM      9  C   UNL d   1       8.265   2.429 -15.006  0.00  0.00     0.063 C 
ATOM     10  O   UNL d   1       9.313   3.073 -12.958  0.00  0.00    -0.358 OA
ATOM     11  C   UNL d   1       9.693   4.010 -11.967  0.00  0.00     0.154 C 
ATOM     12  C   UNL d   1       8.475   4.745 -11.365  0.00  0.00     0.110 C 
ENDROOT
BRANCH  12  13
ATOM     13  C   UNL d   1       8.966   5.884 -10.478  0.00  0.00    -0.013 A 
ATOM     14  C   UNL d   1       9.504   7.053 -11.060  0.00  0.00    -0.002 A 
ATOM     15  C   UNL d   1       9.953   8.120 -10.257  0.00  0.00     0.029 A 
ATOM     16  C   UNL d   1       9.865   8.033  -8.854  0.00  0.00     0.140 A 
ATOM     17  C   UNL d   1       9.335   6.867  -8.260  0.00  0.00     0.029 A 
ATOM     18  F   UNL d   1      10.231   9.087  -8.087  0.00  0.00    -0.204 F 
ATOM     19  C   UNL d   1       8.884   5.802  -9.068  0.00  0.00    -0.002 A 
ENDBRANCH  12  13
BRANCH   7  20
ATOM     20  C   UNL d   1      11.517   2.099 -16.855  0.00  0.00     0.255 C 
BRANCH  20  21
ATOM     21  C   UNL d   1      11.214   1.577 -18.268  0.00  0.00     0.062 C 
BRANCH  21  22
ATOM     22  C   UNL d   1      12.405   0.904 -18.917  0.00  0.00    -0.020 A 
ATOM     23  C   UNL d   1      12.457  -0.501 -19.027  0.00  0.00    -0.004 A 
ATOM     24  C   UNL d   1      13.565  -1.123 -19.636  0.00  0.00    -0.000 A 
ATOM     25  C   UNL d   1      14.629  -0.344 -20.128  0.00  0.00    -0.000 A 
ATOM     26  C   UNL d   1      14.579   1.059 -20.023  0.00  0.00    -0.000 A 
ATOM     27  C   UNL d   1      13.469   1.683 -19.421  0.00  0.00    -0.004 A 
ENDBRANCH  21  22
ENDBRANCH  20  21
ENDBRANCH   7  20
TORSDOF 4
