REMARK  8 active torsions:
REMARK  status: ('A' for Active; 'I' for Inactive)
REMARK    1  A    between atoms: C_2  and  C_3 
REMARK       I    between atoms: C_2  and  N_21 
REMARK    2  A    between atoms: C_3  and  C_4 
REMARK    3  A    between atoms: C_4  and  C_5 
REMARK    4  A    between atoms: C_5  and  C_6 
REMARK    5  A    between atoms: C_6  and  C_7 
REMARK    6  A    between atoms: C_7  and  N_8 
REMARK    7  A    between atoms: N_11  and  C_12 
REMARK    8  A    between atoms: N_21  and  C_22 
ROOT
ATOM      1  C   UNL d   1       8.979   5.970  -9.481  0.00  0.00     0.003 C 
ENDROOT
BRANCH   1   2
ATOM      2  C   UNL d   1       8.420   5.478  -8.122  0.00  0.00     0.010 C 
BRANCH   2   3
ATOM      3  C   UNL d   1       8.570   6.483  -6.993  0.00  0.00     0.090 C 
BRANCH   3   4
ATOM      4  C   UNL d   1      10.013   6.895  -6.820  0.00  0.00     0.252 C 
ATOM      5  O   UNL d   1      10.934   6.177  -7.211  0.00  0.00    -0.271 OA
ATOM      6  N   UNL d   1      10.192   8.071  -6.233  0.00  0.00    -0.235 NA
BRANCH   6   7
ATOM      7  C   UNL d   1      11.501   8.531  -5.842  0.00  0.00     0.128 C 
ATOM      8  C   UNL d   1      11.817   7.982  -4.453  0.00  0.00    -0.004 A 
ATOM      9  C   UNL d   1      11.843   8.771  -3.281  0.00  0.00    -0.024 A 
ATOM     10  C   UNL d   1      12.160   6.642  -4.348  0.00  0.00    -0.003 A 
ATOM     11  C   UNL d   1      11.563  10.217  -3.340  0.00  0.00     0.026 C 
ATOM     12  C   UNL d   1      12.233   8.249  -2.026  0.00  0.00    -0.004 A 
ATOM     13  C   UNL d   1      10.887  10.641  -4.662  0.00  0.00     0.007 C 
ATOM     14  C   UNL d   1      11.549  10.040  -5.890  0.00  0.00     0.029 C 
ATOM     15  C   UNL d   1      12.610   6.903  -1.961  0.00  0.00    -0.000 A 
ATOM     16  C   UNL d   1      12.612   6.152  -3.123  0.00  0.00    -0.000 A 
ENDBRANCH   6   7
ENDBRANCH   3   4
ENDBRANCH   2   3
ENDBRANCH   1   2
BRANCH   1  17
ATOM     17  C   UNL d   1       8.427   5.117 -10.618  0.00  0.00     0.035 C 
BRANCH  17  18
ATOM     18  C   UNL d   1       8.760   5.701 -12.005  0.00  0.00     0.250 C 
BRANCH  18  19
ATOM     19  N   UNL d   1       8.117   4.990 -13.129  0.00  0.00     0.141 N 
ATOM     20  C   UNL d   1       8.914   3.816 -13.481  0.00  0.00     0.274 C 
ATOM     21  C   UNL d   1       8.291   3.077 -14.673  0.00  0.00     0.138 C 
ATOM     22  N   UNL d   1       6.881   2.748 -14.408  0.00  0.00    -0.329 N 
ATOM     23  C   UNL d   1       6.038   3.874 -13.959  0.00  0.00     0.138 C 
ATOM     24  C   UNL d   1       6.733   4.600 -12.801  0.00  0.00     0.274 C 
BRANCH  22  25
ATOM     25  C   UNL d   1       6.373   1.489 -14.547  0.00  0.00     0.149 A 
ATOM     26  N   UNL d   1       6.748   0.667 -15.623  0.00  0.00    -0.168 N 
ATOM     27  C   UNL d   1       6.235  -0.571 -15.749  0.00  0.00     0.110 A 
ATOM     28  O   UNL d   1       7.562   1.108 -16.533  0.00  0.00    -0.078 OA
ATOM     29  C   UNL d   1       5.260  -1.077 -14.866  0.00  0.00     0.021 A 
ATOM     30  C   UNL d   1       4.795  -0.245 -13.829  0.00  0.00     0.005 A 
ATOM     31  C   UNL d   1       5.395   0.989 -13.641  0.00  0.00     0.037 A 
ENDBRANCH  22  25
ENDBRANCH  18  19
ENDBRANCH  17  18
ENDBRANCH   1  17
TORSDOF 8
