REMARK  8 active torsions:
REMARK  status: ('A' for Active; 'I' for Inactive)
REMARK    1  A    between atoms: C_6  and  C_7 
REMARK    2  A    between atoms: N_10  and  C_11 
REMARK    3  A    between atoms: C_11  and  C_12 
REMARK    4  A    between atoms: C_12  and  C_13 
REMARK    5  A    between atoms: C_13  and  O_14 
REMARK    6  A    between atoms: O_14  and  C_15 
REMARK    7  A    between atoms: C_18  and  C_19 
REMARK    8  A    between atoms: C_19  and  N_20 
ROOT
ATOM      1  C   UNL d   1       9.857   6.716 -11.254  0.00  0.00     0.253 C 
ENDROOT
BRANCH   1   2
ATOM      2  N   UNL d   1      10.315   7.064  -9.907  0.00  0.00     0.137 N 
ATOM      3  C   UNL d   1       9.265   7.832  -9.265  0.00  0.00     0.251 C 
ATOM      4  C   UNL d   1       9.577   8.270  -7.857  0.00  0.00     0.041 C 
ATOM      5  C   UNL d   1      10.925   8.993  -7.822  0.00  0.00     0.047 C 
ATOM      6  C   UNL d   1      12.015   8.185  -8.557  0.00  0.00     0.041 C 
ATOM      7  C   UNL d   1      11.552   7.838  -9.981  0.00  0.00     0.251 C 
BRANCH   5   8
ATOM      8  C   UNL d   1      11.274   9.249  -6.393  0.00  0.00     0.087 C 
ATOM      9  C   UNL d   1      11.461   8.379  -5.318  0.00  0.00     0.041 A 
ATOM     10  C   UNL d   1      11.387   6.984  -5.266  0.00  0.00     0.006 A 
ATOM     11  C   UNL d   1      11.763   9.107  -4.164  0.00  0.00     0.129 A 
ATOM     12  C   UNL d   1      11.689   6.404  -4.036  0.00  0.00     0.030 A 
ATOM     13  C   UNL d   1      12.059   7.113  -2.876  0.00  0.00     0.142 A 
ATOM     14  F   UNL d   1      12.337   6.434  -1.740  0.00  0.00    -0.204 F 
ATOM     15  C   UNL d   1      12.119   8.527  -2.927  0.00  0.00     0.057 A 
ATOM     16  O   UNL d   1      11.553  10.388  -4.553  0.00  0.00    -0.211 OA
ATOM     17  N   UNL d   1      11.385  10.485  -5.946  0.00  0.00    -0.131 NA
ENDBRANCH   5   8
ENDBRANCH   1   2
BRANCH   1  18
ATOM     18  C   UNL d   1       8.510   5.950 -11.335  0.00  0.00     0.068 C 
BRANCH  18  19
ATOM     19  C   UNL d   1       8.013   5.802 -12.781  0.00  0.00     0.151 C 
BRANCH  19  20
ATOM     20  O   UNL d   1       8.928   5.001 -13.532  0.00  0.00    -0.330 OA
BRANCH  20  21
ATOM     21  C   UNL d   1       8.445   3.889 -14.173  0.00  0.00     0.104 A 
ATOM     22  C   UNL d   1       9.046   3.537 -15.396  0.00  0.00     0.080 A 
ATOM     23  C   UNL d   1       8.525   2.464 -16.128  0.00  0.00     0.011 A 
ATOM     24 CL   UNL d   1      10.296   4.519 -16.069  0.00  0.00    -0.080 Cl
ATOM     25  C   UNL d   1       7.489   1.650 -15.619  0.00  0.00     0.012 A 
ATOM     26  C   UNL d   1       6.897   1.984 -14.388  0.00  0.00    -0.000 A 
ATOM     27  C   UNL d   1       7.363   3.113 -13.681  0.00  0.00     0.025 A 
BRANCH  25  28
ATOM     28  C   UNL d   1       7.005   0.412 -16.363  0.00  0.00     0.277 C 
BRANCH  28  29
ATOM     29  N   UNL d   1       7.910  -0.033 -17.421  0.00  0.00     0.147 N 
ATOM     30  C   UNL d   1       7.342  -1.174 -18.143  0.00  0.00     0.283 C 
ATOM     31  C   UNL d   1       8.285  -1.652 -19.258  0.00  0.00     0.178 C 
ATOM     32  O   UNL d   1       9.562  -1.934 -18.700  0.00  0.00    -0.350 OA
ATOM     33  C   UNL d   1      10.168  -0.808 -18.081  0.00  0.00     0.178 C 
ATOM     34  C   UNL d   1       9.262  -0.372 -16.930  0.00  0.00     0.283 C 
ENDBRANCH  28  29
ENDBRANCH  25  28
ENDBRANCH  20  21
ENDBRANCH  19  20
ENDBRANCH  18  19
ENDBRANCH   1  18
TORSDOF 8
