REMARK  5 active torsions:
REMARK  status: ('A' for Active; 'I' for Inactive)
REMARK    1  A    between atoms: C_8  and  O_9 
REMARK    2  A    between atoms: O_9  and  C_10 
REMARK    3  A    between atoms: N_13  and  C_14 
REMARK    4  A    between atoms: C_14  and  C_15 
REMARK    5  A    between atoms: C_15  and  C_16 
ROOT
ATOM      1  C   UNL d   1       8.514   3.475 -14.452  0.00  0.00     0.126 C 
ATOM      2  C   UNL d   1       9.550   3.344 -13.322  0.00  0.00     0.066 C 
ATOM      3  C   UNL d   1       9.454   4.536 -12.389  0.00  0.00     0.253 C 
ATOM      4  N   UNL d   1       8.157   4.576 -11.727  0.00  0.00     0.137 N 
ATOM      5  C   UNL d   1       7.121   4.794 -12.746  0.00  0.00     0.253 C 
ATOM      6  C   UNL d   1       7.129   3.634 -13.773  0.00  0.00     0.066 C 
ENDROOT
BRANCH   4   7
ATOM      7  C   UNL d   1       8.121   5.679 -10.767  0.00  0.00     0.250 C 
BRANCH   7   8
ATOM      8  C   UNL d   1       9.110   5.470  -9.579  0.00  0.00     0.036 C 
BRANCH   8   9
ATOM      9  C   UNL d   1       9.249   6.670  -8.638  0.00  0.00     0.007 C 
ATOM     10  C   UNL d   1      10.171   6.325  -7.438  0.00  0.00     0.028 C 
ATOM     11  C   UNL d   1      10.538   7.526  -6.623  0.00  0.00    -0.007 A 
ATOM     12  C   UNL d   1      10.380   8.778  -7.127  0.00  0.00     0.055 A 
ATOM     13  C   UNL d   1      11.077   7.686  -5.280  0.00  0.00     0.017 A 
ATOM     14  C   UNL d   1       9.844   9.125  -8.450  0.00  0.00     0.045 C 
ATOM     15  N   UNL d   1      10.759   9.703  -6.197  0.00  0.00    -0.250 NA
ATOM     16  C   UNL d   1       9.753   7.928  -9.380  0.00  0.00     0.007 C 
ATOM     17  C   UNL d   1      11.188   9.091  -5.049  0.00  0.00     0.081 A 
ATOM     18  C   UNL d   1      11.633   9.644  -3.836  0.00  0.00     0.021 A 
ATOM     19  C   UNL d   1      12.076   8.791  -2.812  0.00  0.00     0.031 A 
ATOM     20  C   UNL d   1      11.995   7.397  -2.991  0.00  0.00     0.140 A 
ATOM     21  F   UNL d   1      12.373   6.553  -2.009  0.00  0.00    -0.204 F 
ATOM     22  C   UNL d   1      11.484   6.865  -4.201  0.00  0.00     0.031 A 
ENDBRANCH   8   9
ENDBRANCH   7   8
ENDBRANCH   4   7
BRANCH   1  23
ATOM     23  O   UNL d   1       8.486   2.318 -15.279  0.00  0.00    -0.331 OA
BRANCH  23  24
ATOM     24  C   UNL d   1       9.544   1.985 -16.102  0.00  0.00     0.118 A 
ATOM     25  C   UNL d   1      10.812   2.633 -16.162  0.00  0.00     0.026 A 
ATOM     26  C   UNL d   1      11.849   2.135 -16.995  0.00  0.00     0.004 A 
ATOM     27  C   UNL d   1      11.635   1.040 -17.858  0.00  0.00     0.021 A 
ATOM     28  C   UNL d   1      10.359   0.464 -17.815  0.00  0.00     0.111 A 
ATOM     29  N   UNL d   1       9.814  -0.575 -18.553  0.00  0.00    -0.184 NA
ATOM     30  C   UNL d   1       9.357   0.896 -16.971  0.00  0.00     0.145 A 
ATOM     31  C   UNL d   1       8.493  -0.775 -18.171  0.00  0.00     0.392 A 
ATOM     32  O   UNL d   1       7.700  -1.602 -18.619  0.00  0.00    -0.236 OA
ATOM     33  O   UNL d   1       8.237   0.142 -17.180  0.00  0.00    -0.254 OA
ENDBRANCH  23  24
ENDBRANCH   1  23
TORSDOF 5
