REMARK  3 active torsions:
REMARK  status: ('A' for Active; 'I' for Inactive)
REMARK    1  A    between atoms: C_4  and  C_5 
REMARK    2  A    between atoms: C_5  and  N_6 
REMARK    3  A    between atoms: C_9  and  C_10 
ROOT
ATOM      1  N   UNL d   1       8.012   4.364 -13.089  0.00  0.00     0.137 N 
ATOM      2  C   UNL d   1       8.615   3.815 -14.305  0.00  0.00     0.251 C 
ATOM      3  C   UNL d   1       8.190   2.350 -14.523  0.00  0.00     0.041 C 
ATOM      4  C   UNL d   1       6.660   2.207 -14.570  0.00  0.00     0.047 C 
ATOM      5  C   UNL d   1       6.028   2.910 -13.350  0.00  0.00     0.041 C 
ATOM      6  C   UNL d   1       6.548   4.330 -13.180  0.00  0.00     0.251 C 
ENDROOT
BRANCH   1   7
ATOM      7  C   UNL d   1       8.444   5.741 -12.847  0.00  0.00     0.251 C 
BRANCH   7   8
ATOM      8  C   UNL d   1       9.039   5.902 -11.434  0.00  0.00     0.047 C 
ATOM      9  C   UNL d   1       8.077   5.439 -10.327  0.00  0.00     0.072 C 
ATOM     10  C   UNL d   1       8.677   5.593  -8.928  0.00  0.00     0.176 C 
ATOM     11  O   UNL d   1       8.350   4.809  -8.047  0.00  0.00    -0.291 OA
ATOM     12  C   UNL d   1       9.605   6.711  -8.709  0.00  0.00     0.068 A 
ATOM     13  C   UNL d   1       9.992   7.570  -9.761  0.00  0.00     0.065 A 
ATOM     14  C   UNL d   1      10.141   6.997  -7.439  0.00  0.00     0.105 A 
ATOM     15  C   UNL d   1       9.485   7.360 -11.180  0.00  0.00     0.049 C 
ATOM     16  N   UNL d   1      10.839   8.600  -9.559  0.00  0.00    -0.228 NA
ATOM     17  C   UNL d   1      11.290   8.761  -8.316  0.00  0.00     0.199 A 
ATOM     18  N   UNL d   1      10.994   8.023  -7.245  0.00  0.00    -0.223 NA
ENDBRANCH   7   8
ENDBRANCH   1   7
BRANCH   4  19
ATOM     19  C   UNL d   1       6.216   0.780 -14.689  0.00  0.00     0.087 A 
ATOM     20  C   UNL d   1       5.748   0.037 -15.799  0.00  0.00     0.041 A 
ATOM     21  C   UNL d   1       5.462  -1.265 -15.391  0.00  0.00     0.129 A 
ATOM     22  C   UNL d   1       5.556   0.389 -17.154  0.00  0.00     0.006 A 
ATOM     23  O   UNL d   1       5.789  -1.302 -14.044  0.00  0.00    -0.211 OA
ATOM     24  C   UNL d   1       5.004  -2.261 -16.266  0.00  0.00     0.057 A 
ATOM     25  N   UNL d   1       6.272  -0.035 -13.635  0.00  0.00    -0.131 NA
ATOM     26  C   UNL d   1       4.802  -1.904 -17.616  0.00  0.00     0.142 A 
ATOM     27  F   UNL d   1       4.350  -2.827 -18.497  0.00  0.00    -0.204 F 
ATOM     28  C   UNL d   1       5.075  -0.588 -18.055  0.00  0.00     0.030 A 
ENDBRANCH   4  19
TORSDOF 3
