REMARK  8 active torsions:
REMARK  status: ('A' for Active; 'I' for Inactive)
REMARK    1  A    between atoms: O_2  and  C_3 
REMARK    2  A    between atoms: C_6  and  C_7 
REMARK    3  A    between atoms: C_7  and  C_8 
REMARK       I    between atoms: C_8  and  N_10 
REMARK    4  A    between atoms: N_10  and  C_11 
REMARK    5  A    between atoms: C_14  and  C_15 
REMARK    6  A    between atoms: C_15  and  C_16 
REMARK    7  A    between atoms: C_16  and  N_17 
REMARK    8  A    between atoms: N_20  and  C_21 
ROOT
ATOM      1  C   UNL d   1       7.415   2.441 -15.107  0.00  0.00     0.106 C 
ATOM      2  C   UNL d   1       6.756   2.025 -13.806  0.00  0.00     0.024 C 
ATOM      3  C   UNL d   1       6.661   3.233 -12.835  0.00  0.00     0.002 C 
ATOM      4  C   UNL d   1       8.012   3.944 -12.598  0.00  0.00     0.002 C 
ATOM      5  C   UNL d   1       8.643   4.361 -13.932  0.00  0.00     0.002 C 
ATOM      6  C   UNL d   1       8.774   3.164 -14.875  0.00  0.00     0.024 C 
ENDROOT
BRANCH   4   7
ATOM      7  C   UNL d   1       7.887   5.138 -11.633  0.00  0.00     0.035 C 
BRANCH   7   8
ATOM      8  C   UNL d   1       9.251   5.562 -11.046  0.00  0.00     0.250 C 
BRANCH   8   9
ATOM      9  N   UNL d   1       9.067   6.257  -9.779  0.00  0.00     0.141 N 
ATOM     10  C   UNL d   1       9.782   5.570  -8.707  0.00  0.00     0.274 C 
ATOM     11  C   UNL d   1       9.551   6.247  -7.362  0.00  0.00     0.138 C 
ATOM     12  N   UNL d   1       9.963   7.651  -7.428  0.00  0.00    -0.330 N 
ATOM     13  C   UNL d   1       9.332   8.397  -8.518  0.00  0.00     0.138 C 
ATOM     14  C   UNL d   1       9.549   7.647  -9.860  0.00  0.00     0.274 C 
BRANCH  12  15
ATOM     15  C   UNL d   1      10.838   8.275  -6.511  0.00  0.00     0.138 A 
ATOM     16  C   UNL d   1      11.180   7.735  -5.254  0.00  0.00     0.036 A 
ATOM     17  C   UNL d   1      12.080   8.375  -4.408  0.00  0.00     0.095 A 
ATOM     18  C   UNL d   1      10.804   6.455  -4.606  0.00  0.00     0.064 A 
ATOM     19  C   UNL d   1      12.645   9.583  -4.800  0.00  0.00     0.045 A 
ATOM     20  O   UNL d   1      12.358   7.704  -3.248  0.00  0.00    -0.331 OA
ATOM     21  C   UNL d   1      12.237  10.099  -6.052  0.00  0.00     0.103 A 
ATOM     22  N   UNL d   1      11.362   9.477  -6.884  0.00  0.00    -0.228 NA
ATOM     23  C   UNL d   1      11.665   6.443  -3.327  0.00  0.00     0.154 A 
ENDBRANCH  12  15
ENDBRANCH   8   9
ENDBRANCH   7   8
ENDBRANCH   4   7
BRANCH   1  24
ATOM     24  N   UNL d   1       7.589   1.280 -15.970  0.00  0.00    -0.240 NA
ATOM     25  C   UNL d   1       7.849   1.338 -17.284  0.00  0.00     0.251 C 
ATOM     26  O   UNL d   1       7.806   2.379 -17.941  0.00  0.00    -0.271 OA
BRANCH  25  27
ATOM     27  C   UNL d   1       8.257   0.026 -17.955  0.00  0.00     0.090 C 
BRANCH  27  28
ATOM     28  C   UNL d   1       9.508   0.188 -18.852  0.00  0.00     0.009 C 
ATOM     29  C   UNL d   1      10.802   0.282 -18.010  0.00  0.00     0.003 C 
ATOM     30  C   UNL d   1      12.040   0.460 -18.894  0.00  0.00     0.030 C 
ATOM     31  C   UNL d   1      12.157  -0.679 -19.922  0.00  0.00     0.116 C 
ATOM     32  C   UNL d   1      10.870  -0.773 -20.771  0.00  0.00     0.030 C 
ATOM     33  C   UNL d   1       9.627  -0.946 -19.883  0.00  0.00     0.003 C 
BRANCH  31  34
ATOM     34  O   UNL d   1      13.286  -0.438 -20.751  0.00  0.00    -0.354 OA
ATOM     35  C   UNL d   1      13.740  -1.579 -21.463  0.00  0.00     0.174 C 
ENDBRANCH  31  34
ENDBRANCH  27  28
ENDBRANCH  25  27
ENDBRANCH   1  24
TORSDOF 8
