REMARK  3 active torsions:
REMARK  status: ('A' for Active; 'I' for Inactive)
REMARK    1  A    between atoms: N_3  and  C_4 
REMARK    2  A    between atoms: C_4  and  C_5 
REMARK    3  A    between atoms: N_13  and  C_14 
ROOT
ATOM      1  O   UNL d   1       9.360   8.332  -7.681  0.00  0.00    -0.247 OA
ATOM      2  C   UNL d   1      10.497   8.297  -8.151  0.00  0.00     0.328 A 
ATOM      3  N   UNL d   1      10.842   8.243  -9.452  0.00  0.00    -0.298 N 
ATOM      4  C   UNL d   1      12.271   8.283  -9.670  0.00  0.00     0.131 A 
ATOM      5  C   UNL d   1      12.821   8.306  -8.239  0.00  0.00     0.135 A 
ATOM      6  N   UNL d   1      11.616   8.286  -7.424  0.00  0.00    -0.278 N 
ENDROOT
BRANCH   3   7
ATOM      7  C   UNL d   1       9.920   8.229 -10.576  0.00  0.00     0.142 C 
BRANCH   7   8
ATOM      8  C   UNL d   1       9.533   6.789 -10.975  0.00  0.00     0.279 C 
ATOM      9  N   UNL d   1       8.609   6.868 -12.104  0.00  0.00     0.339 N 
ATOM     10  C   UNL d   1       8.304   5.549 -12.649  0.00  0.00     0.290 C 
ATOM     11  C   UNL d   1       7.644   4.667 -11.574  0.00  0.00     0.038 C 
ATOM     12  C   UNL d   1       8.554   4.535 -10.347  0.00  0.00     0.004 C 
ATOM     13  C   UNL d   1       8.930   5.922  -9.838  0.00  0.00     0.038 C 
ENDBRANCH   7   8
ENDBRANCH   3   7
BRANCH   6  14
ATOM     14  C   UNL d   1      11.614   8.316  -6.020  0.00  0.00     0.083 A 
ATOM     15  C   UNL d   1      11.830   9.517  -5.333  0.00  0.00     0.116 A 
ATOM     16  N   UNL d   1      11.885   9.586  -3.990  0.00  0.00    -0.241 NA
ATOM     17  C   UNL d   1      11.763   8.444  -3.284  0.00  0.00     0.099 A 
ATOM     18  C   UNL d   1      11.534   7.190  -3.881  0.00  0.00     0.022 A 
ATOM     19  C   UNL d   1      11.453   7.123  -5.286  0.00  0.00     0.021 A 
ENDBRANCH   6  14
TORSDOF 3
