REMARK  9 active torsions:
REMARK  status: ('A' for Active; 'I' for Inactive)
REMARK    1  A    between atoms: C_3  and  S_4 
REMARK    2  A    between atoms: S_4  and  C_5 
REMARK    3  A    between atoms: C_5  and  C_6 
REMARK    4  A    between atoms: C_6  and  C_7 
REMARK    5  A    between atoms: C_7  and  N_8 
REMARK    6  A    between atoms: C_13  and  C_14 
REMARK    7  A    between atoms: C_17  and  C_18 
REMARK    8  A    between atoms: C_27  and  C_28 
REMARK    9  A    between atoms: C_31  and  S_32 
ROOT
ATOM      1  C   UNL d   1       9.391   3.698 -13.864  0.00  0.00     0.047 C 
ENDROOT
BRANCH   1   2
ATOM      2  C   UNL d   1       8.070   4.335 -13.408  0.00  0.00     0.067 C 
BRANCH   2   3
ATOM      3  S   UNL d   1       8.259   6.070 -12.907  0.00  0.00    -0.075 SA
BRANCH   3   4
ATOM      4  C   UNL d   1       8.918   5.919 -11.283  0.00  0.00     0.193 A 
ATOM      5  N   UNL d   1       9.464   6.968 -10.630  0.00  0.00    -0.289 N 
ATOM      6  C   UNL d   1       9.600   8.340 -11.123  0.00  0.00     0.134 C 
ATOM      7  C   UNL d   1       9.713   6.416  -9.413  0.00  0.00     0.167 A 
ATOM      8  N   UNL d   1       9.369   5.124  -9.342  0.00  0.00    -0.128 NA
ATOM      9  N   UNL d   1       8.865   4.793 -10.571  0.00  0.00    -0.122 NA
BRANCH   7  10
ATOM     10  C   UNL d   1      10.255   7.089  -8.244  0.00  0.00     0.036 A 
ATOM     11  C   UNL d   1      11.315   8.017  -8.359  0.00  0.00     0.004 A 
ATOM     12  C   UNL d   1      11.771   8.716  -7.231  0.00  0.00     0.013 A 
ATOM     13  C   UNL d   1      11.245   8.403  -5.968  0.00  0.00     0.107 A 
ATOM     14  C   UNL d   1      10.254   7.415  -5.822  0.00  0.00     0.013 A 
ATOM     15  C   UNL d   1       9.725   6.793  -6.964  0.00  0.00     0.004 A 
BRANCH  13  16
ATOM     16  S   UNL d   1      11.900   9.208  -4.529  0.00  0.00     0.302 S 
ATOM     17  N   UNL d   1      11.966   7.951  -3.364  0.00  0.00    -0.043 N 
ATOM     18  O   UNL d   1      13.287   9.588  -4.809  0.00  0.00    -0.197 OA
ATOM     19  O   UNL d   1      10.929  10.200  -4.072  0.00  0.00    -0.197 OA
ENDBRANCH  13  16
ENDBRANCH   7  10
ENDBRANCH   3   4
ENDBRANCH   2   3
ENDBRANCH   1   2
BRANCH   1  20
ATOM     20  C   UNL d   1       9.173   2.272 -14.440  0.00  0.00     0.251 C 
BRANCH  20  21
ATOM     21  N   UNL d   1      10.258   1.847 -15.332  0.00  0.00     0.137 N 
ATOM     22  C   UNL d   1      10.259   2.644 -16.545  0.00  0.00     0.251 C 
ATOM     23  C   UNL d   1      11.152   1.900 -17.500  0.00  0.00     0.037 A 
ATOM     24  C   UNL d   1      11.041   0.460 -17.054  0.00  0.00     0.038 C 
ATOM     25  C   UNL d   1      11.314   2.367 -18.950  0.00  0.00     0.024 A 
ATOM     26  C   UNL d   1      12.485   2.465 -17.996  0.00  0.00     0.007 A 
ATOM     27  C   UNL d   1      10.097   0.492 -15.846  0.00  0.00     0.250 C 
BRANCH  25  28
ATOM     28  C   UNL d   1      10.555   3.586 -19.431  0.00  0.00    -0.022 A 
ATOM     29  C   UNL d   1      10.636   4.812 -18.731  0.00  0.00    -0.004 A 
ATOM     30  C   UNL d   1       9.893   5.929 -19.127  0.00  0.00     0.004 A 
ATOM     31  C   UNL d   1       9.084   5.864 -20.278  0.00  0.00     0.071 A 
ATOM     32  C   UNL d   1       9.011   4.655 -21.004  0.00  0.00     0.004 A 
ATOM     33  C   UNL d   1       9.733   3.515 -20.581  0.00  0.00    -0.004 A 
BRANCH  31  34
ATOM     34  C   UNL d   1       8.333   7.110 -20.708  0.00  0.00     0.419 C 
ATOM     35  F   UNL d   1       9.209   8.101 -20.882  0.00  0.00    -0.166 F 
ATOM     36  F   UNL d   1       7.667   6.918 -21.849  0.00  0.00    -0.166 F 
ATOM     37  F   UNL d   1       7.468   7.460 -19.756  0.00  0.00    -0.166 F 
ENDBRANCH  31  34
ENDBRANCH  25  28
ENDBRANCH  20  21
ENDBRANCH   1  20
TORSDOF 9
