REMARK  11 active torsions:
REMARK  status: ('A' for Active; 'I' for Inactive)
REMARK    1  A    between atoms: C_9  and  C_10 
REMARK    2  A    between atoms: C_10  and  C_12 
REMARK    3  A    between atoms: C_12  and  N_13 
REMARK    4  A    between atoms: N_13  and  C_14 
REMARK    5  A    between atoms: C_14  and  C_15 
REMARK    6  A    between atoms: C_15  and  C_16 
REMARK    7  A    between atoms: C_20  and  C_21 
REMARK    8  A    between atoms: C_21  and  N_22 
REMARK    9  A    between atoms: N_22  and  C_23 
REMARK   10  A    between atoms: C_23  and  C_24 
REMARK   11  A    between atoms: C_24  and  C_25 
ROOT
ATOM      1  C   UNL d   1       9.921   5.466 -12.754  0.00  0.00     0.052 C 
ENDROOT
BRANCH   1   2
ATOM      2  C   UNL d   1       8.735   4.813 -13.468  0.00  0.00     0.125 C 
BRANCH   2   3
ATOM      3  N   UNL d   1       9.091   4.436 -14.832  0.00  0.00    -0.292 NA
BRANCH   3   4
ATOM      4  C   UNL d   1      10.082   3.362 -14.966  0.00  0.00     0.157 C 
BRANCH   4   5
ATOM      5  C   UNL d   1      10.587   3.249 -16.417  0.00  0.00     0.199 C 
ATOM      6  O   UNL d   1      11.389   2.089 -16.514  0.00  0.00    -0.216 OA
BRANCH   5   7
ATOM      7  C   UNL d   1      11.356   4.506 -16.827  0.00  0.00     0.018 A 
ATOM      8  C   UNL d   1      12.574   4.850 -16.184  0.00  0.00     0.001 A 
ATOM      9  C   UNL d   1      13.276   6.029 -16.533  0.00  0.00     0.029 A 
ATOM     10  C   UNL d   1      12.780   6.900 -17.527  0.00  0.00     0.149 A 
ATOM     11  C   UNL d   1      11.581   6.550 -18.175  0.00  0.00     0.116 A 
ATOM     12  O   UNL d   1      13.457   8.047 -17.827  0.00  0.00    -0.189 OA
ATOM     13  N   UNL d   1      10.940   7.283 -19.197  0.00  0.00    -0.200 NA
ATOM     14  C   UNL d   1      10.890   5.387 -17.828  0.00  0.00     0.052 A 
ATOM     15  C   UNL d   1       9.738   6.760 -19.649  0.00  0.00     0.311 A 
ATOM     16  O   UNL d   1       8.976   7.236 -20.485  0.00  0.00    -0.258 OA
ATOM     17  S   UNL d   1       9.428   5.216 -18.769  0.00  0.00    -0.024 SA
ENDBRANCH   5   7
ENDBRANCH   4   5
ENDBRANCH   3   4
ENDBRANCH   2   3
ENDBRANCH   1   2
BRANCH   1  18
ATOM     18  C   UNL d   1       9.657   5.787 -11.307  0.00  0.00    -0.020 A 
ATOM     19  C   UNL d   1       9.685   7.109 -10.840  0.00  0.00    -0.006 A 
ATOM     20  C   UNL d   1       9.481   7.371  -9.479  0.00  0.00     0.013 A 
ATOM     21  C   UNL d   1       9.212   6.317  -8.575  0.00  0.00    -0.002 A 
ATOM     22  C   UNL d   1       9.224   4.988  -9.037  0.00  0.00    -0.001 A 
ATOM     23  C   UNL d   1       9.461   4.737 -10.399  0.00  0.00    -0.004 A 
BRANCH  20  24
ATOM     24  C   UNL d   1       9.494   8.812  -9.017  0.00  0.00     0.317 C 
BRANCH  24  25
ATOM     25  N   UNL d   1      10.668   9.184  -8.249  0.00  0.00     0.344 N 
BRANCH  25  26
ATOM     26  C   UNL d   1      10.606   8.649  -6.909  0.00  0.00     0.297 C 
BRANCH  26  27
ATOM     27  C   UNL d   1      11.542   9.428  -5.978  0.00  0.00     0.084 C 
BRANCH  27  28
ATOM     28  C   UNL d   1      11.777   8.734  -4.645  0.00  0.00     0.061 A 
ATOM     29  N   UNL d   1      11.960   9.544  -3.580  0.00  0.00    -0.248 NA
ATOM     30  C   UNL d   1      12.244   8.978  -2.387  0.00  0.00     0.099 A 
ATOM     31  C   UNL d   1      12.313   7.592  -2.200  0.00  0.00     0.021 A 
ATOM     32  C   UNL d   1      12.113   6.750  -3.294  0.00  0.00     0.003 A 
ATOM     33  C   UNL d   1      11.848   7.322  -4.544  0.00  0.00     0.015 A 
ENDBRANCH  27  28
ENDBRANCH  26  27
ENDBRANCH  25  26
ENDBRANCH  24  25
ENDBRANCH  20  24
ENDBRANCH   1  18
TORSDOF 11
