REMARK  8 active torsions:
REMARK  status: ('A' for Active; 'I' for Inactive)
REMARK    1  A    between atoms: N_3  and  C_4 
REMARK    2  A    between atoms: C_4  and  C_5 
REMARK    3  A    between atoms: C_5  and  C_6 
REMARK    4  A    between atoms: C_6  and  C_7 
REMARK    5  A    between atoms: C_7  and  C_8 
REMARK    6  A    between atoms: C_8  and  C_9 
REMARK    7  A    between atoms: C_9  and  N_10 
REMARK    8  A    between atoms: N_13  and  C_14 
ROOT
ATOM      1  C   UNL d   1       9.642   4.502 -14.379  0.00  0.00     0.002 C 
ENDROOT
BRANCH   1   2
ATOM      2  C   UNL d   1      10.906   4.843 -15.187  0.00  0.00     0.025 C 
BRANCH   2   3
ATOM      3  C   UNL d   1      10.703   4.643 -16.698  0.00  0.00     0.108 C 
BRANCH   3   4
ATOM      4  N   UNL d   1      11.984   4.654 -17.439  0.00  0.00    -0.304 N 
ATOM      5  C   UNL d   1      12.588   3.598 -18.088  0.00  0.00     0.183 A 
ATOM      6  S   UNL d   1      12.066   2.034 -18.226  0.00  0.00    -0.040 SA
ATOM      7  N   UNL d   1      13.728   4.090 -18.610  0.00  0.00    -0.305 N 
ATOM      8  C   UNL d   1      13.901   5.441 -18.301  0.00  0.00     0.074 A 
ATOM      9  C   UNL d   1      14.707   3.360 -19.436  0.00  0.00     0.109 C 
ATOM     10  C   UNL d   1      12.795   5.779 -17.570  0.00  0.00     0.077 A 
ATOM     11  C   UNL d   1      14.955   6.256 -18.674  0.00  0.00    -0.005 A 
ATOM     12  C   UNL d   1      12.701   7.105 -17.127  0.00  0.00     0.019 A 
ATOM     13  C   UNL d   1      13.743   8.004 -17.467  0.00  0.00     0.001 A 
ATOM     14  C   UNL d   1      14.866   7.588 -18.236  0.00  0.00    -0.003 A 
ATOM     15  C   UNL d   1      16.039   5.567 -19.480  0.00  0.00     0.030 C 
ATOM     16  C   UNL d   1      15.528   4.352 -20.286  0.00  0.00     0.029 C 
ENDBRANCH   3   4
ENDBRANCH   2   3
ENDBRANCH   1   2
BRANCH   1  17
ATOM     17  C   UNL d   1       9.546   5.280 -13.062  0.00  0.00     0.002 C 
BRANCH  17  18
ATOM     18  C   UNL d   1       8.334   4.877 -12.217  0.00  0.00     0.035 C 
BRANCH  18  19
ATOM     19  C   UNL d   1       8.072   5.808 -11.029  0.00  0.00     0.250 C 
BRANCH  19  20
ATOM     20  N   UNL d   1       9.260   5.926 -10.188  0.00  0.00     0.141 N 
ATOM     21  C   UNL d   1       8.885   5.684  -8.794  0.00  0.00     0.274 C 
ATOM     22  C   UNL d   1      10.120   5.777  -7.894  0.00  0.00     0.137 C 
ATOM     23  N   UNL d   1      10.761   7.076  -8.040  0.00  0.00    -0.344 N 
ATOM     24  C   UNL d   1      11.062   7.454  -9.418  0.00  0.00     0.137 C 
ATOM     25  C   UNL d   1       9.800   7.296 -10.282  0.00  0.00     0.274 C 
BRANCH  23  26
ATOM     26  C   UNL d   1      11.055   7.881  -6.919  0.00  0.00     0.057 A 
ATOM     27  C   UNL d   1      11.291   7.301  -5.648  0.00  0.00     0.028 A 
ATOM     28  C   UNL d   1      11.574   8.102  -4.528  0.00  0.00     0.059 A 
ATOM     29  C   UNL d   1      11.621   9.498  -4.657  0.00  0.00     0.011 A 
ATOM     30 CL   UNL d   1      11.883   7.354  -3.001  0.00  0.00    -0.082 Cl
ATOM     31  C   UNL d   1      11.404  10.092  -5.912  0.00  0.00     0.002 A 
ATOM     32  C   UNL d   1      11.121   9.289  -7.034  0.00  0.00     0.017 A 
ENDBRANCH  23  26
ENDBRANCH  19  20
ENDBRANCH  18  19
ENDBRANCH  17  18
ENDBRANCH   1  17
TORSDOF 8
