REMARK  4 active torsions:
REMARK  status: ('A' for Active; 'I' for Inactive)
REMARK    1  A    between atoms: N_8  and  C_9 
REMARK    2  A    between atoms: C_9  and  O_10 
REMARK    3  A    between atoms: O_10  and  C_11 
REMARK    4  A    between atoms: C_11  and  C_12 
ROOT
ATOM      1  N   UNL d   1      12.828   8.386  -9.999  0.00  0.00     0.062 N 
ATOM      2  C   UNL d   1      11.794   8.083  -9.221  0.00  0.00     0.773 A 
ATOM      3  N   UNL d   1      11.022   7.079  -9.559  0.00  0.00    -0.038 NA
ATOM      4  C   UNL d   1      10.021   6.820  -8.666  0.00  0.00     0.188 A 
ATOM      5  C   UNL d   1       9.769   7.525  -7.501  0.00  0.00     0.176 A 
ATOM      6  N   UNL d   1       8.688   6.982  -6.841  0.00  0.00    -0.217 NA
ATOM      7  C   UNL d   1       8.328   5.992  -7.607  0.00  0.00     0.182 A 
ATOM      8  N   UNL d   1       9.096   5.805  -8.714  0.00  0.00    -0.268 N 
ATOM      9  C   UNL d   1      10.595   8.649  -7.151  0.00  0.00     0.316 A 
ATOM     10  O   UNL d   1      10.535   9.402  -6.179  0.00  0.00    -0.263 OA
ATOM     11  N   UNL d   1      11.608   8.854  -8.082  0.00  0.00    -0.016 NA
ENDROOT
BRANCH   8  12
ATOM     12  C   UNL d   1       8.988   4.763  -9.722  0.00  0.00     0.259 C 
BRANCH  12  13
ATOM     13  O   UNL d   1       8.921   5.329 -10.996  0.00  0.00    -0.330 OA
BRANCH  13  14
ATOM     14  C   UNL d   1       7.605   5.686 -11.385  0.00  0.00     0.180 C 
BRANCH  14  15
ATOM     15  C   UNL d   1       7.653   6.802 -12.438  0.00  0.00     0.214 C 
ATOM     16  O   UNL d   1       6.424   7.495 -12.457  0.00  0.00    -0.218 OA
ENDBRANCH  14  15
ENDBRANCH  13  14
ENDBRANCH  12  13
ENDBRANCH   8  12
TORSDOF 4
