REMARK  4 active torsions:
REMARK  status: ('A' for Active; 'I' for Inactive)
REMARK    1  A    between atoms: C_2  and  O_3 
REMARK    2  A    between atoms: C_2  and  C_12 
REMARK    3  A    between atoms: O_3  and  C_4 
REMARK    4  A    between atoms: C_17  and  N_18 
ROOT
ATOM      1  C   UNL d   1       9.185   5.113 -12.700  0.00  0.00     0.203 A 
ATOM      2  N   UNL d   1      10.412   5.039 -13.241  0.00  0.00    -0.039 NA
ATOM      3  C   UNL d   1      10.509   4.081 -14.149  0.00  0.00     0.785 A 
ATOM      4  N   UNL d   1      11.736   3.924 -14.728  0.00  0.00     0.063 N 
ATOM      5  N   UNL d   1       9.561   3.264 -14.584  0.00  0.00     0.134 NA
ATOM      6  C   UNL d   1       8.387   3.464 -13.981  0.00  0.00     0.744 A 
ATOM      7  N   UNL d   1       8.123   4.376 -13.037  0.00  0.00    -0.043 NA
ENDROOT
BRANCH   1   8
ATOM      8  C   UNL d   1       8.962   6.176 -11.623  0.00  0.00     0.181 C 
ATOM      9  C   UNL d   1       8.808   7.564 -12.261  0.00  0.00     0.041 C 
BRANCH   8  10
ATOM     10  O   UNL d   1      10.061   6.225 -10.707  0.00  0.00    -0.325 OA
BRANCH  10  11
ATOM     11  C   UNL d   1       9.820   6.626  -9.412  0.00  0.00     0.106 A 
ATOM     12  C   UNL d   1      10.626   7.640  -8.844  0.00  0.00     0.090 A 
ATOM     13  C   UNL d   1      10.444   8.036  -7.502  0.00  0.00     0.070 A 
ATOM     14 CL   UNL d   1      11.856   8.396  -9.785  0.00  0.00    -0.079 Cl
ATOM     15  C   UNL d   1       9.463   7.407  -6.721  0.00  0.00     0.012 A 
ATOM     16 CL   UNL d   1      11.418   9.276  -6.792  0.00  0.00    -0.081 Cl
ATOM     17  C   UNL d   1       8.659   6.395  -7.274  0.00  0.00     0.003 A 
ATOM     18  C   UNL d   1       8.844   5.990  -8.612  0.00  0.00     0.025 A 
ENDBRANCH  10  11
ENDBRANCH   8  10
ENDBRANCH   1   8
BRANCH   6  19
ATOM     19  N   UNL d   1       7.336   2.640 -14.384  0.00  0.00    -0.178 N 
ATOM     20  C   UNL d   1       7.312   1.929 -15.665  0.00  0.00     0.155 C 
ATOM     21  C   UNL d   1       7.021   0.435 -15.448  0.00  0.00     0.275 C 
ATOM     22  N   UNL d   1       5.751   0.263 -14.736  0.00  0.00     0.143 N 
ATOM     23  C   UNL d   1       5.863   0.899 -13.423  0.00  0.00     0.275 C 
ATOM     24  C   UNL d   1       5.488  -1.156 -14.573  0.00  0.00     0.286 C 
ATOM     25  C   UNL d   1       6.139   2.413 -13.574  0.00  0.00     0.155 C 
ENDBRANCH   6  19
TORSDOF 4
