REMARK  6 active torsions:
REMARK  status: ('A' for Active; 'I' for Inactive)
REMARK    1  A    between atoms: C_2  and  C_3 
REMARK    2  A    between atoms: C_2  and  C_18 
REMARK    3  A    between atoms: C_3  and  C_4 
REMARK    4  A    between atoms: C_4  and  C_5 
REMARK    5  A    between atoms: C_5  and  N_6 
REMARK    6  A    between atoms: N_9  and  C_10 
ROOT
ATOM      1  N   UNL d   1       8.036   5.307 -11.634  0.00  0.00     0.141 N 
ATOM      2  C   UNL d   1       9.111   4.520 -12.245  0.00  0.00     0.274 C 
ATOM      3  C   UNL d   1       8.796   4.240 -13.721  0.00  0.00     0.138 C 
ATOM      4  N   UNL d   1       7.498   3.583 -13.846  0.00  0.00    -0.330 N 
ATOM      5  C   UNL d   1       6.400   4.245 -13.146  0.00  0.00     0.138 C 
ATOM      6  C   UNL d   1       6.788   4.537 -11.691  0.00  0.00     0.274 C 
ENDROOT
BRANCH   1   7
ATOM      7  C   UNL d   1       8.346   5.592 -10.234  0.00  0.00     0.251 C 
BRANCH   7   8
ATOM      8  C   UNL d   1       9.460   6.642 -10.090  0.00  0.00     0.038 C 
BRANCH   8   9
ATOM      9  C   UNL d   1       9.646   7.073  -8.630  0.00  0.00     0.040 C 
BRANCH   9  10
ATOM     10  C   UNL d   1      10.923   7.907  -8.400  0.00  0.00     0.174 C 
ATOM     11  O   UNL d   1      10.869   9.068  -9.212  0.00  0.00    -0.219 OA
BRANCH  10  12
ATOM     12  C   UNL d   1      11.137   8.200  -6.915  0.00  0.00     0.008 A 
ATOM     13  C   UNL d   1      11.268   7.128  -6.002  0.00  0.00     0.001 A 
ATOM     14  C   UNL d   1      11.464   7.372  -4.628  0.00  0.00     0.029 A 
ATOM     15  C   UNL d   1      11.547   8.695  -4.154  0.00  0.00     0.140 A 
ATOM     16  C   UNL d   1      11.409   9.767  -5.054  0.00  0.00     0.029 A 
ATOM     17  F   UNL d   1      11.753   8.936  -2.838  0.00  0.00    -0.204 F 
ATOM     18  C   UNL d   1      11.211   9.525  -6.426  0.00  0.00     0.001 A 
ENDBRANCH  10  12
ENDBRANCH   9  10
ENDBRANCH   8   9
ENDBRANCH   7   8
ENDBRANCH   1   7
BRANCH   4  19
ATOM     19  C   UNL d   1       7.328   2.367 -14.536  0.00  0.00     0.140 A 
ATOM     20  N   UNL d   1       6.270   1.595 -14.185  0.00  0.00    -0.227 NA
ATOM     21  C   UNL d   1       6.067   0.439 -14.848  0.00  0.00     0.101 A 
ATOM     22  C   UNL d   1       6.896  -0.009 -15.889  0.00  0.00     0.021 A 
ATOM     23  C   UNL d   1       7.998   0.777 -16.252  0.00  0.00     0.005 A 
ATOM     24  C   UNL d   1       8.218   1.987 -15.573  0.00  0.00     0.037 A 
ENDBRANCH   4  19
TORSDOF 6
