REMARK  7 active torsions:
REMARK  status: ('A' for Active; 'I' for Inactive)
REMARK    1  A    between atoms: O_2  and  C_3 
REMARK    2  A    between atoms: C_6  and  N_7 
REMARK    3  A    between atoms: N_10  and  C_11 
REMARK    4  A    between atoms: C_11  and  C_12 
REMARK    5  A    between atoms: C_12  and  C_13 
REMARK    6  A    between atoms: C_13  and  N_14 
REMARK       I    between atoms: N_17  and  C_18 
REMARK    7  A    between atoms: C_18  and  C_20 
ROOT
ATOM      1  C   UNL d   1       9.132   0.071 -16.826  0.00  0.00     0.071 C 
ENDROOT
BRANCH   1   2
ATOM      2  C   UNL d   1       9.200  -0.999 -17.944  0.00  0.00     0.253 C 
BRANCH   2   3
ATOM      3  N   UNL d   1      10.270  -0.752 -18.918  0.00  0.00     0.141 N 
ATOM      4  C   UNL d   1      11.524  -0.320 -18.289  0.00  0.00     0.274 C 
ATOM      5  C   UNL d   1      12.647  -0.117 -19.299  0.00  0.00     0.137 C 
ATOM      6  N   UNL d   1      12.193   0.828 -20.304  0.00  0.00    -0.344 N 
ATOM      7  C   UNL d   1      10.932   0.469 -20.948  0.00  0.00     0.137 C 
ATOM      8  C   UNL d   1       9.833   0.240 -19.897  0.00  0.00     0.274 C 
BRANCH   6   9
ATOM      9  C   UNL d   1      12.911   1.989 -20.641  0.00  0.00     0.056 A 
ATOM     10  C   UNL d   1      12.749   2.542 -21.925  0.00  0.00     0.019 A 
ATOM     11  C   UNL d   1      13.446   3.692 -22.314  0.00  0.00     0.026 A 
ATOM     12  C   UNL d   1      14.345   4.330 -21.425  0.00  0.00     0.094 A 
ATOM     13  C   UNL d   1      14.518   3.778 -20.136  0.00  0.00     0.026 A 
ATOM     14  C   UNL d   1      13.804   2.627 -19.741  0.00  0.00     0.019 A 
BRANCH  12  15
ATOM     15  O   UNL d   1      15.054   5.459 -21.756  0.00  0.00    -0.328 OA
ATOM     16  C   UNL d   1      14.810   6.014 -23.046  0.00  0.00     0.181 C 
ENDBRANCH  12  15
ENDBRANCH   6   9
ENDBRANCH   2   3
ENDBRANCH   1   2
BRANCH   1  17
ATOM     17  C   UNL d   1       7.820   0.116 -16.034  0.00  0.00     0.253 C 
BRANCH  17  18
ATOM     18  N   UNL d   1       7.622   1.448 -15.459  0.00  0.00     0.141 N 
ATOM     19  C   UNL d   1       6.334   1.505 -14.775  0.00  0.00     0.274 C 
ATOM     20  C   UNL d   1       6.034   2.943 -14.319  0.00  0.00     0.140 C 
ATOM     21  N   UNL d   1       7.119   3.502 -13.509  0.00  0.00    -0.312 N 
ATOM     22  C   UNL d   1       8.463   3.316 -14.099  0.00  0.00     0.140 C 
ATOM     23  C   UNL d   1       6.880   4.050 -12.293  0.00  0.00     0.257 C 
ATOM     24  C   UNL d   1       8.674   1.848 -14.518  0.00  0.00     0.274 C 
ATOM     25  O   UNL d   1       5.844   3.853 -11.662  0.00  0.00    -0.267 OA
BRANCH  23  26
ATOM     26  C   UNL d   1       7.925   4.953 -11.708  0.00  0.00     0.056 A 
ATOM     27  C   UNL d   1       8.477   5.997 -12.479  0.00  0.00     0.005 A 
ATOM     28  C   UNL d   1       9.432   6.867 -11.923  0.00  0.00     0.000 A 
ATOM     29  C   UNL d   1       9.850   6.700 -10.588  0.00  0.00     0.000 A 
ATOM     30  C   UNL d   1       9.290   5.671  -9.806  0.00  0.00     0.000 A 
ATOM     31  C   UNL d   1       8.318   4.813 -10.358  0.00  0.00     0.005 A 
ENDBRANCH  23  26
ENDBRANCH  17  18
ENDBRANCH   1  17
TORSDOF 7
