REMARK  6 active torsions:
REMARK  status: ('A' for Active; 'I' for Inactive)
REMARK    1  A    between atoms: O_2  and  C_3 
REMARK    2  A    between atoms: C_8  and  O_9 
REMARK    3  A    between atoms: N_12  and  C_13 
REMARK    4  A    between atoms: N_14  and  C_15 
REMARK    5  A    between atoms: C_21  and  O_22 
REMARK    6  A    between atoms: O_22  and  C_23 
ROOT
ATOM      1  C   UNL d   1       9.058   4.809 -12.366  0.00  0.00     0.175 C 
ATOM      2  N   UNL d   1       9.879   5.152 -13.311  0.00  0.00    -0.226 NA
ENDROOT
BRANCH   1   3
ATOM      3  N   UNL d   1       8.777   5.589 -11.261  0.00  0.00    -0.327 N 
ATOM      4  C   UNL d   1       9.390   6.889 -10.997  0.00  0.00     0.130 C 
ATOM      5  C   UNL d   1       9.857   7.085  -9.567  0.00  0.00    -0.002 A 
ATOM      6  C   UNL d   1       9.470   6.181  -8.560  0.00  0.00    -0.020 A 
ATOM      7  C   UNL d   1      10.656   8.197  -9.222  0.00  0.00     0.024 A 
ATOM      8  C   UNL d   1       9.878   6.388  -7.238  0.00  0.00     0.022 A 
ATOM      9  C   UNL d   1       8.611   4.972  -8.883  0.00  0.00     0.050 C 
ATOM     10  C   UNL d   1      10.698   7.476  -6.880  0.00  0.00     0.116 A 
ATOM     11  C   UNL d   1      11.057   8.407  -7.880  0.00  0.00     0.116 A 
ATOM     12  C   UNL d   1       7.878   5.121 -10.221  0.00  0.00     0.108 C 
BRANCH  10  13
ATOM     13  O   UNL d   1      11.184   7.668  -5.606  0.00  0.00    -0.326 OA
ATOM     14  C   UNL d   1      10.998   6.641  -4.653  0.00  0.00     0.181 C 
ENDBRANCH  10  13
BRANCH  11  15
ATOM     15  O   UNL d   1      11.864   9.479  -7.593  0.00  0.00    -0.326 OA
ATOM     16  C   UNL d   1      11.475  10.362  -6.542  0.00  0.00     0.181 C 
ENDBRANCH  11  15
ENDBRANCH   1   3
BRANCH   2  17
ATOM     17  C   UNL d   1      10.115   4.254 -14.351  0.00  0.00     0.083 A 
ATOM     18  C   UNL d   1      10.331   4.784 -15.638  0.00  0.00     0.017 A 
ATOM     19  C   UNL d   1      10.574   3.910 -16.701  0.00  0.00     0.003 A 
ATOM     20  C   UNL d   1      10.635   2.539 -16.524  0.00  0.00    -0.024 A 
ATOM     21  C   UNL d   1      10.860   4.310 -18.113  0.00  0.00     0.147 C 
ATOM     22  C   UNL d   1      10.450   1.974 -15.254  0.00  0.00    -0.003 A 
ATOM     23  C   UNL d   1      10.942   1.834 -17.816  0.00  0.00     0.029 C 
ATOM     24  C   UNL d   1      10.190   2.835 -14.171  0.00  0.00     0.019 A 
ATOM     25  C   UNL d   1      11.248   2.980 -18.805  0.00  0.00     0.040 C 
BRANCH  21  26
ATOM     26  O   UNL d   1       9.691   4.886 -18.718  0.00  0.00    -0.300 OA
BRANCH  26  27
ATOM     27  C   UNL d   1       9.673   6.110 -19.280  0.00  0.00     0.273 C 
ATOM     28  C   UNL d   1      11.014   6.839 -19.347  0.00  0.00     0.106 C 
ATOM     29  O   UNL d   1       8.652   6.636 -19.727  0.00  0.00    -0.264 OA
ENDBRANCH  26  27
ENDBRANCH  21  26
ENDBRANCH   2  17
TORSDOF 6
