REMARK  6 active torsions:
REMARK  status: ('A' for Active; 'I' for Inactive)
REMARK    1  A    between atoms: O_2  and  C_3 
REMARK    2  A    between atoms: C_10  and  C_11 
REMARK       I    between atoms: C_11  and  N_13 
REMARK    3  A    between atoms: N_13  and  C_14 
REMARK    4  A    between atoms: C_14  and  C_15 
REMARK    5  A    between atoms: N_18  and  C_19 
REMARK    6  A    between atoms: C_19  and  C_20 
ROOT
ATOM      1  C   UNL d   1       9.339   4.551 -13.037  0.00  0.00     0.277 C 
ATOM      2  O   UNL d   1      10.462   5.013 -13.223  0.00  0.00    -0.266 OA
ATOM      3  N   UNL d   1       8.651   4.649 -11.895  0.00  0.00    -0.234 NA
ENDROOT
BRANCH   3   4
ATOM      4  C   UNL d   1       9.205   4.748 -10.562  0.00  0.00     0.131 C 
BRANCH   4   5
ATOM      5  C   UNL d   1       9.038   6.126  -9.947  0.00  0.00     0.060 C 
ATOM      6  C   UNL d   1       8.682   6.070  -8.458  0.00  0.00     0.253 C 
ATOM      7  N   UNL d   1       9.326   7.260  -7.917  0.00  0.00     0.141 N 
ATOM      8  C   UNL d   1      10.639   7.219  -8.560  0.00  0.00     0.251 C 
ATOM      9  C   UNL d   1      10.326   6.934 -10.005  0.00  0.00     0.039 C 
BRANCH   7  10
ATOM     10  C   UNL d   1       9.325   7.216  -6.451  0.00  0.00     0.277 C 
BRANCH  10  11
ATOM     11  C   UNL d   1      10.419   8.038  -5.798  0.00  0.00     0.011 A 
ATOM     12  C   UNL d   1      11.182   7.472  -4.758  0.00  0.00    -0.002 A 
ATOM     13  C   UNL d   1      12.241   8.191  -4.168  0.00  0.00    -0.000 A 
ATOM     14  C   UNL d   1      12.583   9.448  -4.679  0.00  0.00    -0.000 A 
ATOM     15  C   UNL d   1      11.821  10.010  -5.730  0.00  0.00    -0.000 A 
ATOM     16  C   UNL d   1      10.716   9.333  -6.258  0.00  0.00    -0.002 A 
ENDBRANCH  10  11
ENDBRANCH   7  10
ENDBRANCH   4   5
ENDBRANCH   3   4
BRANCH   1  17
ATOM     17  C   UNL d   1       8.717   3.618 -14.044  0.00  0.00     0.081 A 
ATOM     18  C   UNL d   1       7.348   3.231 -14.008  0.00  0.00     0.100 A 
ATOM     19  C   UNL d   1       6.889   2.245 -14.936  0.00  0.00     0.039 A 
ATOM     20  C   UNL d   1       7.746   1.719 -15.916  0.00  0.00     0.083 A 
ATOM     21  N   UNL d   1       7.240   0.843 -16.888  0.00  0.00    -0.100 NA
ATOM     22  C   UNL d   1       9.100   2.100 -15.936  0.00  0.00     0.071 A 
ATOM     23 CL   UNL d   1      10.209   1.453 -17.095  0.00  0.00    -0.081 Cl
ATOM     24  C   UNL d   1       9.575   3.042 -15.007  0.00  0.00     0.019 A 
BRANCH  18  25
ATOM     25  O   UNL d   1       6.508   3.794 -13.068  0.00  0.00    -0.328 OA
ATOM     26  C   UNL d   1       5.120   3.545 -13.131  0.00  0.00     0.181 C 
ENDBRANCH  18  25
ENDBRANCH   1  17
TORSDOF 6
