REMARK  6 active torsions:
REMARK  status: ('A' for Active; 'I' for Inactive)
REMARK    1  A    between atoms: N_12  and  C_13 
REMARK    2  A    between atoms: C_13  and  C_14 
REMARK    3  A    between atoms: C_14  and  C_15 
REMARK    4  A    between atoms: C_15  and  C_16 
REMARK    5  A    between atoms: C_16  and  N_17 
REMARK    6  A    between atoms: C_20  and  C_21 
ROOT
ATOM      1  N   UNL d   1       7.129   3.289 -14.036  0.00  0.00     0.137 N 
ATOM      2  C   UNL d   1       8.589   3.191 -13.882  0.00  0.00     0.251 C 
ATOM      3  C   UNL d   1       9.176   4.500 -13.349  0.00  0.00     0.041 C 
ATOM      4  C   UNL d   1       8.495   4.950 -12.043  0.00  0.00     0.047 C 
ATOM      5  C   UNL d   1       6.967   4.945 -12.204  0.00  0.00     0.041 C 
ATOM      6  C   UNL d   1       6.460   3.617 -12.773  0.00  0.00     0.251 C 
ENDROOT
BRANCH   1   7
ATOM      7  C   UNL d   1       6.573   2.048 -14.561  0.00  0.00     0.250 C 
BRANCH   7   8
ATOM      8  C   UNL d   1       6.920   1.873 -16.048  0.00  0.00     0.037 C 
BRANCH   8   9
ATOM      9  C   UNL d   1       6.223   0.669 -16.702  0.00  0.00     0.027 C 
BRANCH   9  10
ATOM     10  C   UNL d   1       6.405   0.596 -18.234  0.00  0.00     0.112 C 
BRANCH  10  11
ATOM     11  N   UNL d   1       7.812   0.446 -18.638  0.00  0.00    -0.271 N 
ATOM     12  C   UNL d   1       8.644   1.469 -18.872  0.00  0.00     0.239 A 
ATOM     13  O   UNL d   1       8.366   2.669 -18.816  0.00  0.00    -0.272 OA
ATOM     14  C   UNL d   1      10.044   0.977 -19.229  0.00  0.00     0.088 A 
ATOM     15  C   UNL d   1       9.897  -0.548 -19.153  0.00  0.00     0.088 A 
ATOM     16  C   UNL d   1      11.137   1.270 -18.171  0.00  0.00     0.009 C 
ATOM     17  C   UNL d   1      10.935  -0.942 -18.077  0.00  0.00     0.009 C 
ATOM     18  C   UNL d   1       8.443  -0.737 -18.740  0.00  0.00     0.239 A 
ATOM     19  C   UNL d   1      12.337  -0.753 -18.687  0.00  0.00     0.001 C 
ATOM     20  C   UNL d   1      10.888   0.224 -17.086  0.00  0.00     0.001 C 
ATOM     21  C   UNL d   1      12.483   0.784 -18.744  0.00  0.00     0.001 C 
ATOM     22  O   UNL d   1       7.962  -1.851 -18.542  0.00  0.00    -0.272 OA
ENDBRANCH  10  11
ENDBRANCH   9  10
ENDBRANCH   8   9
ENDBRANCH   7   8
ENDBRANCH   1   7
BRANCH   4  23
ATOM     23  C   UNL d   1       9.002   6.292 -11.595  0.00  0.00     0.087 A 
ATOM     24  C   UNL d   1       9.583   6.713 -10.376  0.00  0.00     0.041 A 
ATOM     25  C   UNL d   1       9.868   8.078 -10.462  0.00  0.00     0.129 A 
ATOM     26  C   UNL d   1       9.859   6.024  -9.177  0.00  0.00     0.006 A 
ATOM     27  O   UNL d   1       9.457   8.458 -11.726  0.00  0.00    -0.211 OA
ATOM     28  C   UNL d   1      10.451   8.807  -9.421  0.00  0.00     0.057 A 
ATOM     29  N   UNL d   1       8.918   7.342 -12.417  0.00  0.00    -0.131 NA
ATOM     30  C   UNL d   1      10.732   8.124  -8.219  0.00  0.00     0.142 A 
ATOM     31  F   UNL d   1      11.291   8.794  -7.178  0.00  0.00    -0.204 F 
ATOM     32  C   UNL d   1      10.434   6.740  -8.099  0.00  0.00     0.030 A 
ENDBRANCH   4  23
TORSDOF 6
