REMARK  8 active torsions:
REMARK  status: ('A' for Active; 'I' for Inactive)
REMARK    1  A    between atoms: C_2  and  C_3 
REMARK    2  A    between atoms: C_3  and  C_4 
REMARK    3  A    between atoms: C_4  and  C_5 
REMARK    4  A    between atoms: C_5  and  N_6 
REMARK       I    between atoms: N_6  and  C_7 
REMARK       I    between atoms: C_7  and  N_9 
REMARK       I    between atoms: C_10  and  N_12 
REMARK    5  A    between atoms: N_12  and  C_13 
REMARK    6  A    between atoms: C_13  and  C_14 
REMARK    7  A    between atoms: C_14  and  C_15 
REMARK    8  A    between atoms: C_15  and  C_16 
ROOT
ATOM      1  N   UNL d   1       9.765   3.330 -13.663  0.00  0.00    -0.217 NA
ATOM      2  C   UNL d   1       8.772   4.149 -13.323  0.00  0.00     0.380 C 
ATOM      3  O   UNL d   1       7.730   4.208 -13.980  0.00  0.00    -0.242 OA
ATOM      4  N   UNL d   1       9.124   4.846 -12.179  0.00  0.00     0.001 NA
ATOM      5  C   UNL d   1       8.302   5.668 -11.606  0.00  0.00     0.768 C 
ATOM      6  N   UNL d   1       7.017   5.988 -11.993  0.00  0.00     0.062 N 
ATOM      7  N   UNL d   1       8.663   6.345 -10.455  0.00  0.00    -0.084 NA
ENDROOT
BRANCH   7   8
ATOM      8  C   UNL d   1       9.912   6.180  -9.735  0.00  0.00     0.146 C 
BRANCH   8   9
ATOM      9  C   UNL d   1       9.941   7.011  -8.447  0.00  0.00     0.034 C 
BRANCH   9  10
ATOM     10  C   UNL d   1      11.326   7.052  -7.798  0.00  0.00     0.057 C 
BRANCH  10  11
ATOM     11  C   UNL d   1      11.418   7.995  -6.652  0.00  0.00     0.112 A 
ATOM     12  S   UNL d   1      11.444   7.460  -4.973  0.00  0.00    -0.036 SA
ATOM     13  C   UNL d   1      11.551   9.165  -4.575  0.00  0.00     0.203 A 
ATOM     14  N   UNL d   1      11.554   9.999  -5.616  0.00  0.00    -0.127 NA
ATOM     15  N   UNL d   1      11.618   9.586  -3.260  0.00  0.00    -0.070 NA
ATOM     16  N   UNL d   1      11.490   9.321  -6.821  0.00  0.00    -0.144 NA
ENDBRANCH  10  11
ENDBRANCH   9  10
ENDBRANCH   8   9
ENDBRANCH   7   8
BRANCH   1  17
ATOM     17  C   UNL d   1       9.734   2.435 -14.807  0.00  0.00     0.131 C 
BRANCH  17  18
ATOM     18  C   UNL d   1      11.122   1.849 -15.091  0.00  0.00     0.026 C 
BRANCH  18  19
ATOM     19  C   UNL d   1      11.185   1.037 -16.396  0.00  0.00     0.002 C 
BRANCH  19  20
ATOM     20  C   UNL d   1      10.263  -0.197 -16.397  0.00  0.00     0.000 C 
ATOM     21  C   UNL d   1      10.374  -1.024 -17.680  0.00  0.00     0.000 C 
ENDBRANCH  19  20
ENDBRANCH  18  19
ENDBRANCH  17  18
ENDBRANCH   1  17
TORSDOF 8
