REMARK  0 active torsions:
REMARK  status: ('A' for Active; 'I' for Inactive)
ROOT
ATOM      1  C   UNL d   1      12.278   9.171  -6.904  0.00  0.00     0.052 C 
ATOM      2  C   UNL d   1      11.103   8.238  -7.069  0.00  0.00     0.057 A 
ATOM      3  N   UNL d   1      10.656   7.819  -5.881  0.00  0.00    -0.249 NA
ATOM      4  C   UNL d   1       9.648   6.949  -5.893  0.00  0.00     0.099 A 
ATOM      5  C   UNL d   1       9.031   6.434  -7.034  0.00  0.00     0.021 A 
ATOM      6  C   UNL d   1       9.544   6.803  -8.283  0.00  0.00     0.002 A 
ATOM      7  C   UNL d   1      10.554   7.796  -8.320  0.00  0.00     0.011 A 
ATOM      8  C   UNL d   1      11.082   8.204  -9.707  0.00  0.00     0.104 C 
ATOM      9  C   UNL d   1      11.335   9.646  -9.853  0.00  0.00     0.029 C 
ATOM     10  C   UNL d   1      12.385   7.473  -9.968  0.00  0.00     0.029 C 
ATOM     11  N   UNL d   1      10.128   7.963 -10.786  0.00  0.00    -0.270 NA
ATOM     12  C   UNL d   1       9.368   6.800 -10.772  0.00  0.00     0.077 A 
ATOM     13  C   UNL d   1       8.835   6.317 -11.991  0.00  0.00     0.025 A 
ATOM     14  C   UNL d   1       8.037   5.170 -11.987  0.00  0.00     0.036 A 
ATOM     15 BR   UNL d   1       7.334   4.359 -13.559  0.00  0.00    -0.049 Br
ATOM     16  C   UNL d   1       7.795   4.524 -10.781  0.00  0.00     0.007 A 
ATOM     17  C   UNL d   1       8.300   5.013  -9.573  0.00  0.00     0.002 A 
ATOM     18  C   UNL d   1       9.086   6.160  -9.541  0.00  0.00     0.017 A 
ENDROOT
TORSDOF 0
