REMARK  5 active torsions:
REMARK  status: ('A' for Active; 'I' for Inactive)
REMARK    1  A    between atoms: C_7  and  O_8 
REMARK    2  A    between atoms: O_8  and  C_9 
REMARK    3  A    between atoms: C_9  and  C_10 
REMARK    4  A    between atoms: C_10  and  N_11 
REMARK    5  A    between atoms: N_14  and  C_15 
ROOT
ATOM      1  N   UNL d   1       9.238   7.110 -11.656  0.00  0.00     0.144 N 
ATOM      2  C   UNL d   1       9.585   5.732 -11.342  0.00  0.00     0.274 C 
ATOM      3  C   UNL d   1       9.368   4.822 -12.566  0.00  0.00     0.137 C 
ATOM      4  N   UNL d   1       7.985   4.896 -12.979  0.00  0.00    -0.344 N 
ATOM      5  C   UNL d   1       7.451   6.237 -13.160  0.00  0.00     0.137 C 
ATOM      6  C   UNL d   1       7.820   7.070 -11.968  0.00  0.00     0.274 C 
ENDROOT
BRANCH   1   7
ATOM      7  C   UNL d   1       9.470   7.954 -10.472  0.00  0.00     0.283 C 
BRANCH   7   8
ATOM      8  C   UNL d   1      10.937   8.356 -10.299  0.00  0.00     0.184 C 
BRANCH   8   9
ATOM      9  O   UNL d   1      11.141   9.213  -9.183  0.00  0.00    -0.329 OA
BRANCH   9  10
ATOM     10  C   UNL d   1      11.208   8.637  -7.938  0.00  0.00     0.096 A 
ATOM     11  C   UNL d   1      10.907   7.254  -7.750  0.00  0.00     0.026 A 
ATOM     12  C   UNL d   1      11.009   6.684  -6.470  0.00  0.00     0.023 A 
ATOM     13  C   UNL d   1      11.423   7.507  -5.431  0.00  0.00     0.102 A 
ATOM     14  N   UNL d   1      11.704   7.206  -4.101  0.00  0.00    -0.216 NA
ATOM     15  C   UNL d   1      11.703   8.842  -5.600  0.00  0.00     0.103 A 
ATOM     16  C   UNL d   1      12.167   8.297  -3.464  0.00  0.00     0.221 A 
ATOM     17  S   UNL d   1      12.650   8.417  -1.903  0.00  0.00    -0.037 SA
ATOM     18  N   UNL d   1      12.159   9.315  -4.377  0.00  0.00    -0.216 NA
ATOM     19  C   UNL d   1      11.586   9.469  -6.850  0.00  0.00     0.045 A 
ENDBRANCH   9  10
ENDBRANCH   8   9
ENDBRANCH   7   8
ENDBRANCH   1   7
BRANCH   4  20
ATOM     20  C   UNL d   1       7.178   3.773 -13.213  0.00  0.00     0.067 A 
ATOM     21  C   UNL d   1       7.577   2.739 -14.090  0.00  0.00     0.073 A 
ATOM     22  C   UNL d   1       6.777   1.591 -14.261  0.00  0.00     0.013 A 
ATOM     23 CL   UNL d   1       9.042   2.806 -15.008  0.00  0.00    -0.081 Cl
ATOM     24  C   UNL d   1       5.580   1.465 -13.546  0.00  0.00     0.001 A 
ATOM     25  C   UNL d   1       5.187   2.482 -12.678  0.00  0.00     0.002 A 
ATOM     26  C   UNL d   1       5.947   3.654 -12.516  0.00  0.00     0.018 A 
ENDBRANCH   4  20
TORSDOF 5
