REMARK  10 active torsions:
REMARK  status: ('A' for Active; 'I' for Inactive)
REMARK    1  A    between atoms: O_2  and  C_3 
REMARK    2  A    between atoms: C_8  and  N_9 
REMARK    3  A    between atoms: N_12  and  C_13 
REMARK    4  A    between atoms: C_13  and  C_14 
REMARK    5  A    between atoms: C_15  and  C_16 
REMARK    6  A    between atoms: C_16  and  N_17 
REMARK       I    between atoms: N_17  and  C_18 
REMARK    7  A    between atoms: C_18  and  C_20 
REMARK    8  A    between atoms: C_23  and  O_24 
REMARK    9  A    between atoms: O_24  and  C_25 
REMARK   10  A    between atoms: C_25  and  C_26 
ROOT
ATOM      1  C   UNL d   1      10.449   4.913 -13.836  0.00  0.00     0.006 C 
ATOM      2  C   UNL d   1       9.689   5.005 -12.733  0.00  0.00    -0.003 C 
ENDROOT
BRANCH   1   3
ATOM      3  C   UNL d   1      10.964   3.608 -14.412  0.00  0.00     0.276 C 
BRANCH   3   4
ATOM      4  N   UNL d   1      10.841   3.565 -15.868  0.00  0.00     0.145 N 
ATOM      5  C   UNL d   1       9.447   3.755 -16.293  0.00  0.00     0.275 C 
ATOM      6  C   UNL d   1       9.323   3.738 -17.828  0.00  0.00     0.137 C 
ATOM      7  N   UNL d   1       9.891   2.508 -18.354  0.00  0.00    -0.343 N 
ATOM      8  C   UNL d   1      11.245   2.209 -17.899  0.00  0.00     0.137 C 
ATOM      9  C   UNL d   1      11.316   2.263 -16.355  0.00  0.00     0.275 C 
BRANCH   7  10
ATOM     10  C   UNL d   1       9.136   1.639 -19.167  0.00  0.00     0.079 A 
ATOM     11  C   UNL d   1       9.113   0.241 -18.935  0.00  0.00     0.110 A 
ATOM     12  C   UNL d   1       8.371  -0.599 -19.808  0.00  0.00     0.026 A 
ATOM     13  C   UNL d   1       7.636  -0.052 -20.875  0.00  0.00     0.002 A 
ATOM     14  C   UNL d   1       7.640   1.335 -21.087  0.00  0.00     0.002 A 
ATOM     15  C   UNL d   1       8.387   2.175 -20.238  0.00  0.00     0.019 A 
BRANCH  11  16
ATOM     16  O   UNL d   1       9.788  -0.236 -17.832  0.00  0.00    -0.327 OA
ATOM     17  C   UNL d   1      10.037  -1.621 -17.750  0.00  0.00     0.181 C 
ENDBRANCH  11  16
ENDBRANCH   7  10
ENDBRANCH   3   4
ENDBRANCH   1   3
BRANCH   2  18
ATOM     18  C   UNL d   1       9.147   6.302 -12.171  0.00  0.00     0.155 C 
BRANCH  18  19
ATOM     19  N   UNL d   1       9.648   6.527 -10.823  0.00  0.00    -0.229 NA
ATOM     20  C   UNL d   1       9.907   7.728 -10.288  0.00  0.00     0.275 C 
ATOM     21  O   UNL d   1       9.840   8.788 -10.912  0.00  0.00    -0.266 OA
BRANCH  20  22
ATOM     22  C   UNL d   1      10.365   7.720  -8.862  0.00  0.00     0.058 A 
ATOM     23  C   UNL d   1       9.862   6.769  -7.945  0.00  0.00     0.007 A 
ATOM     24  C   UNL d   1      10.277   6.795  -6.601  0.00  0.00     0.024 A 
ATOM     25  C   UNL d   1      11.180   7.786  -6.144  0.00  0.00     0.094 A 
ATOM     26  C   UNL d   1      11.652   8.748  -7.055  0.00  0.00     0.024 A 
ATOM     27  C   UNL d   1      11.251   8.717  -8.405  0.00  0.00     0.007 A 
BRANCH  25  28
ATOM     28  O   UNL d   1      11.643   7.868  -4.851  0.00  0.00    -0.328 OA
BRANCH  28  29
ATOM     29  C   UNL d   1      11.623   6.683  -4.067  0.00  0.00     0.187 C 
BRANCH  29  30
ATOM     30  C   UNL d   1      12.456   6.929  -2.806  0.00  0.00     0.226 C 
ATOM     31  F   UNL d   1      11.874   7.850  -2.039  0.00  0.00    -0.232 F 
ENDBRANCH  29  30
ENDBRANCH  28  29
ENDBRANCH  25  28
ENDBRANCH  20  22
ENDBRANCH  18  19
ENDBRANCH   2  18
TORSDOF 10
