REMARK  3 active torsions:
REMARK  status: ('A' for Active; 'I' for Inactive)
REMARK    1  A    between atoms: C_2  and  O_4 
REMARK    2  A    between atoms: O_4  and  C_5 
REMARK    3  A    between atoms: C_5  and  C_6 
ROOT
ATOM      1  C   UNL d   1       8.432  -0.297 -20.547  0.00  0.00     0.152 C 
ATOM      2  C   UNL d   1       7.384  -1.315 -19.991  0.00  0.00     0.035 C 
ATOM      3  C   UNL d   1       7.208  -1.022 -18.486  0.00  0.00     0.003 C 
ATOM      4  C   UNL d   1       8.047   0.234 -18.244  0.00  0.00     0.007 C 
ATOM      5  C   UNL d   1       8.506   0.581 -16.814  0.00  0.00     0.023 C 
ATOM      6  C   UNL d   1       7.366   0.614 -15.811  0.00  0.00    -0.015 C 
ATOM      7  C   UNL d   1       7.234   1.535 -14.841  0.00  0.00     0.050 C 
ATOM      8 CL   UNL d   1       5.864   1.401 -13.790  0.00  0.00    -0.083 Cl
ATOM      9  C   UNL d   1       8.238   2.588 -14.660  0.00  0.00    -0.010 C 
ATOM     10  C   UNL d   1       7.963   3.627 -13.835  0.00  0.00     0.034 C 
ATOM     11  C   UNL d   1       8.907   4.726 -13.585  0.00  0.00     0.173 C 
ATOM     12  O   UNL d   1       8.624   5.694 -12.888  0.00  0.00    -0.291 OA
ATOM     13  C   UNL d   1      10.297   4.640 -14.206  0.00  0.00     0.070 C 
ATOM     14  C   UNL d   1      10.251   3.876 -15.534  0.00  0.00     0.012 C 
ATOM     15  C   UNL d   1       9.572   2.483 -15.431  0.00  0.00     0.021 C 
ATOM     16  C   UNL d   1      10.518   1.524 -14.670  0.00  0.00     0.004 C 
ATOM     17  C   UNL d   1       9.249   1.946 -16.860  0.00  0.00     0.008 C 
ATOM     18  C   UNL d   1      10.433   1.903 -17.865  0.00  0.00     0.001 C 
ATOM     19  C   UNL d   1       9.986   1.450 -19.277  0.00  0.00     0.003 C 
ATOM     20  C   UNL d   1       9.216   0.103 -19.245  0.00  0.00     0.030 C 
ATOM     21  C   UNL d   1      10.225  -1.019 -18.836  0.00  0.00     0.003 C 
ENDROOT
BRANCH   1  22
ATOM     22  O   UNL d   1       7.752   0.890 -21.014  0.00  0.00    -0.300 OA
BRANCH  22  23
ATOM     23  C   UNL d   1       6.997   0.960 -22.146  0.00  0.00     0.273 C 
ATOM     24  C   UNL d   1       6.594   2.385 -22.480  0.00  0.00     0.106 C 
ATOM     25  O   UNL d   1       6.662   0.019 -22.860  0.00  0.00    -0.264 OA
ENDBRANCH  22  23
ENDBRANCH   1  22
BRANCH   1  26
ATOM     26  C   UNL d   1       9.366  -0.864 -21.659  0.00  0.00     0.176 C 
ATOM     27  C   UNL d   1      10.179   0.121 -22.498  0.00  0.00     0.075 C 
ATOM     28  O   UNL d   1       9.459  -2.069 -21.874  0.00  0.00    -0.294 OA
ENDBRANCH   1  26
TORSDOF 3
