REMARK  5 active torsions:
REMARK  status: ('A' for Active; 'I' for Inactive)
REMARK       I    between atoms: C_2  and  N_3 
REMARK    1  A    between atoms: C_2  and  C_33 
REMARK    2  A    between atoms: N_3  and  N_4 
REMARK    3  A    between atoms: C_13  and  N_14 
REMARK    4  A    between atoms: N_17  and  C_18 
REMARK    5  A    between atoms: C_18  and  C_19 
ROOT
ATOM      1  N   UNL d   1      10.916   1.795 -19.206  0.00  0.00    -0.225 N 
ATOM      2  C   UNL d   1       9.894   0.836 -19.352  0.00  0.00     0.101 A 
ATOM      3  C   UNL d   1       9.825   0.102 -20.557  0.00  0.00     0.022 A 
ATOM      4  C   UNL d   1       8.783  -0.802 -20.796  0.00  0.00     0.013 A 
ATOM      5  C   UNL d   1       7.792  -0.998 -19.819  0.00  0.00     0.059 A 
ATOM      6 CL   UNL d   1       6.516  -2.121 -20.117  0.00  0.00    -0.082 Cl
ATOM      7  C   UNL d   1       7.857  -0.288 -18.605  0.00  0.00     0.032 A 
ATOM      8  C   UNL d   1       8.896   0.642 -18.352  0.00  0.00     0.101 A 
ATOM      9  N   UNL d   1       8.910   1.215 -17.068  0.00  0.00    -0.227 NA
ATOM     10  C   UNL d   1       9.336   2.407 -16.760  0.00  0.00     0.142 C 
ATOM     11  C   UNL d   1       9.803   3.438 -17.769  0.00  0.00     0.051 A 
ATOM     12  C   UNL d   1       9.452   4.796 -17.556  0.00  0.00     0.004 A 
ATOM     13  C   UNL d   1       9.950   5.834 -18.347  0.00  0.00     0.000 A 
ATOM     14  C   UNL d   1      10.811   5.533 -19.407  0.00  0.00     0.002 A 
ATOM     15  C   UNL d   1      11.139   4.191 -19.666  0.00  0.00     0.019 A 
ATOM     16  C   UNL d   1      10.641   3.128 -18.869  0.00  0.00     0.086 A 
ENDROOT
BRANCH  10  17
ATOM     17  N   UNL d   1       9.398   2.834 -15.433  0.00  0.00    -0.330 N 
ATOM     18  C   UNL d   1       8.422   2.430 -14.416  0.00  0.00     0.138 C 
ATOM     19  C   UNL d   1       7.855   3.679 -13.703  0.00  0.00     0.274 C 
ATOM     20  N   UNL d   1       8.946   4.432 -13.083  0.00  0.00     0.141 N 
ATOM     21  C   UNL d   1       9.878   4.863 -14.125  0.00  0.00     0.274 C 
ATOM     22  C   UNL d   1      10.473   3.650 -14.857  0.00  0.00     0.138 C 
BRANCH  20  23
ATOM     23  C   UNL d   1       8.400   5.608 -12.416  0.00  0.00     0.250 C 
BRANCH  23  24
ATOM     24  C   UNL d   1       9.291   5.988 -11.214  0.00  0.00     0.033 C 
ATOM     25  C   UNL d   1       9.594   7.500 -11.209  0.00  0.00     0.002 C 
ATOM     26  C   UNL d   1      10.441   7.912  -9.994  0.00  0.00     0.000 C 
ATOM     27  C   UNL d   1       9.778   7.487  -8.677  0.00  0.00     0.000 C 
ATOM     28  C   UNL d   1       9.498   5.978  -8.664  0.00  0.00     0.000 C 
ATOM     29  C   UNL d   1       8.652   5.552  -9.876  0.00  0.00     0.002 C 
ENDBRANCH  23  24
ENDBRANCH  20  23
ENDBRANCH  10  17
BRANCH   1  30
ATOM     30  N   UNL d   1      12.247   1.425 -19.451  0.00  0.00    -0.123 NA
ATOM     31  C   UNL d   1      12.851   1.566 -20.647  0.00  0.00     0.296 C 
ATOM     32  O   UNL d   1      12.306   1.979 -21.664  0.00  0.00    -0.264 OA
BRANCH  31  33
ATOM     33  C   UNL d   1      14.316   1.299 -20.662  0.00  0.00     0.070 A 
ATOM     34  C   UNL d   1      14.856   0.062 -20.248  0.00  0.00     0.062 A 
ATOM     35  C   UNL d   1      16.248  -0.147 -20.337  0.00  0.00     0.012 A 
ATOM     36 CL   UNL d   1      13.860  -1.225 -19.657  0.00  0.00    -0.082 Cl
ATOM     37  C   UNL d   1      17.083   0.877 -20.834  0.00  0.00     0.001 A 
ATOM     38  C   UNL d   1      16.539   2.099 -21.258  0.00  0.00     0.000 A 
ATOM     39  C   UNL d   1      15.156   2.310 -21.174  0.00  0.00     0.006 A 
ENDBRANCH  31  33
ENDBRANCH   1  30
TORSDOF 5
