REMARK  3 active torsions:
REMARK  status: ('A' for Active; 'I' for Inactive)
REMARK    1  A    between atoms: N_5  and  C_6 
REMARK    2  A    between atoms: C_12  and  S_13 
REMARK    3  A    between atoms: S_13  and  C_16 
ROOT
ATOM      1  C   UNL d   1       7.480   1.603 -14.613  0.00  0.00     0.056 A 
ATOM      2  C   UNL d   1       8.665   1.178 -15.257  0.00  0.00     0.018 A 
ATOM      3  C   UNL d   1       9.826   1.984 -15.240  0.00  0.00     0.022 A 
ATOM      4  C   UNL d   1       9.782   3.211 -14.564  0.00  0.00     0.105 A 
ATOM      5  N   UNL d   1      10.718   4.207 -14.352  0.00  0.00    -0.147 NA
ATOM      6  N   UNL d   1      10.252   5.246 -13.600  0.00  0.00    -0.136 NA
ATOM      7  C   UNL d   1       9.000   4.950 -13.342  0.00  0.00     0.192 A 
ATOM      8  C   UNL d   1       8.615   3.688 -13.910  0.00  0.00     0.051 A 
ATOM      9  C   UNL d   1       7.465   2.860 -13.970  0.00  0.00     0.021 A 
ENDROOT
BRANCH   7  10
ATOM     10  S   UNL d   1       7.918   5.978 -12.342  0.00  0.00     0.228 S 
ATOM     11  O   UNL d   1       7.988   7.361 -12.826  0.00  0.00    -0.216 OA
ATOM     12  O   UNL d   1       6.625   5.260 -12.274  0.00  0.00    -0.216 OA
BRANCH  10  13
ATOM     13  C   UNL d   1       8.678   5.912 -10.699  0.00  0.00     0.089 A 
ATOM     14  C   UNL d   1       9.630   6.836 -10.158  0.00  0.00     0.011 A 
ATOM     15  C   UNL d   1      10.103   6.618  -8.828  0.00  0.00     0.001 A 
ATOM     16  C   UNL d   1      10.157   7.961 -10.841  0.00  0.00     0.001 A 
ATOM     17  C   UNL d   1       9.637   5.528  -8.092  0.00  0.00     0.000 A 
ATOM     18  C   UNL d   1      11.046   7.458  -8.199  0.00  0.00     0.000 A 
ATOM     19  C   UNL d   1       8.739   4.602  -8.648  0.00  0.00     0.001 A 
ATOM     20  C   UNL d   1       8.264   4.804  -9.943  0.00  0.00     0.011 A 
ATOM     21  C   UNL d   1      11.541   8.564  -8.894  0.00  0.00     0.000 A 
ATOM     22  C   UNL d   1      11.087   8.804 -10.201  0.00  0.00     0.000 A 
ENDBRANCH  10  13
ENDBRANCH   7  10
BRANCH   1  23
ATOM     23  N   UNL d   1       6.359   0.773 -14.587  0.00  0.00    -0.346 N 
ATOM     24  C   UNL d   1       5.367   0.739 -13.509  0.00  0.00     0.104 C 
ATOM     25  C   UNL d   1       4.210  -0.106 -14.054  0.00  0.00     0.065 C 
ATOM     26  C   UNL d   1       4.864  -0.982 -15.115  0.00  0.00     0.326 C 
ATOM     27  N   UNL d   1       3.929  -1.347 -16.181  0.00  0.00     0.618 N 
ATOM     28  C   UNL d   1       6.006  -0.134 -15.668  0.00  0.00     0.141 C 
ENDBRANCH   1  23
TORSDOF 3
