REMARK  9 active torsions:
REMARK  status: ('A' for Active; 'I' for Inactive)
REMARK    1  A    between atoms: C_2  and  O_4 
REMARK    2  A    between atoms: O_4  and  C_5 
REMARK    3  A    between atoms: C_10  and  N_11 
REMARK    4  A    between atoms: N_15  and  C_16 
REMARK    5  A    between atoms: C_16  and  C_17 
REMARK    6  A    between atoms: C_17  and  C_18 
REMARK    7  A    between atoms: C_18  and  C_19 
REMARK    8  A    between atoms: C_19  and  O_20 
REMARK    9  A    between atoms: O_20  and  C_21 
ROOT
ATOM      1  N   UNL d   1       8.164   1.208 -15.823  0.00  0.00    -0.345 N 
ATOM      2  C   UNL d   1       9.537   0.774 -15.600  0.00  0.00     0.104 C 
ATOM      3  C   UNL d   1      10.495   1.913 -15.180  0.00  0.00     0.059 C 
ATOM      4  C   UNL d   1      10.031   2.696 -13.943  0.00  0.00     0.252 C 
ATOM      5  N   UNL d   1       9.168   3.825 -14.302  0.00  0.00     0.139 N 
ATOM      6  C   UNL d   1       7.842   3.355 -14.682  0.00  0.00     0.274 C 
ATOM      7  C   UNL d   1       7.845   2.601 -16.015  0.00  0.00     0.137 C 
ENDROOT
BRANCH   5   8
ATOM      8  C   UNL d   1       9.034   4.750 -13.172  0.00  0.00     0.250 C 
BRANCH   8   9
ATOM      9  C   UNL d   1       8.367   4.102 -11.930  0.00  0.00     0.038 C 
BRANCH   9  10
ATOM     10  C   UNL d   1       8.211   5.091 -10.780  0.00  0.00     0.035 C 
BRANCH  10  11
ATOM     11  C   UNL d   1       8.278   4.363  -9.407  0.00  0.00     0.149 C 
BRANCH  11  12
ATOM     12  O   UNL d   1       8.145   5.211  -8.286  0.00  0.00    -0.331 OA
BRANCH  12  13
ATOM     13  C   UNL d   1       9.121   6.140  -8.097  0.00  0.00     0.096 C 
ATOM     14  C   UNL d   1       8.947   7.128  -7.119  0.00  0.00     0.043 C 
ATOM     15  C   UNL d   1       9.942   8.081  -6.947  0.00  0.00     0.082 C 
ATOM     16  C   UNL d   1      11.075   8.119  -7.819  0.00  0.00    -0.004 C 
ATOM     17  N   UNL d   1       9.845   9.034  -5.944  0.00  0.00    -0.212 NA
ATOM     18  C   UNL d   1      11.176   7.188  -8.837  0.00  0.00    -0.001 C 
ATOM     19  C   UNL d   1      12.103   9.200  -7.638  0.00  0.00     0.038 C 
ATOM     20  C   UNL d   1      10.268   6.156  -8.911  0.00  0.00     0.024 C 
ATOM     21  C   UNL d   1      12.226   9.628  -6.151  0.00  0.00     0.095 C 
ATOM     22  C   UNL d   1      10.842   9.800  -5.522  0.00  0.00     0.256 C 
ATOM     23  O   UNL d   1      10.677  10.628  -4.636  0.00  0.00    -0.270 OA
ENDBRANCH  12  13
ENDBRANCH  11  12
ENDBRANCH  10  11
ENDBRANCH   9  10
ENDBRANCH   8   9
ENDBRANCH   5   8
BRANCH   1  24
ATOM     24  C   UNL d   1       7.110   0.321 -15.602  0.00  0.00     0.079 A 
ATOM     25  C   UNL d   1       6.173   0.014 -16.630  0.00  0.00     0.109 A 
ATOM     26  C   UNL d   1       5.174  -0.947 -16.401  0.00  0.00     0.026 A 
ATOM     27  C   UNL d   1       5.059  -1.579 -15.159  0.00  0.00     0.002 A 
ATOM     28  C   UNL d   1       5.972  -1.236 -14.145  0.00  0.00     0.002 A 
ATOM     29  C   UNL d   1       6.981  -0.297 -14.341  0.00  0.00     0.019 A 
BRANCH  25  30
ATOM     30  O   UNL d   1       6.318   0.679 -17.834  0.00  0.00    -0.332 OA
BRANCH  30  31
ATOM     31  C   UNL d   1       5.610   0.211 -18.977  0.00  0.00     0.122 C 
ATOM     32  C   UNL d   1       6.276  -1.061 -19.512  0.00  0.00     0.033 C 
ATOM     33  C   UNL d   1       5.640   1.302 -20.040  0.00  0.00     0.033 C 
ENDBRANCH  30  31
ENDBRANCH  25  30
ENDBRANCH   1  24
TORSDOF 9
