REMARK  3 active torsions:
REMARK  status: ('A' for Active; 'I' for Inactive)
REMARK    1  A    between atoms: C_11  and  C_12 
REMARK    2  A    between atoms: N_15  and  C_16 
REMARK    3  A    between atoms: C_16  and  C_17 
ROOT
ATOM      1  C   UNL d   1       8.373   5.243 -12.216  0.00  0.00     0.011 C 
ATOM      2  C   UNL d   1       7.132   4.336 -12.348  0.00  0.00     0.036 C 
ATOM      3  C   UNL d   1       7.117   3.629 -13.704  0.00  0.00     0.251 C 
ATOM      4  N   UNL d   1       8.363   2.901 -13.960  0.00  0.00     0.141 N 
ATOM      5  C   UNL d   1       9.506   3.805 -13.998  0.00  0.00     0.251 C 
ATOM      6  C   UNL d   1       9.652   4.471 -12.632  0.00  0.00     0.036 C 
ENDROOT
BRANCH   1   7
ATOM      7  C   UNL d   1       8.481   5.850 -10.793  0.00  0.00     0.062 C 
ATOM      8  C   UNL d   1       9.460   7.051 -10.684  0.00  0.00     0.172 C 
ATOM      9  O   UNL d   1       9.649   7.774 -11.661  0.00  0.00    -0.291 OA
ATOM     10  C   UNL d   1      10.022   7.348  -9.338  0.00  0.00     0.031 A 
ATOM     11  C   UNL d   1       9.685   6.571  -8.202  0.00  0.00    -0.019 A 
ATOM     12  C   UNL d   1      10.894   8.441  -9.184  0.00  0.00     0.003 A 
ATOM     13  C   UNL d   1      10.224   6.876  -6.938  0.00  0.00    -0.004 A 
ATOM     14  C   UNL d   1       8.753   5.384  -8.321  0.00  0.00     0.027 C 
ATOM     15  C   UNL d   1      11.087   7.971  -6.795  0.00  0.00    -0.000 A 
ATOM     16  C   UNL d   1      11.423   8.752  -7.915  0.00  0.00     0.000 A 
ATOM     17  C   UNL d   1       8.761   4.794  -9.706  0.00  0.00     0.012 C 
ENDBRANCH   1   7
BRANCH   4  18
ATOM     18  C   UNL d   1       8.320   2.139 -15.204  0.00  0.00     0.277 C 
BRANCH  18  19
ATOM     19  C   UNL d   1       7.267   1.045 -15.227  0.00  0.00     0.011 A 
ATOM     20  C   UNL d   1       7.085   0.188 -14.122  0.00  0.00    -0.002 A 
ATOM     21  C   UNL d   1       6.097  -0.813 -14.154  0.00  0.00    -0.000 A 
ATOM     22  C   UNL d   1       5.287  -0.973 -15.295  0.00  0.00    -0.000 A 
ATOM     23  C   UNL d   1       5.466  -0.124 -16.404  0.00  0.00    -0.000 A 
ATOM     24  C   UNL d   1       6.462   0.874 -16.374  0.00  0.00    -0.002 A 
ENDBRANCH  18  19
ENDBRANCH   4  18
TORSDOF 3
