REMARK  10 active torsions:
REMARK  status: ('A' for Active; 'I' for Inactive)
REMARK    1  A    between atoms: C_4  and  C_5 
REMARK       I    between atoms: C_5  and  N_7 
REMARK    2  A    between atoms: N_7  and  C_8 
REMARK    3  A    between atoms: C_8  and  C_9 
REMARK    4  A    between atoms: C_9  and  C_10 
REMARK    5  A    between atoms: C_10  and  C_11 
REMARK    6  A    between atoms: C_11  and  N_12 
REMARK    7  A    between atoms: C_18  and  O_19 
REMARK    8  A    between atoms: O_19  and  S_20 
REMARK    9  A    between atoms: S_20  and  C_23 
REMARK   10  A    between atoms: C_32  and  C_33 
ROOT
ATOM      1  C   UNL d   1       7.844   2.961 -14.210  0.00  0.00     0.037 C 
ENDROOT
BRANCH   1   2
ATOM      2  C   UNL d   1       8.528   3.632 -13.017  0.00  0.00     0.029 C 
BRANCH   2   3
ATOM      3  C   UNL d   1       7.533   4.333 -12.070  0.00  0.00     0.129 C 
BRANCH   3   4
ATOM      4  N   UNL d   1       8.205   4.927 -10.929  0.00  0.00    -0.234 NA
ATOM      5  C   UNL d   1       9.071   5.958 -10.959  0.00  0.00     0.275 C 
ATOM      6  O   UNL d   1       9.457   6.477 -12.007  0.00  0.00    -0.266 OA
BRANCH   5   7
ATOM      7  C   UNL d   1       9.582   6.418  -9.630  0.00  0.00     0.057 A 
ATOM      8  C   UNL d   1      10.666   7.321  -9.561  0.00  0.00     0.001 A 
ATOM      9  C   UNL d   1      11.158   7.793  -8.328  0.00  0.00    -0.022 A 
ATOM     10  C   UNL d   1      12.350   8.738  -8.338  0.00  0.00     0.031 C 
ATOM     11  C   UNL d   1      10.556   7.362  -7.115  0.00  0.00    -0.004 A 
ATOM     12  C   UNL d   1       9.460   6.480  -7.193  0.00  0.00    -0.000 A 
ATOM     13  C   UNL d   1       8.977   6.006  -8.417  0.00  0.00     0.005 A 
BRANCH  11  14
ATOM     14  C   UNL d   1      11.025   7.797  -5.788  0.00  0.00    -0.000 A 
ATOM     15  C   UNL d   1      11.009   9.160  -5.423  0.00  0.00    -0.000 A 
ATOM     16  C   UNL d   1      11.452   9.577  -4.157  0.00  0.00    -0.000 A 
ATOM     17  C   UNL d   1      11.913   8.626  -3.224  0.00  0.00    -0.000 A 
ATOM     18  C   UNL d   1      11.909   7.262  -3.560  0.00  0.00    -0.000 A 
ATOM     19  C   UNL d   1      11.461   6.851  -4.834  0.00  0.00    -0.000 A 
ENDBRANCH  11  14
ENDBRANCH   5   7
ENDBRANCH   3   4
ENDBRANCH   2   3
ENDBRANCH   1   2
BRANCH   1  20
ATOM     20  C   UNL d   1       8.877   2.361 -15.184  0.00  0.00     0.251 C 
BRANCH  20  21
ATOM     21  N   UNL d   1       8.324   2.179 -16.521  0.00  0.00     0.142 N 
ATOM     22  C   UNL d   1       7.358   1.089 -16.528  0.00  0.00     0.277 C 
ATOM     23  C   UNL d   1       6.794   0.798 -17.907  0.00  0.00     0.009 A 
ATOM     24  C   UNL d   1       7.532   1.129 -19.069  0.00  0.00    -0.022 A 
ATOM     25  C   UNL d   1       5.579   0.139 -18.003  0.00  0.00     0.023 A 
ATOM     26  C   UNL d   1       8.836   1.885 -18.919  0.00  0.00     0.061 C 
ATOM     27  C   UNL d   1       7.022   0.772 -20.337  0.00  0.00    -0.002 A 
ATOM     28  C   UNL d   1       9.386   1.854 -17.475  0.00  0.00     0.255 C 
ATOM     29  C   UNL d   1       5.797   0.078 -20.436  0.00  0.00     0.025 A 
ATOM     30  C   UNL d   1       5.068  -0.255 -19.277  0.00  0.00     0.113 A 
BRANCH  30  31
ATOM     31  O   UNL d   1       3.942  -1.023 -19.383  0.00  0.00    -0.224 OA
BRANCH  31  32
ATOM     32  S   UNL d   1       3.724  -2.334 -18.321  0.00  0.00     0.374 S 
ATOM     33  O   UNL d   1       3.550  -1.718 -16.980  0.00  0.00    -0.189 OA
ATOM     34  O   UNL d   1       2.703  -3.206 -18.855  0.00  0.00    -0.189 OA
BRANCH  32  35
ATOM     35  C   UNL d   1       5.367  -3.233 -18.433  0.00  0.00     0.524 C 
ATOM     36  F   UNL d   1       5.150  -4.414 -19.026  0.00  0.00    -0.155 F 
ATOM     37  F   UNL d   1       6.267  -2.553 -19.120  0.00  0.00    -0.155 F 
ATOM     38  F   UNL d   1       5.819  -3.469 -17.200  0.00  0.00    -0.155 F 
ENDBRANCH  32  35
ENDBRANCH  31  32
ENDBRANCH  30  31
ENDBRANCH  20  21
ENDBRANCH   1  20
TORSDOF 10
