REMARK  7 active torsions:
REMARK  status: ('A' for Active; 'I' for Inactive)
REMARK    1  A    between atoms: O_2  and  C_3 
REMARK    2  A    between atoms: N_15  and  C_16 
REMARK    3  A    between atoms: C_16  and  C_17 
REMARK    4  A    between atoms: C_17  and  C_18 
REMARK    5  A    between atoms: C_18  and  S_19 
REMARK    6  A    between atoms: S_19  and  C_20 
REMARK    7  A    between atoms: C_23  and  C_24 
ROOT
ATOM      1  C   UNL d   1       7.190   4.431 -13.286  0.00  0.00     0.094 A 
ATOM      2  C   UNL d   1       8.511   4.938 -13.199  0.00  0.00     0.024 A 
ATOM      3  C   UNL d   1       9.582   4.214 -13.733  0.00  0.00    -0.003 A 
ATOM      4  C   UNL d   1       9.368   2.961 -14.343  0.00  0.00    -0.026 A 
ATOM      5  C   UNL d   1       8.050   2.411 -14.433  0.00  0.00    -0.023 A 
ATOM      6  C   UNL d   1       6.976   3.184 -13.919  0.00  0.00     0.020 A 
ATOM      7  C   UNL d   1       7.785   1.034 -15.056  0.00  0.00     0.052 C 
ATOM      8  C   UNL d   1       9.092   0.227 -15.143  0.00  0.00     0.006 C 
ATOM      9  C   UNL d   1      10.176   0.994 -15.687  0.00  0.00     0.005 C 
ATOM     10  C   UNL d   1      10.567   2.206 -14.844  0.00  0.00     0.026 C 
ATOM     11  C   UNL d   1       6.778   0.204 -14.256  0.00  0.00     0.041 C 
ATOM     12  C   UNL d   1       5.653  -0.089 -15.250  0.00  0.00     0.251 C 
ATOM     13  N   UNL d   1       6.288  -0.014 -16.555  0.00  0.00     0.137 N 
ATOM     14  C   UNL d   1       7.124   1.178 -16.445  0.00  0.00     0.254 C 
ENDROOT
BRANCH  13  15
ATOM     15  C   UNL d   1       5.304   0.070 -17.635  0.00  0.00     0.251 C 
BRANCH  15  16
ATOM     16  C   UNL d   1       5.968  -0.220 -18.994  0.00  0.00     0.047 C 
BRANCH  16  17
ATOM     17  C   UNL d   1       5.316   0.558 -20.159  0.00  0.00     0.067 C 
BRANCH  17  18
ATOM     18  S   UNL d   1       6.349   0.605 -21.655  0.00  0.00    -0.075 SA
BRANCH  18  19
ATOM     19  C   UNL d   1       7.894   1.016 -20.902  0.00  0.00     0.193 A 
ATOM     20  N   UNL d   1       9.011   0.279 -21.049  0.00  0.00    -0.287 N 
ATOM     21  C   UNL d   1       9.897   0.888 -20.225  0.00  0.00     0.191 A 
ATOM     22  C   UNL d   1       9.203  -0.917 -21.877  0.00  0.00     0.134 C 
ATOM     23  N   UNL d   1       9.338   1.938 -19.597  0.00  0.00    -0.126 NA
ATOM     24  N   UNL d   1       8.056   2.055 -20.073  0.00  0.00    -0.122 NA
BRANCH  21  25
ATOM     25  C   UNL d   1      11.312   0.523 -20.014  0.00  0.00     0.151 A 
ATOM     26  C   UNL d   1      12.293   0.973 -19.146  0.00  0.00     0.087 A 
ATOM     27  N   UNL d   1      13.426   0.206 -19.380  0.00  0.00    -0.221 NA
ATOM     28  C   UNL d   1      12.221   1.962 -18.033  0.00  0.00     0.054 C 
ATOM     29  C   UNL d   1      13.125  -0.585 -20.407  0.00  0.00     0.225 A 
ATOM     30  O   UNL d   1      11.842  -0.458 -20.829  0.00  0.00    -0.282 OA
ENDBRANCH  21  25
ENDBRANCH  18  19
ENDBRANCH  17  18
ENDBRANCH  16  17
ENDBRANCH  15  16
ENDBRANCH  13  15
BRANCH   1  31
ATOM     31  O   UNL d   1       6.086   5.091 -12.784  0.00  0.00    -0.328 OA
ATOM     32  C   UNL d   1       6.336   6.264 -12.027  0.00  0.00     0.181 C 
ENDBRANCH   1  31
TORSDOF 7
