REMARK  5 active torsions:
REMARK  status: ('A' for Active; 'I' for Inactive)
REMARK    1  A    between atoms: C_2  and  C_3 
REMARK    2  A    between atoms: C_3  and  C_4 
REMARK    3  A    between atoms: C_4  and  N_5 
REMARK    4  A    between atoms: N_5  and  C_6 
REMARK    5  A    between atoms: C_14  and  O_15 
ROOT
ATOM      1  C   UNL d   1      10.725   9.087  -7.768  0.00  0.00     0.103 C 
ATOM      2  C   UNL d   1      11.159   9.342  -9.224  0.00  0.00     0.029 C 
ATOM      3  C   UNL d   1      10.173   8.743 -10.230  0.00  0.00     0.030 C 
ATOM      4  C   UNL d   1       9.802   7.307  -9.919  0.00  0.00    -0.004 A 
ATOM      5  C   UNL d   1      10.012   6.811  -8.598  0.00  0.00    -0.022 A 
ATOM      6  C   UNL d   1       9.577   5.527  -8.265  0.00  0.00    -0.004 A 
ATOM      7  C   UNL d   1       8.938   4.713  -9.197  0.00  0.00     0.002 A 
ATOM      8  C   UNL d   1       8.712   5.185 -10.502  0.00  0.00     0.024 A 
ATOM      9  C   UNL d   1       9.129   6.499 -10.861  0.00  0.00     0.090 A 
ATOM     10  C   UNL d   1      10.680   7.592  -7.516  0.00  0.00     0.050 C 
ENDROOT
BRANCH   1  11
ATOM     11  N   UNL d   1      11.635   9.718  -6.835  0.00  0.00    -0.297 NA
BRANCH  11  12
ATOM     12  C   UNL d   1      11.811   9.076  -5.537  0.00  0.00     0.120 C 
BRANCH  12  13
ATOM     13  C   UNL d   1      11.300   9.969  -4.407  0.00  0.00     0.026 C 
BRANCH  13  14
ATOM     14  C   UNL d   1      12.127   9.728  -3.140  0.00  0.00     0.002 C 
ATOM     15  C   UNL d   1      12.082   8.269  -2.622  0.00  0.00     0.000 C 
ENDBRANCH  13  14
ENDBRANCH  12  13
ENDBRANCH  11  12
ENDBRANCH   1  11
BRANCH   9  16
ATOM     16  O   UNL d   1       8.868   7.044 -12.096  0.00  0.00    -0.328 OA
ATOM     17  C   UNL d   1       7.617   6.727 -12.679  0.00  0.00     0.181 C 
ENDBRANCH   9  16
TORSDOF 5
