REMARK  1 active torsions:
REMARK  status: ('A' for Active; 'I' for Inactive)
REMARK    1  A    between atoms: N_2  and  C_3 
ROOT
ATOM      1  C   UNL d   1      11.688   8.752  -4.347  0.00  0.00     0.105 A 
ATOM      2  C   UNL d   1      11.316   9.739  -5.285  0.00  0.00     0.021 A 
ATOM      3  C   UNL d   1      10.736   9.361  -6.513  0.00  0.00     0.002 A 
ATOM      4  C   UNL d   1      10.511   8.007  -6.812  0.00  0.00     0.000 A 
ATOM      5  C   UNL d   1      10.878   7.023  -5.882  0.00  0.00     0.002 A 
ATOM      6  C   UNL d   1      11.460   7.389  -4.655  0.00  0.00     0.021 A 
ENDROOT
BRANCH   1   7
ATOM      7  N   UNL d   1      12.258   9.136  -3.128  0.00  0.00    -0.127 NA
ATOM      8  N   UNL d   1      12.559   8.280  -2.058  0.00  0.00    -0.022 N 
ENDBRANCH   1   7
TORSDOF 1
