REMARK  7 active torsions:
REMARK  status: ('A' for Active; 'I' for Inactive)
REMARK    1  A    between atoms: C_5  and  S_6 
REMARK    2  A    between atoms: S_6  and  C_9 
REMARK    3  A    between atoms: C_9  and  C_10 
REMARK    4  A    between atoms: N_13  and  C_14 
REMARK    5  A    between atoms: C_14  and  C_15 
REMARK    6  A    between atoms: C_15  and  C_16 
REMARK    7  A    between atoms: C_16  and  C_17 
ROOT
ATOM      1  C   UNL d   1      10.083   4.555 -14.020  0.00  0.00     0.052 C 
ATOM      2  C   UNL d   1       9.078   4.456 -15.171  0.00  0.00     0.038 C 
ATOM      3  C   UNL d   1       9.730   3.524 -16.187  0.00  0.00     0.250 C 
ATOM      4  N   UNL d   1      11.153   3.683 -15.933  0.00  0.00     0.137 N 
ATOM      5  C   UNL d   1      11.251   3.677 -14.478  0.00  0.00     0.251 C 
ENDROOT
BRANCH   4   6
ATOM      6  C   UNL d   1      11.946   2.625 -16.552  0.00  0.00     0.251 C 
BRANCH   6   7
ATOM      7  C   UNL d   1      13.182   3.228 -17.228  0.00  0.00     0.042 C 
BRANCH   7   8
ATOM      8  C   UNL d   1      12.853   4.098 -18.454  0.00  0.00     0.050 C 
BRANCH   8   9
ATOM      9  C   UNL d   1      14.059   4.844 -18.948  0.00  0.00     0.088 A 
ATOM     10  C   UNL d   1      14.412   6.200 -18.802  0.00  0.00     0.041 A 
ATOM     11  C   UNL d   1      15.633   6.426 -19.438  0.00  0.00     0.129 A 
ATOM     12  C   UNL d   1      13.753   7.273 -18.161  0.00  0.00     0.006 A 
ATOM     13  O   UNL d   1      16.004   5.194 -19.956  0.00  0.00    -0.211 OA
ATOM     14  C   UNL d   1      16.253   7.682 -19.475  0.00  0.00     0.057 A 
ATOM     15  N   UNL d   1      15.015   4.220 -19.639  0.00  0.00    -0.131 NA
ATOM     16  C   UNL d   1      15.595   8.758 -18.838  0.00  0.00     0.142 A 
ATOM     17  F   UNL d   1      16.159   9.989 -18.844  0.00  0.00    -0.204 F 
ATOM     18  C   UNL d   1      14.355   8.552 -18.188  0.00  0.00     0.030 A 
ENDBRANCH   8   9
ENDBRANCH   7   8
ENDBRANCH   6   7
ENDBRANCH   4   6
BRANCH   1  19
ATOM     19  C   UNL d   1       9.496   4.102 -12.674  0.00  0.00     0.129 C 
BRANCH  19  20
ATOM     20  S   UNL d   1       8.190   5.242 -12.054  0.00  0.00     0.190 S 
ATOM     21  O   UNL d   1       7.051   4.405 -11.640  0.00  0.00    -0.222 OA
ATOM     22  O   UNL d   1       7.979   6.326 -13.025  0.00  0.00    -0.222 OA
BRANCH  20  23
ATOM     23  C   UNL d   1       8.943   5.962 -10.604  0.00  0.00     0.084 A 
ATOM     24  C   UNL d   1       8.670   5.423  -9.337  0.00  0.00     0.011 A 
ATOM     25  C   UNL d   1       9.283   5.990  -8.204  0.00  0.00    -0.004 A 
ATOM     26  C   UNL d   1      10.188   7.063  -8.333  0.00  0.00    -0.026 A 
ATOM     27  C   UNL d   1      10.826   7.646  -7.087  0.00  0.00     0.031 C 
ATOM     28  C   UNL d   1      10.476   7.589  -9.616  0.00  0.00    -0.025 A 
ATOM     29  C   UNL d   1       9.847   7.033 -10.750  0.00  0.00     0.006 A 
ATOM     30  C   UNL d   1      11.443   8.747  -9.791  0.00  0.00     0.031 C 
ENDBRANCH  20  23
ENDBRANCH  19  20
ENDBRANCH   1  19
TORSDOF 7
