REMARK  4 active torsions:
REMARK  status: ('A' for Active; 'I' for Inactive)
REMARK    1  A    between atoms: C_8  and  C_9 
REMARK    2  A    between atoms: C_9  and  C_10 
REMARK    3  A    between atoms: C_10  and  N_11 
REMARK    4  A    between atoms: C_14  and  C_15 
ROOT
ATOM      1  N   UNL d   1      10.954   1.088 -18.416  0.00  0.00     0.137 N 
ATOM      2  C   UNL d   1      11.032   1.678 -19.752  0.00  0.00     0.251 C 
ATOM      3  C   UNL d   1      11.369   0.591 -20.799  0.00  0.00     0.041 C 
ATOM      4  C   UNL d   1      12.728  -0.071 -20.480  0.00  0.00     0.047 C 
ATOM      5  C   UNL d   1      12.628  -0.604 -19.036  0.00  0.00     0.041 C 
ATOM      6  C   UNL d   1      12.260   0.516 -18.060  0.00  0.00     0.251 C 
ENDROOT
BRANCH   1   7
ATOM      7  C   UNL d   1      10.626   2.149 -17.469  0.00  0.00     0.255 C 
BRANCH   7   8
ATOM      8  C   UNL d   1      10.262   1.549 -16.098  0.00  0.00     0.068 C 
BRANCH   8   9
ATOM      9  C   UNL d   1       9.677   2.558 -15.119  0.00  0.00     0.050 A 
ATOM     10  C   UNL d   1      10.401   3.585 -14.587  0.00  0.00     0.061 A 
ATOM     11  C   UNL d   1      11.858   3.858 -14.922  0.00  0.00     0.052 C 
ATOM     12  N   UNL d   1       9.836   4.470 -13.677  0.00  0.00    -0.236 NA
ATOM     13  C   UNL d   1       8.589   4.352 -13.337  0.00  0.00     0.137 A 
ATOM     14  C   UNL d   1       7.971   5.366 -12.370  0.00  0.00     0.137 C 
ATOM     15  N   UNL d   1       7.760   3.328 -13.868  0.00  0.00    -0.284 N 
ATOM     16  C   UNL d   1       6.621   4.969 -11.775  0.00  0.00     0.026 C 
ATOM     17 CL   UNL d   1       9.084   5.727 -11.021  0.00  0.00    -0.107 Cl
ATOM     18  C   UNL d   1       5.706   4.450 -12.867  0.00  0.00     0.026 C 
ATOM     19  C   UNL d   1       6.333   3.201 -13.479  0.00  0.00     0.110 C 
ATOM     20  C   UNL d   1       8.273   2.372 -14.696  0.00  0.00     0.259 A 
ATOM     21  O   UNL d   1       7.582   1.417 -15.065  0.00  0.00    -0.267 OA
ENDBRANCH   8   9
ENDBRANCH   7   8
ENDBRANCH   1   7
BRANCH   4  22
ATOM     22  C   UNL d   1      13.895   0.886 -20.650  0.00  0.00     0.087 A 
ATOM     23  C   UNL d   1      14.004   2.199 -21.201  0.00  0.00     0.041 A 
ATOM     24  C   UNL d   1      15.323   2.651 -21.079  0.00  0.00     0.129 A 
ATOM     25  C   UNL d   1      13.040   3.052 -21.805  0.00  0.00     0.006 A 
ATOM     26  O   UNL d   1      16.002   1.604 -20.469  0.00  0.00    -0.211 OA
ATOM     27  C   UNL d   1      15.763   3.914 -21.510  0.00  0.00     0.057 A 
ATOM     28  N   UNL d   1      15.115   0.522 -20.233  0.00  0.00    -0.131 NA
ATOM     29  C   UNL d   1      14.810   4.764 -22.097  0.00  0.00     0.142 A 
ATOM     30  F   UNL d   1      15.176   6.000 -22.525  0.00  0.00    -0.204 F 
ATOM     31  C   UNL d   1      13.451   4.331 -22.237  0.00  0.00     0.030 A 
ENDBRANCH   4  22
TORSDOF 4
