REMARK  6 active torsions:
REMARK  status: ('A' for Active; 'I' for Inactive)
REMARK    1  A    between atoms: C_4  and  C_5 
REMARK    2  A    between atoms: C_5  and  N_6 
REMARK    3  A    between atoms: N_6  and  C_7 
REMARK    4  A    between atoms: C_7  and  C_8 
REMARK    5  A    between atoms: C_8  and  O_9 
REMARK    6  A    between atoms: O_9  and  C_10 
ROOT
ATOM      1  C   UNL d   1      10.876   8.066  -8.094  0.00  0.00     0.323 C 
ENDROOT
BRANCH   1   2
ATOM      2  N   UNL d   1      10.075   8.798  -9.075  0.00  0.00     0.347 N 
BRANCH   2   3
ATOM      3  C   UNL d   1      10.356   8.354 -10.425  0.00  0.00     0.317 C 
BRANCH   3   4
ATOM      4  C   UNL d   1       9.585   7.086 -10.810  0.00  0.00     0.014 A 
ATOM      5  C   UNL d   1       9.053   7.000 -12.123  0.00  0.00    -0.002 A 
ATOM      6  C   UNL d   1       8.340   5.839 -12.542  0.00  0.00    -0.000 A 
ATOM      7  C   UNL d   1       8.178   4.771 -11.632  0.00  0.00    -0.000 A 
ATOM      8  C   UNL d   1       8.711   4.868 -10.332  0.00  0.00    -0.000 A 
ATOM      9  C   UNL d   1       9.387   6.009  -9.917  0.00  0.00    -0.002 A 
ENDBRANCH   3   4
ENDBRANCH   2   3
ENDBRANCH   1   2
BRANCH   1  10
ATOM     10  C   UNL d   1      10.014   7.987  -6.806  0.00  0.00     0.187 C 
BRANCH  10  11
ATOM     11  O   UNL d   1      10.713   7.164  -5.877  0.00  0.00    -0.329 OA
BRANCH  11  12
ATOM     12  C   UNL d   1      11.309   7.724  -4.769  0.00  0.00     0.094 A 
ATOM     13  C   UNL d   1      11.342   9.114  -4.487  0.00  0.00     0.024 A 
ATOM     14  C   UNL d   1      11.880   9.580  -3.279  0.00  0.00     0.002 A 
ATOM     15  C   UNL d   1      12.445   8.690  -2.349  0.00  0.00     0.000 A 
ATOM     16  C   UNL d   1      12.433   7.306  -2.622  0.00  0.00     0.002 A 
ATOM     17  C   UNL d   1      11.861   6.830  -3.822  0.00  0.00     0.024 A 
ENDBRANCH  11  12
ENDBRANCH  10  11
ENDBRANCH   1  10
TORSDOF 6
