REMARK  9 active torsions:
REMARK  status: ('A' for Active; 'I' for Inactive)
REMARK    1  A    between atoms: O_2  and  C_3 
REMARK    2  A    between atoms: C_9  and  C_10 
REMARK    3  A    between atoms: C_12  and  C_13 
REMARK    4  A    between atoms: C_13  and  N_14 
REMARK    5  A    between atoms: N_14  and  C_15 
REMARK    6  A    between atoms: C_15  and  C_16 
REMARK    7  A    between atoms: C_16  and  C_17 
REMARK    8  A    between atoms: N_20  and  C_21 
REMARK    9  A    between atoms: C_21  and  C_22 
ROOT
ATOM      1  C   UNL d   1       7.595   4.477 -13.030  0.00  0.00     0.338 C 
ENDROOT
BRANCH   1   2
ATOM      2  C   UNL d   1       8.489   3.577 -13.844  0.00  0.00     0.122 A 
ATOM      3  N   UNL d   1       7.976   2.746 -14.830  0.00  0.00    -0.222 NA
ATOM      4  C   UNL d   1       9.028   2.096 -15.332  0.00  0.00     0.184 A 
ATOM      5  O   UNL d   1      10.197   2.446 -14.738  0.00  0.00    -0.286 OA
ATOM      6  C   UNL d   1       9.849   3.377 -13.808  0.00  0.00     0.141 A 
BRANCH   4   7
ATOM      7  C   UNL d   1       9.112   1.114 -16.405  0.00  0.00     0.064 A 
ATOM      8  C   UNL d   1       7.968   0.405 -16.851  0.00  0.00     0.098 A 
ATOM      9  C   UNL d   1       8.127  -0.541 -17.892  0.00  0.00     0.025 A 
ATOM     10  C   UNL d   1       9.389  -0.781 -18.465  0.00  0.00     0.009 A 
ATOM     11  C   UNL d   1      10.517  -0.079 -18.014  0.00  0.00     0.035 A 
ATOM     12 BR   UNL d   1      12.216  -0.407 -18.808  0.00  0.00    -0.049 Br
ATOM     13  C   UNL d   1      10.379   0.865 -16.983  0.00  0.00     0.012 A 
BRANCH   8  14
ATOM     14  O   UNL d   1       6.755   0.663 -16.244  0.00  0.00    -0.328 OA
ATOM     15  C   UNL d   1       5.611  -0.060 -16.668  0.00  0.00     0.181 C 
ENDBRANCH   8  14
ENDBRANCH   4   7
ENDBRANCH   1   2
BRANCH   1  16
ATOM     16  N   UNL d   1       8.101   5.749 -12.542  0.00  0.00     0.346 N 
BRANCH  16  17
ATOM     17  C   UNL d   1       9.060   5.509 -11.479  0.00  0.00     0.291 C 
BRANCH  17  18
ATOM     18  C   UNL d   1       9.512   6.844 -10.890  0.00  0.00     0.040 C 
BRANCH  18  19
ATOM     19  C   UNL d   1      10.419   6.680  -9.681  0.00  0.00     0.037 C 
ATOM     20  C   UNL d   1      10.699   7.984  -8.953  0.00  0.00     0.251 C 
ATOM     21  N   UNL d   1      10.870   7.556  -7.569  0.00  0.00     0.141 N 
ATOM     22  C   UNL d   1       9.767   6.623  -7.358  0.00  0.00     0.251 C 
ATOM     23  C   UNL d   1       9.850   5.748  -8.593  0.00  0.00     0.037 C 
BRANCH  21  24
ATOM     24  C   UNL d   1      10.827   8.685  -6.649  0.00  0.00     0.277 C 
BRANCH  24  25
ATOM     25  C   UNL d   1      11.306   8.378  -5.236  0.00  0.00     0.011 A 
ATOM     26  C   UNL d   1      11.491   7.040  -4.785  0.00  0.00    -0.002 A 
ATOM     27  C   UNL d   1      11.929   6.809  -3.463  0.00  0.00    -0.000 A 
ATOM     28  C   UNL d   1      12.232   7.872  -2.597  0.00  0.00    -0.000 A 
ATOM     29  C   UNL d   1      12.064   9.197  -3.053  0.00  0.00    -0.000 A 
ATOM     30  C   UNL d   1      11.588   9.444  -4.356  0.00  0.00    -0.002 A 
ENDBRANCH  24  25
ENDBRANCH  21  24
ENDBRANCH  18  19
ENDBRANCH  17  18
ENDBRANCH  16  17
ENDBRANCH   1  16
TORSDOF 9
