REMARK  8 active torsions:
REMARK  status: ('A' for Active; 'I' for Inactive)
REMARK       I    between atoms: N_2  and  C_3 
REMARK    1  A    between atoms: C_3  and  C_5 
REMARK    2  A    between atoms: C_10  and  O_11 
REMARK    3  A    between atoms: O_11  and  C_12 
REMARK    4  A    between atoms: C_12  and  C_13 
REMARK    5  A    between atoms: C_13  and  C_14 
REMARK    6  A    between atoms: C_14  and  C_15 
REMARK    7  A    between atoms: C_15  and  N_16 
REMARK    8  A    between atoms: N_19  and  C_20 
ROOT
ATOM      1  C   UNL d   1       8.919   2.468 -14.435  0.00  0.00     0.038 C 
ENDROOT
BRANCH   1   2
ATOM      2  C   UNL d   1       8.997   1.850 -15.834  0.00  0.00     0.035 C 
BRANCH   2   3
ATOM      3  C   UNL d   1       8.406   0.441 -15.940  0.00  0.00     0.149 C 
BRANCH   3   4
ATOM      4  O   UNL d   1       7.306   0.323 -15.041  0.00  0.00    -0.331 OA
BRANCH   4   5
ATOM      5  C   UNL d   1       6.131  -0.285 -15.414  0.00  0.00     0.096 A 
ATOM      6  C   UNL d   1       5.129  -0.379 -14.429  0.00  0.00     0.054 A 
ATOM      7  C   UNL d   1       3.900  -0.997 -14.706  0.00  0.00     0.142 A 
ATOM      8  C   UNL d   1       3.656  -1.522 -15.989  0.00  0.00     0.035 A 
ATOM      9  F   UNL d   1       2.978  -1.111 -13.722  0.00  0.00    -0.204 F 
ATOM     10  C   UNL d   1       4.647  -1.438 -16.991  0.00  0.00     0.062 A 
ATOM     11  C   UNL d   1       5.879  -0.814 -16.700  0.00  0.00     0.029 A 
BRANCH  10  12
ATOM     12  C   UNL d   1       4.431  -1.992 -18.368  0.00  0.00     0.275 C 
ATOM     13  N   UNL d   1       3.740  -3.139 -18.437  0.00  0.00    -0.232 NA
ATOM     14  C   UNL d   1       3.581  -3.908 -19.660  0.00  0.00     0.155 C 
ATOM     15  O   UNL d   1       4.949  -1.456 -19.343  0.00  0.00    -0.266 OA
ENDBRANCH  10  12
ENDBRANCH   4   5
ENDBRANCH   3   4
ENDBRANCH   2   3
ENDBRANCH   1   2
BRANCH   1  16
ATOM     16  C   UNL d   1       9.219   3.972 -14.441  0.00  0.00     0.251 C 
BRANCH  16  17
ATOM     17  N   UNL d   1       8.759   4.571 -13.194  0.00  0.00     0.141 N 
ATOM     18  C   UNL d   1       9.624   4.143 -12.102  0.00  0.00     0.274 C 
ATOM     19  C   UNL d   1       9.175   4.789 -10.791  0.00  0.00     0.137 C 
ATOM     20  N   UNL d   1       9.178   6.239 -10.925  0.00  0.00    -0.344 N 
ATOM     21  C   UNL d   1       8.382   6.736 -12.036  0.00  0.00     0.137 C 
ATOM     22  C   UNL d   1       8.850   6.024 -13.308  0.00  0.00     0.274 C 
BRANCH  20  23
ATOM     23  C   UNL d   1       9.762   7.107  -9.997  0.00  0.00     0.068 A 
ATOM     24  C   UNL d   1       9.645   6.920  -8.597  0.00  0.00     0.084 A 
ATOM     25  C   UNL d   1      10.306   7.805  -7.713  0.00  0.00     0.070 A 
ATOM     26 CL   UNL d   1       8.641   5.660  -7.974  0.00  0.00    -0.080 Cl
ATOM     27  C   UNL d   1      11.054   8.889  -8.199  0.00  0.00     0.012 A 
ATOM     28 CL   UNL d   1      10.216   7.584  -6.013  0.00  0.00    -0.081 Cl
ATOM     29  C   UNL d   1      11.147   9.101  -9.580  0.00  0.00     0.002 A 
ATOM     30  C   UNL d   1      10.492   8.224 -10.459  0.00  0.00     0.018 A 
ENDBRANCH  20  23
ENDBRANCH  16  17
ENDBRANCH   1  16
TORSDOF 8
