REMARK  8 active torsions:
REMARK  status: ('A' for Active; 'I' for Inactive)
REMARK    1  A    between atoms: N_2  and  C_5 
REMARK    2  A    between atoms: C_5  and  C_6 
REMARK    3  A    between atoms: C_6  and  O_7 
REMARK    4  A    between atoms: O_7  and  P_8 
REMARK    5  A    between atoms: P_8  and  O_11 
REMARK    6  A    between atoms: O_11  and  C_12 
REMARK    7  A    between atoms: C_12  and  C_13 
REMARK    8  A    between atoms: C_13  and  C_15 
ROOT
ATOM      1  P   UNL d   1       9.825   7.420  -7.973  0.00  0.00     0.410 P 
ATOM      2  O   UNL d   1      10.039   8.881  -8.051  0.00  0.00    -0.624 OA
ATOM      3  O   UNL d   1       8.352   6.870  -7.592  0.00  0.00    -0.624 OA
ENDROOT
BRANCH   1   4
ATOM      4  O   UNL d   1      10.750   6.580  -6.899  0.00  0.00    -0.269 OA
BRANCH   4   5
ATOM      5  C   UNL d   1      10.979   6.969  -5.570  0.00  0.00     0.187 C 
BRANCH   5   6
ATOM      6  C   UNL d   1      11.522   8.408  -5.587  0.00  0.00     0.250 C 
BRANCH   6   7
ATOM      7  N   UNL d   1      12.178   8.964  -4.366  0.00  0.00     0.002 N 
ATOM      8  C   UNL d   1      11.228   9.888  -3.691  0.00  0.00     0.250 C 
ATOM      9  C   UNL d   1      13.344   9.737  -4.830  0.00  0.00     0.250 C 
ATOM     10  C   UNL d   1      12.630   7.938  -3.397  0.00  0.00     0.250 C 
ENDBRANCH   6   7
ENDBRANCH   5   6
ENDBRANCH   4   5
ENDBRANCH   1   4
BRANCH   1  11
ATOM     11  O   UNL d   1      10.205   6.606  -9.321  0.00  0.00    -0.268 OA
BRANCH  11  12
ATOM     12  C   UNL d   1       9.773   7.099 -10.570  0.00  0.00     0.190 C 
BRANCH  12  13
ATOM     13  C   UNL d   1       9.001   6.045 -11.384  0.00  0.00     0.215 C 
ATOM     14  O   UNL d   1       7.929   6.699 -12.029  0.00  0.00    -0.218 OA
BRANCH  13  15
ATOM     15  C   UNL d   1       8.517   4.737 -10.703  0.00  0.00     0.218 C 
ATOM     16  O   UNL d   1       8.271   4.800  -9.327  0.00  0.00    -0.218 OA
ENDBRANCH  13  15
ENDBRANCH  12  13
ENDBRANCH  11  12
ENDBRANCH   1  11
TORSDOF 8
