REMARK  4 active torsions:
REMARK  status: ('A' for Active; 'I' for Inactive)
REMARK    1  A    between atoms: C_8  and  C_9 
REMARK    2  A    between atoms: C_9  and  C_10 
REMARK    3  A    between atoms: N_17  and  C_18 
REMARK    4  A    between atoms: C_18  and  C_19 
ROOT
ATOM      1  C   UNL d   1       9.432   3.717 -14.156  0.00  0.00     0.008 C 
ATOM      2  C   UNL d   1       9.758   3.587 -12.681  0.00  0.00     0.034 C 
ATOM      3  C   UNL d   1       8.878   4.437 -11.754  0.00  0.00     0.219 C 
ATOM      4  C   UNL d   1       7.346   4.287 -11.938  0.00  0.00     0.035 C 
ATOM      5  C   UNL d   1       6.997   5.313 -13.012  0.00  0.00     0.035 C 
ATOM      6  C   UNL d   1       8.361   5.941 -13.370  0.00  0.00     0.219 C 
ATOM      7  C   UNL d   1       9.172   5.168 -14.475  0.00  0.00     0.034 C 
ATOM      8  N   UNL d   1       9.168   5.815 -12.151  0.00  0.00     0.136 N 
ENDROOT
BRANCH   8   9
ATOM      9  C   UNL d   1       8.776   6.801 -11.148  0.00  0.00     0.282 C 
BRANCH   9  10
ATOM     10  C   UNL d   1       9.640   6.735  -9.858  0.00  0.00     0.185 C 
ATOM     11  O   UNL d   1       9.894   8.059  -9.438  0.00  0.00    -0.327 OA
ATOM     12  C   UNL d   1      10.466   8.173  -8.171  0.00  0.00     0.116 A 
ATOM     13  C   UNL d   1      10.403   7.150  -7.245  0.00  0.00     0.114 A 
ATOM     14  C   UNL d   1      11.057   9.392  -7.890  0.00  0.00     0.028 A 
ATOM     15  O   UNL d   1       9.781   5.949  -7.524  0.00  0.00    -0.326 OA
ATOM     16  C   UNL d   1      11.009   7.391  -5.962  0.00  0.00     0.029 A 
ATOM     17  C   UNL d   1       8.940   6.008  -8.682  0.00  0.00     0.181 C 
ATOM     18  C   UNL d   1      11.569   8.636  -5.694  0.00  0.00     0.083 A 
ATOM     19  C   UNL d   1      11.198   6.513  -4.717  0.00  0.00     0.120 A 
ATOM     20  C   UNL d   1      11.633   9.683  -6.612  0.00  0.00     0.021 A 
ATOM     21  N   UNL d   1      12.108   8.686  -4.408  0.00  0.00    -0.212 NA
ATOM     22  C   UNL d   1      11.930   7.506  -3.812  0.00  0.00     0.260 A 
ATOM     23  O   UNL d   1      12.316   7.223  -2.674  0.00  0.00    -0.270 OA
ENDBRANCH   9  10
ENDBRANCH   8   9
BRANCH   1  24
ATOM     24  C   UNL d   1       8.264   2.772 -14.531  0.00  0.00     0.026 C 
BRANCH  24  25
ATOM     25  C   UNL d   1       8.393   1.940 -15.752  0.00  0.00    -0.021 A 
ATOM     26  C   UNL d   1       7.217   1.419 -16.315  0.00  0.00    -0.004 A 
ATOM     27  C   UNL d   1       7.258   0.621 -17.483  0.00  0.00    -0.003 A 
ATOM     28  C   UNL d   1       8.527   0.366 -18.038  0.00  0.00    -0.004 A 
ATOM     29  C   UNL d   1       8.663  -0.483 -19.284  0.00  0.00     0.038 C 
ATOM     30  C   UNL d   1       9.700   0.889 -17.461  0.00  0.00     0.080 A 
ATOM     31  C   UNL d   1      10.024  -1.207 -19.288  0.00  0.00     0.095 C 
ATOM     32  C   UNL d   1      11.209  -0.307 -18.905  0.00  0.00     0.256 C 
ATOM     33  O   UNL d   1      12.338  -0.488 -19.374  0.00  0.00    -0.270 OA
ATOM     34  N   UNL d   1      10.965   0.640 -18.009  0.00  0.00    -0.212 NA
ATOM     35  C   UNL d   1       9.641   1.679 -16.306  0.00  0.00     0.015 A 
ENDBRANCH  24  25
ENDBRANCH   1  24
TORSDOF 4
