REMARK  8 active torsions:
REMARK  status: ('A' for Active; 'I' for Inactive)
REMARK    1  A    between atoms: C_2  and  C_5 
REMARK    2  A    between atoms: C_7  and  N_8 
REMARK    3  A    between atoms: N_11  and  C_12 
REMARK    4  A    between atoms: C_12  and  C_13 
REMARK    5  A    between atoms: C_13  and  C_14 
REMARK    6  A    between atoms: C_14  and  C_15 
REMARK    7  A    between atoms: C_15  and  N_16 
REMARK    8  A    between atoms: C_32  and  C_33 
ROOT
ATOM      1  N   UNL d   1       7.013   0.258 -15.966  0.00  0.00    -0.330 N 
ATOM      2  C   UNL d   1       6.064   0.548 -14.903  0.00  0.00     0.138 C 
ATOM      3  C   UNL d   1       6.232   2.008 -14.447  0.00  0.00     0.274 C 
ATOM      4  N   UNL d   1       7.607   2.301 -14.061  0.00  0.00     0.141 N 
ATOM      5  C   UNL d   1       8.495   2.066 -15.206  0.00  0.00     0.274 C 
ATOM      6  C   UNL d   1       8.401   0.605 -15.678  0.00  0.00     0.138 C 
ENDROOT
BRANCH   4   7
ATOM      7  C   UNL d   1       7.759   3.676 -13.613  0.00  0.00     0.251 C 
BRANCH   7   8
ATOM      8  C   UNL d   1       6.826   4.025 -12.430  0.00  0.00     0.037 C 
BRANCH   8   9
ATOM      9  C   UNL d   1       7.276   5.300 -11.706  0.00  0.00     0.027 C 
BRANCH   9  10
ATOM     10  C   UNL d   1       8.724   5.146 -11.131  0.00  0.00     0.109 C 
BRANCH  10  11
ATOM     11  N   UNL d   1       9.248   6.400 -10.603  0.00  0.00    -0.299 N 
ATOM     12  C   UNL d   1       9.445   6.525  -9.206  0.00  0.00     0.060 A 
ATOM     13  C   UNL d   1      10.569   7.187  -8.641  0.00  0.00     0.019 A 
ATOM     14  C   UNL d   1       8.434   6.038  -8.374  0.00  0.00     0.017 A 
ATOM     15  C   UNL d   1      11.703   7.671  -9.543  0.00  0.00     0.030 C 
ATOM     16  C   UNL d   1      10.651   7.317  -7.237  0.00  0.00     0.128 A 
ATOM     17  C   UNL d   1      11.296   8.855 -10.436  0.00  0.00     0.015 C 
ATOM     18  C   UNL d   1       9.841   8.785 -10.950  0.00  0.00     0.088 C 
ATOM     19  C   UNL d   1       9.470   7.398 -11.472  0.00  0.00     0.237 C 
ATOM     20  O   UNL d   1       9.367   7.239 -12.686  0.00  0.00    -0.272 OA
ATOM     21  O   UNL d   1      11.706   7.937  -6.634  0.00  0.00    -0.190 OA
ATOM     22  C   UNL d   1       9.609   6.839  -6.424  0.00  0.00     0.027 A 
ATOM     23  C   UNL d   1       8.487   6.245  -7.002  0.00  0.00     0.004 A 
ENDBRANCH  10  11
ENDBRANCH   9  10
ENDBRANCH   8   9
ENDBRANCH   7   8
ENDBRANCH   4   7
BRANCH   1  24
ATOM     24  C   UNL d   1       6.610  -0.254 -17.208  0.00  0.00     0.143 A 
ATOM     25  N   UNL d   1       7.304   0.144 -18.296  0.00  0.00    -0.214 NA
ATOM     26  C   UNL d   1       6.998  -0.396 -19.472  0.00  0.00     0.140 A 
ATOM     27  N   UNL d   1       5.990  -1.238 -19.681  0.00  0.00    -0.227 NA
ATOM     28  C   UNL d   1       5.270  -1.646 -18.616  0.00  0.00     0.157 A 
ATOM     29  C   UNL d   1       5.544  -1.166 -17.318  0.00  0.00     0.060 A 
BRANCH  26  30
ATOM     30  C   UNL d   1       7.705   0.172 -20.708  0.00  0.00     0.052 C 
ATOM     31  C   UNL d   1       7.662  -0.823 -21.893  0.00  0.00     0.008 C 
ATOM     32  C   UNL d   1       9.200   0.426 -20.390  0.00  0.00     0.008 C 
ATOM     33  C   UNL d   1       7.037   1.483 -21.150  0.00  0.00     0.008 C 
ENDBRANCH  26  30
BRANCH  28  34
ATOM     34  C   UNL d   1       4.159  -2.653 -18.876  0.00  0.00     0.435 C 
ATOM     35  F   UNL d   1       3.866  -2.723 -20.180  0.00  0.00    -0.165 F 
ATOM     36  F   UNL d   1       4.540  -3.866 -18.466  0.00  0.00    -0.165 F 
ATOM     37  F   UNL d   1       3.071  -2.273 -18.222  0.00  0.00    -0.165 F 
ENDBRANCH  28  34
ENDBRANCH   1  24
TORSDOF 8
