REMARK  6 active torsions:
REMARK  status: ('A' for Active; 'I' for Inactive)
REMARK    1  A    between atoms: O_2  and  C_3 
REMARK    2  A    between atoms: C_8  and  O_9 
REMARK    3  A    between atoms: C_14  and  C_15 
REMARK    4  A    between atoms: C_15  and  N_16 
REMARK    5  A    between atoms: N_19  and  C_20 
REMARK    6  A    between atoms: C_25  and  O_26 
ROOT
ATOM      1  C   UNL d   1      14.152   8.535 -21.221  0.00  0.00     0.116 A 
ATOM      2  C   UNL d   1      13.415   7.402 -20.794  0.00  0.00     0.022 A 
ATOM      3  C   UNL d   1      13.852   6.607 -19.720  0.00  0.00    -0.017 A 
ATOM      4  C   UNL d   1      15.046   6.937 -19.034  0.00  0.00     0.033 A 
ATOM      5  C   UNL d   1      15.775   8.075 -19.445  0.00  0.00     0.029 A 
ATOM      6  C   UNL d   1      15.331   8.883 -20.514  0.00  0.00     0.116 A 
ATOM      7  C   UNL d   1      15.532   6.105 -17.891  0.00  0.00     0.173 C 
ATOM      8  O   UNL d   1      16.520   6.377 -17.208  0.00  0.00    -0.291 OA
ATOM      9  C   UNL d   1      14.749   4.831 -17.588  0.00  0.00     0.071 C 
ATOM     10  C   UNL d   1      13.249   4.981 -17.882  0.00  0.00     0.045 C 
ATOM     11  C   UNL d   1      13.018   5.398 -19.339  0.00  0.00     0.029 C 
ENDROOT
BRANCH  10  12
ATOM     12  C   UNL d   1      12.475   3.685 -17.530  0.00  0.00     0.251 C 
BRANCH  12  13
ATOM     13  N   UNL d   1      11.837   3.736 -16.213  0.00  0.00     0.141 N 
ATOM     14  C   UNL d   1      10.765   4.743 -16.187  0.00  0.00     0.274 C 
ATOM     15  C   UNL d   1      10.137   4.800 -14.791  0.00  0.00     0.137 C 
ATOM     16  N   UNL d   1       9.635   3.492 -14.410  0.00  0.00    -0.343 N 
ATOM     17  C   UNL d   1      10.591   2.400 -14.525  0.00  0.00     0.137 C 
ATOM     18  C   UNL d   1      11.245   2.420 -15.924  0.00  0.00     0.274 C 
BRANCH  16  19
ATOM     19  C   UNL d   1       8.309   3.306 -13.985  0.00  0.00     0.079 A 
ATOM     20  C   UNL d   1       7.693   4.223 -13.091  0.00  0.00     0.110 A 
ATOM     21  C   UNL d   1       6.352   3.998 -12.690  0.00  0.00     0.026 A 
ATOM     22  C   UNL d   1       5.643   2.878 -13.159  0.00  0.00     0.002 A 
ATOM     23  C   UNL d   1       6.259   1.968 -14.040  0.00  0.00     0.002 A 
ATOM     24  C   UNL d   1       7.586   2.185 -14.448  0.00  0.00     0.019 A 
BRANCH  20  25
ATOM     25  O   UNL d   1       8.448   5.280 -12.616  0.00  0.00    -0.327 OA
ATOM     26  C   UNL d   1       7.856   6.200 -11.717  0.00  0.00     0.181 C 
ENDBRANCH  20  25
ENDBRANCH  16  19
ENDBRANCH  12  13
ENDBRANCH  10  12
BRANCH   1  27
ATOM     27  O   UNL d   1      13.781   9.284 -22.314  0.00  0.00    -0.326 OA
ATOM     28  C   UNL d   1      12.513   9.034 -22.902  0.00  0.00     0.181 C 
ENDBRANCH   1  27
BRANCH   6  29
ATOM     29  O   UNL d   1      16.118   9.960 -20.855  0.00  0.00    -0.326 OA
ATOM     30  C   UNL d   1      15.476  11.229 -20.926  0.00  0.00     0.181 C 
ENDBRANCH   6  29
TORSDOF 6
