REMARK  5 active torsions:
REMARK  status: ('A' for Active; 'I' for Inactive)
REMARK    1  A    between atoms: C_2  and  C_3 
REMARK    2  A    between atoms: C_3  and  N_4 
REMARK    3  A    between atoms: N_4  and  C_5 
REMARK    4  A    between atoms: N_4  and  C_8 
REMARK    5  A    between atoms: C_5  and  C_6 
ROOT
ATOM      1  C   UNL d   1       7.502   4.388 -12.936  0.00  0.00     0.220 C 
ATOM      2  C   UNL d   1       6.378   3.333 -12.804  0.00  0.00     0.038 C 
ATOM      3  C   UNL d   1       6.295   2.443 -14.030  0.00  0.00     0.025 C 
ATOM      4  C   UNL d   1       7.643   1.844 -14.466  0.00  0.00    -0.025 C 
ATOM      5  C   UNL d   1       7.802   0.542 -14.735  0.00  0.00     0.128 C 
ATOM      6  C   UNL d   1       9.086   0.061 -15.169  0.00  0.00     0.111 C 
ATOM      7  N   UNL d   1      10.129  -0.247 -15.546  0.00  0.00    -0.191 NA
ATOM      8  C   UNL d   1       6.681  -0.358 -14.636  0.00  0.00     0.111 C 
ATOM      9  N   UNL d   1       5.736  -1.010 -14.527  0.00  0.00    -0.191 NA
ATOM     10  C   UNL d   1       8.760   2.905 -14.602  0.00  0.00     0.025 C 
ATOM     11  C   UNL d   1       8.865   3.769 -13.347  0.00  0.00     0.038 C 
ENDROOT
BRANCH   1  12
ATOM     12  N   UNL d   1       7.615   5.263 -11.762  0.00  0.00     0.135 N 
BRANCH  12  13
ATOM     13  C   UNL d   1       6.331   5.900 -11.447  0.00  0.00     0.250 C 
BRANCH  13  14
ATOM     14  C   UNL d   1       5.882   6.929 -12.469  0.00  0.00     0.035 C 
ATOM     15  C   UNL d   1       7.014   7.753 -13.081  0.00  0.00     0.002 C 
ENDBRANCH  13  14
ENDBRANCH  12  13
BRANCH  12  16
ATOM     16  C   UNL d   1       8.211   4.665 -10.560  0.00  0.00     0.250 C 
BRANCH  16  17
ATOM     17  C   UNL d   1       8.771   5.731  -9.598  0.00  0.00     0.035 C 
ATOM     18  C   UNL d   1       9.586   5.073  -8.487  0.00  0.00     0.002 C 
ENDBRANCH  16  17
ENDBRANCH  12  16
ENDBRANCH   1  12
TORSDOF 5
