REMARK  2 active torsions:
REMARK  status: ('A' for Active; 'I' for Inactive)
REMARK    1  A    between atoms: C_2  and  C_3 
REMARK    2  A    between atoms: C_3  and  N_4 
ROOT
ATOM      1  N   UNL d   1      11.499   8.415  -5.092  0.00  0.00     0.140 N 
ATOM      2  C   UNL d   1      12.230   9.638  -5.365  0.00  0.00     0.282 C 
ATOM      3  C   UNL d   1      11.575  10.511  -6.414  0.00  0.00     0.178 C 
ATOM      4  O   UNL d   1      11.390   9.728  -7.588  0.00  0.00    -0.348 OA
ATOM      5  C   UNL d   1      10.555   8.610  -7.383  0.00  0.00     0.169 C 
ATOM      6  C   UNL d   1      10.235   7.931  -8.717  0.00  0.00     0.005 A 
ATOM      7  C   UNL d   1       9.919   8.684  -9.845  0.00  0.00     0.025 A 
ATOM      8  C   UNL d   1       9.513   8.043 -11.033  0.00  0.00     0.131 A 
ATOM      9  O   UNL d   1       9.063   8.785 -12.074  0.00  0.00    -0.190 OA
ATOM     10  C   UNL d   1       9.449   6.651 -11.114  0.00  0.00     0.027 A 
ATOM     11  C   UNL d   1       9.769   5.890  -9.980  0.00  0.00    -0.002 A 
ATOM     12  C   UNL d   1      10.168   6.521  -8.797  0.00  0.00    -0.024 A 
ATOM     13  C   UNL d   1      10.415   5.685  -7.576  0.00  0.00     0.028 C 
ATOM     14  C   UNL d   1      10.445   6.429  -6.240  0.00  0.00     0.041 C 
ATOM     15  C   UNL d   1      11.269   7.715  -6.366  0.00  0.00     0.251 C 
ENDROOT
BRANCH   1  16
ATOM     16  C   UNL d   1      12.241   7.668  -4.060  0.00  0.00     0.250 C 
BRANCH  16  17
ATOM     17  C   UNL d   1      11.618   7.806  -2.663  0.00  0.00     0.035 C 
ATOM     18  C   UNL d   1      11.024   6.459  -2.226  0.00  0.00     0.002 C 
ENDBRANCH  16  17
ENDBRANCH   1  16
TORSDOF 2
