REMARK  5 active torsions:
REMARK  status: ('A' for Active; 'I' for Inactive)
REMARK    1  A    between atoms: C_4  and  C_5 
REMARK    2  A    between atoms: C_5  and  C_6 
REMARK    3  A    between atoms: C_6  and  N_7 
REMARK    4  A    between atoms: C_10  and  C_11 
REMARK    5  A    between atoms: C_13  and  C_14 
ROOT
ATOM      1  N   UNL d   1      10.217   6.639  -8.992  0.00  0.00     0.137 N 
ATOM      2  C   UNL d   1       9.904   7.483 -10.152  0.00  0.00     0.251 C 
ATOM      3  C   UNL d   1       9.570   6.610 -11.372  0.00  0.00     0.041 C 
ATOM      4  C   UNL d   1       8.409   5.654 -11.082  0.00  0.00     0.046 C 
ATOM      5  C   UNL d   1       8.700   4.888  -9.786  0.00  0.00     0.041 C 
ATOM      6  C   UNL d   1       9.034   5.850  -8.646  0.00  0.00     0.251 C 
ENDROOT
BRANCH   4   7
ATOM      7  C   UNL d   1       8.201   4.702 -12.230  0.00  0.00     0.082 A 
ATOM      8  N   UNL d   1       6.982   4.498 -12.707  0.00  0.00    -0.152 NA
ATOM      9  N   UNL d   1       7.153   3.590 -13.683  0.00  0.00    -0.148 NA
ATOM     10  C   UNL d   1       8.470   3.205 -13.831  0.00  0.00     0.106 A 
ATOM     11  C   UNL d   1       9.181   3.900 -12.894  0.00  0.00     0.037 A 
BRANCH  10  12
ATOM     12  C   UNL d   1       8.888   2.212 -14.819  0.00  0.00     0.039 A 
ATOM     13  C   UNL d   1      10.211   1.710 -14.839  0.00  0.00     0.101 A 
ATOM     14  N   UNL d   1      10.657   0.796 -15.728  0.00  0.00    -0.242 NA
ATOM     15  C   UNL d   1       9.793   0.340 -16.654  0.00  0.00     0.099 A 
ATOM     16  C   UNL d   1       8.452   0.761 -16.727  0.00  0.00     0.021 A 
ATOM     17  C   UNL d   1       7.995   1.706 -15.791  0.00  0.00     0.005 A 
ENDBRANCH  10  12
ENDBRANCH   4   7
BRANCH   1  18
ATOM     18  C   UNL d   1      10.536   7.524  -7.880  0.00  0.00     0.255 C 
BRANCH  18  19
ATOM     19  C   UNL d   1      11.115   6.794  -6.649  0.00  0.00     0.062 C 
BRANCH  19  20
ATOM     20  C   UNL d   1      11.367   7.716  -5.464  0.00  0.00    -0.020 A 
ATOM     21  C   UNL d   1      11.084   9.102  -5.529  0.00  0.00    -0.004 A 
ATOM     22  C   UNL d   1      11.295   9.917  -4.407  0.00  0.00    -0.000 A 
ATOM     23  C   UNL d   1      11.819   9.370  -3.220  0.00  0.00    -0.000 A 
ATOM     24  C   UNL d   1      12.095   7.995  -3.140  0.00  0.00    -0.000 A 
ATOM     25  C   UNL d   1      11.860   7.165  -4.256  0.00  0.00    -0.004 A 
ENDBRANCH  19  20
ENDBRANCH  18  19
ENDBRANCH   1  18
TORSDOF 5
