REMARK  5 active torsions:
REMARK  status: ('A' for Active; 'I' for Inactive)
REMARK    1  A    between atoms: O_2  and  C_3 
REMARK    2  A    between atoms: C_6  and  N_7 
REMARK    3  A    between atoms: N_10  and  C_11 
REMARK    4  A    between atoms: C_11  and  C_12 
REMARK    5  A    between atoms: C_14  and  C_15 
ROOT
ATOM      1  N   UNL d   1      10.631   6.893  -8.500  0.00  0.00    -0.344 N 
ATOM      2  C   UNL d   1      11.009   7.422  -9.803  0.00  0.00     0.137 C 
ATOM      3  C   UNL d   1       9.802   7.396 -10.753  0.00  0.00     0.274 C 
ATOM      4  N   UNL d   1       9.232   6.045 -10.848  0.00  0.00     0.141 N 
ATOM      5  C   UNL d   1       8.773   5.643  -9.509  0.00  0.00     0.274 C 
ATOM      6  C   UNL d   1       9.955   5.602  -8.526  0.00  0.00     0.137 C 
ENDROOT
BRANCH   4   7
ATOM      7  C   UNL d   1       8.091   6.061 -11.763  0.00  0.00     0.251 C 
BRANCH   7   8
ATOM      8  C   UNL d   1       7.775   4.668 -12.276  0.00  0.00     0.038 A 
ATOM      9  C   UNL d   1       7.744   4.375 -13.761  0.00  0.00     0.024 A 
ATOM     10  C   UNL d   1       6.454   4.404 -12.976  0.00  0.00     0.007 A 
BRANCH   9  11
ATOM     11  C   UNL d   1       8.318   3.102 -14.296  0.00  0.00    -0.022 A 
ATOM     12  C   UNL d   1       9.716   2.926 -14.379  0.00  0.00    -0.004 A 
ATOM     13  C   UNL d   1      10.251   1.709 -14.846  0.00  0.00    -0.000 A 
ATOM     14  C   UNL d   1       9.389   0.663 -15.232  0.00  0.00    -0.000 A 
ATOM     15  C   UNL d   1       7.994   0.841 -15.171  0.00  0.00    -0.000 A 
ATOM     16  C   UNL d   1       7.463   2.060 -14.714  0.00  0.00    -0.004 A 
ENDBRANCH   9  11
ENDBRANCH   7   8
ENDBRANCH   4   7
BRANCH   1  17
ATOM     17  C   UNL d   1      10.884   7.575  -7.295  0.00  0.00     0.056 A 
ATOM     18  C   UNL d   1      10.822   8.983  -7.220  0.00  0.00     0.019 A 
ATOM     19  C   UNL d   1      11.073   9.647  -6.002  0.00  0.00     0.026 A 
ATOM     20  C   UNL d   1      11.395   8.924  -4.835  0.00  0.00     0.094 A 
ATOM     21  C   UNL d   1      11.459   7.513  -4.910  0.00  0.00     0.026 A 
ATOM     22  C   UNL d   1      11.208   6.854  -6.126  0.00  0.00     0.019 A 
BRANCH  20  23
ATOM     23  O   UNL d   1      11.612   9.642  -3.683  0.00  0.00    -0.328 OA
ATOM     24  C   UNL d   1      12.094   8.947  -2.541  0.00  0.00     0.181 C 
ENDBRANCH  20  23
ENDBRANCH   1  17
TORSDOF 5
