REMARK  9 active torsions:
REMARK  status: ('A' for Active; 'I' for Inactive)
REMARK    1  A    between atoms: C_2  and  O_3 
REMARK    2  A    between atoms: O_3  and  C_4 
REMARK    3  A    between atoms: C_8  and  N_9 
REMARK    4  A    between atoms: N_12  and  C_13 
REMARK    5  A    between atoms: C_13  and  C_14 
REMARK    6  A    between atoms: C_14  and  C_15 
REMARK    7  A    between atoms: C_15  and  C_16 
REMARK    8  A    between atoms: C_16  and  O_17 
REMARK    9  A    between atoms: O_17  and  C_18 
ROOT
ATOM      1  C   UNL d   1       9.621   5.404 -11.611  0.00  0.00     0.251 C 
ENDROOT
BRANCH   1   2
ATOM      2  N   UNL d   1       8.745   4.935 -12.677  0.00  0.00     0.141 N 
ATOM      3  C   UNL d   1       7.418   4.591 -12.144  0.00  0.00     0.274 C 
ATOM      4  C   UNL d   1       6.500   4.125 -13.283  0.00  0.00     0.137 C 
ATOM      5  N   UNL d   1       7.116   3.029 -14.018  0.00  0.00    -0.344 N 
ATOM      6  C   UNL d   1       8.489   3.264 -14.457  0.00  0.00     0.137 C 
ATOM      7  C   UNL d   1       9.348   3.740 -13.278  0.00  0.00     0.274 C 
BRANCH   5   8
ATOM      8  C   UNL d   1       6.448   1.812 -14.242  0.00  0.00     0.058 A 
ATOM      9  C   UNL d   1       5.479   1.334 -13.332  0.00  0.00     0.017 A 
ATOM     10  C   UNL d   1       4.796   0.135 -13.598  0.00  0.00     0.004 A 
ATOM     11  C   UNL d   1       5.080  -0.612 -14.751  0.00  0.00     0.024 A 
ATOM     12  C   UNL d   1       6.037  -0.152 -15.672  0.00  0.00     0.096 A 
ATOM     13  C   UNL d   1       6.720   1.062 -15.404  0.00  0.00     0.041 A 
BRANCH  12  14
ATOM     14  O   UNL d   1       6.233  -0.914 -16.803  0.00  0.00    -0.331 OA
BRANCH  14  15
ATOM     15  C   UNL d   1       7.241  -0.513 -17.716  0.00  0.00     0.149 C 
ATOM     16  C   UNL d   1       7.359  -1.581 -18.805  0.00  0.00     0.035 C 
ENDBRANCH  14  15
ENDBRANCH  12  14
ENDBRANCH   5   8
ENDBRANCH   1   2
BRANCH   1  17
ATOM     17  C   UNL d   1       9.267   6.816 -11.145  0.00  0.00     0.038 C 
BRANCH  17  18
ATOM     18  C   UNL d   1      10.278   7.343 -10.114  0.00  0.00     0.035 C 
BRANCH  18  19
ATOM     19  C   UNL d   1       9.911   8.758  -9.596  0.00  0.00     0.149 C 
BRANCH  19  20
ATOM     20  O   UNL d   1      10.865   9.223  -8.645  0.00  0.00    -0.331 OA
BRANCH  20  21
ATOM     21  C   UNL d   1      10.867   8.632  -7.409  0.00  0.00     0.096 A 
ATOM     22  C   UNL d   1      11.782   9.079  -6.426  0.00  0.00     0.043 A 
ATOM     23  C   UNL d   1      11.833   8.407  -5.184  0.00  0.00     0.082 A 
ATOM     24  C   UNL d   1      11.057   7.261  -4.959  0.00  0.00    -0.004 A 
ATOM     25  N   UNL d   1      12.669   8.873  -4.156  0.00  0.00    -0.212 NA
ATOM     26  C   UNL d   1      10.141   6.844  -5.929  0.00  0.00    -0.001 A 
ATOM     27  C   UNL d   1      11.171   6.504  -3.653  0.00  0.00     0.038 C 
ATOM     28  C   UNL d   1      10.008   7.555  -7.119  0.00  0.00     0.024 A 
ATOM     29  C   UNL d   1      11.527   7.442  -2.497  0.00  0.00     0.095 C 
ATOM     30  C   UNL d   1      12.585   8.459  -2.889  0.00  0.00     0.256 C 
ATOM     31  O   UNL d   1      13.326   8.880  -2.005  0.00  0.00    -0.270 OA
ENDBRANCH  20  21
ENDBRANCH  19  20
ENDBRANCH  18  19
ENDBRANCH  17  18
ENDBRANCH   1  17
TORSDOF 9
