REMARK  6 active torsions:
REMARK  status: ('A' for Active; 'I' for Inactive)
REMARK    1  A    between atoms: C_2  and  C_3 
REMARK    2  A    between atoms: N_16  and  C_17 
REMARK    3  A    between atoms: C_17  and  C_18 
REMARK    4  A    between atoms: C_18  and  C_19 
REMARK    5  A    between atoms: C_19  and  C_20 
REMARK    6  A    between atoms: C_20  and  C_21 
ROOT
ATOM      1  O   UNL d   1       6.488   6.027 -11.172  0.00  0.00    -0.221 OA
ATOM      2  C   UNL d   1       7.711   5.483 -11.405  0.00  0.00     0.149 C 
ATOM      3  C   UNL d   1       7.471   3.992 -11.196  0.00  0.00     0.068 C 
ATOM      4  C   UNL d   1       6.516   3.362 -12.255  0.00  0.00     0.222 C 
ATOM      5  C   UNL d   1       5.165   4.013 -12.480  0.00  0.00     0.035 C 
ATOM      6  C   UNL d   1       5.482   5.061 -13.532  0.00  0.00     0.035 C 
ATOM      7  C   UNL d   1       7.035   4.897 -13.768  0.00  0.00     0.222 C 
ATOM      8  C   UNL d   1       7.901   5.809 -12.886  0.00  0.00     0.068 C 
ATOM      9  N   UNL d   1       7.287   3.502 -13.479  0.00  0.00     0.133 N 
ENDROOT
BRANCH   9  10
ATOM     10  C   UNL d   1       6.858   2.608 -14.549  0.00  0.00     0.250 C 
BRANCH  10  11
ATOM     11  C   UNL d   1       7.985   1.655 -14.918  0.00  0.00     0.036 C 
BRANCH  11  12
ATOM     12  C   UNL d   1       7.818   1.045 -16.317  0.00  0.00     0.007 C 
BRANCH  12  13
ATOM     13  C   UNL d   1       9.068   0.275 -16.790  0.00  0.00     0.026 C 
BRANCH  13  14
ATOM     14  C   UNL d   1       9.013  -0.128 -18.258  0.00  0.00    -0.022 A 
ATOM     15  C   UNL d   1       8.050  -1.057 -18.698  0.00  0.00    -0.002 A 
ATOM     16  C   UNL d   1       7.999  -1.439 -20.053  0.00  0.00     0.029 A 
ATOM     17  C   UNL d   1       8.916  -0.894 -20.974  0.00  0.00     0.140 A 
ATOM     18  C   UNL d   1       9.880   0.033 -20.539  0.00  0.00     0.029 A 
ATOM     19  F   UNL d   1       8.870  -1.266 -22.275  0.00  0.00    -0.204 F 
ATOM     20  C   UNL d   1       9.930   0.419 -19.184  0.00  0.00    -0.002 A 
ENDBRANCH  13  14
ENDBRANCH  12  13
ENDBRANCH  11  12
ENDBRANCH  10  11
ENDBRANCH   9  10
BRANCH   2  21
ATOM     21  C   UNL d   1       8.782   6.118 -10.516  0.00  0.00     0.005 A 
ATOM     22  C   UNL d   1       9.023   5.636  -9.203  0.00  0.00    -0.001 A 
ATOM     23  C   UNL d   1      10.016   6.222  -8.396  0.00  0.00     0.011 A 
ATOM     24  C   UNL d   1      10.758   7.319  -8.871  0.00  0.00     0.058 A 
ATOM     25  C   UNL d   1      10.495   7.848 -10.147  0.00  0.00     0.011 A 
ATOM     26 CL   UNL d   1      11.996   8.032  -7.916  0.00  0.00    -0.082 Cl
ATOM     27  C   UNL d   1       9.502   7.261 -10.949  0.00  0.00    -0.001 A 
ENDBRANCH   2  21
TORSDOF 6
