REMARK  8 active torsions:
REMARK  status: ('A' for Active; 'I' for Inactive)
REMARK    1  A    between atoms: O_2  and  C_3 
REMARK    2  A    between atoms: C_8  and  N_9 
REMARK    3  A    between atoms: N_14  and  C_15 
REMARK    4  A    between atoms: C_15  and  C_16 
REMARK    5  A    between atoms: C_16  and  C_17 
REMARK    6  A    between atoms: C_17  and  S_18 
REMARK    7  A    between atoms: S_18  and  C_19 
REMARK    8  A    between atoms: C_22  and  C_23 
ROOT
ATOM      1  C   UNL d   1       9.073   4.659 -14.084  0.00  0.00     0.251 C 
ENDROOT
BRANCH   1   2
ATOM      2  N   UNL d   1       9.640   3.505 -14.770  0.00  0.00     0.140 N 
ATOM      3  C   UNL d   1       9.410   3.554 -16.208  0.00  0.00     0.267 C 
ATOM      4  C   UNL d   1      10.847   3.068 -16.379  0.00  0.00     0.114 C 
ATOM      5  N   UNL d   1      11.643   3.435 -17.544  0.00  0.00    -0.250 NA
ATOM      6  C   UNL d   1      11.194   1.619 -16.731  0.00  0.00     0.037 C 
ATOM      7  C   UNL d   1      11.091   3.615 -14.962  0.00  0.00     0.267 C 
ATOM      8  C   UNL d   1      12.388   2.180 -17.506  0.00  0.00     0.078 C 
BRANCH   5   9
ATOM      9  C   UNL d   1      12.345   4.678 -17.477  0.00  0.00     0.059 A 
ATOM     10  C   UNL d   1      11.738   5.840 -18.023  0.00  0.00     0.104 A 
ATOM     11  C   UNL d   1      12.398   7.096 -17.968  0.00  0.00     0.025 A 
ATOM     12  C   UNL d   1      13.661   7.216 -17.367  0.00  0.00     0.002 A 
ATOM     13  C   UNL d   1      14.279   6.080 -16.830  0.00  0.00     0.001 A 
ATOM     14  C   UNL d   1      13.627   4.835 -16.888  0.00  0.00     0.013 A 
BRANCH  10  15
ATOM     15  O   UNL d   1      10.489   5.678 -18.593  0.00  0.00    -0.327 OA
ATOM     16  C   UNL d   1       9.853   6.801 -19.187  0.00  0.00     0.181 C 
ENDBRANCH  10  15
ENDBRANCH   5   9
ENDBRANCH   1   2
BRANCH   1  17
ATOM     17  C   UNL d   1       9.041   4.418 -12.575  0.00  0.00     0.047 C 
BRANCH  17  18
ATOM     18  C   UNL d   1       9.209   5.717 -11.785  0.00  0.00     0.067 C 
BRANCH  18  19
ATOM     19  S   UNL d   1       8.740   5.437 -10.036  0.00  0.00    -0.075 SA
BRANCH  19  20
ATOM     20  C   UNL d   1       9.732   6.631  -9.189  0.00  0.00     0.193 A 
ATOM     21  N   UNL d   1       9.595   6.858  -7.857  0.00  0.00    -0.289 N 
ATOM     22  C   UNL d   1      10.620   7.678  -7.595  0.00  0.00     0.167 A 
ATOM     23  C   UNL d   1       8.611   6.329  -6.928  0.00  0.00     0.134 C 
ATOM     24  N   UNL d   1      11.310   8.025  -8.688  0.00  0.00    -0.128 NA
ATOM     25  N   UNL d   1      10.723   7.347  -9.747  0.00  0.00    -0.122 NA
BRANCH  22  26
ATOM     26  C   UNL d   1      10.956   8.184  -6.287  0.00  0.00     0.036 A 
ATOM     27  C   UNL d   1      10.818   9.551  -6.049  0.00  0.00     0.003 A 
ATOM     28  C   UNL d   1      11.147  10.086  -4.802  0.00  0.00     0.000 A 
ATOM     29  C   UNL d   1      11.662   9.252  -3.786  0.00  0.00     0.000 A 
ATOM     30  C   UNL d   1      11.820   7.874  -4.029  0.00  0.00     0.000 A 
ATOM     31  C   UNL d   1      11.449   7.325  -5.274  0.00  0.00     0.003 A 
ENDBRANCH  22  26
ENDBRANCH  19  20
ENDBRANCH  18  19
ENDBRANCH  17  18
ENDBRANCH   1  17
TORSDOF 8
