REMARK  7 active torsions:
REMARK  status: ('A' for Active; 'I' for Inactive)
REMARK    1  A    between atoms: C_2  and  C_3 
REMARK    2  A    between atoms: C_2  and  C_11 
REMARK    3  A    between atoms: C_3  and  O_4 
REMARK    4  A    between atoms: O_4  and  C_5 
REMARK    5  A    between atoms: C_11  and  N_12 
REMARK    6  A    between atoms: C_15  and  O_16 
REMARK    7  A    between atoms: O_16  and  C_17 
ROOT
ATOM      1  N   UNL d   1       9.655   6.220  -9.529  0.00  0.00     0.140 N 
ATOM      2  C   UNL d   1       9.402   5.833  -8.156  0.00  0.00     0.253 C 
ATOM      3  C   UNL d   1      10.497   6.300  -7.193  0.00  0.00     0.066 C 
ATOM      4  C   UNL d   1      10.709   7.824  -7.243  0.00  0.00     0.125 C 
ATOM      5  C   UNL d   1      10.942   8.218  -8.715  0.00  0.00     0.066 C 
ATOM      6  C   UNL d   1       9.805   7.677  -9.586  0.00  0.00     0.253 C 
ENDROOT
BRANCH   1   7
ATOM      7  C   UNL d   1       8.615   5.696 -10.404  0.00  0.00     0.285 C 
BRANCH   7   8
ATOM      8  C   UNL d   1       8.785   6.098 -11.879  0.00  0.00     0.215 C 
ATOM      9  O   UNL d   1       7.864   7.129 -12.180  0.00  0.00    -0.219 OA
BRANCH   8  10
ATOM     10  C   UNL d   1       8.461   4.939 -12.822  0.00  0.00     0.184 C 
BRANCH  10  11
ATOM     11  O   UNL d   1       9.637   4.193 -13.182  0.00  0.00    -0.328 OA
BRANCH  11  12
ATOM     12  C   UNL d   1       9.438   3.123 -14.033  0.00  0.00     0.094 A 
ATOM     13  C   UNL d   1      10.610   2.415 -14.439  0.00  0.00     0.024 A 
ATOM     14  C   UNL d   1      10.496   1.285 -15.283  0.00  0.00     0.002 A 
ATOM     15  C   UNL d   1       9.233   0.851 -15.729  0.00  0.00     0.000 A 
ATOM     16  C   UNL d   1       8.080   1.552 -15.334  0.00  0.00     0.002 A 
ATOM     17  C   UNL d   1       8.185   2.668 -14.504  0.00  0.00     0.024 A 
ENDBRANCH  11  12
ENDBRANCH  10  11
ENDBRANCH   8  10
ENDBRANCH   7   8
ENDBRANCH   1   7
BRANCH   4  18
ATOM     18  O   UNL d   1      11.860   8.305  -6.515  0.00  0.00    -0.333 OA
BRANCH  18  19
ATOM     19  C   UNL d   1      11.786   8.196  -5.142  0.00  0.00     0.094 A 
ATOM     20  C   UNL d   1      11.808   9.414  -4.413  0.00  0.00     0.024 A 
ATOM     21  C   UNL d   1      11.845   9.377  -3.002  0.00  0.00     0.002 A 
ATOM     22  C   UNL d   1      11.864   8.141  -2.321  0.00  0.00     0.000 A 
ATOM     23  C   UNL d   1      11.864   6.939  -3.046  0.00  0.00     0.002 A 
ATOM     24  C   UNL d   1      11.856   6.983  -4.451  0.00  0.00     0.024 A 
ENDBRANCH  18  19
ENDBRANCH   4  18
TORSDOF 7
