REMARK  5 active torsions:
REMARK  status: ('A' for Active; 'I' for Inactive)
REMARK    1  A    between atoms: C_2  and  C_3 
REMARK    2  A    between atoms: C_5  and  O_6 
REMARK    3  A    between atoms: O_6  and  C_7 
REMARK    4  A    between atoms: C_10  and  C_11 
REMARK    5  A    between atoms: C_11  and  C_12 
ROOT
ATOM      1  C   UNL d   1       8.954   6.049 -11.508  0.00  0.00     0.097 A 
ATOM      2  C   UNL d   1       9.068   5.884 -12.905  0.00  0.00     0.024 A 
ATOM      3  C   UNL d   1       8.285   4.977 -13.608  0.00  0.00    -0.002 A 
ATOM      4  C   UNL d   1       7.401   4.108 -12.909  0.00  0.00    -0.020 A 
ATOM      5  C   UNL d   1       7.272   4.280 -11.520  0.00  0.00    -0.002 A 
ATOM      6  C   UNL d   1       8.025   5.244 -10.820  0.00  0.00     0.024 A 
ENDROOT
BRANCH   4   7
ATOM      7  C   UNL d   1       6.612   3.022 -13.631  0.00  0.00     0.067 C 
BRANCH   7   8
ATOM      8  C   UNL d   1       7.440   1.924 -14.367  0.00  0.00     0.283 C 
ATOM      9  C   UNL d   1       6.530   0.854 -15.002  0.00  0.00     0.010 A 
ATOM     10  C   UNL d   1       6.801   0.385 -16.301  0.00  0.00    -0.020 A 
ATOM     11  C   UNL d   1       5.419   0.342 -14.285  0.00  0.00     0.027 A 
ATOM     12  C   UNL d   1       8.000   0.912 -17.085  0.00  0.00     0.064 C 
ATOM     13  C   UNL d   1       5.938  -0.584 -16.891  0.00  0.00     0.025 A 
ATOM     14  C   UNL d   1       9.015   1.620 -16.160  0.00  0.00     0.295 C 
ATOM     15  N   UNL d   1       8.291   2.576 -15.362  0.00  0.00     0.342 N 
ATOM     16  C   UNL d   1       4.845  -1.089 -16.181  0.00  0.00     0.156 A 
ATOM     17  O   UNL d   1       4.043  -2.025 -16.776  0.00  0.00    -0.188 OA
ATOM     18  C   UNL d   1       4.571  -0.611 -14.871  0.00  0.00     0.156 A 
ATOM     19  O   UNL d   1       3.489  -1.033 -14.167  0.00  0.00    -0.188 OA
ENDBRANCH   7   8
ENDBRANCH   4   7
BRANCH   1  20
ATOM     20  O   UNL d   1       9.782   7.015 -10.964  0.00  0.00    -0.304 OA
BRANCH  20  21
ATOM     21  C   UNL d   1       9.698   7.245  -9.588  0.00  0.00     0.274 C 
ATOM     22  O   UNL d   1      10.139   6.123  -8.927  0.00  0.00    -0.326 OA
ATOM     23  C   UNL d   1      10.096   6.192  -7.517  0.00  0.00     0.184 C 
ATOM     24  C   UNL d   1      11.037   7.293  -7.016  0.00  0.00     0.215 C 
ATOM     25  C   UNL d   1      10.698   8.652  -7.698  0.00  0.00     0.220 C 
ATOM     26  O   UNL d   1      11.014   7.381  -5.590  0.00  0.00    -0.218 OA
ATOM     27  C   UNL d   1      10.645   8.432  -9.248  0.00  0.00     0.241 C 
ATOM     28  O   UNL d   1      11.755   9.546  -7.322  0.00  0.00    -0.218 OA
ATOM     29  O   UNL d   1      11.957   8.209  -9.749  0.00  0.00    -0.215 OA
BRANCH  23  30
ATOM     30  C   UNL d   1       8.661   6.274  -6.954  0.00  0.00     0.214 C 
ATOM     31  O   UNL d   1       8.270   7.571  -6.939  0.00  0.00    -0.218 OA
ENDBRANCH  23  30
ENDBRANCH  20  21
ENDBRANCH   1  20
TORSDOF 5
