REMARK  7 active torsions:
REMARK  status: ('A' for Active; 'I' for Inactive)
REMARK    1  A    between atoms: O_2  and  C_3 
REMARK    2  A    between atoms: C_9  and  C_10 
REMARK    3  A    between atoms: C_12  and  C_13 
REMARK    4  A    between atoms: C_13  and  N_14 
REMARK    5  A    between atoms: N_14  and  C_15 
REMARK    6  A    between atoms: N_18  and  C_19 
REMARK    7  A    between atoms: C_19  and  C_20 
ROOT
ATOM      1  C   UNL d   1       8.555   4.490 -12.945  0.00  0.00     0.184 C 
ATOM      2  N   UNL d   1       8.860   5.720 -13.341  0.00  0.00    -0.222 NA
ATOM      3  C   UNL d   1       8.918   6.471 -12.188  0.00  0.00     0.110 C 
ATOM      4  C   UNL d   1       8.552   5.642 -11.155  0.00  0.00     0.141 C 
ATOM      5  O   UNL d   1       8.541   4.360 -11.608  0.00  0.00    -0.286 OA
ENDROOT
BRANCH   3   6
ATOM      6  C   UNL d   1       9.301   7.910 -12.177  0.00  0.00     0.167 C 
BRANCH   6   7
ATOM      7  N   UNL d   1       9.463   8.630 -10.911  0.00  0.00    -0.289 NA
BRANCH   7   8
ATOM      8  C   UNL d   1      10.452   8.098  -9.992  0.00  0.00     0.134 C 
ATOM      9  C   UNL d   1       9.837   7.373  -8.787  0.00  0.00     0.274 C 
ATOM     10  N   UNL d   1      10.689   7.637  -7.670  0.00  0.00     0.143 N 
ATOM     11  C   UNL d   1      11.035   9.019  -7.854  0.00  0.00     0.253 C 
ATOM     12  C   UNL d   1      11.295   9.197  -9.346  0.00  0.00     0.061 C 
BRANCH  10  13
ATOM     13  C   UNL d   1      10.033   7.306  -6.412  0.00  0.00     0.277 C 
BRANCH  13  14
ATOM     14  C   UNL d   1      10.886   7.659  -5.214  0.00  0.00     0.011 A 
ATOM     15  C   UNL d   1      11.052   9.007  -4.833  0.00  0.00    -0.002 A 
ATOM     16  C   UNL d   1      11.858   9.346  -3.734  0.00  0.00    -0.000 A 
ATOM     17  C   UNL d   1      12.461   8.337  -2.966  0.00  0.00    -0.000 A 
ATOM     18  C   UNL d   1      12.261   6.985  -3.303  0.00  0.00    -0.000 A 
ATOM     19  C   UNL d   1      11.485   6.649  -4.436  0.00  0.00    -0.002 A 
ENDBRANCH  13  14
ENDBRANCH  10  13
ENDBRANCH   7   8
ENDBRANCH   6   7
ENDBRANCH   3   6
BRANCH   1  20
ATOM     20  C   UNL d   1       8.225   3.319 -13.716  0.00  0.00     0.064 A 
ATOM     21  C   UNL d   1       6.884   2.903 -13.966  0.00  0.00     0.098 A 
ATOM     22  C   UNL d   1       6.674   1.734 -14.730  0.00  0.00     0.025 A 
ATOM     23  C   UNL d   1       7.766   0.985 -15.211  0.00  0.00     0.009 A 
ATOM     24  C   UNL d   1       9.080   1.400 -14.936  0.00  0.00     0.035 A 
ATOM     25 BR   UNL d   1      10.554   0.405 -15.586  0.00  0.00    -0.049 Br
ATOM     26  C   UNL d   1       9.307   2.560 -14.184  0.00  0.00     0.012 A 
BRANCH  21  27
ATOM     27  O   UNL d   1       5.776   3.605 -13.537  0.00  0.00    -0.328 OA
ATOM     28  C   UNL d   1       5.486   3.611 -12.141  0.00  0.00     0.181 C 
ENDBRANCH  21  27
ENDBRANCH   1  20
TORSDOF 7
