REMARK  4 active torsions:
REMARK  status: ('A' for Active; 'I' for Inactive)
REMARK    1  A    between atoms: C_5  and  N_6 
REMARK    2  A    between atoms: N_9  and  C_10 
REMARK    3  A    between atoms: C_10  and  C_11 
REMARK    4  A    between atoms: C_11  and  C_12 
ROOT
ATOM      1  N   UNL d   1       7.904   4.667 -12.701  0.00  0.00    -0.344 N 
ATOM      2  C   UNL d   1       7.317   4.518 -11.368  0.00  0.00     0.137 C 
ATOM      3  C   UNL d   1       8.346   4.926 -10.289  0.00  0.00     0.274 C 
ATOM      4  N   UNL d   1       8.843   6.291 -10.505  0.00  0.00     0.141 N 
ATOM      5  C   UNL d   1       9.449   6.400 -11.825  0.00  0.00     0.274 C 
ATOM      6  C   UNL d   1       8.455   5.995 -12.947  0.00  0.00     0.137 C 
ENDROOT
BRANCH   4   7
ATOM      7  C   UNL d   1       9.793   6.675  -9.464  0.00  0.00     0.255 C 
BRANCH   7   8
ATOM      8  C   UNL d   1       9.102   7.530  -8.394  0.00  0.00     0.062 C 
BRANCH   8   9
ATOM      9  C   UNL d   1      10.069   7.969  -7.311  0.00  0.00    -0.019 A 
ATOM     10  C   UNL d   1      10.236   7.173  -6.157  0.00  0.00     0.016 A 
ATOM     11  C   UNL d   1      11.128   7.617  -5.162  0.00  0.00     0.095 A 
ATOM     12  C   UNL d   1      11.815   8.804  -5.295  0.00  0.00     0.096 A 
ATOM     13  N   UNL d   1      11.467   6.977  -3.988  0.00  0.00    -0.243 NA
ATOM     14  C   UNL d   1      11.691   9.601  -6.442  0.00  0.00     0.020 A 
ATOM     15  N   UNL d   1      12.645   9.022  -4.205  0.00  0.00    -0.243 NA
ATOM     16  C   UNL d   1      10.810   9.165  -7.458  0.00  0.00    -0.003 A 
ATOM     17  C   UNL d   1      12.581   7.771  -3.446  0.00  0.00     0.251 C 
ENDBRANCH   8   9
ENDBRANCH   7   8
ENDBRANCH   4   7
BRANCH   1  18
ATOM     18  C   UNL d   1       7.961   3.627 -13.630  0.00  0.00     0.056 A 
ATOM     19  C   UNL d   1       9.169   3.220 -14.306  0.00  0.00     0.015 A 
ATOM     20  C   UNL d   1      10.413   3.834 -14.055  0.00  0.00     0.001 A 
ATOM     21  C   UNL d   1       9.142   2.143 -15.234  0.00  0.00     0.001 A 
ATOM     22  C   UNL d   1      11.576   3.468 -14.736  0.00  0.00     0.000 A 
ATOM     23  C   UNL d   1      11.543   2.420 -15.663  0.00  0.00     0.000 A 
ATOM     24  C   UNL d   1      10.326   1.746 -15.903  0.00  0.00     0.000 A 
ATOM     25  C   UNL d   1       7.941   1.451 -15.490  0.00  0.00     0.000 A 
ATOM     26  C   UNL d   1       6.758   1.827 -14.828  0.00  0.00     0.002 A 
ATOM     27  C   UNL d   1       6.768   2.902 -13.916  0.00  0.00     0.017 A 
ENDBRANCH   1  18
TORSDOF 4
