REMARK  12 active torsions:
REMARK  status: ('A' for Active; 'I' for Inactive)
REMARK       I    between atoms: N_2  and  C_4 
REMARK    1  A    between atoms: C_4  and  C_6 
REMARK    2  A    between atoms: C_6  and  C_7 
REMARK    3  A    between atoms: C_6  and  C_29 
REMARK    4  A    between atoms: C_6  and  C_35 
REMARK    5  A    between atoms: C_7  and  C_8 
REMARK    6  A    between atoms: C_8  and  N_9 
REMARK    7  A    between atoms: N_9  and  C_10 
REMARK    8  A    between atoms: C_10  and  C_11 
REMARK    9  A    between atoms: C_11  and  C_12 
REMARK   10  A    between atoms: C_12  and  C_14 
REMARK   11  A    between atoms: C_14  and  N_15 
REMARK   12  A    between atoms: N_18  and  C_19 
ROOT
ATOM      1  C   UNL d   1      10.996   3.440 -14.835  0.00  0.00     0.121 C 
ENDROOT
BRANCH   1   2
ATOM      2  C   UNL d   1      10.021   2.591 -15.683  0.00  0.00     0.043 C 
BRANCH   2   3
ATOM      3  C   UNL d   1       9.829   2.914 -17.212  0.00  0.00     0.111 C 
BRANCH   3   4
ATOM      4  C   UNL d   1       9.497   4.435 -17.451  0.00  0.00     0.240 C 
ATOM      5  N   UNL d   1       9.300   5.012 -18.670  0.00  0.00    -0.316 N 
ATOM      6  C   UNL d   1       9.371   4.359 -19.972  0.00  0.00     0.128 C 
ATOM      7  C   UNL d   1       8.975   6.452 -18.775  0.00  0.00     0.128 C 
ATOM      8  O   UNL d   1       9.422   5.151 -16.440  0.00  0.00    -0.272 OA
ENDBRANCH   3   4
BRANCH   3   9
ATOM      9  C   UNL d   1       8.603   2.095 -17.753  0.00  0.00    -0.011 A 
ATOM     10  C   UNL d   1       7.400   1.969 -16.996  0.00  0.00    -0.004 A 
ATOM     11  C   UNL d   1       6.319   1.198 -17.462  0.00  0.00    -0.000 A 
ATOM     12  C   UNL d   1       6.355   0.611 -18.734  0.00  0.00    -0.000 A 
ATOM     13  C   UNL d   1       7.514   0.741 -19.518  0.00  0.00    -0.000 A 
ATOM     14  C   UNL d   1       8.636   1.440 -19.018  0.00  0.00    -0.004 A 
ENDBRANCH   3   9
BRANCH   3  15
ATOM     15  C   UNL d   1      11.184   2.517 -17.847  0.00  0.00    -0.011 A 
ATOM     16  C   UNL d   1      11.507   1.141 -17.951  0.00  0.00    -0.004 A 
ATOM     17  C   UNL d   1      12.735   0.727 -18.489  0.00  0.00    -0.000 A 
ATOM     18  C   UNL d   1      13.685   1.678 -18.892  0.00  0.00    -0.000 A 
ATOM     19  C   UNL d   1      13.414   3.048 -18.737  0.00  0.00    -0.000 A 
ATOM     20  C   UNL d   1      12.178   3.465 -18.211  0.00  0.00    -0.004 A 
ENDBRANCH   3  15
ENDBRANCH   2   3
ENDBRANCH   1   2
BRANCH   1  21
ATOM     21  N   UNL d   1      10.649   3.148 -13.472  0.00  0.00    -0.295 NA
BRANCH  21  22
ATOM     22  C   UNL d   1      10.001   4.239 -12.749  0.00  0.00     0.122 C 
BRANCH  22  23
ATOM     23  C   UNL d   1       8.502   4.216 -13.020  0.00  0.00     0.061 C 
BRANCH  23  24
ATOM     24  C   UNL d   1       7.720   5.364 -12.402  0.00  0.00     0.188 C 
ATOM     25  O   UNL d   1       6.359   5.229 -12.749  0.00  0.00    -0.221 OA
BRANCH  24  26
ATOM     26  C   UNL d   1       7.687   5.353 -10.887  0.00  0.00     0.283 C 
BRANCH  26  27
ATOM     27  N   UNL d   1       8.957   5.657 -10.229  0.00  0.00     0.144 N 
ATOM     28  C   UNL d   1       9.470   6.999 -10.544  0.00  0.00     0.274 C 
ATOM     29  C   UNL d   1      10.772   7.329  -9.789  0.00  0.00     0.137 C 
ATOM     30  N   UNL d   1      10.606   7.085  -8.334  0.00  0.00    -0.344 N 
ATOM     31  C   UNL d   1      10.008   5.780  -8.023  0.00  0.00     0.137 C 
ATOM     32  C   UNL d   1       8.733   5.534  -8.805  0.00  0.00     0.274 C 
BRANCH  30  33
ATOM     33  C   UNL d   1      10.912   7.982  -7.333  0.00  0.00     0.068 A 
ATOM     34  C   UNL d   1      11.439   7.654  -6.025  0.00  0.00     0.084 A 
ATOM     35  C   UNL d   1      11.741   8.627  -5.062  0.00  0.00     0.070 A 
ATOM     36 CL   UNL d   1      11.838   6.069  -5.602  0.00  0.00    -0.080 Cl
ATOM     37  C   UNL d   1      11.537   9.959  -5.362  0.00  0.00     0.012 A 
ATOM     38 CL   UNL d   1      12.461   8.199  -3.545  0.00  0.00    -0.081 Cl
ATOM     39  C   UNL d   1      11.093  10.351  -6.630  0.00  0.00     0.002 A 
ATOM     40  C   UNL d   1      10.738   9.370  -7.590  0.00  0.00     0.018 A 
ENDBRANCH  30  33
ENDBRANCH  26  27
ENDBRANCH  24  26
ENDBRANCH  23  24
ENDBRANCH  22  23
ENDBRANCH  21  22
ENDBRANCH   1  21
TORSDOF 12
