REMARK  4 active torsions:
REMARK  status: ('A' for Active; 'I' for Inactive)
REMARK    1  A    between atoms: C_7  and  C_8 
REMARK    2  A    between atoms: C_8  and  C_9 
REMARK    3  A    between atoms: C_9  and  N_10 
REMARK    4  A    between atoms: C_21  and  S_22 
ROOT
ATOM      1  N   UNL d   1       7.429   2.012 -15.337  0.00  0.00    -0.327 N 
ATOM      2  C   UNL d   1       7.746   3.007 -14.374  0.00  0.00     0.066 A 
ATOM      3  C   UNL d   1       8.927   3.804 -14.470  0.00  0.00     0.018 A 
ATOM      4  C   UNL d   1       9.263   4.763 -13.501  0.00  0.00     0.002 A 
ATOM      5  C   UNL d   1       8.412   4.983 -12.410  0.00  0.00     0.001 A 
ATOM      6  C   UNL d   1       7.226   4.239 -12.301  0.00  0.00     0.008 A 
ATOM      7  C   UNL d   1       6.899   3.259 -13.262  0.00  0.00     0.045 A 
ATOM      8  S   UNL d   1       5.434   2.296 -12.931  0.00  0.00    -0.084 SA
ATOM      9  C   UNL d   1       5.550   0.979 -14.104  0.00  0.00     0.045 A 
ATOM     10  C   UNL d   1       4.564  -0.020 -14.008  0.00  0.00     0.009 A 
ATOM     11  C   UNL d   1       4.517  -1.088 -14.936  0.00  0.00     0.009 A 
ATOM     12  C   UNL d   1       5.453  -1.127 -15.973  0.00  0.00     0.058 A 
ATOM     13  C   UNL d   1       6.435  -0.127 -16.084  0.00  0.00     0.026 A 
ATOM     14  C   UNL d   1       6.493   0.961 -15.164  0.00  0.00     0.067 A 
ENDROOT
BRANCH   1  15
ATOM     15  C   UNL d   1       8.128   2.072 -16.628  0.00  0.00     0.108 C 
BRANCH  15  16
ATOM     16  C   UNL d   1       9.452   1.281 -16.608  0.00  0.00     0.058 C 
BRANCH  16  17
ATOM     17  C   UNL d   1      10.155   1.201 -17.978  0.00  0.00     0.221 C 
ATOM     18  N   UNL d   1      11.599   0.975 -17.859  0.00  0.00     0.137 N 
ATOM     19  C   UNL d   1      12.268   2.062 -17.119  0.00  0.00     0.285 C 
ATOM     20  C   UNL d   1      12.224   0.908 -19.179  0.00  0.00     0.250 C 
ATOM     21  C   UNL d   1      11.665  -0.271 -19.995  0.00  0.00     0.035 C 
ATOM     22  C   UNL d   1      10.153  -0.141 -20.165  0.00  0.00     0.004 C 
ATOM     23  C   UNL d   1       9.508   0.043 -18.786  0.00  0.00     0.033 C 
ENDBRANCH  16  17
ENDBRANCH  15  16
ENDBRANCH   1  15
BRANCH  12  24
ATOM     24  S   UNL d   1       5.420  -2.501 -17.185  0.00  0.00     0.066 S 
ATOM     25  C   UNL d   1       3.747  -2.137 -17.897  0.00  0.00     0.111 C 
ATOM     26  O   UNL d   1       6.445  -2.165 -18.267  0.00  0.00    -0.252 OA
ENDBRANCH  12  24
TORSDOF 4
