REMARK  9 active torsions:
REMARK  status: ('A' for Active; 'I' for Inactive)
REMARK    1  A    between atoms: O_2  and  C_3 
REMARK    2  A    between atoms: C_9  and  N_10 
REMARK    3  A    between atoms: N_13  and  C_14 
REMARK    4  A    between atoms: C_14  and  C_15 
REMARK    5  A    between atoms: C_15  and  C_16 
REMARK    6  A    between atoms: C_16  and  C_17 
REMARK    7  A    between atoms: C_17  and  N_18 
REMARK       I    between atoms: N_18  and  C_19 
REMARK    8  A    between atoms: C_19  and  C_21 
REMARK    9  A    between atoms: C_25  and  N_26 
ROOT
ATOM      1  C   UNL d   1      10.536   2.985 -14.054  0.00  0.00     0.251 C 
ENDROOT
BRANCH   1   2
ATOM      2  N   UNL d   1      10.301   2.110 -15.202  0.00  0.00     0.141 N 
ATOM      3  C   UNL d   1       9.024   1.418 -15.070  0.00  0.00     0.274 C 
ATOM      4  C   UNL d   1       8.759   0.458 -16.202  0.00  0.00     0.138 C 
ATOM      5  N   UNL d   1       8.866   1.156 -17.476  0.00  0.00    -0.328 N 
ATOM      6  C   UNL d   1      10.099   1.905 -17.671  0.00  0.00     0.138 C 
ATOM      7  C   UNL d   1      10.333   2.850 -16.466  0.00  0.00     0.274 C 
BRANCH   5   8
ATOM      8  C   UNL d   1       7.836   1.126 -18.468  0.00  0.00     0.169 A 
ATOM      9  N   UNL d   1       7.869   1.893 -19.542  0.00  0.00    -0.109 NA
ATOM     10  O   UNL d   1       6.709   1.583 -20.308  0.00  0.00    -0.210 OA
ATOM     11  C   UNL d   1       5.938   0.641 -19.650  0.00  0.00     0.128 A 
ATOM     12  C   UNL d   1       4.706   0.044 -19.969  0.00  0.00     0.029 A 
ATOM     13  C   UNL d   1       6.670   0.321 -18.490  0.00  0.00     0.063 A 
ATOM     14  C   UNL d   1       4.181  -0.917 -19.079  0.00  0.00     0.026 A 
ATOM     15  C   UNL d   1       4.906  -1.292 -17.918  0.00  0.00     0.094 A 
ATOM     16  C   UNL d   1       6.155  -0.696 -17.646  0.00  0.00     0.029 A 
BRANCH  15  17
ATOM     17  O   UNL d   1       4.360  -2.242 -17.085  0.00  0.00    -0.328 OA
ATOM     18  C   UNL d   1       5.246  -2.987 -16.246  0.00  0.00     0.181 C 
ENDBRANCH  15  17
ENDBRANCH   5   8
ENDBRANCH   1   2
BRANCH   1  19
ATOM     19  C   UNL d   1       9.268   3.681 -13.494  0.00  0.00     0.037 C 
BRANCH  19  20
ATOM     20  C   UNL d   1       9.547   4.603 -12.324  0.00  0.00     0.029 C 
BRANCH  20  21
ATOM     21  C   UNL d   1       8.259   4.975 -11.562  0.00  0.00     0.129 C 
BRANCH  21  22
ATOM     22  N   UNL d   1       8.559   5.922 -10.502  0.00  0.00    -0.234 NA
ATOM     23  C   UNL d   1       9.246   5.639  -9.385  0.00  0.00     0.275 C 
ATOM     24  O   UNL d   1       9.412   4.494  -8.960  0.00  0.00    -0.266 OA
BRANCH  23  25
ATOM     25  C   UNL d   1       9.858   6.828  -8.697  0.00  0.00     0.059 A 
ATOM     26  C   UNL d   1      10.211   6.768  -7.328  0.00  0.00     0.022 A 
ATOM     27  C   UNL d   1      10.840   7.857  -6.670  0.00  0.00     0.056 A 
ATOM     28  C   UNL d   1      11.110   9.018  -7.448  0.00  0.00     0.017 A 
ATOM     29  C   UNL d   1      10.780   9.080  -8.808  0.00  0.00     0.002 A 
ATOM     30  C   UNL d   1      10.162   7.994  -9.435  0.00  0.00     0.005 A 
BRANCH  27  31
ATOM     31  N   UNL d   1      11.185   7.796  -5.293  0.00  0.00    -0.343 N 
ATOM     32  C   UNL d   1      11.911   8.935  -4.727  0.00  0.00     0.134 C 
ATOM     33  C   UNL d   1      11.934   8.890  -3.199  0.00  0.00     0.167 C 
ATOM     34  O   UNL d   1      12.463   7.650  -2.751  0.00  0.00    -0.350 OA
ATOM     35  C   UNL d   1      11.678   6.551  -3.213  0.00  0.00     0.167 C 
ATOM     36  C   UNL d   1      11.651   6.515  -4.755  0.00  0.00     0.134 C 
ENDBRANCH  27  31
ENDBRANCH  23  25
ENDBRANCH  21  22
ENDBRANCH  20  21
ENDBRANCH  19  20
ENDBRANCH   1  19
TORSDOF 9
