REMARK  8 active torsions:
REMARK  status: ('A' for Active; 'I' for Inactive)
REMARK    1  A    between atoms: O_2  and  C_3 
REMARK    2  A    between atoms: C_3  and  C_4 
REMARK    3  A    between atoms: C_4  and  C_5 
REMARK       I    between atoms: C_5  and  N_7 
REMARK    4  A    between atoms: N_7  and  C_8 
REMARK    5  A    between atoms: C_11  and  C_12 
REMARK    6  A    between atoms: C_12  and  C_13 
REMARK    7  A    between atoms: C_13  and  N_14 
REMARK    8  A    between atoms: C_17  and  C_18 
ROOT
ATOM      1  N   UNL d   1       9.168   6.028  -9.317  0.00  0.00     0.137 N 
ATOM      2  C   UNL d   1      10.618   6.049  -9.130  0.00  0.00     0.251 C 
ATOM      3  C   UNL d   1      11.060   7.168  -8.200  0.00  0.00     0.040 C 
ATOM      4  C   UNL d   1      10.454   6.936  -6.832  0.00  0.00     0.028 C 
ATOM      5  C   UNL d   1       8.934   6.777  -6.989  0.00  0.00     0.040 C 
ATOM      6  C   UNL d   1       8.576   5.694  -8.024  0.00  0.00     0.251 C 
ENDROOT
BRANCH   1   7
ATOM      7  C   UNL d   1       8.797   5.022 -10.300  0.00  0.00     0.250 C 
BRANCH   7   8
ATOM      8  C   UNL d   1       9.196   5.442 -11.725  0.00  0.00     0.035 C 
BRANCH   8   9
ATOM      9  C   UNL d   1       9.431   4.253 -12.667  0.00  0.00     0.002 C 
ATOM     10  C   UNL d   1       8.110   3.832 -13.326  0.00  0.00     0.002 C 
ATOM     11  C   UNL d   1       8.320   2.678 -14.324  0.00  0.00     0.024 C 
ATOM     12  C   UNL d   1       9.380   3.042 -15.386  0.00  0.00     0.106 C 
ATOM     13  C   UNL d   1      10.703   3.440 -14.727  0.00  0.00     0.024 C 
ATOM     14  C   UNL d   1      10.491   4.585 -13.729  0.00  0.00     0.002 C 
BRANCH  12  15
ATOM     15  N   UNL d   1       9.599   1.919 -16.281  0.00  0.00    -0.240 NA
ATOM     16  C   UNL d   1       8.923   1.687 -17.410  0.00  0.00     0.254 C 
ATOM     17  O   UNL d   1       8.071   2.461 -17.852  0.00  0.00    -0.271 OA
BRANCH  16  18
ATOM     18  C   UNL d   1       9.247   0.380 -18.133  0.00  0.00     0.122 C 
BRANCH  18  19
ATOM     19  C   UNL d   1       8.497   0.197 -19.464  0.00  0.00     0.152 C 
BRANCH  19  20
ATOM     20  O   UNL d   1       7.100   0.095 -19.232  0.00  0.00    -0.351 OA
ATOM     21  C   UNL d   1       6.353  -0.030 -20.429  0.00  0.00     0.174 C 
ENDBRANCH  19  20
ENDBRANCH  18  19
ENDBRANCH  16  18
ENDBRANCH  12  15
ENDBRANCH   8   9
ENDBRANCH   7   8
ENDBRANCH   1   7
BRANCH   4  22
ATOM     22  C   UNL d   1      10.822   8.095  -5.935  0.00  0.00     0.004 A 
ATOM     23  C   UNL d   1      11.394   8.027  -4.630  0.00  0.00     0.021 A 
ATOM     24  C   UNL d   1      11.472   9.371  -4.198  0.00  0.00     0.100 A 
ATOM     25  C   UNL d   1      11.796   7.028  -3.716  0.00  0.00     0.002 A 
ATOM     26  O   UNL d   1      11.041  10.221  -5.190  0.00  0.00    -0.305 OA
ATOM     27  C   UNL d   1      11.919   9.737  -2.925  0.00  0.00     0.025 A 
ATOM     28  C   UNL d   1      10.658   9.415  -6.226  0.00  0.00     0.118 A 
ATOM     29  C   UNL d   1      12.351   8.726  -2.048  0.00  0.00     0.002 A 
ATOM     30  C   UNL d   1      12.266   7.370  -2.427  0.00  0.00     0.000 A 
ENDBRANCH   4  22
TORSDOF 8
