REMARK  7 active torsions:
REMARK  status: ('A' for Active; 'I' for Inactive)
REMARK       I    between atoms: C_2  and  N_3 
REMARK    1  A    between atoms: C_2  and  C_24 
REMARK    2  A    between atoms: N_3  and  C_4 
REMARK    3  A    between atoms: C_4  and  C_5 
REMARK    4  A    between atoms: C_5  and  C_6 
REMARK    5  A    between atoms: C_6  and  C_7 
REMARK    6  A    between atoms: C_7  and  N_8 
REMARK    7  A    between atoms: N_11  and  C_12 
ROOT
ATOM      1  N   UNL d   1       8.119   5.311 -11.757  0.00  0.00     0.141 N 
ATOM      2  C   UNL d   1       9.049   4.313 -12.283  0.00  0.00     0.274 C 
ATOM      3  C   UNL d   1       8.599   3.866 -13.668  0.00  0.00     0.137 C 
ATOM      4  N   UNL d   1       7.221   3.409 -13.659  0.00  0.00    -0.344 N 
ATOM      5  C   UNL d   1       6.265   4.297 -13.024  0.00  0.00     0.137 C 
ATOM      6  C   UNL d   1       6.780   4.727 -11.640  0.00  0.00     0.274 C 
ENDROOT
BRANCH   1   7
ATOM      7  C   UNL d   1       8.580   5.711 -10.437  0.00  0.00     0.251 C 
BRANCH   7   8
ATOM      8  C   UNL d   1       9.557   6.887 -10.556  0.00  0.00     0.037 C 
BRANCH   8   9
ATOM      9  C   UNL d   1      10.214   7.167  -9.210  0.00  0.00     0.029 C 
BRANCH   9  10
ATOM     10  C   UNL d   1       9.242   7.647  -8.111  0.00  0.00     0.129 C 
BRANCH  10  11
ATOM     11  N   UNL d   1       9.893   7.963  -6.847  0.00  0.00    -0.234 NA
ATOM     12  C   UNL d   1      10.921   7.297  -6.298  0.00  0.00     0.275 C 
ATOM     13  O   UNL d   1      11.467   6.329  -6.803  0.00  0.00    -0.266 OA
BRANCH  12  14
ATOM     14  C   UNL d   1      11.362   7.780  -4.947  0.00  0.00     0.058 A 
ATOM     15  C   UNL d   1      11.804   6.842  -3.994  0.00  0.00     0.005 A 
ATOM     16  C   UNL d   1      12.259   7.255  -2.729  0.00  0.00     0.000 A 
ATOM     17  C   UNL d   1      12.281   8.633  -2.424  0.00  0.00     0.000 A 
ATOM     18  C   UNL d   1      11.849   9.584  -3.375  0.00  0.00     0.000 A 
ATOM     19  C   UNL d   1      11.393   9.160  -4.638  0.00  0.00     0.005 A 
ENDBRANCH  12  14
ENDBRANCH  10  11
ENDBRANCH   9  10
ENDBRANCH   8   9
ENDBRANCH   7   8
ENDBRANCH   1   7
BRANCH   4  20
ATOM     20  C   UNL d   1       6.817   2.154 -14.225  0.00  0.00     0.056 A 
ATOM     21  C   UNL d   1       7.338   1.664 -15.443  0.00  0.00     0.015 A 
ATOM     22  C   UNL d   1       6.888   0.391 -15.930  0.00  0.00     0.001 A 
ATOM     23  C   UNL d   1       8.274   2.373 -16.252  0.00  0.00     0.001 A 
ATOM     24  C   UNL d   1       5.943  -0.355 -15.200  0.00  0.00     0.000 A 
ATOM     25  C   UNL d   1       7.379  -0.122 -17.152  0.00  0.00     0.000 A 
ATOM     26  C   UNL d   1       5.428   0.143 -13.996  0.00  0.00     0.002 A 
ATOM     27  C   UNL d   1       5.860   1.395 -13.507  0.00  0.00     0.017 A 
ATOM     28  C   UNL d   1       8.329   0.593 -17.905  0.00  0.00     0.000 A 
ATOM     29  C   UNL d   1       8.774   1.843 -17.443  0.00  0.00     0.000 A 
ENDBRANCH   4  20
TORSDOF 7
