REMARK  5 active torsions:
REMARK  status: ('A' for Active; 'I' for Inactive)
REMARK    1  A    between atoms: C_2  and  C_3 
REMARK    2  A    between atoms: C_3  and  N_4 
REMARK    3  A    between atoms: C_7  and  C_8 
REMARK    4  A    between atoms: C_8  and  O_9 
REMARK    5  A    between atoms: O_9  and  C_10 
ROOT
ATOM      1  N   UNL d   1       9.424   6.064 -11.976  0.00  0.00     0.140 N 
ATOM      2  C   UNL d   1       9.344   5.231 -10.780  0.00  0.00     0.250 C 
ATOM      3  C   UNL d   1      10.031   5.857  -9.561  0.00  0.00     0.038 C 
ATOM      4  C   UNL d   1       9.463   7.232  -9.215  0.00  0.00     0.034 C 
ATOM      5  C   UNL d   1       9.476   8.094 -10.506  0.00  0.00     0.038 C 
ATOM      6  C   UNL d   1       8.820   7.346 -11.688  0.00  0.00     0.250 C 
ENDROOT
BRANCH   4   7
ATOM      7  C   UNL d   1      10.261   7.927  -8.104  0.00  0.00     0.149 C 
BRANCH   7   8
ATOM      8  O   UNL d   1      10.289   7.087  -6.968  0.00  0.00    -0.331 OA
BRANCH   8   9
ATOM      9  C   UNL d   1      10.908   7.560  -5.840  0.00  0.00     0.094 A 
ATOM     10  C   UNL d   1      11.170   8.924  -5.572  0.00  0.00     0.025 A 
ATOM     11  C   UNL d   1      11.773   9.272  -4.344  0.00  0.00     0.008 A 
ATOM     12  C   UNL d   1      12.130   8.275  -3.414  0.00  0.00     0.030 A 
ATOM     13  C   UNL d   1      11.867   6.930  -3.674  0.00  0.00     0.008 A 
ATOM     14  I   UNL d   1      13.029   8.707  -1.605  0.00  0.00    -0.043 I 
ATOM     15  C   UNL d   1      11.259   6.604  -4.884  0.00  0.00     0.025 A 
ENDBRANCH   8   9
ENDBRANCH   7   8
ENDBRANCH   4   7
BRANCH   1  16
ATOM     16  C   UNL d   1       8.812   5.451 -13.142  0.00  0.00     0.285 C 
BRANCH  16  17
ATOM     17  C   UNL d   1       9.623   4.293 -13.727  0.00  0.00     0.218 C 
ATOM     18  O   UNL d   1      10.844   4.785 -14.249  0.00  0.00    -0.218 OA
ENDBRANCH  16  17
ENDBRANCH   1  16
TORSDOF 5
