REMARK  6 active torsions:
REMARK  status: ('A' for Active; 'I' for Inactive)
REMARK    1  A    between atoms: C_2  and  C_3 
REMARK    2  A    between atoms: C_2  and  C_9 
REMARK    3  A    between atoms: C_14  and  O_15 
REMARK    4  A    between atoms: O_15  and  C_16 
REMARK    5  A    between atoms: C_16  and  C_17 
REMARK    6  A    between atoms: C_17  and  N_18 
ROOT
ATOM      1  C   UNL d   1       9.644   6.634  -9.267  0.00  0.00     0.034 A 
ATOM      2  C   UNL d   1      10.105   7.313 -10.421  0.00  0.00     0.001 A 
ATOM      3  C   UNL d   1      11.011   8.375 -10.330  0.00  0.00    -0.000 A 
ATOM      4  C   UNL d   1      11.458   8.791  -9.088  0.00  0.00     0.002 A 
ATOM      5  C   UNL d   1      10.995   8.168  -7.933  0.00  0.00     0.024 A 
ATOM      6  C   UNL d   1      10.102   7.066  -8.002  0.00  0.00     0.093 A 
ENDROOT
BRANCH   1   7
ATOM      7  C   UNL d   1       8.645   5.480  -9.369  0.00  0.00     0.199 C 
ATOM      8  O   UNL d   1       9.056   4.331  -8.659  0.00  0.00    -0.214 OA
BRANCH   7   9
ATOM      9  C   UNL d   1       8.352   5.105 -10.809  0.00  0.00     0.012 A 
ATOM     10  C   UNL d   1       9.308   4.381 -11.544  0.00  0.00    -0.002 A 
ATOM     11  C   UNL d   1       9.066   4.036 -12.885  0.00  0.00    -0.000 A 
ATOM     12  C   UNL d   1       7.867   4.446 -13.493  0.00  0.00    -0.000 A 
ATOM     13  C   UNL d   1       6.915   5.185 -12.770  0.00  0.00    -0.000 A 
ATOM     14  C   UNL d   1       7.161   5.529 -11.431  0.00  0.00    -0.002 A 
ENDBRANCH   7   9
ENDBRANCH   1   7
BRANCH   6  15
ATOM     15  O   UNL d   1       9.656   6.384  -6.896  0.00  0.00    -0.329 OA
BRANCH  15  16
ATOM     16  C   UNL d   1      10.014   6.877  -5.621  0.00  0.00     0.184 C 
BRANCH  16  17
ATOM     17  C   UNL d   1      11.517   6.630  -5.309  0.00  0.00     0.283 C 
BRANCH  17  18
ATOM     18  N   UNL d   1      12.098   7.570  -4.348  0.00  0.00     0.140 N 
ATOM     19  C   UNL d   1      11.568   8.934  -4.356  0.00  0.00     0.250 C 
ATOM     20  C   UNL d   1      12.129   9.556  -3.107  0.00  0.00     0.037 C 
ATOM     21  C   UNL d   1      12.404   8.375  -2.182  0.00  0.00     0.037 C 
ATOM     22  C   UNL d   1      12.018   7.114  -2.971  0.00  0.00     0.250 C 
ENDBRANCH  17  18
ENDBRANCH  16  17
ENDBRANCH  15  16
ENDBRANCH   6  15
TORSDOF 6
