REMARK  7 active torsions:
REMARK  status: ('A' for Active; 'I' for Inactive)
REMARK    1  A    between atoms: C_2  and  C_3 
REMARK       I    between atoms: C_2  and  N_8 
REMARK    2  A    between atoms: C_3  and  C_4 
REMARK    3  A    between atoms: N_8  and  C_9 
REMARK    4  A    between atoms: C_12  and  C_13 
REMARK    5  A    between atoms: C_13  and  C_14 
REMARK    6  A    between atoms: C_14  and  N_15 
REMARK    7  A    between atoms: C_18  and  C_19 
ROOT
ATOM      1  C   UNL d   1       8.739   5.397 -10.053  0.00  0.00     0.250 C 
ENDROOT
BRANCH   1   2
ATOM      2  C   UNL d   1       9.109   5.835 -11.459  0.00  0.00     0.035 C 
BRANCH   2   3
ATOM      3  C   UNL d   1       8.917   4.715 -12.480  0.00  0.00     0.002 C 
ATOM      4  C   UNL d   1       8.861   5.352 -13.855  0.00  0.00     0.002 C 
ATOM      5  C   UNL d   1       8.726   4.293 -14.944  0.00  0.00     0.024 C 
ATOM      6  C   UNL d   1       9.862   3.270 -14.945  0.00  0.00     0.106 C 
ATOM      7  C   UNL d   1      10.003   2.651 -13.557  0.00  0.00     0.024 C 
ATOM      8  C   UNL d   1      10.099   3.722 -12.474  0.00  0.00     0.002 C 
BRANCH   6   9
ATOM      9  N   UNL d   1       9.670   2.259 -15.962  0.00  0.00    -0.240 NA
ATOM     10  C   UNL d   1       8.686   1.347 -16.022  0.00  0.00     0.251 C 
ATOM     11  O   UNL d   1       7.756   1.279 -15.212  0.00  0.00    -0.271 OA
BRANCH  10  12
ATOM     12  C   UNL d   1       8.757   0.346 -17.153  0.00  0.00     0.090 C 
BRANCH  12  13
ATOM     13  C   UNL d   1       7.458   0.306 -17.948  0.00  0.00     0.009 C 
ATOM     14  C   UNL d   1       7.340  -0.695 -19.102  0.00  0.00     0.001 C 
ATOM     15  C   UNL d   1       5.873  -0.916 -18.718  0.00  0.00     0.000 C 
ATOM     16  C   UNL d   1       6.206  -0.347 -17.337  0.00  0.00     0.001 C 
ENDBRANCH  12  13
ENDBRANCH  10  12
ENDBRANCH   6   9
ENDBRANCH   2   3
ENDBRANCH   1   2
BRANCH   1  17
ATOM     17  N   UNL d   1       9.211   6.332  -9.050  0.00  0.00     0.137 N 
ATOM     18  C   UNL d   1       8.668   5.879  -7.783  0.00  0.00     0.251 C 
ATOM     19  C   UNL d   1       9.090   6.822  -6.637  0.00  0.00     0.040 C 
ATOM     20  C   UNL d   1      10.613   6.953  -6.524  0.00  0.00     0.026 C 
ATOM     21  C   UNL d   1      11.200   7.247  -7.902  0.00  0.00     0.040 C 
ATOM     22  C   UNL d   1      10.660   6.260  -8.927  0.00  0.00     0.251 C 
BRANCH  20  23
ATOM     23  C   UNL d   1      11.018   7.999  -5.507  0.00  0.00    -0.024 A 
ATOM     24  C   UNL d   1      11.630   7.657  -4.286  0.00  0.00    -0.001 A 
ATOM     25  C   UNL d   1      11.975   8.596  -3.337  0.00  0.00     0.090 A 
ATOM     26  C   UNL d   1      11.923   6.316  -3.759  0.00  0.00     0.061 A 
ATOM     27  C   UNL d   1      11.689   9.950  -3.552  0.00  0.00     0.024 A 
ATOM     28  O   UNL d   1      12.559   8.039  -2.231  0.00  0.00    -0.331 OA
ATOM     29  C   UNL d   1      11.079  10.328  -4.773  0.00  0.00     0.002 A 
ATOM     30  C   UNL d   1      10.765   9.364  -5.748  0.00  0.00    -0.004 A 
ATOM     31  C   UNL d   1      12.628   6.618  -2.445  0.00  0.00     0.154 A 
ENDBRANCH  20  23
ENDBRANCH   1  17
TORSDOF 7
