REMARK  9 active torsions:
REMARK  status: ('A' for Active; 'I' for Inactive)
REMARK    1  A    between atoms: C_2  and  C_3 
REMARK    2  A    between atoms: C_7  and  O_8 
REMARK    3  A    between atoms: C_10  and  N_11 
REMARK    4  A    between atoms: N_14  and  C_15 
REMARK    5  A    between atoms: C_15  and  C_16 
REMARK    6  A    between atoms: C_16  and  C_18 
REMARK    7  A    between atoms: C_18  and  C_19 
REMARK    8  A    between atoms: C_19  and  N_20 
REMARK       I    between atoms: N_20  and  C_21 
REMARK    9  A    between atoms: C_21  and  C_23 
ROOT
ATOM      1  N   UNL d   1       8.312   2.741 -14.294  0.00  0.00    -0.343 N 
ATOM      2  C   UNL d   1       9.595   2.804 -13.604  0.00  0.00     0.137 C 
ATOM      3  C   UNL d   1      10.017   4.246 -13.455  0.00  0.00     0.274 C 
ATOM      4  N   UNL d   1       8.979   4.981 -12.734  0.00  0.00     0.144 N 
ATOM      5  C   UNL d   1       7.752   4.970 -13.530  0.00  0.00     0.274 C 
ATOM      6  C   UNL d   1       7.238   3.548 -13.720  0.00  0.00     0.137 C 
ENDROOT
BRANCH   4   7
ATOM      7  C   UNL d   1       9.430   6.308 -12.535  0.00  0.00     0.283 C 
BRANCH   7   8
ATOM      8  C   UNL d   1       8.742   7.193 -11.518  0.00  0.00     0.188 C 
ATOM      9  O   UNL d   1       9.062   8.540 -11.855  0.00  0.00    -0.221 OA
BRANCH   8  10
ATOM     10  C   UNL d   1       9.261   6.836 -10.110  0.00  0.00     0.061 C 
BRANCH  10  11
ATOM     11  C   UNL d   1      10.744   7.192  -9.835  0.00  0.00     0.132 C 
BRANCH  11  12
ATOM     12  N   UNL d   1      11.028   7.228  -8.410  0.00  0.00    -0.233 NA
ATOM     13  C   UNL d   1      10.585   8.181  -7.581  0.00  0.00     0.298 C 
ATOM     14  O   UNL d   1       9.889   9.139  -7.916  0.00  0.00    -0.263 OA
BRANCH  13  15
ATOM     15  C   UNL d   1      11.067   8.062  -6.208  0.00  0.00     0.157 A 
ATOM     16  O   UNL d   1      11.140   9.217  -5.472  0.00  0.00    -0.302 OA
ATOM     17  C   UNL d   1      11.614   8.863  -4.238  0.00  0.00     0.100 A 
ATOM     18  C   UNL d   1      11.811   7.460  -4.179  0.00  0.00     0.025 A 
ATOM     19  C   UNL d   1      11.839   9.719  -3.160  0.00  0.00     0.025 A 
ATOM     20  C   UNL d   1      11.446   6.962  -5.468  0.00  0.00     0.032 A 
ATOM     21  C   UNL d   1      12.263   6.922  -2.957  0.00  0.00     0.002 A 
ATOM     22  C   UNL d   1      12.520   7.778  -1.869  0.00  0.00     0.000 A 
ATOM     23  C   UNL d   1      12.281   9.157  -1.962  0.00  0.00     0.002 A 
ENDBRANCH  13  15
ENDBRANCH  11  12
ENDBRANCH  10  11
ENDBRANCH   8  10
ENDBRANCH   7   8
ENDBRANCH   4   7
BRANCH   1  24
ATOM     24  C   UNL d   1       8.113   1.873 -15.375  0.00  0.00     0.079 A 
ATOM     25  C   UNL d   1       6.944   1.077 -15.488  0.00  0.00     0.120 A 
ATOM     26  C   UNL d   1       6.783   0.248 -16.623  0.00  0.00     0.081 A 
ATOM     27  C   UNL d   1       7.779   0.188 -17.609  0.00  0.00     0.009 A 
ATOM     28 CL   UNL d   1       5.348  -0.697 -16.841  0.00  0.00    -0.080 Cl
ATOM     29  C   UNL d   1       8.945   0.962 -17.489  0.00  0.00    -0.020 A 
ATOM     30  C   UNL d   1       9.108   1.800 -16.370  0.00  0.00     0.015 A 
BRANCH  25  31
ATOM     31  O   UNL d   1       5.975   1.108 -14.516  0.00  0.00    -0.326 OA
ATOM     32  C   UNL d   1       6.050   0.029 -13.598  0.00  0.00     0.181 C 
ENDBRANCH  25  31
BRANCH  29  33
ATOM     33  C   UNL d   1      10.021   0.899 -18.560  0.00  0.00     0.026 C 
ATOM     34  C   UNL d   1      11.034  -0.215 -18.288  0.00  0.00     0.005 C 
ENDBRANCH  29  33
ENDBRANCH   1  24
TORSDOF 9
