REMARK  2 active torsions:
REMARK  status: ('A' for Active; 'I' for Inactive)
REMARK    1  A    between atoms: O_2  and  C_3 
REMARK    2  A    between atoms: C_8  and  N_9 
ROOT
ATOM      1  C   UNL d   1      11.456   8.908  -5.669  0.00  0.00     0.110 A 
ATOM      2  C   UNL d   1      12.264   9.083  -4.513  0.00  0.00     0.026 A 
ATOM      3  C   UNL d   1      12.464   8.051  -3.576  0.00  0.00     0.002 A 
ATOM      4  C   UNL d   1      11.860   6.813  -3.800  0.00  0.00     0.002 A 
ATOM      5  C   UNL d   1      11.078   6.626  -4.947  0.00  0.00     0.019 A 
ATOM      6  C   UNL d   1      10.856   7.648  -5.888  0.00  0.00     0.079 A 
ENDROOT
BRANCH   6   7
ATOM      7  N   UNL d   1      10.067   7.385  -7.030  0.00  0.00    -0.343 N 
ATOM      8  C   UNL d   1       8.794   6.683  -6.945  0.00  0.00     0.140 C 
ATOM      9  C   UNL d   1       8.731   5.589  -8.033  0.00  0.00     0.314 C 
ATOM     10  N   UNL d   1       8.965   6.160  -9.360  0.00  0.00     0.343 N 
ATOM     11  C   UNL d   1      10.298   6.753  -9.391  0.00  0.00     0.314 C 
ATOM     12  C   UNL d   1      10.401   7.888  -8.357  0.00  0.00     0.140 C 
ENDBRANCH   6   7
BRANCH   1  13
ATOM     13  O   UNL d   1      11.218   9.899  -6.596  0.00  0.00    -0.327 OA
ATOM     14  C   UNL d   1      11.837  11.144  -6.404  0.00  0.00     0.181 C 
ENDBRANCH   1  13
TORSDOF 2
