REMARK  11 active torsions:
REMARK  status: ('A' for Active; 'I' for Inactive)
REMARK    1  A    between atoms: O_2  and  C_3 
REMARK    2  A    between atoms: C_8  and  C_9 
REMARK    3  A    between atoms: C_9  and  N_10 
REMARK    4  A    between atoms: N_10  and  C_11 
REMARK    5  A    between atoms: C_11  and  C_12 
REMARK    6  A    between atoms: C_15  and  C_16 
REMARK    7  A    between atoms: C_16  and  C_17 
REMARK    8  A    between atoms: C_17  and  N_18 
REMARK    9  A    between atoms: N_18  and  C_19 
REMARK   10  A    between atoms: C_19  and  C_20 
REMARK   11  A    between atoms: C_20  and  C_22 
ROOT
ATOM      1  C   UNL d   1      10.555   9.400  -7.459  0.00  0.00     0.014 A 
ATOM      2  C   UNL d   1       9.371   8.794  -7.007  0.00  0.00    -0.003 A 
ATOM      3  C   UNL d   1       8.906   7.632  -7.640  0.00  0.00    -0.004 A 
ATOM      4  C   UNL d   1       9.568   7.103  -8.767  0.00  0.00    -0.020 A 
ATOM      5  C   UNL d   1      10.730   7.746  -9.241  0.00  0.00    -0.004 A 
ATOM      6  C   UNL d   1      11.227   8.885  -8.586  0.00  0.00    -0.003 A 
ENDROOT
BRANCH   4   7
ATOM      7  C   UNL d   1       9.111   5.791  -9.333  0.00  0.00     0.065 C 
BRANCH   7   8
ATOM      8  C   UNL d   1       8.777   5.930 -10.809  0.00  0.00     0.295 C 
BRANCH   8   9
ATOM      9  N   UNL d   1       7.953   4.826 -11.277  0.00  0.00     0.343 N 
BRANCH   9  10
ATOM     10  C   UNL d   1       7.037   5.236 -12.341  0.00  0.00     0.327 C 
BRANCH  10  11
ATOM     11  C   UNL d   1       6.292   4.006 -12.905  0.00  0.00     0.211 C 
ATOM     12  O   UNL d   1       5.180   4.468 -13.630  0.00  0.00    -0.216 OA
BRANCH  11  13
ATOM     13  C   UNL d   1       7.174   3.093 -13.761  0.00  0.00     0.018 A 
ATOM     14  C   UNL d   1       6.801   1.760 -14.060  0.00  0.00     0.052 A 
ATOM     15  C   UNL d   1       7.606   0.926 -14.842  0.00  0.00     0.116 A 
ATOM     16  S   UNL d   1       5.388   0.910 -13.489  0.00  0.00    -0.024 SA
ATOM     17  C   UNL d   1       8.840   1.375 -15.349  0.00  0.00     0.149 A 
ATOM     18  N   UNL d   1       7.051  -0.347 -15.029  0.00  0.00    -0.200 NA
ATOM     19  C   UNL d   1       9.236   2.694 -15.060  0.00  0.00     0.029 A 
ATOM     20  O   UNL d   1       9.639   0.575 -16.110  0.00  0.00    -0.189 OA
ATOM     21  C   UNL d   1       8.417   3.536 -14.286  0.00  0.00     0.001 A 
ATOM     22  C   UNL d   1       5.838  -0.555 -14.411  0.00  0.00     0.311 A 
ATOM     23  O   UNL d   1       5.146  -1.560 -14.451  0.00  0.00    -0.258 OA
ENDBRANCH  11  13
ENDBRANCH  10  11
ENDBRANCH   9  10
ENDBRANCH   8   9
ENDBRANCH   7   8
ENDBRANCH   4   7
BRANCH   1  24
ATOM     24  C   UNL d   1      11.068  10.605  -6.693  0.00  0.00     0.317 C 
BRANCH  24  25
ATOM     25  N   UNL d   1      12.030  10.330  -5.656  0.00  0.00     0.349 N 
BRANCH  25  26
ATOM     26  C   UNL d   1      11.335  10.070  -4.399  0.00  0.00     0.319 C 
BRANCH  26  27
ATOM     27  C   UNL d   1      11.856   8.849  -3.679  0.00  0.00     0.036 A 
ATOM     28  C   UNL d   1      11.867   7.601  -4.328  0.00  0.00     0.092 A 
ATOM     29  C   UNL d   1      12.249   6.455  -3.618  0.00  0.00     0.024 A 
ATOM     30  C   UNL d   1      12.652   6.522  -2.292  0.00  0.00     0.002 A 
ATOM     31  C   UNL d   1      12.655   7.774  -1.665  0.00  0.00    -0.000 A 
ATOM     32  C   UNL d   1      12.265   8.938  -2.341  0.00  0.00    -0.000 A 
BRANCH  28  33
ATOM     33  O   UNL d   1      11.493   7.527  -5.638  0.00  0.00    -0.328 OA
ATOM     34  C   UNL d   1      11.090   6.267  -6.116  0.00  0.00     0.181 C 
ENDBRANCH  28  33
ENDBRANCH  26  27
ENDBRANCH  25  26
ENDBRANCH  24  25
ENDBRANCH   1  24
TORSDOF 11
