REMARK  6 active torsions:
REMARK  status: ('A' for Active; 'I' for Inactive)
REMARK    1  A    between atoms: O_2  and  N_3 
REMARK    2  A    between atoms: C_4  and  C_5 
REMARK    3  A    between atoms: C_4  and  C_19 
REMARK    4  A    between atoms: C_5  and  C_6 
REMARK    5  A    between atoms: C_6  and  N_7 
REMARK    6  A    between atoms: N_10  and  C_11 
ROOT
ATOM      1  C   UNL d   1       7.550   1.022 -15.903  0.00  0.00     0.083 C 
ENDROOT
BRANCH   1   2
ATOM      2  C   UNL d   1       6.201   0.345 -15.687  0.00  0.00     0.087 C 
ATOM      3  N   UNL d   1       5.576   0.389 -14.581  0.00  0.00    -0.136 NA
BRANCH   3   4
ATOM      4  O   UNL d   1       6.220   1.230 -13.660  0.00  0.00    -0.234 OA
ATOM      5  C   UNL d   1       5.358   1.424 -12.561  0.00  0.00     0.211 C 
ENDBRANCH   3   4
BRANCH   2   6
ATOM      6  C   UNL d   1       5.657  -0.352 -16.867  0.00  0.00     0.017 A 
ATOM      7  C   UNL d   1       5.620   0.275 -18.136  0.00  0.00     0.015 A 
ATOM      8  C   UNL d   1       5.089  -0.390 -19.255  0.00  0.00     0.085 A 
ATOM      9  C   UNL d   1       4.576  -1.697 -19.111  0.00  0.00     0.151 A 
ATOM     10 CL   UNL d   1       5.063   0.414 -20.784  0.00  0.00    -0.080 Cl
ATOM     11  C   UNL d   1       4.599  -2.325 -17.849  0.00  0.00     0.031 A 
ATOM     12  F   UNL d   1       4.060  -2.358 -20.174  0.00  0.00    -0.203 F 
ATOM     13  C   UNL d   1       5.131  -1.652 -16.733  0.00  0.00     0.004 A 
ENDBRANCH   2   6
ENDBRANCH   1   2
BRANCH   1  14
ATOM     14  C   UNL d   1       8.704   0.398 -15.071  0.00  0.00     0.257 C 
BRANCH  14  15
ATOM     15  N   UNL d   1       9.973   1.153 -15.155  0.00  0.00     0.141 N 
ATOM     16  C   UNL d   1      10.414   1.353 -16.538  0.00  0.00     0.274 C 
ATOM     17  C   UNL d   1      11.769   2.070 -16.584  0.00  0.00     0.138 C 
ATOM     18  N   UNL d   1      11.678   3.323 -15.836  0.00  0.00    -0.330 N 
ATOM     19  C   UNL d   1      11.219   3.164 -14.450  0.00  0.00     0.138 C 
ATOM     20  C   UNL d   1       9.876   2.417 -14.430  0.00  0.00     0.274 C 
BRANCH  18  21
ATOM     21  C   UNL d   1      11.982   4.578 -16.388  0.00  0.00     0.140 A 
ATOM     22  N   UNL d   1      12.333   5.563 -15.527  0.00  0.00    -0.227 NA
ATOM     23  C   UNL d   1      12.661   6.786 -16.009  0.00  0.00     0.101 A 
ATOM     24  C   UNL d   1      12.664   7.093 -17.378  0.00  0.00     0.021 A 
ATOM     25  C   UNL d   1      12.291   6.093 -18.288  0.00  0.00     0.005 A 
ATOM     26  C   UNL d   1      11.937   4.816 -17.789  0.00  0.00     0.037 A 
ENDBRANCH  18  21
ENDBRANCH  14  15
ENDBRANCH   1  14
TORSDOF 6
