REMARK  2 active torsions:
REMARK  status: ('A' for Active; 'I' for Inactive)
REMARK    1  A    between atoms: C_9  and  C_10 
REMARK    2  A    between atoms: C_10  and  N_11 
ROOT
ATOM      1  O   UNL d   1      11.665   6.393  -5.074  0.00  0.00    -0.190 OA
ATOM      2  C   UNL d   1      11.191   7.053  -6.163  0.00  0.00     0.133 A 
ATOM      3  C   UNL d   1      10.917   8.428  -6.046  0.00  0.00     0.027 A 
ATOM      4  C   UNL d   1      10.446   9.134  -7.157  0.00  0.00    -0.000 A 
ATOM      5  C   UNL d   1      10.232   8.475  -8.390  0.00  0.00     0.000 A 
ATOM      6  C   UNL d   1      10.521   7.096  -8.522  0.00  0.00     0.092 A 
ATOM      7  C   UNL d   1      10.997   6.396  -7.397  0.00  0.00     0.051 A 
ATOM      8  O   UNL d   1      10.416   6.425  -9.730  0.00  0.00    -0.332 OA
ATOM      9  C   UNL d   1       9.562   7.026 -10.693  0.00  0.00     0.155 C 
ATOM     10  C   UNL d   1       9.935   8.499 -10.891  0.00  0.00     0.037 C 
ATOM     11  C   UNL d   1       9.736   9.260  -9.580  0.00  0.00     0.031 C 
ENDROOT
BRANCH   9  12
ATOM     12  C   UNL d   1       9.598   6.264 -12.041  0.00  0.00     0.280 C 
BRANCH  12  13
ATOM     13  N   UNL d   1       8.622   5.196 -12.153  0.00  0.00     0.144 N 
ATOM     14  C   UNL d   1       8.953   4.400 -13.340  0.00  0.00     0.277 C 
ATOM     15  C   UNL d   1       7.932   3.328 -13.678  0.00  0.00     0.007 A 
ATOM     16  C   UNL d   1       6.620   3.443 -13.167  0.00  0.00    -0.022 A 
ATOM     17  C   UNL d   1       8.276   2.214 -14.470  0.00  0.00    -0.003 A 
ATOM     18  C   UNL d   1       6.262   4.596 -12.259  0.00  0.00     0.061 C 
ATOM     19  C   UNL d   1       5.681   2.428 -13.389  0.00  0.00    -0.004 A 
ATOM     20  C   UNL d   1       7.274   5.741 -12.309  0.00  0.00     0.255 C 
ATOM     21  C   UNL d   1       6.019   1.319 -14.191  0.00  0.00    -0.000 A 
ATOM     22  C   UNL d   1       7.310   1.216 -14.734  0.00  0.00    -0.000 A 
ENDBRANCH  12  13
ENDBRANCH   9  12
TORSDOF 2
