REMARK  1 active torsions:
REMARK  status: ('A' for Active; 'I' for Inactive)
REMARK    1  A    between atoms: C_9  and  C_11 
ROOT
ATOM      1  C   UNL d   1      12.284   5.975 -16.002  0.00  0.00     0.285 C 
ATOM      2  N   UNL d   1      11.967   4.583 -15.717  0.00  0.00     0.139 N 
ATOM      3  C   UNL d   1      10.871   4.535 -14.754  0.00  0.00     0.253 C 
ATOM      4  C   UNL d   1      10.547   3.060 -14.406  0.00  0.00     0.070 C 
ATOM      5  C   UNL d   1      10.109   2.276 -15.664  0.00  0.00     0.148 C 
ATOM      6  C   UNL d   1      11.233   2.422 -16.700  0.00  0.00     0.070 C 
ATOM      7  C   UNL d   1      11.557   3.916 -16.956  0.00  0.00     0.253 C 
ATOM      8  O   UNL d   1       8.853   2.716 -16.244  0.00  0.00    -0.352 OA
ATOM      9  C   UNL d   1       7.754   1.853 -15.851  0.00  0.00     0.119 C 
ATOM     10  C   UNL d   1       6.740   1.794 -17.001  0.00  0.00     0.035 C 
ATOM     11  C   UNL d   1       8.384   0.478 -15.631  0.00  0.00     0.098 C 
ATOM     12  C   UNL d   1       9.802   0.827 -15.331  0.00  0.00     0.177 C 
ATOM     13  O   UNL d   1      10.624   0.033 -14.880  0.00  0.00    -0.293 OA
ENDROOT
BRANCH   9  14
ATOM     14  C   UNL d   1       7.083   2.376 -14.582  0.00  0.00     0.003 A 
ATOM     15  C   UNL d   1       7.419   3.629 -14.036  0.00  0.00    -0.002 A 
ATOM     16  C   UNL d   1       6.835   4.082 -12.831  0.00  0.00    -0.000 A 
ATOM     17  C   UNL d   1       5.836   3.308 -12.234  0.00  0.00    -0.000 A 
ATOM     18  C   UNL d   1       5.439   2.095 -12.821  0.00  0.00    -0.000 A 
ATOM     19  C   UNL d   1       6.071   1.611 -13.987  0.00  0.00    -0.002 A 
ENDBRANCH   9  14
TORSDOF 1
