REMARK  6 active torsions:
REMARK  status: ('A' for Active; 'I' for Inactive)
REMARK    1  A    between atoms: S_2  and  C_3 
REMARK    2  A    between atoms: S_2  and  C_19 
REMARK    3  A    between atoms: C_3  and  C_4 
REMARK    4  A    between atoms: C_4  and  C_5 
REMARK    5  A    between atoms: C_5  and  N_6 
REMARK    6  A    between atoms: N_9  and  C_10 
ROOT
ATOM      1  N   UNL d   1       8.087   5.072 -11.877  0.00  0.00     0.141 N 
ATOM      2  C   UNL d   1       6.746   4.502 -11.729  0.00  0.00     0.274 C 
ATOM      3  C   UNL d   1       6.139   4.173 -13.101  0.00  0.00     0.137 C 
ATOM      4  N   UNL d   1       7.031   3.291 -13.844  0.00  0.00    -0.344 N 
ATOM      5  C   UNL d   1       8.415   3.745 -13.951  0.00  0.00     0.137 C 
ATOM      6  C   UNL d   1       8.972   4.115 -12.556  0.00  0.00     0.274 C 
ENDROOT
BRANCH   1   7
ATOM      7  C   UNL d   1       8.593   5.439 -10.552  0.00  0.00     0.251 C 
BRANCH   7   8
ATOM      8  C   UNL d   1       9.442   6.716 -10.598  0.00  0.00     0.050 C 
BRANCH   8   9
ATOM      9  C   UNL d   1       9.675   7.290  -9.182  0.00  0.00     0.098 C 
BRANCH   9  10
ATOM     10  S   UNL d   1      11.370   8.036  -9.092  0.00  0.00     0.065 S 
ATOM     11  O   UNL d   1      11.230   9.455  -9.644  0.00  0.00    -0.252 OA
BRANCH  10  12
ATOM     12  C   UNL d   1      11.394   8.208  -7.272  0.00  0.00     0.056 A 
ATOM     13  C   UNL d   1      11.406   9.494  -6.697  0.00  0.00     0.011 A 
ATOM     14  C   UNL d   1      11.440   9.632  -5.298  0.00  0.00     0.030 A 
ATOM     15  C   UNL d   1      11.479   8.491  -4.477  0.00  0.00     0.140 A 
ATOM     16  C   UNL d   1      11.459   7.203  -5.053  0.00  0.00     0.030 A 
ATOM     17  F   UNL d   1      11.536   8.634  -3.132  0.00  0.00    -0.204 F 
ATOM     18  C   UNL d   1      11.414   7.058  -6.455  0.00  0.00     0.011 A 
ENDBRANCH  10  12
ENDBRANCH   9  10
ENDBRANCH   8   9
ENDBRANCH   7   8
ENDBRANCH   1   7
BRANCH   4  19
ATOM     19  C   UNL d   1       6.612   2.035 -14.332  0.00  0.00     0.056 A 
ATOM     20  C   UNL d   1       5.649   1.265 -13.633  0.00  0.00     0.018 A 
ATOM     21  C   UNL d   1       5.166   0.054 -14.171  0.00  0.00     0.013 A 
ATOM     22  C   UNL d   1       5.653  -0.415 -15.399  0.00  0.00     0.058 A 
ATOM     23  C   UNL d   1       6.626   0.327 -16.096  0.00  0.00     0.013 A 
ATOM     24 CL   UNL d   1       5.048  -1.882 -16.061  0.00  0.00    -0.082 Cl
ATOM     25  C   UNL d   1       7.103   1.543 -15.561  0.00  0.00     0.018 A 
ENDBRANCH   4  19
TORSDOF 6
