REMARK  1 active torsions:
REMARK  status: ('A' for Active; 'I' for Inactive)
REMARK    1  A    between atoms: C_2  and  N_3 
ROOT
ATOM      1  N   UNL d   1      11.763   8.253  -3.625  0.00  0.00     0.141 N 
ATOM      2  C   UNL d   1      12.892   8.731  -4.409  0.00  0.00     0.274 C 
ATOM      3  C   UNL d   1      12.455   9.171  -5.843  0.00  0.00     0.137 C 
ATOM      4  N   UNL d   1      11.642   8.137  -6.477  0.00  0.00    -0.346 N 
ATOM      5  C   UNL d   1      11.449   8.101  -7.865  0.00  0.00     0.057 C 
ATOM      6  C   UNL d   1      12.221   8.771  -8.796  0.00  0.00     0.017 C 
ATOM      7  C   UNL d   1      11.764   8.972 -10.106  0.00  0.00     0.003 C 
ATOM      8  C   UNL d   1      10.654   8.267 -10.570  0.00  0.00     0.019 C 
ATOM      9  C   UNL d   1      10.031   7.352  -9.737  0.00  0.00     0.083 A 
ATOM     10  N   UNL d   1       9.049   6.435  -9.928  0.00  0.00    -0.244 NA
ATOM     11  C   UNL d   1       8.666   5.898  -8.709  0.00  0.00     0.095 A 
ATOM     12  C   UNL d   1       9.505   6.477  -7.778  0.00  0.00     0.002 A 
ATOM     13  C   UNL d   1      10.391   7.350  -8.390  0.00  0.00     0.031 A 
ATOM     14  C   UNL d   1       9.874   6.401  -6.317  0.00  0.00     0.052 C 
ATOM     15  C   UNL d   1      10.534   7.640  -5.670  0.00  0.00     0.119 C 
ATOM     16  C   UNL d   1      11.146   7.134  -4.354  0.00  0.00     0.273 C 
ENDROOT
BRANCH   1  17
ATOM     17  C   UNL d   1      12.175   7.929  -2.262  0.00  0.00     0.251 C 
ATOM     18  C   UNL d   1      12.613   6.468  -2.038  0.00  0.00     0.037 C 
ENDBRANCH   1  17
TORSDOF 1
