REMARK  3 active torsions:
REMARK  status: ('A' for Active; 'I' for Inactive)
REMARK    1  A    between atoms: N_2  and  C_3 
REMARK    2  A    between atoms: C_3  and  C_4 
REMARK    3  A    between atoms: C_4  and  C_6 
ROOT
ATOM      1  C   UNL d   1      11.147   8.463  -6.218  0.00  0.00     0.012 A 
ATOM      2  C   UNL d   1      11.629   9.174  -7.336  0.00  0.00     0.001 A 
ATOM      3  C   UNL d   1      11.063   8.971  -8.610  0.00  0.00     0.029 A 
ATOM      4  C   UNL d   1      10.003   8.056  -8.783  0.00  0.00     0.156 A 
ATOM      5  O   UNL d   1       9.460   7.901 -10.029  0.00  0.00    -0.188 OA
ATOM      6  C   UNL d   1       9.529   7.330  -7.668  0.00  0.00     0.156 A 
ATOM      7  O   UNL d   1       8.535   6.402  -7.779  0.00  0.00    -0.188 OA
ATOM      8  C   UNL d   1      10.085   7.541  -6.400  0.00  0.00     0.028 A 
ENDROOT
BRANCH   1   9
ATOM      9  C   UNL d   1      11.775   8.699  -4.849  0.00  0.00     0.211 C 
ATOM     10  O   UNL d   1      11.062   9.667  -4.110  0.00  0.00    -0.216 OA
BRANCH   9  11
ATOM     11  C   UNL d   1      11.880   7.399  -4.027  0.00  0.00     0.327 C 
BRANCH  11  12
ATOM     12  N   UNL d   1      12.465   7.621  -2.715  0.00  0.00     0.344 N 
ATOM     13  C   UNL d   1      12.523   6.385  -1.953  0.00  0.00     0.328 C 
ENDBRANCH  11  12
ENDBRANCH   9  11
ENDBRANCH   1   9
TORSDOF 3
