REMARK  8 active torsions:
REMARK  status: ('A' for Active; 'I' for Inactive)
REMARK    1  A    between atoms: C_6  and  C_7 
REMARK    2  A    between atoms: C_10  and  S_11 
REMARK    3  A    between atoms: S_11  and  C_12 
REMARK    4  A    between atoms: C_12  and  C_13 
REMARK    5  A    between atoms: C_13  and  C_14 
REMARK    6  A    between atoms: C_14  and  N_15 
REMARK    7  A    between atoms: C_19  and  C_20 
REMARK    8  A    between atoms: C_23  and  C_24 
ROOT
ATOM      1  N   UNL d   1       6.801   4.187 -12.851  0.00  0.00     0.137 N 
ATOM      2  C   UNL d   1       5.665   5.080 -12.665  0.00  0.00     0.251 C 
ATOM      3  C   UNL d   1       6.227   6.258 -11.891  0.00  0.00     0.040 A 
ATOM      4  C   UNL d   1       6.868   7.458 -12.572  0.00  0.00     0.009 A 
ATOM      5  C   UNL d   1       7.702   6.255 -12.167  0.00  0.00     0.054 A 
ATOM      6  C   UNL d   1       7.954   5.062 -13.072  0.00  0.00     0.254 C 
ENDROOT
BRANCH   1   7
ATOM      7  C   UNL d   1       6.558   3.225 -13.928  0.00  0.00     0.251 C 
BRANCH   7   8
ATOM      8  C   UNL d   1       7.683   2.175 -14.022  0.00  0.00     0.047 C 
BRANCH   8   9
ATOM      9  C   UNL d   1       8.274   2.006 -15.426  0.00  0.00     0.067 C 
BRANCH   9  10
ATOM     10  S   UNL d   1       9.554   0.693 -15.439  0.00  0.00    -0.075 SA
BRANCH  10  11
ATOM     11  C   UNL d   1      10.811   1.524 -16.363  0.00  0.00     0.193 A 
ATOM     12  N   UNL d   1      11.258   1.100 -17.544  0.00  0.00    -0.122 NA
ATOM     13  N   UNL d   1      12.175   2.048 -17.941  0.00  0.00    -0.126 NA
ATOM     14  C   UNL d   1      12.203   2.988 -16.989  0.00  0.00     0.191 A 
ATOM     15  N   UNL d   1      11.376   2.690 -15.952  0.00  0.00    -0.287 N 
ATOM     16  C   UNL d   1      11.139   3.412 -14.711  0.00  0.00     0.134 C 
BRANCH  14  17
ATOM     17  C   UNL d   1      13.079   4.179 -17.111  0.00  0.00     0.151 A 
ATOM     18  C   UNL d   1      13.065   5.476 -16.648  0.00  0.00     0.087 A 
ATOM     19  C   UNL d   1      12.073   6.239 -15.826  0.00  0.00     0.054 C 
ATOM     20  N   UNL d   1      14.229   6.114 -17.072  0.00  0.00    -0.221 NA
ATOM     21  C   UNL d   1      14.874   5.203 -17.790  0.00  0.00     0.225 A 
ATOM     22  O   UNL d   1      14.233   4.004 -17.841  0.00  0.00    -0.282 OA
ENDBRANCH  14  17
ENDBRANCH  10  11
ENDBRANCH   9  10
ENDBRANCH   8   9
ENDBRANCH   7   8
ENDBRANCH   1   7
BRANCH   5  23
ATOM     23  C   UNL d   1       8.664   6.330 -11.027  0.00  0.00     0.007 A 
ATOM     24  C   UNL d   1       9.524   7.460 -10.929  0.00  0.00     0.136 A 
ATOM     25  C   UNL d   1      10.337   7.638  -9.798  0.00  0.00     0.033 A 
ATOM     26  F   UNL d   1       9.476   8.420 -11.874  0.00  0.00    -0.205 F 
ATOM     27  C   UNL d   1      10.321   6.710  -8.740  0.00  0.00     0.074 A 
ATOM     28  C   UNL d   1       9.506   5.551  -8.854  0.00  0.00     0.004 A 
ATOM     29  C   UNL d   1       8.689   5.378  -9.999  0.00  0.00    -0.002 A 
BRANCH  27  30
ATOM     30  C   UNL d   1      11.191   6.955  -7.513  0.00  0.00     0.419 C 
ATOM     31  F   UNL d   1      12.242   7.685  -7.884  0.00  0.00    -0.166 F 
ATOM     32  F   UNL d   1      10.533   7.600  -6.551  0.00  0.00    -0.166 F 
ATOM     33  F   UNL d   1      11.653   5.825  -6.998  0.00  0.00    -0.166 F 
ENDBRANCH  27  30
ENDBRANCH   5  23
TORSDOF 8
