REMARK  5 active torsions:
REMARK  status: ('A' for Active; 'I' for Inactive)
REMARK    1  A    between atoms: S_2  and  C_4 
REMARK    2  A    between atoms: S_2  and  N_11 
REMARK    3  A    between atoms: C_14  and  C_16 
REMARK    4  A    between atoms: C_16  and  C_17 
REMARK    5  A    between atoms: C_17  and  C_18 
ROOT
ATOM      1  N   UNL d   1      10.207   7.201  -7.410  0.00  0.00    -0.274 N 
ATOM      2  C   UNL d   1       8.820   7.296  -7.894  0.00  0.00     0.116 C 
ATOM      3  C   UNL d   1       8.664   6.596  -9.268  0.00  0.00     0.055 C 
ATOM      4  C   UNL d   1       9.179   5.196  -9.347  0.00  0.00     0.131 C 
ATOM      5  O   UNL d   1       8.415   4.353  -8.518  0.00  0.00    -0.226 OA
ATOM      6  C   UNL d   1      10.575   5.260  -8.883  0.00  0.00     0.055 C 
ATOM      7  C   UNL d   1      10.807   5.897  -7.545  0.00  0.00     0.116 C 
ENDROOT
BRANCH   4   8
ATOM      8  C   UNL d   1       9.142   4.684 -10.804  0.00  0.00     0.035 C 
BRANCH   8   9
ATOM      9  C   UNL d   1       7.748   4.763 -11.482  0.00  0.00     0.031 C 
BRANCH   9  10
ATOM     10  C   UNL d   1       7.647   3.995 -12.772  0.00  0.00     0.005 A 
ATOM     11  C   UNL d   1       6.470   3.257 -13.082  0.00  0.00     0.138 A 
ATOM     12  C   UNL d   1       6.441   2.442 -14.218  0.00  0.00     0.059 A 
ATOM     13  F   UNL d   1       5.420   3.250 -12.230  0.00  0.00    -0.204 F 
ATOM     14  C   UNL d   1       7.553   2.393 -15.081  0.00  0.00     0.142 A 
ATOM     15  C   UNL d   1       8.716   3.116 -14.778  0.00  0.00     0.029 A 
ATOM     16  F   UNL d   1       7.499   1.642 -16.205  0.00  0.00    -0.204 F 
ATOM     17  C   UNL d   1       8.758   3.922 -13.636  0.00  0.00     0.000 A 
ENDBRANCH   9  10
ENDBRANCH   8   9
ENDBRANCH   4   8
BRANCH   1  18
ATOM     18  S   UNL d   1      11.151   8.561  -6.943  0.00  0.00     0.264 S 
ATOM     19  O   UNL d   1      10.264   9.706  -6.953  0.00  0.00    -0.200 OA
ATOM     20  O   UNL d   1      12.376   8.530  -7.762  0.00  0.00    -0.200 OA
BRANCH  18  21
ATOM     21  C   UNL d   1      11.573   8.281  -5.219  0.00  0.00     0.103 A 
ATOM     22  C   UNL d   1      11.742   9.399  -4.378  0.00  0.00     0.015 A 
ATOM     23  C   UNL d   1      12.104   9.204  -3.026  0.00  0.00     0.030 A 
ATOM     24  C   UNL d   1      12.318   7.913  -2.525  0.00  0.00     0.140 A 
ATOM     25  C   UNL d   1      12.109   6.798  -3.348  0.00  0.00     0.030 A 
ATOM     26  F   UNL d   1      12.728   7.754  -1.261  0.00  0.00    -0.204 F 
ATOM     27  C   UNL d   1      11.733   6.978  -4.686  0.00  0.00     0.015 A 
ENDBRANCH  18  21
ENDBRANCH   1  18
TORSDOF 5
