REMARK  7 active torsions:
REMARK  status: ('A' for Active; 'I' for Inactive)
REMARK    1  A    between atoms: C_2  and  N_3 
REMARK    2  A    between atoms: C_7  and  C_8 
REMARK    3  A    between atoms: C_8  and  N_9 
REMARK       I    between atoms: N_9  and  C_10 
REMARK    4  A    between atoms: C_10  and  C_12 
REMARK    5  A    between atoms: C_14  and  S_15 
REMARK    6  A    between atoms: S_15  and  C_18 
REMARK    7  A    between atoms: C_22  and  O_23 
ROOT
ATOM      1  C   UNL d   1       8.107   4.777 -12.677  0.00  0.00     0.080 A 
ATOM      2  C   UNL d   1       8.159   3.510 -13.295  0.00  0.00     0.018 A 
ATOM      3  C   UNL d   1       6.981   2.914 -13.750  0.00  0.00     0.084 A 
ATOM      4  C   UNL d   1       5.784   3.627 -13.636  0.00  0.00     0.013 A 
ATOM      5  C   UNL d   1       5.742   4.907 -13.087  0.00  0.00     0.025 A 
ATOM      6  C   UNL d   1       6.910   5.508 -12.589  0.00  0.00     0.099 A 
ENDROOT
BRANCH   1   7
ATOM      7  C   UNL d   1       9.368   5.341 -12.162  0.00  0.00     0.277 C 
ATOM      8  N   UNL d   1       9.279   5.897 -10.943  0.00  0.00    -0.232 NA
ATOM      9  O   UNL d   1      10.384   5.190 -12.833  0.00  0.00    -0.266 OA
BRANCH   8  10
ATOM     10  C   UNL d   1      10.382   6.436 -10.168  0.00  0.00     0.162 C 
BRANCH  10  11
ATOM     11  C   UNL d   1       9.941   7.325  -9.011  0.00  0.00     0.243 C 
ATOM     12  N   UNL d   1      11.066   7.680  -8.140  0.00  0.00     0.137 N 
ATOM     13  C   UNL d   1      10.408   8.190  -6.941  0.00  0.00     0.250 C 
ATOM     14  C   UNL d   1       9.279   7.193  -6.690  0.00  0.00     0.037 C 
ATOM     15  C   UNL d   1       8.994   6.597  -8.059  0.00  0.00     0.037 C 
BRANCH  12  16
ATOM     16  C   UNL d   1      11.987   8.662  -8.716  0.00  0.00     0.250 C 
ATOM     17  C   UNL d   1      13.132   8.008  -9.526  0.00  0.00     0.037 C 
ENDBRANCH  12  16
ENDBRANCH  10  11
ENDBRANCH   8  10
ENDBRANCH   1   7
BRANCH   6  18
ATOM     18  O   UNL d   1       6.941   6.781 -12.063  0.00  0.00    -0.328 OA
ATOM     19  C   UNL d   1       6.105   7.772 -12.621  0.00  0.00     0.181 C 
ENDBRANCH   6  18
BRANCH   3  20
ATOM     20  S   UNL d   1       6.989   1.280 -14.483  0.00  0.00     0.190 S 
ATOM     21  O   UNL d   1       8.214   0.590 -14.056  0.00  0.00    -0.222 OA
ATOM     22  O   UNL d   1       5.675   0.671 -14.224  0.00  0.00    -0.222 OA
BRANCH  20  23
ATOM     23  C   UNL d   1       7.126   1.622 -16.287  0.00  0.00     0.127 C 
ATOM     24  C   UNL d   1       8.486   2.238 -16.637  0.00  0.00     0.018 C 
ENDBRANCH  20  23
ENDBRANCH   3  20
TORSDOF 7
