REMARK  5 active torsions:
REMARK  status: ('A' for Active; 'I' for Inactive)
REMARK    1  A    between atoms: P_2  and  N_3 
REMARK    2  A    between atoms: N_3  and  C_4 
REMARK    3  A    between atoms: N_3  and  C_7 
REMARK    4  A    between atoms: C_4  and  C_5 
REMARK    5  A    between atoms: C_7  and  C_8 
ROOT
ATOM      1  O   UNL d   1      11.845   6.850  -7.117  0.00  0.00    -0.240 OA
ATOM      2  P   UNL d   1      10.968   7.834  -6.425  0.00  0.00     0.411 P 
ATOM      3  N   UNL d   1      11.476   9.457  -6.408  0.00  0.00    -0.209 NA
ATOM      4  C   UNL d   1      12.632   9.738  -5.581  0.00  0.00     0.134 C 
ATOM      5  C   UNL d   1      12.340   9.347  -4.114  0.00  0.00     0.059 C 
ATOM      6  C   UNL d   1      11.925   7.867  -3.977  0.00  0.00     0.155 C 
ATOM      7  O   UNL d   1      10.812   7.603  -4.835  0.00  0.00    -0.283 OA
ENDROOT
BRANCH   2   8
ATOM      8  N   UNL d   1       9.378   7.916  -6.998  0.00  0.00    -0.290 N 
BRANCH   8   9
ATOM      9  C   UNL d   1       8.982   8.946  -7.983  0.00  0.00     0.124 C 
BRANCH   9  10
ATOM     10  C   UNL d   1       9.509   8.702  -9.437  0.00  0.00     0.119 C 
ATOM     11 CL   UNL d   1      11.276   8.877  -9.641  0.00  0.00    -0.112 Cl
ENDBRANCH   9  10
ENDBRANCH   8   9
BRANCH   8  12
ATOM     12  C   UNL d   1       8.491   6.741  -6.865  0.00  0.00     0.124 C 
BRANCH  12  13
ATOM     13  C   UNL d   1       8.345   5.838  -8.121  0.00  0.00     0.119 C 
ATOM     14 CL   UNL d   1       9.849   5.252  -8.838  0.00  0.00    -0.112 Cl
ENDBRANCH  12  13
ENDBRANCH   8  12
ENDBRANCH   2   8
TORSDOF 5
