REMARK  2 active torsions:
REMARK  status: ('A' for Active; 'I' for Inactive)
REMARK    1  A    between atoms: C_2  and  C_3 
REMARK    2  A    between atoms: C_3  and  N_4 
ROOT
ATOM      1  N   UNL d   1       8.422   4.793 -12.360  0.00  0.00     0.141 N 
ATOM      2  C   UNL d   1       7.225   3.912 -12.319  0.00  0.00     0.274 C 
ATOM      3  C   UNL d   1       6.952   3.263 -13.673  0.00  0.00     0.137 C 
ATOM      4  N   UNL d   1       8.107   2.531 -14.143  0.00  0.00    -0.346 N 
ATOM      5  C   UNL d   1       7.914   1.668 -15.248  0.00  0.00     0.057 A 
ATOM      6  C   UNL d   1       6.670   1.199 -15.716  0.00  0.00     0.017 A 
ATOM      7  C   UNL d   1       6.604   0.367 -16.860  0.00  0.00     0.003 A 
ATOM      8  C   UNL d   1       7.787  -0.004 -17.506  0.00  0.00     0.019 A 
ATOM      9  C   UNL d   1       9.020   0.431 -17.043  0.00  0.00     0.083 A 
ATOM     10  N   UNL d   1      10.294   0.230 -17.458  0.00  0.00    -0.244 NA
ATOM     11  C   UNL d   1      11.196   0.911 -16.649  0.00  0.00     0.095 A 
ATOM     12  C   UNL d   1      10.421   1.533 -15.709  0.00  0.00     0.002 A 
ATOM     13  C   UNL d   1       9.058   1.256 -15.925  0.00  0.00     0.031 A 
ATOM     14  C   UNL d   1      10.607   2.413 -14.498  0.00  0.00     0.052 C 
ATOM     15  C   UNL d   1       9.366   3.283 -14.133  0.00  0.00     0.119 C 
ATOM     16  C   UNL d   1       9.578   3.986 -12.757  0.00  0.00     0.273 C 
ENDROOT
BRANCH   1  17
ATOM     17  C   UNL d   1       8.279   5.996 -13.187  0.00  0.00     0.250 C 
BRANCH  17  18
ATOM     18  C   UNL d   1       7.392   7.096 -12.550  0.00  0.00     0.035 C 
ATOM     19  C   UNL d   1       5.943   6.708 -12.199  0.00  0.00     0.002 C 
ENDBRANCH  17  18
ENDBRANCH   1  17
TORSDOF 2
