REMARK  7 active torsions:
REMARK  status: ('A' for Active; 'I' for Inactive)
REMARK       I    between atoms: C_2  and  N_3 
REMARK    1  A    between atoms: C_2  and  C_27 
REMARK    2  A    between atoms: N_3  and  C_4 
REMARK    3  A    between atoms: C_7  and  C_8 
REMARK    4  A    between atoms: C_8  and  C_9 
REMARK    5  A    between atoms: C_9  and  N_10 
REMARK    6  A    between atoms: N_13  and  C_14 
REMARK    7  A    between atoms: C_30  and  N_31 
ROOT
ATOM      1  C   UNL d   1       8.261   4.991 -12.693  0.00  0.00     0.107 C 
ATOM      2  C   UNL d   1       9.391   4.125 -13.288  0.00  0.00     0.024 C 
ATOM      3  C   UNL d   1       8.941   3.424 -14.575  0.00  0.00     0.002 C 
ATOM      4  C   UNL d   1       7.685   2.563 -14.341  0.00  0.00     0.002 C 
ATOM      5  C   UNL d   1       6.550   3.412 -13.704  0.00  0.00     0.002 C 
ATOM      6  C   UNL d   1       6.993   4.163 -12.436  0.00  0.00     0.024 C 
ENDROOT
BRANCH   4   7
ATOM      7  C   UNL d   1       7.225   1.888 -15.647  0.00  0.00     0.035 C 
BRANCH   7   8
ATOM      8  C   UNL d   1       6.380   0.620 -15.397  0.00  0.00     0.250 C 
BRANCH   8   9
ATOM      9  N   UNL d   1       5.754   0.184 -16.640  0.00  0.00     0.141 N 
ATOM     10  C   UNL d   1       4.603  -0.689 -16.353  0.00  0.00     0.274 C 
ATOM     11  C   UNL d   1       3.917  -1.134 -17.673  0.00  0.00     0.138 C 
ATOM     12  N   UNL d   1       4.902  -1.753 -18.553  0.00  0.00    -0.330 N 
ATOM     13  C   UNL d   1       6.096  -0.957 -18.802  0.00  0.00     0.138 C 
ATOM     14  C   UNL d   1       6.723  -0.560 -17.453  0.00  0.00     0.274 C 
BRANCH  12  15
ATOM     15  C   UNL d   1       4.717  -3.036 -19.069  0.00  0.00     0.138 A 
ATOM     16  C   UNL d   1       5.725  -4.031 -19.062  0.00  0.00     0.036 A 
ATOM     17  C   UNL d   1       5.473  -5.288 -19.587  0.00  0.00     0.095 A 
ATOM     18  C   UNL d   1       7.092  -4.033 -18.457  0.00  0.00     0.064 C 
ATOM     19  C   UNL d   1       4.221  -5.569 -20.162  0.00  0.00     0.045 A 
ATOM     20  O   UNL d   1       6.524  -6.147 -19.457  0.00  0.00    -0.331 OA
ATOM     21  C   UNL d   1       3.264  -4.531 -20.139  0.00  0.00     0.103 A 
ATOM     22  N   UNL d   1       3.503  -3.309 -19.608  0.00  0.00    -0.228 NA
ATOM     23  C   UNL d   1       7.625  -5.409 -18.905  0.00  0.00     0.154 C 
ENDBRANCH  12  15
ENDBRANCH   8   9
ENDBRANCH   7   8
ENDBRANCH   4   7
BRANCH   1  24
ATOM     24  N   UNL d   1       8.712   5.590 -11.445  0.00  0.00    -0.236 NA
ATOM     25  C   UNL d   1       9.302   6.790 -11.319  0.00  0.00     0.275 C 
ATOM     26  O   UNL d   1       9.450   7.560 -12.264  0.00  0.00    -0.266 OA
BRANCH  25  27
ATOM     27  C   UNL d   1       9.863   7.097  -9.958  0.00  0.00     0.058 A 
ATOM     28  C   UNL d   1       9.368   6.455  -8.801  0.00  0.00     0.006 A 
ATOM     29  C   UNL d   1       9.865   6.784  -7.530  0.00  0.00     0.019 A 
ATOM     30  C   UNL d   1      10.860   7.776  -7.386  0.00  0.00     0.083 A 
ATOM     31  C   UNL d   1      11.353   8.429  -8.534  0.00  0.00     0.019 A 
ATOM     32  C   UNL d   1      10.853   8.100  -9.810  0.00  0.00     0.006 A 
BRANCH  30  33
ATOM     33  N   UNL d   1      11.339   8.121  -6.101  0.00  0.00    -0.228 N 
ATOM     34  N   UNL d   1      11.333   7.216  -5.094  0.00  0.00    -0.164 NA
ATOM     35  C   UNL d   1      11.858   7.842  -4.060  0.00  0.00     0.122 A 
ATOM     36  C   UNL d   1      12.204   9.189  -4.358  0.00  0.00     0.043 A 
ATOM     37  C   UNL d   1      11.859   9.329  -5.675  0.00  0.00     0.102 A 
ENDBRANCH  30  33
ENDBRANCH  25  27
ENDBRANCH   1  24
TORSDOF 7
