REMARK  5 active torsions:
REMARK  status: ('A' for Active; 'I' for Inactive)
REMARK    1  A    between atoms: C_6  and  S_7 
REMARK    2  A    between atoms: S_7  and  C_10 
REMARK    3  A    between atoms: N_13  and  C_14 
REMARK    4  A    between atoms: C_14  and  C_15 
REMARK    5  A    between atoms: C_15  and  C_16 
ROOT
ATOM      1  N   UNL d   1       4.349  -0.410 -13.652  0.00  0.00    -0.191 NA
ATOM      2  C   UNL d   1       5.024   0.522 -13.570  0.00  0.00     0.101 C 
ATOM      3  C   UNL d   1       5.855   1.711 -13.466  0.00  0.00     0.068 C 
ATOM      4  C   UNL d   1       5.484   2.764 -12.593  0.00  0.00     0.011 C 
ATOM      5  C   UNL d   1       6.238   3.949 -12.528  0.00  0.00     0.012 C 
ATOM      6  C   UNL d   1       7.463   4.014 -13.219  0.00  0.00     0.084 C 
ATOM      7  C   UNL d   1       7.865   2.954 -14.064  0.00  0.00     0.012 C 
ATOM      8  C   UNL d   1       7.045   1.820 -14.218  0.00  0.00     0.011 C 
ENDROOT
BRANCH   6   9
ATOM      9  S   UNL d   1       8.575   5.404 -12.956  0.00  0.00     0.189 S 
ATOM     10  O   UNL d   1       9.804   5.177 -13.759  0.00  0.00    -0.222 OA
ATOM     11  O   UNL d   1       7.816   6.633 -13.149  0.00  0.00    -0.222 OA
BRANCH   9  12
ATOM     12  C   UNL d   1       9.098   5.344 -11.175  0.00  0.00     0.116 C 
ATOM     13  C   UNL d   1       9.977   6.534 -10.852  0.00  0.00     0.052 C 
ATOM     14  C   UNL d   1      10.390   6.589  -9.401  0.00  0.00     0.251 C 
ATOM     15  N   UNL d   1       9.200   6.777  -8.584  0.00  0.00     0.137 N 
ATOM     16  C   UNL d   1       8.342   5.612  -8.771  0.00  0.00     0.251 C 
ATOM     17  C   UNL d   1       7.907   5.457 -10.238  0.00  0.00     0.052 C 
BRANCH  15  18
ATOM     18  C   UNL d   1       9.566   6.838  -7.190  0.00  0.00     0.255 C 
BRANCH  18  19
ATOM     19  C   UNL d   1      10.241   8.199  -6.865  0.00  0.00     0.064 C 
BRANCH  19  20
ATOM     20  C   UNL d   1      10.882   8.282  -5.486  0.00  0.00     0.007 A 
ATOM     21  C   UNL d   1      11.591   7.181  -4.955  0.00  0.00     0.138 A 
ATOM     22  C   UNL d   1      12.158   7.234  -3.663  0.00  0.00     0.059 A 
ATOM     23  F   UNL d   1      11.881   6.135  -5.738  0.00  0.00    -0.204 F 
ATOM     24  C   UNL d   1      12.111   8.432  -2.940  0.00  0.00     0.142 A 
ATOM     25  C   UNL d   1      11.471   9.559  -3.495  0.00  0.00     0.029 A 
ATOM     26  F   UNL d   1      12.657   8.495  -1.699  0.00  0.00    -0.204 F 
ATOM     27  C   UNL d   1      10.854   9.485  -4.766  0.00  0.00     0.000 A 
ENDBRANCH  19  20
ENDBRANCH  18  19
ENDBRANCH  15  18
ENDBRANCH   9  12
ENDBRANCH   6   9
TORSDOF 5
