REMARK  14 active torsions:
REMARK  status: ('A' for Active; 'I' for Inactive)
REMARK    1  A    between atoms: C_2  and  C_3 
REMARK    2  A    between atoms: C_3  and  N_4 
REMARK    3  A    between atoms: C_19  and  O_20 
REMARK    4  A    between atoms: O_20  and  C_21 
REMARK    5  A    between atoms: C_21  and  C_22 
REMARK    6  A    between atoms: C_22  and  C_23 
REMARK    7  A    between atoms: C_23  and  N_24 
REMARK    8  A    between atoms: N_24  and  C_25 
REMARK    9  A    between atoms: N_24  and  S_42 
REMARK   10  A    between atoms: C_25  and  C_26 
REMARK   11  A    between atoms: C_26  and  C_27 
REMARK   12  A    between atoms: C_27  and  N_28 
REMARK   13  A    between atoms: N_31  and  C_32 
REMARK   14  A    between atoms: C_37  and  O_38 
ROOT
ATOM      1  C   UNL d   1      12.375   3.635 -18.598  0.00  0.00     0.058 C 
ENDROOT
BRANCH   1   2
ATOM      2  C   UNL d   1      12.392   2.179 -19.085  0.00  0.00     0.151 C 
BRANCH   2   3
ATOM      3  O   UNL d   1      11.050   1.684 -19.076  0.00  0.00    -0.331 OA
BRANCH   3   4
ATOM      4  C   UNL d   1      10.422   1.323 -17.893  0.00  0.00     0.094 A 
ATOM      5  C   UNL d   1      11.116   1.248 -16.655  0.00  0.00     0.024 A 
ATOM      6  C   UNL d   1      10.485   0.785 -15.492  0.00  0.00     0.002 A 
ATOM      7  C   UNL d   1       9.147   0.376 -15.544  0.00  0.00    -0.004 A 
ATOM      8  C   UNL d   1       8.439   0.460 -16.759  0.00  0.00    -0.018 A 
ATOM      9  C   UNL d   1       7.023  -0.068 -16.813  0.00  0.00     0.064 C 
ATOM     10  C   UNL d   1       9.040   0.965 -17.937  0.00  0.00     0.018 A 
ATOM     11  C   UNL d   1       6.713  -0.720 -18.184  0.00  0.00     0.245 C 
ATOM     12  N   UNL d   1       5.355  -1.288 -18.194  0.00  0.00     0.140 N 
ATOM     13  C   UNL d   1       7.022   0.265 -19.329  0.00  0.00     0.005 A 
ATOM     14  C   UNL d   1       5.071  -1.779 -19.536  0.00  0.00     0.255 C 
ATOM     15  C   UNL d   1       4.974  -0.601 -20.490  0.00  0.00     0.061 C 
ATOM     16  C   UNL d   1       6.191   0.309 -20.482  0.00  0.00    -0.022 A 
ATOM     17  C   UNL d   1       6.513   1.211 -21.506  0.00  0.00    -0.004 A 
ATOM     18  C   UNL d   1       7.616   2.063 -21.356  0.00  0.00    -0.000 A 
ATOM     19  C   UNL d   1       8.416   1.991 -20.201  0.00  0.00    -0.000 A 
ATOM     20  C   UNL d   1       8.188   1.061 -19.155  0.00  0.00    -0.001 A 
BRANCH  12  21
ATOM     21  C   UNL d   1       5.151  -2.385 -17.231  0.00  0.00     0.251 C 
BRANCH  21  22
ATOM     22  C   UNL d   1       5.936  -3.673 -17.595  0.00  0.00     0.035 C 
ATOM     23  C   UNL d   1       5.718  -4.819 -16.626  0.00  0.00     0.002 C 
ENDBRANCH  21  22
ENDBRANCH  12  21
ENDBRANCH   3   4
ENDBRANCH   2   3
ENDBRANCH   1   2
BRANCH   1  24
ATOM     24  C   UNL d   1      13.721   4.361 -18.693  0.00  0.00     0.115 C 
BRANCH  24  25
ATOM     25  N   UNL d   1      13.603   5.753 -18.206  0.00  0.00    -0.278 N 
BRANCH  25  26
ATOM     26  C   UNL d   1      14.667   6.668 -18.686  0.00  0.00     0.115 C 
BRANCH  26  27
ATOM     27  C   UNL d   1      16.035   6.375 -18.034  0.00  0.00     0.060 C 
BRANCH  27  28
ATOM     28  C   UNL d   1      17.041   7.549 -18.137  0.00  0.00     0.252 C 
BRANCH  28  29
ATOM     29  N   UNL d   1      17.927   7.489 -19.305  0.00  0.00     0.141 N 
ATOM     30  C   UNL d   1      18.959   6.458 -19.108  0.00  0.00     0.274 C 
ATOM     31  C   UNL d   1      19.879   6.353 -20.339  0.00  0.00     0.137 C 
ATOM     32  N   UNL d   1      20.468   7.652 -20.622  0.00  0.00    -0.343 N 
ATOM     33  C   UNL d   1      19.522   8.761 -20.700  0.00  0.00     0.137 C 
ATOM     34  C   UNL d   1      18.613   8.782 -19.453  0.00  0.00     0.274 C 
BRANCH  32  35
ATOM     35  C   UNL d   1      21.857   7.814 -20.712  0.00  0.00     0.079 A 
ATOM     36  C   UNL d   1      22.519   8.861 -20.018  0.00  0.00     0.110 A 
ATOM     37  C   UNL d   1      23.918   9.000 -20.158  0.00  0.00     0.026 A 
ATOM     38  C   UNL d   1      24.660   8.108 -20.958  0.00  0.00     0.002 A 
ATOM     39  C   UNL d   1      23.998   7.062 -21.628  0.00  0.00     0.002 A 
ATOM     40  C   UNL d   1      22.610   6.914 -21.499  0.00  0.00     0.019 A 
BRANCH  36  41
ATOM     41  O   UNL d   1      21.750   9.681 -19.212  0.00  0.00    -0.327 OA
ATOM     42  C   UNL d   1      22.381  10.756 -18.538  0.00  0.00     0.181 C 
ENDBRANCH  36  41
ENDBRANCH  32  35
ENDBRANCH  28  29
ENDBRANCH  27  28
ENDBRANCH  26  27
ENDBRANCH  25  26
BRANCH  25  43
ATOM     43  S   UNL d   1      12.878   6.076 -16.646  0.00  0.00     0.244 S 
ATOM     44  C   UNL d   1      11.076   5.789 -16.893  0.00  0.00     0.163 C 
ATOM     45  O   UNL d   1      13.400   5.078 -15.708  0.00  0.00    -0.205 OA
ATOM     46  O   UNL d   1      13.092   7.500 -16.348  0.00  0.00    -0.205 OA
ENDBRANCH  25  43
ENDBRANCH  24  25
ENDBRANCH   1  24
TORSDOF 14
