REMARK  5 active torsions:
REMARK  status: ('A' for Active; 'I' for Inactive)
REMARK    1  A    between atoms: C_2  and  C_3 
REMARK    2  A    between atoms: C_3  and  N_4 
REMARK    3  A    between atoms: C_12  and  O_13 
REMARK    4  A    between atoms: O_13  and  S_14 
REMARK    5  A    between atoms: S_14  and  C_17 
ROOT
ATOM      1  N   UNL d   1       8.820   2.798 -15.271  0.00  0.00     0.140 N 
ATOM      2  C   UNL d   1       8.142   3.296 -14.075  0.00  0.00     0.251 C 
ATOM      3  C   UNL d   1       6.802   2.590 -14.088  0.00  0.00     0.042 C 
ATOM      4  C   UNL d   1       7.208   1.187 -14.504  0.00  0.00     0.055 C 
ATOM      5  C   UNL d   1       6.045   0.311 -14.962  0.00  0.00    -0.023 A 
ATOM      6  C   UNL d   1       4.990   0.057 -14.058  0.00  0.00    -0.004 A 
ATOM      7  C   UNL d   1       3.895  -0.740 -14.439  0.00  0.00     0.002 A 
ATOM      8  C   UNL d   1       3.861  -1.303 -15.723  0.00  0.00     0.025 A 
ATOM      9  C   UNL d   1       4.915  -1.082 -16.627  0.00  0.00     0.109 A 
ATOM     10  C   UNL d   1       6.005  -0.258 -16.259  0.00  0.00    -0.002 A 
ATOM     11  C   UNL d   1       7.143  -0.008 -17.240  0.00  0.00     0.030 C 
ATOM     12  C   UNL d   1       7.853   1.327 -16.982  0.00  0.00     0.038 C 
ATOM     13  C   UNL d   1       8.338   1.432 -15.527  0.00  0.00     0.224 C 
ENDROOT
BRANCH   9  14
ATOM     14  O   UNL d   1       4.837  -1.659 -17.863  0.00  0.00    -0.225 OA
BRANCH  14  15
ATOM     15  S   UNL d   1       5.398  -3.249 -18.000  0.00  0.00     0.374 S 
ATOM     16  O   UNL d   1       6.599  -3.203 -18.856  0.00  0.00    -0.189 OA
ATOM     17  O   UNL d   1       5.460  -3.866 -16.668  0.00  0.00    -0.189 OA
BRANCH  15  18
ATOM     18  C   UNL d   1       3.994  -3.981 -18.953  0.00  0.00     0.524 C 
ATOM     19  F   UNL d   1       3.708  -5.180 -18.443  0.00  0.00    -0.155 F 
ATOM     20  F   UNL d   1       2.928  -3.189 -18.839  0.00  0.00    -0.155 F 
ATOM     21  F   UNL d   1       4.344  -4.097 -20.234  0.00  0.00    -0.155 F 
ENDBRANCH  15  18
ENDBRANCH  14  15
ENDBRANCH   9  14
BRANCH   1  22
ATOM     22  C   UNL d   1      10.278   2.907 -15.184  0.00  0.00     0.276 C 
BRANCH  22  23
ATOM     23  C   UNL d   1      10.746   4.334 -14.915  0.00  0.00     0.009 C 
ATOM     24  C   UNL d   1      11.811   4.909 -15.489  0.00  0.00    -0.003 C 
ENDBRANCH  22  23
ENDBRANCH   1  22
TORSDOF 5
