REMARK  3 active torsions:
REMARK  status: ('A' for Active; 'I' for Inactive)
REMARK    1  A    between atoms: C_2  and  C_4 
REMARK    2  A    between atoms: C_2  and  C_13 
REMARK    3  A    between atoms: C_4  and  C_5 
ROOT
ATOM      1  C   UNL d   1      10.295   8.199  -6.298  0.00  0.00    -0.017 A 
ATOM      2  C   UNL d   1      10.678   6.877  -5.963  0.00  0.00    -0.002 A 
ATOM      3  C   UNL d   1      11.478   6.638  -4.845  0.00  0.00     0.029 A 
ATOM      4  C   UNL d   1      11.886   7.684  -3.992  0.00  0.00     0.156 A 
ATOM      5  O   UNL d   1      12.643   7.369  -2.894  0.00  0.00    -0.188 OA
ATOM      6  C   UNL d   1      11.479   8.999  -4.291  0.00  0.00     0.156 A 
ATOM      7  O   UNL d   1      11.798   9.990  -3.430  0.00  0.00    -0.188 OA
ATOM      8  C   UNL d   1      10.707   9.278  -5.447  0.00  0.00     0.025 A 
ENDROOT
BRANCH   1   9
ATOM      9  C   UNL d   1       9.440   8.476  -7.548  0.00  0.00     0.074 C 
BRANCH   9  10
ATOM     10  C   UNL d   1      10.088   8.089  -8.917  0.00  0.00     0.349 C 
ATOM     11  C   UNL d   1      11.591   8.485  -8.952  0.00  0.00     0.051 C 
ATOM     12  N   UNL d   1       9.462   8.914  -9.947  0.00  0.00     0.625 N 
BRANCH  10  13
ATOM     13  C   UNL d   1       9.855   6.632  -9.370  0.00  0.00     0.221 C 
ATOM     14  O   UNL d   1       9.409   5.743  -8.624  0.00  0.00    -0.646 OA
ATOM     15  O   UNL d   1      10.226   6.473 -10.675  0.00  0.00    -0.646 OA
ENDBRANCH  10  13
ENDBRANCH   9  10
ENDBRANCH   1   9
TORSDOF 3
