REMARK  7 active torsions:
REMARK  status: ('A' for Active; 'I' for Inactive)
REMARK       I    between atoms: C_2  and  N_3 
REMARK    1  A    between atoms: C_2  and  C_20 
REMARK    2  A    between atoms: N_3  and  C_4 
REMARK    3  A    between atoms: C_4  and  C_5 
REMARK    4  A    between atoms: C_5  and  N_6 
REMARK    5  A    between atoms: N_9  and  C_10 
REMARK    6  A    between atoms: C_23  and  C_24 
REMARK    7  A    between atoms: C_25  and  C_26 
ROOT
ATOM      1  O   UNL d   1       7.928   6.467 -13.107  0.00  0.00    -0.266 OA
ATOM      2  C   UNL d   1       8.467   5.625 -12.392  0.00  0.00     0.275 C 
ATOM      3  N   UNL d   1       8.642   4.349 -12.752  0.00  0.00    -0.232 NA
ENDROOT
BRANCH   3   4
ATOM      4  C   UNL d   1       8.154   3.802 -14.007  0.00  0.00     0.164 C 
BRANCH   4   5
ATOM      5  C   UNL d   1       8.861   2.478 -14.366  0.00  0.00     0.277 C 
BRANCH   5   6
ATOM      6  N   UNL d   1       8.496   1.989 -15.689  0.00  0.00     0.143 N 
ATOM      7  C   UNL d   1       7.055   1.706 -15.793  0.00  0.00     0.274 C 
ATOM      8  C   UNL d   1       6.691   1.224 -17.197  0.00  0.00     0.137 C 
ATOM      9  N   UNL d   1       7.489   0.062 -17.543  0.00  0.00    -0.344 N 
ATOM     10  C   UNL d   1       8.928   0.206 -17.339  0.00  0.00     0.137 C 
ATOM     11  C   UNL d   1       9.227   0.734 -15.930  0.00  0.00     0.274 C 
BRANCH   9  12
ATOM     12  C   UNL d   1       6.900  -1.120 -18.017  0.00  0.00     0.068 A 
ATOM     13  C   UNL d   1       7.401  -1.846 -19.145  0.00  0.00     0.084 A 
ATOM     14  C   UNL d   1       6.777  -3.039 -19.544  0.00  0.00     0.070 A 
ATOM     15 CL   UNL d   1       8.731  -1.244 -20.092  0.00  0.00    -0.080 Cl
ATOM     16  C   UNL d   1       5.648  -3.519 -18.864  0.00  0.00     0.012 A 
ATOM     17 CL   UNL d   1       7.378  -3.922 -20.900  0.00  0.00    -0.081 Cl
ATOM     18  C   UNL d   1       5.131  -2.811 -17.770  0.00  0.00     0.002 A 
ATOM     19  C   UNL d   1       5.745  -1.623 -17.351  0.00  0.00     0.018 A 
ENDBRANCH   9  12
ENDBRANCH   5   6
ENDBRANCH   4   5
ENDBRANCH   3   4
BRANCH   2  20
ATOM     20  C   UNL d   1       9.016   5.992 -11.055  0.00  0.00     0.058 A 
ATOM     21  C   UNL d   1       8.737   5.189  -9.930  0.00  0.00     0.005 A 
ATOM     22  C   UNL d   1       9.229   5.555  -8.665  0.00  0.00     0.008 A 
ATOM     23  C   UNL d   1       9.995   6.727  -8.512  0.00  0.00     0.042 A 
ATOM     24  C   UNL d   1      10.263   7.542  -9.630  0.00  0.00     0.008 A 
ATOM     25  C   UNL d   1       9.759   7.179 -10.893  0.00  0.00     0.005 A 
BRANCH  23  26
ATOM     26  C   UNL d   1      10.508   7.093  -7.204  0.00  0.00    -0.059 C 
ATOM     27  C   UNL d   1      10.950   7.410  -6.113  0.00  0.00    -0.059 C 
BRANCH  27  28
ATOM     28  C   UNL d   1      11.447   7.789  -4.806  0.00  0.00     0.042 A 
ATOM     29  C   UNL d   1      11.864   6.793  -3.896  0.00  0.00     0.008 A 
ATOM     30  C   UNL d   1      12.315   7.150  -2.616  0.00  0.00     0.001 A 
ATOM     31  C   UNL d   1      12.355   8.506  -2.238  0.00  0.00     0.000 A 
ATOM     32  C   UNL d   1      11.920   9.499  -3.138  0.00  0.00     0.001 A 
ATOM     33  C   UNL d   1      11.468   9.144  -4.422  0.00  0.00     0.008 A 
ENDBRANCH  27  28
ENDBRANCH  23  26
ENDBRANCH   2  20
TORSDOF 7
