REMARK  8 active torsions:
REMARK  status: ('A' for Active; 'I' for Inactive)
REMARK    1  A    between atoms: C_3  and  S_4 
REMARK    2  A    between atoms: S_4  and  C_5 
REMARK    3  A    between atoms: C_5  and  C_6 
REMARK    4  A    between atoms: C_6  and  C_7 
REMARK    5  A    between atoms: C_7  and  N_8 
REMARK    6  A    between atoms: C_13  and  C_14 
REMARK    7  A    between atoms: C_17  and  C_18 
REMARK    8  A    between atoms: C_27  and  C_28 
ROOT
ATOM      1  N   UNL d   1       8.696   5.647 -10.447  0.00  0.00     0.137 N 
ATOM      2  C   UNL d   1       8.718   4.978  -9.154  0.00  0.00     0.250 C 
ATOM      3  C   UNL d   1       8.869   6.141  -8.152  0.00  0.00     0.038 C 
ATOM      4  C   UNL d   1       9.609   7.212  -8.935  0.00  0.00     0.037 A 
ATOM      5  C   UNL d   1       9.374   8.701  -8.723  0.00  0.00     0.007 A 
ATOM      6  C   UNL d   1      10.695   8.093  -8.331  0.00  0.00     0.024 A 
ATOM      7  C   UNL d   1       9.752   6.644 -10.326  0.00  0.00     0.251 C 
ENDROOT
BRANCH   1   8
ATOM      8  C   UNL d   1       8.899   4.721 -11.554  0.00  0.00     0.251 C 
BRANCH   8   9
ATOM      9  C   UNL d   1       8.906   5.450 -12.915  0.00  0.00     0.047 C 
BRANCH   9  10
ATOM     10  C   UNL d   1       9.177   4.502 -14.091  0.00  0.00     0.067 C 
BRANCH  10  11
ATOM     11  S   UNL d   1      10.880   3.879 -14.041  0.00  0.00    -0.075 SA
BRANCH  11  12
ATOM     12  C   UNL d   1      10.741   2.528 -15.159  0.00  0.00     0.193 A 
ATOM     13  N   UNL d   1      11.394   2.503 -16.337  0.00  0.00    -0.289 N 
ATOM     14  C   UNL d   1      12.257   3.548 -16.894  0.00  0.00     0.134 C 
ATOM     15  C   UNL d   1      11.014   1.301 -16.852  0.00  0.00     0.167 A 
ATOM     16  N   UNL d   1      10.183   0.641 -16.032  0.00  0.00    -0.128 NA
ATOM     17  N   UNL d   1      10.002   1.438 -14.928  0.00  0.00    -0.122 NA
BRANCH  15  18
ATOM     18  C   UNL d   1      11.399   0.750 -18.154  0.00  0.00     0.039 A 
ATOM     19  C   UNL d   1      12.712   0.879 -18.656  0.00  0.00     0.024 A 
ATOM     20  C   UNL d   1      12.999   0.390 -19.943  0.00  0.00     0.099 A 
ATOM     21  N   UNL d   1      12.092  -0.243 -20.723  0.00  0.00    -0.242 NA
ATOM     22  C   UNL d   1      10.849  -0.412 -20.224  0.00  0.00     0.099 A 
ATOM     23  C   UNL d   1      10.452   0.072 -18.962  0.00  0.00     0.024 A 
ENDBRANCH  15  18
ENDBRANCH  11  12
ENDBRANCH  10  11
ENDBRANCH   9  10
ENDBRANCH   8   9
ENDBRANCH   1   8
BRANCH   6  24
ATOM     24  C   UNL d   1      11.051   7.965  -6.891  0.00  0.00    -0.022 A 
ATOM     25  C   UNL d   1      10.948   9.067  -6.012  0.00  0.00    -0.004 A 
ATOM     26  C   UNL d   1      11.260   8.930  -4.654  0.00  0.00     0.004 A 
ATOM     27  C   UNL d   1      11.695   7.678  -4.142  0.00  0.00     0.071 A 
ATOM     28  C   UNL d   1      11.792   6.582  -5.026  0.00  0.00     0.004 A 
ATOM     29  C   UNL d   1      11.482   6.724  -6.380  0.00  0.00    -0.004 A 
BRANCH  27  30
ATOM     30  C   UNL d   1      12.017   7.490  -2.680  0.00  0.00     0.419 C 
ATOM     31  F   UNL d   1      13.052   6.673  -2.566  0.00  0.00    -0.166 F 
ATOM     32  F   UNL d   1      12.298   8.644  -2.080  0.00  0.00    -0.166 F 
ATOM     33  F   UNL d   1      11.015   6.892  -2.049  0.00  0.00    -0.166 F 
ENDBRANCH  27  30
ENDBRANCH   6  24
TORSDOF 8
