REMARK  7 active torsions:
REMARK  status: ('A' for Active; 'I' for Inactive)
REMARK    1  A    between atoms: S_2  and  N_4 
REMARK    2  A    between atoms: S_2  and  C_24 
REMARK    3  A    between atoms: N_4  and  C_5 
REMARK    4  A    between atoms: C_5  and  C_6 
REMARK    5  A    between atoms: C_6  and  C_7 
REMARK    6  A    between atoms: C_7  and  N_8 
REMARK    7  A    between atoms: C_11  and  C_12 
ROOT
ATOM      1  C   UNL d   1       8.825   4.974 -10.808  0.00  0.00     0.253 C 
ENDROOT
BRANCH   1   2
ATOM      2  C   UNL d   1       9.710   4.619 -12.030  0.00  0.00     0.062 C 
BRANCH   2   3
ATOM      3  C   UNL d   1       8.871   3.913 -13.067  0.00  0.00     0.141 C 
BRANCH   3   4
ATOM      4  N   UNL d   1       9.569   2.761 -13.685  0.00  0.00    -0.185 NA
BRANCH   4   5
ATOM      5  S   UNL d   1       9.247   2.276 -15.316  0.00  0.00     0.281 S 
ATOM      6  O   UNL d   1       9.098   3.493 -16.118  0.00  0.00    -0.199 OA
ATOM      7  O   UNL d   1      10.271   1.285 -15.688  0.00  0.00    -0.199 OA
BRANCH   5   8
ATOM      8  C   UNL d   1       7.661   1.431 -15.234  0.00  0.00     0.105 A 
ATOM      9  C   UNL d   1       7.325   0.446 -16.181  0.00  0.00     0.013 A 
ATOM     10  C   UNL d   1       6.082  -0.224 -16.047  0.00  0.00     0.001 A 
ATOM     11  C   UNL d   1       5.211   0.061 -14.957  0.00  0.00     0.000 A 
ATOM     12  C   UNL d   1       5.688  -1.181 -16.988  0.00  0.00     0.000 A 
ATOM     13  C   UNL d   1       5.562   1.019 -14.019  0.00  0.00     0.001 A 
ATOM     14  C   UNL d   1       3.966  -0.563 -14.812  0.00  0.00     0.000 A 
ATOM     15  C   UNL d   1       6.750   1.733 -14.168  0.00  0.00     0.013 A 
ATOM     16  C   UNL d   1       3.593  -1.518 -15.768  0.00  0.00     0.000 A 
ATOM     17  C   UNL d   1       4.450  -1.830 -16.842  0.00  0.00     0.000 A 
ENDBRANCH   5   8
ENDBRANCH   4   5
ENDBRANCH   3   4
ENDBRANCH   2   3
ENDBRANCH   1   2
BRANCH   1  18
ATOM     18  N   UNL d   1       9.596   5.666  -9.800  0.00  0.00     0.142 N 
ATOM     19  C   UNL d   1       8.847   5.745  -8.553  0.00  0.00     0.255 C 
ATOM     20  C   UNL d   1       9.772   6.321  -7.482  0.00  0.00     0.061 C 
ATOM     21  C   UNL d   1      10.484   7.581  -7.911  0.00  0.00    -0.021 C 
ATOM     22  C   UNL d   1      10.523   7.883  -9.223  0.00  0.00     0.005 C 
ATOM     23  C   UNL d   1       9.922   7.006 -10.288  0.00  0.00     0.276 C 
BRANCH  21  24
ATOM     24  C   UNL d   1      11.060   8.470  -6.903  0.00  0.00     0.017 A 
ATOM     25  C   UNL d   1      11.376   8.156  -5.537  0.00  0.00     0.021 A 
ATOM     26  C   UNL d   1      11.925   9.345  -4.972  0.00  0.00     0.082 A 
ATOM     27  C   UNL d   1      11.282   7.025  -4.697  0.00  0.00     0.031 A 
ATOM     28  N   UNL d   1      11.945  10.289  -5.979  0.00  0.00    -0.244 NA
ATOM     29  C   UNL d   1      12.345   9.397  -3.634  0.00  0.00     0.021 A 
ATOM     30  C   UNL d   1      11.450   9.759  -7.137  0.00  0.00     0.099 A 
ATOM     31  C   UNL d   1      12.237   8.267  -2.823  0.00  0.00     0.031 A 
ATOM     32  C   UNL d   1      11.714   7.090  -3.356  0.00  0.00     0.140 A 
ATOM     33  F   UNL d   1      11.572   6.040  -2.534  0.00  0.00    -0.204 F 
ENDBRANCH  21  24
ENDBRANCH   1  18
TORSDOF 7
