REMARK  8 active torsions:
REMARK  status: ('A' for Active; 'I' for Inactive)
REMARK    1  A    between atoms: O_2  and  C_3 
REMARK    2  A    between atoms: C_6  and  C_7 
REMARK    3  A    between atoms: N_11  and  C_12 
REMARK    4  A    between atoms: C_12  and  C_13 
REMARK    5  A    between atoms: C_13  and  C_14 
REMARK    6  A    between atoms: C_14  and  S_15 
REMARK    7  A    between atoms: S_15  and  C_16 
REMARK    8  A    between atoms: C_19  and  C_20 
ROOT
ATOM      1  S   UNL d   1      10.809  -0.423 -18.595  0.00  0.00    -0.075 SA
ENDROOT
BRANCH   1   2
ATOM      2  C   UNL d   1      10.464   0.978 -19.701  0.00  0.00     0.067 C 
BRANCH   2   3
ATOM      3  C   UNL d   1      11.398   2.162 -19.460  0.00  0.00     0.047 C 
BRANCH   3   4
ATOM      4  C   UNL d   1      10.910   3.416 -20.202  0.00  0.00     0.251 C 
BRANCH   4   5
ATOM      5  N   UNL d   1      11.906   4.478 -20.143  0.00  0.00     0.137 N 
ATOM      6  C   UNL d   1      11.486   5.648 -20.911  0.00  0.00     0.251 C 
ATOM      7  C   UNL d   1      12.368   6.739 -20.367  0.00  0.00     0.039 A 
ATOM      8  C   UNL d   1      12.826   6.300 -19.003  0.00  0.00     0.052 A 
ATOM      9  C   UNL d   1      12.011   7.565 -19.153  0.00  0.00     0.008 A 
ATOM     10  C   UNL d   1      12.152   4.956 -18.782  0.00  0.00     0.254 C 
BRANCH   8  11
ATOM     11  C   UNL d   1      14.295   6.372 -18.617  0.00  0.00    -0.021 A 
ATOM     12  C   UNL d   1      14.825   5.604 -17.550  0.00  0.00    -0.002 A 
ATOM     13  C   UNL d   1      16.195   5.665 -17.229  0.00  0.00     0.024 A 
ATOM     14  C   UNL d   1      17.067   6.519 -17.927  0.00  0.00     0.094 A 
ATOM     15  C   UNL d   1      16.538   7.315 -18.976  0.00  0.00     0.024 A 
ATOM     16  C   UNL d   1      15.173   7.242 -19.303  0.00  0.00    -0.002 A 
BRANCH  14  17
ATOM     17  O   UNL d   1      18.384   6.535 -17.525  0.00  0.00    -0.328 OA
ATOM     18  C   UNL d   1      19.274   7.379 -18.240  0.00  0.00     0.181 C 
ENDBRANCH  14  17
ENDBRANCH   8  11
ENDBRANCH   4   5
ENDBRANCH   3   4
ENDBRANCH   2   3
ENDBRANCH   1   2
BRANCH   1  19
ATOM     19  C   UNL d   1      10.229   0.258 -17.077  0.00  0.00     0.193 A 
ATOM     20  N   UNL d   1       8.919   0.394 -16.786  0.00  0.00    -0.289 N 
ATOM     21  C   UNL d   1       8.960   0.913 -15.538  0.00  0.00     0.167 A 
ATOM     22  C   UNL d   1       7.756   0.041 -17.593  0.00  0.00     0.134 C 
ATOM     23  N   UNL d   1      10.208   1.061 -15.079  0.00  0.00    -0.128 NA
ATOM     24  N   UNL d   1      11.040   0.659 -16.098  0.00  0.00    -0.122 NA
BRANCH  21  25
ATOM     25  C   UNL d   1       7.778   1.261 -14.747  0.00  0.00     0.037 A 
ATOM     26  C   UNL d   1       7.589   2.550 -14.165  0.00  0.00     0.021 A 
ATOM     27  C   UNL d   1       6.412   2.827 -13.404  0.00  0.00     0.081 A 
ATOM     28  C   UNL d   1       8.551   3.582 -14.280  0.00  0.00     0.003 A 
ATOM     29  C   UNL d   1       5.455   1.804 -13.242  0.00  0.00     0.019 A 
ATOM     30  N   UNL d   1       6.198   4.019 -12.805  0.00  0.00    -0.250 NA
ATOM     31  C   UNL d   1       5.626   0.544 -13.831  0.00  0.00     0.002 A 
ATOM     32  C   UNL d   1       6.784   0.274 -14.573  0.00  0.00     0.003 A 
ATOM     33  C   UNL d   1       7.145   4.975 -12.893  0.00  0.00     0.059 A 
ATOM     34  C   UNL d   1       6.849   6.284 -12.195  0.00  0.00     0.052 C 
ATOM     35  C   UNL d   1       8.329   4.807 -13.632  0.00  0.00     0.015 A 
ENDBRANCH  21  25
ENDBRANCH   1  19
TORSDOF 8
