REMARK  4 active torsions:
REMARK  status: ('A' for Active; 'I' for Inactive)
REMARK    1  A    between atoms: C_2  and  C_3 
REMARK    2  A    between atoms: C_3  and  N_4 
REMARK    3  A    between atoms: N_4  and  C_5 
REMARK    4  A    between atoms: C_13  and  O_14 
ROOT
ATOM      1  C   UNL d   1      10.181   7.471  -8.608  0.00  0.00     0.261 C 
ATOM      2  C   UNL d   1       9.252   6.865  -7.549  0.00  0.00     0.041 C 
ATOM      3  C   UNL d   1      10.027   6.523  -6.276  0.00  0.00     0.030 C 
ATOM      4  C   UNL d   1      10.969   7.602  -5.792  0.00  0.00    -0.004 A 
ATOM      5  C   UNL d   1      11.352   8.657  -6.658  0.00  0.00    -0.022 A 
ATOM      6  C   UNL d   1      12.242   9.640  -6.195  0.00  0.00    -0.004 A 
ATOM      7  C   UNL d   1      12.747   9.571  -4.896  0.00  0.00     0.002 A 
ATOM      8  C   UNL d   1      12.368   8.553  -4.029  0.00  0.00     0.024 A 
ATOM      9  C   UNL d   1      11.486   7.540  -4.475  0.00  0.00     0.090 A 
ATOM     10  C   UNL d   1      10.819   8.769  -8.080  0.00  0.00     0.062 C 
ENDROOT
BRANCH   1  11
ATOM     11  N   UNL d   1       9.461   7.736  -9.846  0.00  0.00     0.337 N 
BRANCH  11  12
ATOM     12  C   UNL d   1       9.476   6.579 -10.724  0.00  0.00     0.290 C 
BRANCH  12  13
ATOM     13  C   UNL d   1       8.794   6.921 -12.052  0.00  0.00     0.038 C 
ATOM     14  C   UNL d   1       8.752   5.725 -13.008  0.00  0.00     0.002 C 
ENDBRANCH  12  13
ENDBRANCH  11  12
ENDBRANCH   1  11
BRANCH   9  15
ATOM     15  O   UNL d   1      11.136   6.482  -3.660  0.00  0.00    -0.328 OA
ATOM     16  C   UNL d   1      11.735   6.431  -2.371  0.00  0.00     0.181 C 
ENDBRANCH   9  15
TORSDOF 4
