REMARK  6 active torsions:
REMARK  status: ('A' for Active; 'I' for Inactive)
REMARK    1  A    between atoms: N_13  and  C_14 
REMARK    2  A    between atoms: C_14  and  C_15 
REMARK    3  A    between atoms: C_15  and  C_16 
REMARK    4  A    between atoms: C_16  and  S_17 
REMARK    5  A    between atoms: S_17  and  C_18 
REMARK    6  A    between atoms: C_21  and  C_22 
ROOT
ATOM      1  C   UNL d   1       8.951   4.624 -14.969  0.00  0.00     0.067 C 
ENDROOT
BRANCH   1   2
ATOM      2  C   UNL d   1       9.627   5.129 -13.691  0.00  0.00     0.047 C 
BRANCH   2   3
ATOM      3  C   UNL d   1       8.624   5.647 -12.651  0.00  0.00     0.251 C 
BRANCH   3   4
ATOM      4  N   UNL d   1       9.309   5.777 -11.362  0.00  0.00     0.138 N 
ATOM      5  C   UNL d   1       8.369   5.470 -10.280  0.00  0.00     0.257 C 
ATOM      6  C   UNL d   1       9.065   5.046  -8.986  0.00  0.00     0.082 C 
ATOM      7  C   UNL d   1       9.749   6.181  -8.286  0.00  0.00     0.075 C 
ATOM      8  C   UNL d   1      10.588   7.120  -8.816  0.00  0.00     0.058 C 
ATOM      9  N   UNL d   1       9.577   6.403  -6.930  0.00  0.00    -0.231 NA
ATOM     10  N   UNL d   1      11.079   7.861  -7.764  0.00  0.00    -0.293 N 
ATOM     11  C   UNL d   1      10.984   7.314 -10.221  0.00  0.00     0.081 C 
ATOM     12  C   UNL d   1      11.985   8.872  -7.702  0.00  0.00     0.081 C 
ATOM     13  C   UNL d   1      10.447   7.352  -6.611  0.00  0.00     0.147 C 
ATOM     14  C   UNL d   1      12.245   9.476  -6.489  0.00  0.00     0.015 C 
ATOM     15  C   UNL d   1      11.688   8.965  -5.297  0.00  0.00    -0.017 C 
ATOM     16  C   UNL d   1      12.013   9.588  -3.957  0.00  0.00     0.031 C 
ATOM     17  C   UNL d   1      10.848   7.875  -5.362  0.00  0.00     0.033 C 
ATOM     18  C   UNL d   1       9.833   7.143 -11.235  0.00  0.00     0.257 C 
ENDBRANCH   3   4
ENDBRANCH   2   3
ENDBRANCH   1   2
BRANCH   1  19
ATOM     19  S   UNL d   1       9.909   3.360 -15.856  0.00  0.00    -0.075 SA
BRANCH  19  20
ATOM     20  C   UNL d   1      11.395   4.267 -16.049  0.00  0.00     0.193 A 
ATOM     21  N   UNL d   1      11.631   5.060 -17.108  0.00  0.00    -0.289 N 
ATOM     22  C   UNL d   1      12.854   5.549 -16.821  0.00  0.00     0.167 A 
ATOM     23  C   UNL d   1      10.787   5.312 -18.261  0.00  0.00     0.134 C 
ATOM     24  N   UNL d   1      13.332   5.105 -15.656  0.00  0.00    -0.128 NA
ATOM     25  N   UNL d   1      12.380   4.254 -15.152  0.00  0.00    -0.122 NA
BRANCH  22  26
ATOM     26  C   UNL d   1      13.610   6.459 -17.669  0.00  0.00     0.037 A 
ATOM     27  C   UNL d   1      14.397   5.988 -18.752  0.00  0.00     0.021 A 
ATOM     28  C   UNL d   1      15.106   6.909 -19.573  0.00  0.00     0.081 A 
ATOM     29  C   UNL d   1      14.502   4.609 -19.050  0.00  0.00     0.003 A 
ATOM     30  C   UNL d   1      15.017   8.284 -19.281  0.00  0.00     0.019 A 
ATOM     31  N   UNL d   1      15.861   6.505 -20.620  0.00  0.00    -0.250 NA
ATOM     32  C   UNL d   1      14.255   8.751 -18.195  0.00  0.00     0.002 A 
ATOM     33  C   UNL d   1      13.549   7.838 -17.392  0.00  0.00     0.003 A 
ATOM     34  C   UNL d   1      15.946   5.190 -20.900  0.00  0.00     0.059 A 
ATOM     35  C   UNL d   1      16.816   4.817 -22.082  0.00  0.00     0.052 C 
ATOM     36  C   UNL d   1      15.285   4.203 -20.145  0.00  0.00     0.015 A 
ENDBRANCH  22  26
ENDBRANCH  19  20
ENDBRANCH   1  19
TORSDOF 6
