REMARK  8 active torsions:
REMARK  status: ('A' for Active; 'I' for Inactive)
REMARK    1  A    between atoms: C_2  and  C_4 
REMARK    2  A    between atoms: C_4  and  C_5 
REMARK    3  A    between atoms: C_5  and  C_6 
REMARK       I    between atoms: C_6  and  N_8 
REMARK    4  A    between atoms: N_8  and  C_9 
REMARK    5  A    between atoms: C_12  and  C_13 
REMARK    6  A    between atoms: C_13  and  C_14 
REMARK    7  A    between atoms: C_14  and  N_15 
REMARK    8  A    between atoms: C_18  and  C_19 
ROOT
ATOM      1  C   UNL d   1       8.755   5.094 -10.368  0.00  0.00     0.250 C 
ENDROOT
BRANCH   1   2
ATOM      2  C   UNL d   1       9.281   5.489 -11.752  0.00  0.00     0.035 C 
BRANCH   2   3
ATOM      3  C   UNL d   1       9.498   4.310 -12.708  0.00  0.00     0.002 C 
ATOM      4  C   UNL d   1       8.171   3.944 -13.384  0.00  0.00     0.002 C 
ATOM      5  C   UNL d   1       8.351   2.808 -14.404  0.00  0.00     0.024 C 
ATOM      6  C   UNL d   1       9.428   3.163 -15.448  0.00  0.00     0.106 C 
ATOM      7  C   UNL d   1      10.764   3.492 -14.769  0.00  0.00     0.024 C 
ATOM      8  C   UNL d   1      10.587   4.623 -13.746  0.00  0.00     0.002 C 
BRANCH   6   9
ATOM      9  N   UNL d   1       9.612   2.059 -16.373  0.00  0.00    -0.240 NA
ATOM     10  C   UNL d   1       8.991   1.918 -17.552  0.00  0.00     0.251 C 
ATOM     11  O   UNL d   1       8.226   2.766 -18.020  0.00  0.00    -0.271 OA
BRANCH  10  12
ATOM     12  C   UNL d   1       9.243   0.601 -18.278  0.00  0.00     0.090 C 
BRANCH  12  13
ATOM     13  C   UNL d   1       8.379   0.415 -19.542  0.00  0.00     0.010 C 
BRANCH  13  14
ATOM     14  C   UNL d   1       8.475  -0.993 -20.164  0.00  0.00     0.001 C 
ATOM     15  C   UNL d   1       7.772  -1.052 -21.527  0.00  0.00     0.000 C 
ATOM     16  C   UNL d   1       7.899  -2.074 -19.229  0.00  0.00     0.000 C 
ENDBRANCH  13  14
ENDBRANCH  12  13
ENDBRANCH  10  12
ENDBRANCH   6   9
ENDBRANCH   2   3
ENDBRANCH   1   2
BRANCH   1  17
ATOM     17  N   UNL d   1       9.148   6.036  -9.330  0.00  0.00     0.137 N 
ATOM     18  C   UNL d   1       8.520   5.663  -8.068  0.00  0.00     0.251 C 
ATOM     19  C   UNL d   1       8.855   6.692  -6.979  0.00  0.00     0.040 C 
ATOM     20  C   UNL d   1      10.373   6.765  -6.766  0.00  0.00     0.026 C 
ATOM     21  C   UNL d   1      11.056   7.005  -8.100  0.00  0.00     0.040 C 
ATOM     22  C   UNL d   1      10.585   5.952  -9.090  0.00  0.00     0.251 C 
BRANCH  20  23
ATOM     23  C   UNL d   1      10.774   7.865  -5.798  0.00  0.00    -0.024 A 
ATOM     24  C   UNL d   1      11.468   7.620  -4.591  0.00  0.00    -0.001 A 
ATOM     25  C   UNL d   1      11.811   8.627  -3.713  0.00  0.00     0.090 A 
ATOM     26  C   UNL d   1      11.893   6.329  -4.032  0.00  0.00     0.061 A 
ATOM     27  C   UNL d   1      11.455   9.952  -3.984  0.00  0.00     0.024 A 
ATOM     28  O   UNL d   1      12.428   8.172  -2.577  0.00  0.00    -0.331 OA
ATOM     29  C   UNL d   1      10.810  10.210  -5.215  0.00  0.00     0.002 A 
ATOM     30  C   UNL d   1      10.469   9.192  -6.106  0.00  0.00    -0.004 A 
ATOM     31  C   UNL d   1      12.430   6.739  -2.643  0.00  0.00     0.154 A 
ENDBRANCH  20  23
ENDBRANCH   1  17
TORSDOF 8
