REMARK  7 active torsions:
REMARK  status: ('A' for Active; 'I' for Inactive)
REMARK    1  A    between atoms: C_2  and  O_3 
REMARK    2  A    between atoms: O_3  and  C_4 
REMARK       I    between atoms: C_4  and  N_6 
REMARK    3  A    between atoms: N_6  and  C_7 
REMARK    4  A    between atoms: C_10  and  C_11 
REMARK    5  A    between atoms: C_11  and  C_12 
REMARK    6  A    between atoms: C_12  and  N_13 
REMARK    7  A    between atoms: N_16  and  C_17 
ROOT
ATOM      1  N   UNL d   1      10.040   6.397  -9.855  0.00  0.00     0.141 N 
ATOM      2  C   UNL d   1       9.548   6.054  -8.521  0.00  0.00     0.274 C 
ATOM      3  C   UNL d   1      10.653   6.269  -7.487  0.00  0.00     0.138 C 
ATOM      4  N   UNL d   1      11.193   7.614  -7.538  0.00  0.00    -0.329 N 
ATOM      5  C   UNL d   1      11.541   8.094  -8.879  0.00  0.00     0.138 C 
ATOM      6  C   UNL d   1      10.391   7.817  -9.871  0.00  0.00     0.274 C 
ENDROOT
BRANCH   1   7
ATOM      7  C   UNL d   1       8.997   6.149 -10.845  0.00  0.00     0.250 C 
BRANCH   7   8
ATOM      8  C   UNL d   1       9.051   4.691 -11.295  0.00  0.00     0.035 C 
BRANCH   8   9
ATOM      9  C   UNL d   1       8.338   4.437 -12.634  0.00  0.00     0.002 C 
ATOM     10  C   UNL d   1       6.839   4.093 -12.445  0.00  0.00     0.002 C 
ATOM     11  C   UNL d   1       6.157   3.836 -13.799  0.00  0.00     0.025 C 
ATOM     12  C   UNL d   1       6.897   2.780 -14.656  0.00  0.00     0.109 C 
ATOM     13  C   UNL d   1       8.417   3.094 -14.796  0.00  0.00     0.025 C 
ATOM     14  C   UNL d   1       9.084   3.341 -13.450  0.00  0.00     0.002 C 
BRANCH  12  15
ATOM     15  N   UNL d   1       6.693   1.458 -14.047  0.00  0.00    -0.214 NA
ATOM     16  C   UNL d   1       6.358   0.257 -14.659  0.00  0.00     0.384 C 
ATOM     17  O   UNL d   1       6.238  -0.812 -14.067  0.00  0.00    -0.236 OA
BRANCH  16  18
ATOM     18  O   UNL d   1       6.180   0.411 -15.965  0.00  0.00    -0.284 OA
BRANCH  18  19
ATOM     19  C   UNL d   1       5.818  -0.692 -16.762  0.00  0.00     0.154 C 
ATOM     20  C   UNL d   1       5.421  -0.145 -18.131  0.00  0.00     0.035 C 
ENDBRANCH  18  19
ENDBRANCH  16  18
ENDBRANCH  12  15
ENDBRANCH   8   9
ENDBRANCH   7   8
ENDBRANCH   1   7
BRANCH   4  21
ATOM     21  C   UNL d   1      11.185   8.457  -6.409  0.00  0.00     0.148 C 
ATOM     22  C   UNL d   1      11.514   7.995  -5.067  0.00  0.00     0.042 A 
ATOM     23  C   UNL d   1      11.508   9.100  -4.165  0.00  0.00     0.050 A 
ATOM     24  C   UNL d   1      11.847   6.745  -4.503  0.00  0.00     0.004 A 
ATOM     25  S   UNL d   1      11.034  10.471  -5.111  0.00  0.00     0.015 SA
ATOM     26  C   UNL d   1      11.856   8.979  -2.814  0.00  0.00     0.008 A 
ATOM     27  N   UNL d   1      11.033   9.729  -6.583  0.00  0.00    -0.192 NA
ATOM     28  C   UNL d   1      12.169   7.719  -2.277  0.00  0.00     0.001 A 
ATOM     29  C   UNL d   1      12.193   6.604  -3.148  0.00  0.00     0.000 A 
ENDBRANCH   4  21
TORSDOF 7
