REMARK  6 active torsions:
REMARK  status: ('A' for Active; 'I' for Inactive)
REMARK    1  A    between atoms: O_2  and  N_3 
REMARK    2  A    between atoms: C_4  and  C_5 
REMARK    3  A    between atoms: C_4  and  C_19 
REMARK    4  A    between atoms: C_5  and  C_6 
REMARK    5  A    between atoms: C_6  and  N_7 
REMARK    6  A    between atoms: N_10  and  C_11 
ROOT
ATOM      1  C   UNL d   1      10.843   3.115 -15.258  0.00  0.00     0.257 C 
ENDROOT
BRANCH   1   2
ATOM      2  C   UNL d   1       9.861   4.310 -15.216  0.00  0.00     0.083 C 
BRANCH   2   3
ATOM      3  C   UNL d   1       9.238   4.493 -13.841  0.00  0.00     0.087 C 
ATOM      4  N   UNL d   1       9.862   5.203 -12.988  0.00  0.00    -0.136 NA
BRANCH   4   5
ATOM      5  O   UNL d   1       9.250   5.235 -11.727  0.00  0.00    -0.234 OA
ATOM      6  C   UNL d   1       9.615   6.445 -11.080  0.00  0.00     0.211 C 
ENDBRANCH   4   5
BRANCH   3   7
ATOM      7  C   UNL d   1       7.915   3.823 -13.651  0.00  0.00     0.017 A 
ATOM      8  C   UNL d   1       7.678   2.538 -14.213  0.00  0.00     0.013 A 
ATOM      9  C   UNL d   1       6.456   1.876 -14.017  0.00  0.00     0.058 A 
ATOM     10  C   UNL d   1       5.460   2.485 -13.235  0.00  0.00     0.011 A 
ATOM     11 CL   UNL d   1       6.210   0.291 -14.654  0.00  0.00    -0.082 Cl
ATOM     12  C   UNL d   1       5.657   3.772 -12.704  0.00  0.00     0.001 A 
ATOM     13  C   UNL d   1       6.875   4.436 -12.914  0.00  0.00     0.001 A 
ENDBRANCH   3   7
ENDBRANCH   2   3
ENDBRANCH   1   2
BRANCH   1  14
ATOM     14  N   UNL d   1      10.923   2.569 -16.613  0.00  0.00     0.141 N 
ATOM     15  C   UNL d   1      11.929   3.302 -17.389  0.00  0.00     0.274 C 
ATOM     16  C   UNL d   1      12.014   2.746 -18.825  0.00  0.00     0.138 C 
ATOM     17  N   UNL d   1      12.298   1.312 -18.791  0.00  0.00    -0.330 N 
ATOM     18  C   UNL d   1      11.388   0.532 -17.956  0.00  0.00     0.138 C 
ATOM     19  C   UNL d   1      11.303   1.155 -16.549  0.00  0.00     0.274 C 
BRANCH  17  20
ATOM     20  C   UNL d   1      13.372   0.718 -19.483  0.00  0.00     0.140 A 
ATOM     21  N   UNL d   1      13.263  -0.599 -19.779  0.00  0.00    -0.227 NA
ATOM     22  C   UNL d   1      14.276  -1.202 -20.438  0.00  0.00     0.101 A 
ATOM     23  C   UNL d   1      15.449  -0.534 -20.833  0.00  0.00     0.021 A 
ATOM     24  C   UNL d   1      15.567   0.830 -20.529  0.00  0.00     0.005 A 
ATOM     25  C   UNL d   1      14.518   1.469 -19.841  0.00  0.00     0.037 A 
ENDBRANCH  17  20
ENDBRANCH   1  14
TORSDOF 6
