REMARK  7 active torsions:
REMARK  status: ('A' for Active; 'I' for Inactive)
REMARK    1  A    between atoms: S_2  and  N_4 
REMARK    2  A    between atoms: S_2  and  C_21 
REMARK    3  A    between atoms: N_4  and  C_5 
REMARK    4  A    between atoms: N_8  and  C_9 
REMARK    5  A    between atoms: C_9  and  C_10 
REMARK    6  A    between atoms: C_10  and  O_11 
REMARK    7  A    between atoms: O_11  and  C_12 
ROOT
ATOM      1  C   UNL d   1      10.023   8.003 -10.563  0.00  0.00     0.151 C 
ATOM      2  C   UNL d   1       9.032   8.885 -11.312  0.00  0.00     0.063 C 
ATOM      3  C   UNL d   1       8.200   7.898 -12.140  0.00  0.00     0.253 C 
ATOM      4  N   UNL d   1       9.109   6.801 -12.399  0.00  0.00     0.142 N 
ATOM      5  C   UNL d   1       9.678   6.603 -11.073  0.00  0.00     0.275 C 
ENDROOT
BRANCH   4   6
ATOM      6  C   UNL d   1       8.403   5.651 -12.948  0.00  0.00     0.283 C 
BRANCH   6   7
ATOM      7  C   UNL d   1       9.171   4.336 -12.757  0.00  0.00     0.184 C 
BRANCH   7   8
ATOM      8  O   UNL d   1      10.327   4.335 -13.625  0.00  0.00    -0.328 OA
BRANCH   8   9
ATOM      9  C   UNL d   1      10.417   3.477 -14.702  0.00  0.00     0.105 A 
ATOM     10  C   UNL d   1      11.549   3.607 -15.543  0.00  0.00     0.080 A 
ATOM     11  C   UNL d   1      11.740   2.751 -16.640  0.00  0.00     0.014 A 
ATOM     12 CL   UNL d   1      12.721   4.835 -15.243  0.00  0.00    -0.080 Cl
ATOM     13  C   UNL d   1      10.796   1.747 -16.929  0.00  0.00     0.012 A 
ATOM     14  C   UNL d   1       9.666   1.612 -16.108  0.00  0.00     0.060 A 
ATOM     15  C   UNL d   1       9.472   2.460 -15.010  0.00  0.00     0.036 A 
ATOM     16 CL   UNL d   1       8.483   0.402 -16.421  0.00  0.00    -0.082 Cl
ENDBRANCH   8   9
ENDBRANCH   7   8
ENDBRANCH   6   7
ENDBRANCH   4   6
BRANCH   1  17
ATOM     17  N   UNL d   1       9.864   8.123  -9.104  0.00  0.00    -0.184 NA
BRANCH  17  18
ATOM     18  S   UNL d   1      11.054   7.399  -8.099  0.00  0.00     0.287 S 
ATOM     19  O   UNL d   1      10.625   6.013  -7.757  0.00  0.00    -0.198 OA
ATOM     20  O   UNL d   1      12.357   7.677  -8.682  0.00  0.00    -0.198 OA
BRANCH  18  21
ATOM     21  C   UNL d   1      11.023   8.301  -6.588  0.00  0.00     0.135 C 
ATOM     22  S   UNL d   1      11.411   7.626  -5.040  0.00  0.00    -0.062 SA
ATOM     23  C   UNL d   1      11.397   9.222  -4.356  0.00  0.00     0.088 C 
ATOM     24  C   UNL d   1      10.803  10.137  -5.176  0.00  0.00     0.019 C 
ATOM     25 CL   UNL d   1      11.982   9.433  -2.786  0.00  0.00    -0.075 Cl
ATOM     26  C   UNL d   1      10.639   9.590  -6.465  0.00  0.00     0.021 C 
ENDBRANCH  18  21
ENDBRANCH  17  18
ENDBRANCH   1  17
TORSDOF 7
