REMARK  1 active torsions:
REMARK  status: ('A' for Active; 'I' for Inactive)
REMARK    1  A    between atoms: O_2  and  C_3 
ROOT
ATOM      1  C   UNL d   1      10.719   4.290 -15.588  0.00  0.00     0.130 A 
ATOM      2  C   UNL d   1      10.512   5.417 -16.633  0.00  0.00     0.039 C 
ATOM      3  C   UNL d   1      10.460   2.911 -16.224  0.00  0.00     0.006 A 
ATOM      4  C   UNL d   1      11.057   2.162 -17.256  0.00  0.00    -0.002 A 
ATOM      5  C   UNL d   1      10.553   0.866 -17.548  0.00  0.00    -0.001 A 
ATOM      6  C   UNL d   1       9.450   0.326 -16.834  0.00  0.00    -0.004 A 
ATOM      7  C   UNL d   1       8.821   1.086 -15.826  0.00  0.00    -0.020 A 
ATOM      8  C   UNL d   1       9.349   2.357 -15.584  0.00  0.00    -0.006 A 
ATOM      9  C   UNL d   1       8.830   3.273 -14.608  0.00  0.00    -0.004 A 
ATOM     10  C   UNL d   1       9.647   4.391 -14.496  0.00  0.00     0.006 A 
ATOM     11  C   UNL d   1       9.294   5.355 -13.511  0.00  0.00    -0.002 A 
ATOM     12  C   UNL d   1       8.132   5.170 -12.699  0.00  0.00    -0.005 A 
ATOM     13  C   UNL d   1       7.289   4.043 -12.870  0.00  0.00    -0.022 A 
ATOM     14  C   UNL d   1       7.663   3.111 -13.856  0.00  0.00     0.005 A 
ATOM     15  C   UNL d   1       6.836   1.895 -14.309  0.00  0.00     0.246 C 
ATOM     16  C   UNL d   1       7.694   0.705 -14.865  0.00  0.00     0.064 C 
ATOM     17  N   UNL d   1       5.865   1.485 -13.270  0.00  0.00     0.142 N 
ATOM     18  C   UNL d   1       4.964   0.418 -13.739  0.00  0.00     0.286 C 
ATOM     19  C   UNL d   1       5.137   2.662 -12.800  0.00  0.00     0.255 C 
ATOM     20  C   UNL d   1       6.072   3.632 -12.067  0.00  0.00     0.061 C 
ENDROOT
BRANCH   1  21
ATOM     21  O   UNL d   1      12.028   4.408 -15.010  0.00  0.00    -0.348 OA
ATOM     22  C   UNL d   1      13.162   4.405 -15.863  0.00  0.00     0.175 C 
ENDBRANCH   1  21
TORSDOF 1
