REMARK  4 active torsions:
REMARK  status: ('A' for Active; 'I' for Inactive)
REMARK    1  A    between atoms: C_8  and  O_9 
REMARK    2  A    between atoms: O_9  and  C_10 
REMARK    3  A    between atoms: N_13  and  C_14 
REMARK    4  A    between atoms: C_14  and  C_15 
ROOT
ATOM      1  C   UNL d   1       8.537   3.948 -13.841  0.00  0.00     0.126 C 
ATOM      2  C   UNL d   1       7.534   5.070 -13.529  0.00  0.00     0.066 C 
ATOM      3  C   UNL d   1       7.339   5.302 -12.021  0.00  0.00     0.253 C 
ATOM      4  N   UNL d   1       8.620   5.641 -11.429  0.00  0.00     0.137 N 
ATOM      5  C   UNL d   1       9.459   4.491 -11.657  0.00  0.00     0.253 C 
ATOM      6  C   UNL d   1       9.842   4.255 -13.119  0.00  0.00     0.066 C 
ENDROOT
BRANCH   4   7
ATOM      7  C   UNL d   1       8.488   5.839  -9.974  0.00  0.00     0.251 C 
BRANCH   7   8
ATOM      8  C   UNL d   1       9.649   6.646  -9.343  0.00  0.00     0.038 C 
ATOM      9  C   UNL d   1       9.612   6.550  -7.784  0.00  0.00     0.030 C 
ATOM     10  C   UNL d   1      10.526   7.562  -7.132  0.00  0.00    -0.007 A 
ATOM     11  C   UNL d   1      11.025   8.624  -7.836  0.00  0.00     0.055 A 
ATOM     12  C   UNL d   1      11.080   7.657  -5.783  0.00  0.00     0.017 A 
ATOM     13  C   UNL d   1      10.822   8.922  -9.277  0.00  0.00     0.046 C 
ATOM     14  N   UNL d   1      11.806   9.381  -7.017  0.00  0.00    -0.250 NA
ATOM     15  C   UNL d   1       9.689   8.107  -9.876  0.00  0.00     0.009 C 
ATOM     16  C   UNL d   1      11.869   8.849  -5.771  0.00  0.00     0.081 A 
ATOM     17  C   UNL d   1      12.607   9.300  -4.676  0.00  0.00     0.021 A 
ATOM     18  C   UNL d   1      12.579   8.587  -3.479  0.00  0.00     0.031 A 
ATOM     19  C   UNL d   1      11.828   7.392  -3.421  0.00  0.00     0.140 A 
ATOM     20  F   UNL d   1      11.742   6.703  -2.259  0.00  0.00    -0.204 F 
ATOM     21  C   UNL d   1      11.094   6.938  -4.557  0.00  0.00     0.031 A 
ENDBRANCH   7   8
ENDBRANCH   4   7
BRANCH   1  22
ATOM     22  O   UNL d   1       8.809   3.950 -15.230  0.00  0.00    -0.331 OA
BRANCH  22  23
ATOM     23  C   UNL d   1       9.323   2.839 -15.861  0.00  0.00     0.118 A 
ATOM     24  C   UNL d   1       9.736   1.637 -15.227  0.00  0.00     0.026 A 
ATOM     25  C   UNL d   1      10.284   0.569 -15.990  0.00  0.00     0.004 A 
ATOM     26  C   UNL d   1      10.418   0.669 -17.393  0.00  0.00     0.021 A 
ATOM     27  C   UNL d   1       9.982   1.861 -17.987  0.00  0.00     0.111 A 
ATOM     28  N   UNL d   1       9.969   2.274 -19.311  0.00  0.00    -0.184 NA
ATOM     29  C   UNL d   1       9.454   2.906 -17.256  0.00  0.00     0.145 A 
ATOM     30  C   UNL d   1       9.431   3.553 -19.390  0.00  0.00     0.392 A 
ATOM     31  O   UNL d   1       9.247   4.231 -20.396  0.00  0.00    -0.236 OA
ATOM     32  O   UNL d   1       9.122   3.924 -18.109  0.00  0.00    -0.254 OA
ENDBRANCH  22  23
ENDBRANCH   1  22
TORSDOF 4
