REMARK  4 active torsions:
REMARK  status: ('A' for Active; 'I' for Inactive)
REMARK    1  A    between atoms: C_6  and  N_7 
REMARK       I    between atoms: N_7  and  C_8 
REMARK    2  A    between atoms: C_8  and  C_10 
REMARK    3  A    between atoms: C_10  and  N_11 
REMARK    4  A    between atoms: C_14  and  C_15 
ROOT
ATOM      1  N   UNL d   1      10.217   7.241  -9.017  0.00  0.00     0.147 N 
ATOM      2  C   UNL d   1       9.096   7.519  -8.114  0.00  0.00     0.251 C 
ATOM      3  C   UNL d   1       9.564   7.500  -6.660  0.00  0.00     0.040 C 
ATOM      4  C   UNL d   1      10.708   8.504  -6.422  0.00  0.00     0.026 C 
ATOM      5  C   UNL d   1      11.808   8.281  -7.463  0.00  0.00     0.040 C 
ATOM      6  C   UNL d   1      11.242   8.283  -8.887  0.00  0.00     0.251 C 
ENDROOT
BRANCH   1   7
ATOM      7  C   UNL d   1       9.733   7.186 -10.411  0.00  0.00     0.339 C 
BRANCH   7   8
ATOM      8  C   UNL d   1       9.037   5.878 -10.815  0.00  0.00     0.290 C 
ATOM      9  N   UNL d   1       8.009   5.998 -11.663  0.00  0.00    -0.210 NA
ATOM     10  O   UNL d   1       9.443   4.795 -10.388  0.00  0.00    -0.268 OA
BRANCH   9  11
ATOM     11  C   UNL d   1       7.449   4.949 -12.426  0.00  0.00     0.084 A 
ATOM     12  C   UNL d   1       6.055   4.765 -12.430  0.00  0.00     0.019 A 
ATOM     13  C   UNL d   1       5.482   3.748 -13.215  0.00  0.00     0.001 A 
ATOM     14  C   UNL d   1       6.304   2.926 -14.014  0.00  0.00    -0.004 A 
ATOM     15  C   UNL d   1       7.699   3.128 -14.042  0.00  0.00    -0.020 A 
ATOM     16  C   UNL d   1       8.586   2.264 -14.908  0.00  0.00     0.031 C 
ATOM     17  C   UNL d   1       8.271   4.134 -13.242  0.00  0.00     0.015 A 
ENDBRANCH   9  11
ENDBRANCH   7   8
ENDBRANCH   1   7
BRANCH   4  18
ATOM     18  C   UNL d   1      11.268   8.418  -5.006  0.00  0.00    -0.022 A 
ATOM     19  C   UNL d   1      11.678   7.181  -4.461  0.00  0.00    -0.004 A 
ATOM     20  C   UNL d   1      12.172   7.098  -3.145  0.00  0.00    -0.000 A 
ATOM     21  C   UNL d   1      12.264   8.262  -2.359  0.00  0.00    -0.000 A 
ATOM     22  C   UNL d   1      11.867   9.502  -2.899  0.00  0.00    -0.000 A 
ATOM     23  C   UNL d   1      11.373   9.584  -4.213  0.00  0.00    -0.004 A 
ENDBRANCH   4  18
TORSDOF 4
