REMARK  10 active torsions:
REMARK  status: ('A' for Active; 'I' for Inactive)
REMARK    1  A    between atoms: C_6  and  N_7 
REMARK    2  A    between atoms: N_7  and  C_8 
REMARK    3  A    between atoms: N_7  and  C_11 
REMARK    4  A    between atoms: C_8  and  C_9 
REMARK    5  A    between atoms: C_11  and  C_12 
REMARK    6  A    between atoms: C_12  and  C_13 
REMARK    7  A    between atoms: C_13  and  C_14 
REMARK    8  A    between atoms: C_14  and  N_15 
REMARK       I    between atoms: N_15  and  C_16 
REMARK    9  A    between atoms: C_16  and  C_18 
REMARK   10  A    between atoms: C_21  and  C_22 
ROOT
ATOM      1  C   UNL d   1      10.268  -0.816 -20.370  0.00  0.00     0.081 C 
ATOM      2  C   UNL d   1       9.842  -0.211 -19.393  0.00  0.00    -0.131 C 
ATOM      3  C   UNL d   1       9.292   0.521 -18.295  0.00  0.00     0.004 C 
ATOM      4  C   UNL d   1       9.236   1.870 -18.362  0.00  0.00    -0.021 C 
ATOM      5  C   UNL d   1       8.761   2.767 -17.244  0.00  0.00     0.059 C 
ATOM      6  C   UNL d   1       8.043   1.962 -16.114  0.00  0.00     0.224 C 
ATOM      7  C   UNL d   1       8.725   0.605 -15.809  0.00  0.00     0.039 C 
ATOM      8  C   UNL d   1       8.849  -0.257 -17.066  0.00  0.00     0.035 C 
ENDROOT
BRANCH   6   9
ATOM      9  N   UNL d   1       7.817   2.778 -14.904  0.00  0.00     0.135 N 
BRANCH   9  10
ATOM     10  C   UNL d   1       6.749   2.217 -14.036  0.00  0.00     0.250 C 
BRANCH  10  11
ATOM     11  C   UNL d   1       6.294   3.133 -12.840  0.00  0.00     0.035 C 
ATOM     12  C   UNL d   1       5.252   4.170 -13.239  0.00  0.00     0.002 C 
ENDBRANCH  10  11
ENDBRANCH   9  10
BRANCH   9  13
ATOM     13  C   UNL d   1       9.049   3.162 -14.208  0.00  0.00     0.250 C 
BRANCH  13  14
ATOM     14  C   UNL d   1       9.077   4.692 -13.962  0.00  0.00     0.037 C 
BRANCH  14  15
ATOM     15  C   UNL d   1       9.607   5.020 -12.556  0.00  0.00     0.029 C 
BRANCH  15  16
ATOM     16  C   UNL d   1       9.293   6.472 -12.134  0.00  0.00     0.129 C 
BRANCH  16  17
ATOM     17  N   UNL d   1       9.706   6.721 -10.761  0.00  0.00    -0.234 NA
ATOM     18  C   UNL d   1       9.173   6.195  -9.653  0.00  0.00     0.275 C 
ATOM     19  O   UNL d   1       8.332   5.284  -9.625  0.00  0.00    -0.266 OA
BRANCH  18  20
ATOM     20  C   UNL d   1       9.712   6.750  -8.390  0.00  0.00     0.058 A 
ATOM     21  C   UNL d   1       9.298   7.977  -7.854  0.00  0.00     0.005 A 
ATOM     22  C   UNL d   1       9.835   8.412  -6.627  0.00  0.00     0.000 A 
ATOM     23  C   UNL d   1      10.829   7.677  -5.941  0.00  0.00     0.000 A 
ATOM     24  C   UNL d   1      11.245   6.455  -6.508  0.00  0.00     0.000 A 
ATOM     25  C   UNL d   1      10.655   5.993  -7.692  0.00  0.00     0.005 A 
BRANCH  23  26
ATOM     26  C   UNL d   1      11.400   8.125  -4.654  0.00  0.00     0.000 A 
ATOM     27  C   UNL d   1      11.393   9.497  -4.327  0.00  0.00     0.000 A 
ATOM     28  C   UNL d   1      11.864   9.916  -3.068  0.00  0.00     0.000 A 
ATOM     29  C   UNL d   1      12.355   8.999  -2.146  0.00  0.00     0.000 A 
ATOM     30  C   UNL d   1      12.374   7.633  -2.448  0.00  0.00     0.000 A 
ATOM     31  C   UNL d   1      11.885   7.196  -3.688  0.00  0.00     0.000 A 
ENDBRANCH  23  26
ENDBRANCH  18  20
ENDBRANCH  16  17
ENDBRANCH  15  16
ENDBRANCH  14  15
ENDBRANCH  13  14
ENDBRANCH   9  13
ENDBRANCH   6   9
TORSDOF 10
