REMARK  3 active torsions:
REMARK  status: ('A' for Active; 'I' for Inactive)
REMARK    1  A    between atoms: O_2  and  C_3 
REMARK    2  A    between atoms: C_14  and  O_15 
REMARK    3  A    between atoms: C_17  and  O_18 
ROOT
ATOM      1  C   UNL d   1       8.401   5.827 -12.517  0.00  0.00     0.119 C 
ATOM      2  C   UNL d   1       8.568   7.213 -12.313  0.00  0.00     0.022 C 
ATOM      3  C   UNL d   1       9.328   7.679 -11.225  0.00  0.00    -0.020 C 
ATOM      4  C   UNL d   1       9.828   6.793 -10.259  0.00  0.00     0.007 C 
ATOM      5  C   UNL d   1       9.645   5.403 -10.463  0.00  0.00     0.027 C 
ATOM      6  C   UNL d   1       9.045   4.901 -11.655  0.00  0.00     0.153 C 
ATOM      7  O   UNL d   1       9.129   3.612 -12.049  0.00  0.00    -0.188 OA
ATOM      8  C   UNL d   1      10.668   7.323  -9.082  0.00  0.00     0.246 C 
ATOM      9  C   UNL d   1      10.255   6.665  -7.740  0.00  0.00     0.064 C 
ATOM     10  C   UNL d   1      10.913   7.288  -6.518  0.00  0.00    -0.020 A 
ATOM     11  C   UNL d   1      10.900   6.623  -5.280  0.00  0.00     0.022 A 
ATOM     12  C   UNL d   1      11.499   7.179  -4.143  0.00  0.00     0.116 A 
ATOM     13  C   UNL d   1      12.091   8.463  -4.221  0.00  0.00     0.116 A 
ATOM     14  C   UNL d   1      12.117   9.140  -5.456  0.00  0.00     0.024 A 
ATOM     15  C   UNL d   1      11.512   8.556  -6.601  0.00  0.00     0.009 A 
ATOM     16  C   UNL d   1      11.575   9.248  -7.947  0.00  0.00     0.277 C 
ATOM     17  N   UNL d   1      10.572   8.780  -8.896  0.00  0.00     0.144 N 
ATOM     18  C   UNL d   1      10.781   9.457 -10.149  0.00  0.00     0.256 C 
ATOM     19  C   UNL d   1       9.544   9.170 -11.062  0.00  0.00     0.061 C 
ENDROOT
BRANCH   1  20
ATOM     20  O   UNL d   1       7.712   5.346 -13.591  0.00  0.00    -0.326 OA
ATOM     21  C   UNL d   1       6.473   4.694 -13.284  0.00  0.00     0.181 C 
ENDBRANCH   1  20
BRANCH  12  22
ATOM     22  O   UNL d   1      11.439   6.483  -2.968  0.00  0.00    -0.326 OA
ATOM     23  C   UNL d   1      12.672   6.012  -2.453  0.00  0.00     0.181 C 
ENDBRANCH  12  22
BRANCH  13  24
ATOM     24  O   UNL d   1      12.700   9.030  -3.138  0.00  0.00    -0.326 OA
ATOM     25  C   UNL d   1      11.863   9.247  -2.018  0.00  0.00     0.181 C 
ENDBRANCH  13  24
TORSDOF 3
