REMARK  9 active torsions:
REMARK  status: ('A' for Active; 'I' for Inactive)
REMARK    1  A    between atoms: C_4  and  N_5 
REMARK    2  A    between atoms: N_5  and  C_6 
REMARK    3  A    between atoms: C_6  and  C_7 
REMARK    4  A    between atoms: C_7  and  N_8 
REMARK    5  A    between atoms: N_8  and  C_9 
REMARK    6  A    between atoms: C_18  and  N_19 
REMARK    7  A    between atoms: N_19  and  C_20 
REMARK    8  A    between atoms: C_20  and  C_21 
REMARK    9  A    between atoms: C_21  and  C_22 
ROOT
ATOM      1  N   UNL d   1      12.267   4.291 -15.066  0.00  0.00     0.063 N 
ATOM      2  C   UNL d   1      11.071   3.689 -14.856  0.00  0.00     0.799 A 
ATOM      3  N   UNL d   1      10.383   4.180 -13.832  0.00  0.00     0.136 NA
ATOM      4  C   UNL d   1       9.188   3.589 -13.701  0.00  0.00     0.776 A 
ATOM      5  N   UNL d   1       8.681   2.609 -14.435  0.00  0.00     0.134 NA
ATOM      6  C   UNL d   1       9.513   2.224 -15.405  0.00  0.00     0.776 A 
ATOM      7  N   UNL d   1      10.713   2.734 -15.702  0.00  0.00     0.136 NA
ENDROOT
BRANCH   4   8
ATOM      8  N   UNL d   1       8.361   4.087 -12.737  0.00  0.00    -0.083 NA
BRANCH   8   9
ATOM      9  C   UNL d   1       8.877   4.669 -11.529  0.00  0.00     0.171 C 
BRANCH   9  10
ATOM     10  C   UNL d   1       8.912   6.199 -11.648  0.00  0.00     0.153 C 
BRANCH  10  11
ATOM     11  N   UNL d   1       9.929   6.815 -10.819  0.00  0.00    -0.268 NA
BRANCH  11  12
ATOM     12  C   UNL d   1       9.779   6.966  -9.424  0.00  0.00     0.087 A 
ATOM     13  C   UNL d   1      10.635   7.856  -8.731  0.00  0.00     0.086 A 
ATOM     14  C   UNL d   1      10.499   8.033  -7.327  0.00  0.00     0.070 A 
ATOM     15 CL   UNL d   1      11.816   8.771  -9.602  0.00  0.00    -0.080 Cl
ATOM     16  C   UNL d   1       9.531   7.292  -6.619  0.00  0.00     0.012 A 
ATOM     17 CL   UNL d   1      11.487   9.170  -6.457  0.00  0.00    -0.081 Cl
ATOM     18  C   UNL d   1       8.680   6.423  -7.310  0.00  0.00     0.003 A 
ATOM     19  C   UNL d   1       8.801   6.262  -8.692  0.00  0.00     0.020 A 
ENDBRANCH  11  12
ENDBRANCH  10  11
ENDBRANCH   9  10
ENDBRANCH   8   9
ENDBRANCH   4   8
BRANCH   6  20
ATOM     20  N   UNL d   1       9.117   1.219 -16.248  0.00  0.00    -0.085 NA
BRANCH  20  21
ATOM     21  C   UNL d   1       8.030   0.277 -16.012  0.00  0.00     0.150 C 
BRANCH  21  22
ATOM     22  C   UNL d   1       6.706   0.769 -16.609  0.00  0.00     0.055 C 
BRANCH  22  23
ATOM     23  C   UNL d   1       5.729  -0.347 -16.847  0.00  0.00     0.000 A 
ATOM     24  C   UNL d   1       5.368  -0.905 -18.124  0.00  0.00     0.015 A 
ATOM     25  C   UNL d   1       4.430  -1.950 -17.904  0.00  0.00     0.081 A 
ATOM     26  C   UNL d   1       5.735  -0.645 -19.465  0.00  0.00     0.001 A 
ATOM     27  N   UNL d   1       4.250  -2.009 -16.537  0.00  0.00    -0.244 NA
ATOM     28  C   UNL d   1       3.877  -2.703 -18.952  0.00  0.00     0.019 A 
ATOM     29  C   UNL d   1       5.029  -1.051 -15.898  0.00  0.00     0.095 A 
ATOM     30  C   UNL d   1       4.262  -2.422 -20.275  0.00  0.00     0.002 A 
ATOM     31  C   UNL d   1       5.189  -1.390 -20.529  0.00  0.00     0.000 A 
ENDBRANCH  22  23
ENDBRANCH  21  22
ENDBRANCH  20  21
ENDBRANCH   6  20
TORSDOF 9
