REMARK  8 active torsions:
REMARK  status: ('A' for Active; 'I' for Inactive)
REMARK    1  A    between atoms: S_2  and  N_4 
REMARK    2  A    between atoms: S_2  and  C_24 
REMARK    3  A    between atoms: N_4  and  C_5 
REMARK    4  A    between atoms: C_5  and  C_6 
REMARK    5  A    between atoms: C_6  and  C_7 
REMARK    6  A    between atoms: C_7  and  C_8 
REMARK    7  A    between atoms: C_8  and  N_9 
REMARK    8  A    between atoms: N_12  and  C_13 
ROOT
ATOM      1  C   UNL d   1       8.739   4.834 -11.899  0.00  0.00     0.037 C 
ENDROOT
BRANCH   1   2
ATOM      2  C   UNL d   1       8.489   5.938 -10.872  0.00  0.00     0.029 C 
BRANCH   2   3
ATOM      3  C   UNL d   1       9.768   6.290 -10.085  0.00  0.00     0.139 C 
BRANCH   3   4
ATOM      4  N   UNL d   1       9.793   7.709  -9.772  0.00  0.00    -0.184 NA
BRANCH   4   5
ATOM      5  S   UNL d   1      11.253   8.528  -9.335  0.00  0.00     0.287 S 
ATOM      6  O   UNL d   1      12.431   7.811  -9.854  0.00  0.00    -0.198 OA
ATOM      7  O   UNL d   1      11.064   9.955  -9.622  0.00  0.00    -0.198 OA
BRANCH   5   8
ATOM      8  C   UNL d   1      11.303   8.364  -7.571  0.00  0.00     0.134 A 
ATOM      9  S   UNL d   1      11.295   6.791  -6.855  0.00  0.00    -0.074 SA
ATOM     10  C   UNL d   1      11.455   7.477  -5.252  0.00  0.00     0.030 A 
ATOM     11  C   UNL d   1      11.428   8.903  -5.311  0.00  0.00     0.007 A 
ATOM     12  C   UNL d   1      11.622   6.779  -4.043  0.00  0.00     0.006 A 
ATOM     13  C   UNL d   1      11.313   9.399  -6.668  0.00  0.00     0.020 A 
ATOM     14  C   UNL d   1      11.506   9.595  -4.081  0.00  0.00     0.001 A 
ATOM     15  C   UNL d   1      11.701   8.903  -2.869  0.00  0.00     0.000 A 
ATOM     16  C   UNL d   1      11.749   7.504  -2.846  0.00  0.00     0.001 A 
ENDBRANCH   5   8
ENDBRANCH   4   5
ENDBRANCH   3   4
ENDBRANCH   2   3
ENDBRANCH   1   2
BRANCH   1  17
ATOM     17  C   UNL d   1       7.483   4.489 -12.724  0.00  0.00     0.251 C 
BRANCH  17  18
ATOM     18  N   UNL d   1       7.669   3.270 -13.497  0.00  0.00     0.141 N 
ATOM     19  C   UNL d   1       8.648   3.410 -14.578  0.00  0.00     0.274 C 
ATOM     20  C   UNL d   1       8.802   2.084 -15.362  0.00  0.00     0.138 C 
ATOM     21  N   UNL d   1       7.507   1.572 -15.794  0.00  0.00    -0.328 N 
ATOM     22  C   UNL d   1       6.476   1.505 -14.771  0.00  0.00     0.138 C 
ATOM     23  C   UNL d   1       6.365   2.851 -14.036  0.00  0.00     0.274 C 
BRANCH  21  24
ATOM     24  C   UNL d   1       7.258   1.241 -17.138  0.00  0.00     0.169 A 
ATOM     25  C   UNL d   1       6.284   0.332 -17.651  0.00  0.00     0.061 A 
ATOM     26  C   UNL d   1       6.399   0.323 -19.046  0.00  0.00     0.128 A 
ATOM     27  C   UNL d   1       5.341  -0.523 -17.028  0.00  0.00     0.005 A 
ATOM     28  O   UNL d   1       7.440   1.201 -19.338  0.00  0.00    -0.210 OA
ATOM     29  C   UNL d   1       5.599  -0.483 -19.884  0.00  0.00     0.027 A 
ATOM     30  N   UNL d   1       7.959   1.762 -18.145  0.00  0.00    -0.109 NA
ATOM     31  C   UNL d   1       4.620  -1.297 -19.269  0.00  0.00     0.002 A 
ATOM     32  C   UNL d   1       4.494  -1.305 -17.854  0.00  0.00     0.000 A 
ENDBRANCH  21  24
ENDBRANCH  17  18
ENDBRANCH   1  17
TORSDOF 8
