REMARK  6 active torsions:
REMARK  status: ('A' for Active; 'I' for Inactive)
REMARK       I    between atoms: C_2  and  N_3 
REMARK    1  A    between atoms: C_2  and  C_27 
REMARK    2  A    between atoms: N_3  and  C_4 
REMARK    3  A    between atoms: C_7  and  C_8 
REMARK    4  A    between atoms: C_8  and  C_9 
REMARK    5  A    between atoms: C_9  and  N_10 
REMARK    6  A    between atoms: N_13  and  C_14 
ROOT
ATOM      1  C   UNL d   1       8.190   6.066 -11.056  0.00  0.00     0.250 C 
ENDROOT
BRANCH   1   2
ATOM      2  C   UNL d   1       9.306   7.106 -10.840  0.00  0.00     0.035 C 
BRANCH   2   3
ATOM      3  C   UNL d   1      10.031   6.898  -9.505  0.00  0.00     0.002 C 
ATOM      4  C   UNL d   1      11.211   7.870  -9.442  0.00  0.00     0.002 C 
ATOM      5  C   UNL d   1      11.891   7.818  -8.067  0.00  0.00     0.024 C 
ATOM      6  C   UNL d   1      10.895   8.060  -6.926  0.00  0.00     0.106 C 
ATOM      7  C   UNL d   1       9.778   7.016  -6.988  0.00  0.00     0.024 C 
ATOM      8  C   UNL d   1       9.076   7.109  -8.324  0.00  0.00     0.002 C 
BRANCH   6   9
ATOM      9  N   UNL d   1      11.559   7.882  -5.658  0.00  0.00    -0.240 NA
ATOM     10  C   UNL d   1      11.454   8.672  -4.607  0.00  0.00     0.256 C 
ATOM     11  O   UNL d   1      10.730   9.655  -4.556  0.00  0.00    -0.270 OA
BRANCH  10  12
ATOM     12  C   UNL d   1      12.391   8.252  -3.498  0.00  0.00     0.147 A 
ATOM     13  C   UNL d   1      11.910   7.268  -2.421  0.00  0.00     0.273 A 
ATOM     14  C   UNL d   1      12.012   8.773  -2.127  0.00  0.00     0.082 A 
ATOM     15  F   UNL d   1      10.663   6.712  -2.437  0.00  0.00    -0.204 F 
ATOM     16  F   UNL d   1      12.901   6.433  -1.906  0.00  0.00    -0.204 F 
ENDBRANCH  10  12
ENDBRANCH   6   9
ENDBRANCH   2   3
ENDBRANCH   1   2
BRANCH   1  17
ATOM     17  N   UNL d   1       7.535   6.205 -12.350  0.00  0.00     0.141 N 
ATOM     18  C   UNL d   1       6.389   5.312 -12.456  0.00  0.00     0.274 C 
ATOM     19  C   UNL d   1       6.827   3.834 -12.444  0.00  0.00     0.138 C 
ATOM     20  N   UNL d   1       7.855   3.607 -13.490  0.00  0.00    -0.330 N 
ATOM     21  C   UNL d   1       8.998   4.547 -13.515  0.00  0.00     0.138 C 
ATOM     22  C   UNL d   1       8.437   5.979 -13.476  0.00  0.00     0.274 C 
BRANCH  20  23
ATOM     23  C   UNL d   1       7.781   2.538 -14.413  0.00  0.00     0.138 A 
ATOM     24  C   UNL d   1       6.851   1.493 -14.291  0.00  0.00     0.036 A 
ATOM     25  C   UNL d   1       6.834   0.446 -15.223  0.00  0.00     0.095 A 
ATOM     26  C   UNL d   1       5.778   1.217 -13.296  0.00  0.00     0.064 C 
ATOM     27  C   UNL d   1       7.746   0.457 -16.288  0.00  0.00     0.045 A 
ATOM     28  O   UNL d   1       5.885  -0.502 -14.970  0.00  0.00    -0.331 OA
ATOM     29  C   UNL d   1       8.649   1.532 -16.342  0.00  0.00     0.103 A 
ATOM     30  N   UNL d   1       8.673   2.545 -15.434  0.00  0.00    -0.228 NA
ATOM     31  C   UNL d   1       5.337  -0.175 -13.668  0.00  0.00     0.154 C 
ENDBRANCH  20  23
ENDBRANCH   1  17
TORSDOF 6
