REMARK  6 active torsions:
REMARK  status: ('A' for Active; 'I' for Inactive)
REMARK    1  A    between atoms: C_7  and  N_8 
REMARK    2  A    between atoms: N_11  and  C_12 
REMARK    3  A    between atoms: C_12  and  C_13 
REMARK    4  A    between atoms: C_13  and  C_15 
REMARK    5  A    between atoms: C_15  and  N_16 
REMARK    6  A    between atoms: C_20  and  C_22 
ROOT
ATOM      1  C   UNL d   1       8.644   4.797 -10.629  0.00  0.00     0.208 C 
ATOM      2  O   UNL d   1       7.399   4.224 -10.875  0.00  0.00    -0.219 OA
ENDROOT
BRANCH   1   3
ATOM      3  C   UNL d   1       8.340   5.732  -9.431  0.00  0.00     0.285 C 
BRANCH   3   4
ATOM      4  N   UNL d   1       9.441   6.528  -8.919  0.00  0.00     0.144 N 
ATOM      5  C   UNL d   1      10.341   5.669  -8.162  0.00  0.00     0.274 C 
ATOM      6  C   UNL d   1      11.495   6.507  -7.608  0.00  0.00     0.137 C 
ATOM      7  N   UNL d   1      10.963   7.611  -6.801  0.00  0.00    -0.344 N 
ATOM      8  C   UNL d   1      10.062   8.472  -7.533  0.00  0.00     0.137 C 
ATOM      9  C   UNL d   1       8.951   7.580  -8.010  0.00  0.00     0.274 C 
BRANCH   7  10
ATOM     10  C   UNL d   1      11.457   7.935  -5.553  0.00  0.00     0.052 A 
ATOM     11  C   UNL d   1      11.924   9.248  -5.227  0.00  0.00    -0.006 A 
ATOM     12  C   UNL d   1      12.499   9.457  -3.943  0.00  0.00    -0.003 A 
ATOM     13  C   UNL d   1      12.015  10.331  -6.298  0.00  0.00     0.033 C 
ATOM     14  C   UNL d   1      12.624   8.394  -3.028  0.00  0.00    -0.004 A 
ATOM     15  C   UNL d   1      12.220   7.095  -3.376  0.00  0.00    -0.020 A 
ATOM     16  C   UNL d   1      12.416   5.971  -2.422  0.00  0.00     0.031 C 
ATOM     17  C   UNL d   1      11.645   6.878  -4.629  0.00  0.00     0.012 A 
ENDBRANCH   7  10
ENDBRANCH   3   4
ENDBRANCH   1   3
BRANCH   1  18
ATOM     18  C   UNL d   1       9.101   5.529 -11.911  0.00  0.00     0.148 C 
BRANCH  18  19
ATOM     19  N   UNL d   1       9.176   4.645 -13.103  0.00  0.00    -0.247 N 
ATOM     20  C   UNL d   1      10.312   4.190 -13.658  0.00  0.00     0.265 A 
ATOM     21  C   UNL d   1       9.991   3.295 -14.846  0.00  0.00     0.179 A 
ATOM     22  O   UNL d   1      11.464   4.450 -13.326  0.00  0.00    -0.269 OA
ATOM     23  N   UNL d   1       8.552   3.349 -14.761  0.00  0.00    -0.209 NA
ATOM     24  C   UNL d   1      10.451   1.847 -14.591  0.00  0.00     0.039 C 
ATOM     25  C   UNL d   1       8.115   4.167 -13.796  0.00  0.00     0.348 A 
ATOM     26  O   UNL d   1       6.923   4.414 -13.624  0.00  0.00    -0.245 OA
BRANCH  21  27
ATOM     27  C   UNL d   1      10.544   3.931 -16.135  0.00  0.00     0.006 A 
ATOM     28  C   UNL d   1      11.731   3.439 -16.731  0.00  0.00     0.000 A 
ATOM     29  C   UNL d   1      12.228   4.013 -17.913  0.00  0.00     0.029 A 
ATOM     30  C   UNL d   1      11.561   5.095 -18.514  0.00  0.00     0.140 A 
ATOM     31  C   UNL d   1      10.394   5.614 -17.922  0.00  0.00     0.029 A 
ATOM     32  F   UNL d   1      12.047   5.636 -19.655  0.00  0.00    -0.204 F 
ATOM     33  C   UNL d   1       9.892   5.040 -16.737  0.00  0.00     0.000 A 
ENDBRANCH  21  27
ENDBRANCH  18  19
ENDBRANCH   1  18
TORSDOF 6
