REMARK  4 active torsions:
REMARK  status: ('A' for Active; 'I' for Inactive)
REMARK    1  A    between atoms: N_12  and  C_13 
REMARK    2  A    between atoms: C_13  and  C_14 
REMARK    3  A    between atoms: C_14  and  N_15 
REMARK    4  A    between atoms: N_18  and  C_19 
ROOT
ATOM      1  N   UNL d   1      12.679   4.985 -16.086  0.00  0.00     0.143 N 
ATOM      2  C   UNL d   1      12.420   3.576 -16.412  0.00  0.00     0.274 C 
ATOM      3  C   UNL d   1      11.659   2.898 -15.262  0.00  0.00     0.137 C 
ATOM      4  N   UNL d   1      10.414   3.619 -15.004  0.00  0.00    -0.344 N 
ATOM      5  C   UNL d   1      10.592   5.051 -14.794  0.00  0.00     0.137 C 
ATOM      6  C   UNL d   1      11.401   5.679 -15.935  0.00  0.00     0.274 C 
ENDROOT
BRANCH   1   7
ATOM      7  C   UNL d   1      13.402   5.658 -17.166  0.00  0.00     0.275 C 
BRANCH   7   8
ATOM      8  C   UNL d   1      14.793   5.042 -17.371  0.00  0.00     0.147 C 
BRANCH   8   9
ATOM      9  N   UNL d   1      15.681   5.928 -18.124  0.00  0.00    -0.268 N 
ATOM     10  C   UNL d   1      15.413   6.384 -19.360  0.00  0.00     0.240 A 
ATOM     11  O   UNL d   1      14.406   6.130 -20.021  0.00  0.00    -0.272 OA
ATOM     12  C   UNL d   1      16.531   7.261 -19.874  0.00  0.00     0.093 A 
ATOM     13  C   UNL d   1      17.541   7.271 -18.694  0.00  0.00     0.093 A 
ATOM     14  C   UNL d   1      16.172   8.767 -20.034  0.00  0.00     0.031 C 
ATOM     15  C   UNL d   1      17.637   8.783 -18.343  0.00  0.00     0.031 C 
ATOM     16  C   UNL d   1      16.855   6.389 -17.664  0.00  0.00     0.240 A 
ATOM     17  C   UNL d   1      18.301   9.459 -19.524  0.00  0.00    -0.030 C 
ATOM     18  C   UNL d   1      16.190   9.258 -18.576  0.00  0.00     0.010 C 
ATOM     19  C   UNL d   1      17.426   9.450 -20.533  0.00  0.00    -0.030 C 
ATOM     20  O   UNL d   1      17.352   6.140 -16.562  0.00  0.00    -0.272 OA
ENDBRANCH   8   9
ENDBRANCH   7   8
ENDBRANCH   1   7
BRANCH   4  21
ATOM     21  C   UNL d   1       9.159   2.991 -14.920  0.00  0.00     0.057 A 
ATOM     22  C   UNL d   1       8.159   3.426 -14.003  0.00  0.00     0.022 A 
ATOM     23  C   UNL d   1       6.892   2.727 -14.035  0.00  0.00     0.031 A 
ATOM     24  C   UNL d   1       8.143   4.465 -12.971  0.00  0.00     0.009 A 
ATOM     25  C   UNL d   1       6.673   1.640 -14.895  0.00  0.00     0.007 A 
ATOM     26  S   UNL d   1       5.760   3.403 -12.874  0.00  0.00    -0.086 SA
ATOM     27  C   UNL d   1       7.673   1.227 -15.775  0.00  0.00     0.002 A 
ATOM     28  C   UNL d   1       8.910   1.904 -15.795  0.00  0.00     0.017 A 
ATOM     29  C   UNL d   1       6.934   4.568 -12.345  0.00  0.00     0.035 A 
ENDBRANCH   4  21
TORSDOF 4
