REMARK  1 active torsions:
REMARK  status: ('A' for Active; 'I' for Inactive)
REMARK    1  A    between atoms: N_5  and  C_6 
ROOT
ATOM      1  C   UNL d   1       9.256   5.454 -11.419  0.00  0.00     0.056 C 
ATOM      2  C   UNL d   1       9.585   4.269 -11.957  0.00  0.00     0.017 C 
ATOM      3  C   UNL d   1       9.045   3.624 -13.144  0.00  0.00    -0.001 A 
ATOM      4  C   UNL d   1       9.932   2.938 -13.992  0.00  0.00     0.011 A 
ATOM      5  C   UNL d   1       9.436   2.214 -15.088  0.00  0.00     0.058 A 
ATOM      6 CL   UNL d   1      10.528   1.386 -16.134  0.00  0.00    -0.082 Cl
ATOM      7  C   UNL d   1       8.050   2.176 -15.321  0.00  0.00     0.011 A 
ATOM      8  C   UNL d   1       7.161   2.837 -14.451  0.00  0.00    -0.003 A 
ATOM      9  C   UNL d   1       7.655   3.584 -13.369  0.00  0.00    -0.018 A 
ATOM     10  C   UNL d   1       6.704   4.191 -12.363  0.00  0.00     0.053 C 
ATOM     11  C   UNL d   1       6.927   5.667 -12.347  0.00  0.00    -0.016 A 
ATOM     12  C   UNL d   1       5.867   6.475 -12.760  0.00  0.00    -0.004 A 
ATOM     13  C   UNL d   1       5.997   7.869 -12.796  0.00  0.00    -0.000 A 
ATOM     14  C   UNL d   1       7.236   8.424 -12.456  0.00  0.00     0.000 A 
ATOM     15  C   UNL d   1       8.347   7.636 -12.114  0.00  0.00     0.001 A 
ATOM     16  C   UNL d   1       8.168   6.255 -11.971  0.00  0.00     0.012 A 
ENDROOT
BRANCH   1  17
ATOM     17  N   UNL d   1       9.774   5.889 -10.189  0.00  0.00    -0.348 N 
ATOM     18  C   UNL d   1       9.598   5.172  -8.926  0.00  0.00     0.101 C 
ATOM     19  C   UNL d   1       9.060   6.123  -7.841  0.00  0.00     0.024 C 
ATOM     20  C   UNL d   1       9.947   7.375  -7.647  0.00  0.00     0.004 C 
ATOM     21  C   UNL d   1      11.296   7.041  -6.973  0.00  0.00     0.000 C 
ATOM     22  C   UNL d   1      10.127   8.054  -9.012  0.00  0.00     0.024 C 
ATOM     23  C   UNL d   1      10.666   7.042 -10.038  0.00  0.00     0.101 C 
ENDBRANCH   1  17
TORSDOF 1
