REMARK  7 active torsions:
REMARK  status: ('A' for Active; 'I' for Inactive)
REMARK    1  A    between atoms: O_2  and  C_3 
REMARK    2  A    between atoms: C_8  and  N_9 
REMARK    3  A    between atoms: N_12  and  C_13 
REMARK    4  A    between atoms: C_13  and  C_14 
REMARK    5  A    between atoms: C_14  and  C_16 
REMARK    6  A    between atoms: C_16  and  N_17 
REMARK    7  A    between atoms: C_21  and  C_23 
ROOT
ATOM      1  C   UNL d   1       9.665   8.537 -10.533  0.00  0.00     0.208 C 
ATOM      2  O   UNL d   1       8.691   9.189 -11.229  0.00  0.00    -0.219 OA
ENDROOT
BRANCH   1   3
ATOM      3  C   UNL d   1       9.184   8.200  -9.117  0.00  0.00     0.285 C 
BRANCH   3   4
ATOM      4  N   UNL d   1      10.173   7.644  -8.249  0.00  0.00     0.144 N 
ATOM      5  C   UNL d   1       9.494   7.052  -7.062  0.00  0.00     0.274 C 
ATOM      6  C   UNL d   1      10.469   6.419  -6.090  0.00  0.00     0.137 C 
ATOM      7  N   UNL d   1      11.449   7.402  -5.743  0.00  0.00    -0.343 N 
ATOM      8  C   UNL d   1      12.085   8.124  -6.862  0.00  0.00     0.137 C 
ATOM      9  C   UNL d   1      11.114   8.665  -7.903  0.00  0.00     0.274 C 
BRANCH   7  10
ATOM     10  C   UNL d   1      11.740   7.670  -4.396  0.00  0.00     0.079 A 
ATOM     11  C   UNL d   1      11.880   8.994  -3.929  0.00  0.00     0.110 A 
ATOM     12  C   UNL d   1      12.169   9.255  -2.590  0.00  0.00     0.026 A 
ATOM     13  C   UNL d   1      12.320   8.188  -1.708  0.00  0.00     0.002 A 
ATOM     14  C   UNL d   1      12.195   6.870  -2.126  0.00  0.00     0.002 A 
ATOM     15  C   UNL d   1      11.899   6.618  -3.469  0.00  0.00     0.019 A 
BRANCH  11  16
ATOM     16  O   UNL d   1      11.748  10.081  -4.715  0.00  0.00    -0.327 OA
ATOM     17  C   UNL d   1      10.471  10.280  -5.261  0.00  0.00     0.181 C 
ENDBRANCH  11  16
ENDBRANCH   7  10
ENDBRANCH   3   4
ENDBRANCH   1   3
BRANCH   1  18
ATOM     18  C   UNL d   1      10.039   7.296 -11.322  0.00  0.00     0.148 C 
BRANCH  18  19
ATOM     19  N   UNL d   1       9.055   6.232 -11.325  0.00  0.00    -0.247 N 
ATOM     20  C   UNL d   1       8.069   6.112 -12.221  0.00  0.00     0.265 A 
ATOM     21  C   UNL d   1       7.201   4.919 -11.894  0.00  0.00     0.179 A 
ATOM     22  O   UNL d   1       7.881   6.786 -13.236  0.00  0.00    -0.269 OA
ATOM     23  N   UNL d   1       7.875   4.527 -10.698  0.00  0.00    -0.209 NA
ATOM     24  C   UNL d   1       5.761   5.388 -11.653  0.00  0.00     0.039 C 
ATOM     25  C   UNL d   1       8.945   5.231 -10.416  0.00  0.00     0.348 A 
ATOM     26  O   UNL d   1       9.681   5.027  -9.421  0.00  0.00    -0.245 OA
BRANCH  21  27
ATOM     27  C   UNL d   1       7.333   3.862 -12.979  0.00  0.00     0.006 A 
ATOM     28  C   UNL d   1       8.585   3.582 -13.586  0.00  0.00    -0.002 A 
ATOM     29  C   UNL d   1       8.713   2.570 -14.552  0.00  0.00    -0.004 A 
ATOM     30  C   UNL d   1       7.597   1.794 -14.915  0.00  0.00    -0.022 A 
ATOM     31  C   UNL d   1       6.357   2.033 -14.298  0.00  0.00    -0.004 A 
ATOM     32  C   UNL d   1       7.723   0.709 -15.962  0.00  0.00     0.031 C 
ATOM     33  C   UNL d   1       6.223   3.057 -13.345  0.00  0.00    -0.002 A 
ENDBRANCH  21  27
ENDBRANCH  18  19
ENDBRANCH   1  18
TORSDOF 7
