REMARK  2 active torsions:
REMARK  status: ('A' for Active; 'I' for Inactive)
REMARK    1  A    between atoms: N_2  and  C_4 
REMARK    2  A    between atoms: C_4  and  C_5 
ROOT
ATOM      1  C   UNL d   1       8.932   5.865 -12.530  0.00  0.00     0.173 C 
ATOM      2  C   UNL d   1       7.982   4.714 -12.876  0.00  0.00     0.057 C 
ATOM      3  C   UNL d   1       8.728   4.082 -14.038  0.00  0.00     0.113 C 
ATOM      4  C   UNL d   1       8.261   2.680 -14.436  0.00  0.00    -0.009 A 
ATOM      5  C   UNL d   1       6.869   2.433 -14.417  0.00  0.00    -0.003 A 
ATOM      6  C   UNL d   1       6.339   1.181 -14.778  0.00  0.00    -0.000 A 
ATOM      7  C   UNL d   1       7.204   0.158 -15.191  0.00  0.00    -0.000 A 
ATOM      8  C   UNL d   1       8.589   0.385 -15.227  0.00  0.00    -0.004 A 
ATOM      9  C   UNL d   1       9.140   1.634 -14.850  0.00  0.00    -0.020 A 
ATOM     10  C   UNL d   1      10.663   1.745 -14.898  0.00  0.00     0.053 C 
ATOM     11  C   UNL d   1      11.205   3.045 -15.470  0.00  0.00    -0.002 A 
ATOM     12  C   UNL d   1      11.994   3.057 -16.640  0.00  0.00     0.018 A 
ATOM     13  C   UNL d   1      12.528   4.289 -17.074  0.00  0.00     0.099 A 
ATOM     14  N   UNL d   1      12.322   5.454 -16.428  0.00  0.00    -0.241 NA
ATOM     15  C   UNL d   1      11.552   5.434 -15.321  0.00  0.00     0.112 A 
ATOM     16  C   UNL d   1      10.968   4.255 -14.799  0.00  0.00     0.077 A 
ATOM     17  N   UNL d   1      10.123   4.254 -13.687  0.00  0.00    -0.141 NA
ATOM     18  O   UNL d   1      10.235   5.401 -12.855  0.00  0.00    -0.279 OA
ENDROOT
BRANCH   1  19
ATOM     19  C   UNL d   1       8.833   6.432 -11.099  0.00  0.00     0.282 C 
BRANCH  19  20
ATOM     20  N   UNL d   1       9.743   5.831 -10.123  0.00  0.00     0.144 N 
ATOM     21  C   UNL d   1       9.501   4.410  -9.928  0.00  0.00     0.286 C 
ATOM     22  C   UNL d   1       9.587   6.493  -8.839  0.00  0.00     0.286 C 
ENDBRANCH  19  20
ENDBRANCH   1  19
TORSDOF 2
