REMARK  5 active torsions:
REMARK  status: ('A' for Active; 'I' for Inactive)
REMARK    1  A    between atoms: C_2  and  N_3 
REMARK    2  A    between atoms: N_3  and  C_4 
REMARK    3  A    between atoms: N_3  and  C_6 
REMARK    4  A    between atoms: C_6  and  C_7 
REMARK       I    between atoms: C_7  and  N_9 
REMARK    5  A    between atoms: N_9  and  C_10 
ROOT
ATOM      1  C   UNL d   1       9.418   5.980 -11.637  0.00  0.00     0.290 C 
ATOM      2  O   UNL d   1       9.894   5.386 -12.605  0.00  0.00    -0.268 OA
ATOM      3  N   UNL d   1      10.196   6.380 -10.626  0.00  0.00    -0.211 NA
ENDROOT
BRANCH   3   4
ATOM      4  C   UNL d   1       9.798   6.879  -9.381  0.00  0.00     0.076 A 
ATOM      5  C   UNL d   1      10.182   8.196  -9.031  0.00  0.00    -0.004 A 
ATOM      6  C   UNL d   1       9.817   8.714  -7.773  0.00  0.00    -0.003 A 
ATOM      7  C   UNL d   1      10.955   9.099  -9.993  0.00  0.00     0.033 C 
ATOM      8  C   UNL d   1       9.085   7.916  -6.886  0.00  0.00    -0.001 A 
ATOM      9  C   UNL d   1       8.752   6.582  -7.226  0.00  0.00    -0.003 A 
ATOM     10  C   UNL d   1       9.105   6.044  -8.458  0.00  0.00    -0.004 A 
ATOM     11  C   UNL d   1       8.737   4.584  -8.741  0.00  0.00     0.033 C 
ENDBRANCH   3   4
BRANCH   1  12
ATOM     12  C   UNL d   1       7.951   6.377 -11.621  0.00  0.00     0.339 C 
BRANCH  12  13
ATOM     13  N   UNL d   1       7.016   5.718 -12.554  0.00  0.00     0.147 N 
BRANCH  13  14
ATOM     14  C   UNL d   1       6.886   4.281 -12.265  0.00  0.00     0.251 C 
ATOM     15  C   UNL d   1       6.115   3.541 -13.367  0.00  0.00     0.037 C 
ENDBRANCH  13  14
BRANCH  13  16
ATOM     16  C   UNL d   1       5.731   6.423 -12.412  0.00  0.00     0.251 C 
ATOM     17  C   UNL d   1       5.766   7.912 -12.774  0.00  0.00     0.037 C 
ENDBRANCH  13  16
ENDBRANCH  12  13
ENDBRANCH   1  12
TORSDOF 5
