REMARK  4 active torsions:
REMARK  status: ('A' for Active; 'I' for Inactive)
REMARK    1  A    between atoms: C_6  and  C_7 
REMARK       I    between atoms: C_7  and  N_9 
REMARK    2  A    between atoms: N_9  and  C_10 
REMARK    3  A    between atoms: C_13  and  O_14 
REMARK    4  A    between atoms: O_14  and  C_15 
ROOT
ATOM      1  C   UNL d   1       9.476   6.681 -10.551  0.00  0.00     0.104 A 
ATOM      2  C   UNL d   1       9.343   5.273 -10.556  0.00  0.00     0.025 A 
ATOM      3  C   UNL d   1       8.862   4.649 -11.714  0.00  0.00     0.046 A 
ATOM      4  C   UNL d   1       8.472   5.430 -12.816  0.00  0.00     0.183 A 
ATOM      5  N   UNL d   1       8.563   6.774 -12.812  0.00  0.00    -0.219 NA
ATOM      6  C   UNL d   1       9.062   7.375 -11.707  0.00  0.00     0.120 A 
ENDROOT
BRANCH   1   7
ATOM      7  N   UNL d   1       9.980   7.449  -9.461  0.00  0.00    -0.206 NA
ATOM      8  C   UNL d   1      10.484   7.030  -8.284  0.00  0.00     0.281 C 
ATOM      9  O   UNL d   1      10.599   5.853  -7.961  0.00  0.00    -0.265 OA
BRANCH   8  10
ATOM     10  C   UNL d   1      10.890   8.123  -7.362  0.00  0.00     0.078 A 
ATOM     11  C   UNL d   1      11.235   7.927  -5.976  0.00  0.00     0.024 A 
ATOM     12  C   UNL d   1      11.319   6.825  -5.091  0.00  0.00     0.001 A 
ATOM     13  C   UNL d   1      11.575   9.205  -5.443  0.00  0.00     0.081 A 
ATOM     14  C   UNL d   1      11.732   6.980  -3.751  0.00  0.00    -0.004 A 
ATOM     15  C   UNL d   1      12.033   8.262  -3.253  0.00  0.00    -0.020 A 
ATOM     16  C   UNL d   1      12.444   8.476  -1.819  0.00  0.00     0.031 C 
ATOM     17  C   UNL d   1      11.942   9.376  -4.097  0.00  0.00     0.015 A 
ATOM     18  N   UNL d   1      11.454  10.098  -6.489  0.00  0.00    -0.244 NA
ATOM     19  C   UNL d   1      11.068   9.445  -7.651  0.00  0.00     0.104 A 
ENDBRANCH   8  10
ENDBRANCH   1   7
BRANCH   4  20
ATOM     20  O   UNL d   1       8.023   4.885 -13.998  0.00  0.00    -0.288 OA
BRANCH  20  21
ATOM     21  C   UNL d   1       7.604   3.575 -14.018  0.00  0.00     0.115 A 
ATOM     22  C   UNL d   1       6.296   3.202 -13.625  0.00  0.00     0.082 A 
ATOM     23  N   UNL d   1       5.865   1.920 -13.636  0.00  0.00    -0.246 NA
ATOM     24  C   UNL d   1       5.288   4.237 -13.160  0.00  0.00     0.054 C 
ATOM     25  C   UNL d   1       6.711   0.962 -14.071  0.00  0.00     0.099 A 
ATOM     26  C   UNL d   1       8.031   1.235 -14.486  0.00  0.00     0.023 A 
ATOM     27  C   UNL d   1       8.482   2.566 -14.458  0.00  0.00     0.028 A 
ENDBRANCH  20  21
ENDBRANCH   4  20
TORSDOF 4
