REMARK  7 active torsions:
REMARK  status: ('A' for Active; 'I' for Inactive)
REMARK    1  A    between atoms: C_2  and  C_3 
REMARK    2  A    between atoms: C_3  and  N_4 
REMARK    3  A    between atoms: N_4  and  C_5 
REMARK    4  A    between atoms: N_4  and  C_8 
REMARK    5  A    between atoms: C_5  and  C_6 
REMARK    6  A    between atoms: C_16  and  C_17 
REMARK    7  A    between atoms: C_17  and  C_19 
ROOT
ATOM      1  C   UNL d   1       8.935   5.081 -13.371  0.00  0.00     0.253 C 
ATOM      2  C   UNL d   1       7.960   3.893 -13.320  0.00  0.00     0.182 C 
ATOM      3  O   UNL d   1       7.828   3.252 -14.558  0.00  0.00    -0.329 OA
ATOM      4  C   UNL d   1       8.973   2.999 -15.276  0.00  0.00     0.093 A 
ATOM      5  C   UNL d   1      10.213   3.620 -14.977  0.00  0.00     0.002 A 
ATOM      6  C   UNL d   1      11.366   3.290 -15.711  0.00  0.00    -0.002 A 
ATOM      7  C   UNL d   1      11.285   2.365 -16.767  0.00  0.00    -0.000 A 
ATOM      8  C   UNL d   1      10.044   1.787 -17.104  0.00  0.00     0.005 A 
ATOM      9  C   UNL d   1       8.891   2.099 -16.358  0.00  0.00     0.061 A 
ATOM     10  C   UNL d   1      10.324   4.620 -13.853  0.00  0.00     0.064 C 
ENDROOT
BRANCH   1  11
ATOM     11  N   UNL d   1       9.027   5.798 -12.101  0.00  0.00     0.138 N 
BRANCH  11  12
ATOM     12  C   UNL d   1       9.376   4.969 -10.941  0.00  0.00     0.250 C 
BRANCH  12  13
ATOM     13  C   UNL d   1       9.848   5.793  -9.715  0.00  0.00     0.035 C 
ATOM     14  C   UNL d   1       9.691   4.974  -8.440  0.00  0.00     0.002 C 
ENDBRANCH  12  13
ENDBRANCH  11  12
BRANCH  11  15
ATOM     15  C   UNL d   1       7.774   6.497 -11.818  0.00  0.00     0.250 C 
BRANCH  15  16
ATOM     16  C   UNL d   1       7.598   7.807 -12.585  0.00  0.00     0.035 C 
ATOM     17  C   UNL d   1       8.806   8.753 -12.421  0.00  0.00     0.002 C 
ENDBRANCH  15  16
ENDBRANCH  11  15
ENDBRANCH   1  11
BRANCH   9  18
ATOM     18  C   UNL d   1       7.584   1.473 -16.741  0.00  0.00     0.199 C 
ATOM     19  O   UNL d   1       7.080   1.643 -17.844  0.00  0.00    -0.286 OA
BRANCH  18  20
ATOM     20  C   UNL d   1       6.962   0.601 -15.719  0.00  0.00     0.066 A 
ATOM     21  C   UNL d   1       5.805  -0.086 -15.959  0.00  0.00     0.126 A 
ATOM     22  O   UNL d   1       5.441  -0.821 -14.868  0.00  0.00    -0.303 OA
ATOM     23  C   UNL d   1       6.390  -0.593 -13.925  0.00  0.00     0.123 A 
ATOM     24  C   UNL d   1       7.339   0.266 -14.389  0.00  0.00     0.032 A 
ENDBRANCH  18  20
ENDBRANCH   9  18
TORSDOF 7
