REMARK  4 active torsions:
REMARK  status: ('A' for Active; 'I' for Inactive)
REMARK    1  A    between atoms: C_2  and  O_3 
REMARK    2  A    between atoms: C_2  and  C_12 
REMARK    3  A    between atoms: O_3  and  C_4 
REMARK    4  A    between atoms: C_17  and  N_18 
ROOT
ATOM      1  C   UNL d   1       9.812   3.888 -13.828  0.00  0.00     0.203 A 
ATOM      2  N   UNL d   1       9.743   2.583 -14.101  0.00  0.00    -0.039 NA
ATOM      3  C   UNL d   1      10.654   2.207 -14.978  0.00  0.00     0.785 A 
ATOM      4  N   UNL d   1      10.633   0.885 -15.325  0.00  0.00     0.063 N 
ATOM      5  N   UNL d   1      11.565   2.956 -15.587  0.00  0.00     0.134 NA
ATOM      6  C   UNL d   1      11.518   4.234 -15.207  0.00  0.00     0.744 A 
ATOM      7  N   UNL d   1      10.681   4.773 -14.328  0.00  0.00    -0.043 NA
ENDROOT
BRANCH   1   8
ATOM      8  C   UNL d   1       8.828   4.386 -12.789  0.00  0.00     0.181 C 
ATOM      9  C   UNL d   1       7.370   4.246 -13.279  0.00  0.00     0.041 C 
BRANCH   8  10
ATOM     10  O   UNL d   1       9.097   5.758 -12.434  0.00  0.00    -0.326 OA
BRANCH  10  11
ATOM     11  C   UNL d   1       9.171   6.085 -11.096  0.00  0.00     0.095 A 
ATOM     12  C   UNL d   1       9.836   7.294 -10.750  0.00  0.00     0.036 A 
ATOM     13  C   UNL d   1      10.011   7.653  -9.396  0.00  0.00     0.070 A 
ATOM     14  C   UNL d   1       9.518   6.814  -8.374  0.00  0.00     0.068 A 
ATOM     15 CL   UNL d   1      10.851   9.118  -9.006  0.00  0.00    -0.081 Cl
ATOM     16  C   UNL d   1       8.836   5.629  -8.720  0.00  0.00     0.014 A 
ATOM     17 CL   UNL d   1       9.714   7.225  -6.707  0.00  0.00    -0.082 Cl
ATOM     18  C   UNL d   1       8.635   5.286 -10.064  0.00  0.00     0.025 A 
ENDBRANCH  10  11
ENDBRANCH   8  10
ENDBRANCH   1   8
BRANCH   6  19
ATOM     19  N   UNL d   1      12.448   5.112 -15.785  0.00  0.00    -0.178 N 
ATOM     20  C   UNL d   1      13.577   4.658 -16.587  0.00  0.00     0.155 C 
ATOM     21  C   UNL d   1      13.583   5.369 -17.948  0.00  0.00     0.275 C 
ATOM     22  N   UNL d   1      13.633   6.817 -17.753  0.00  0.00     0.143 N 
ATOM     23  C   UNL d   1      12.428   7.236 -17.039  0.00  0.00     0.275 C 
ATOM     24  C   UNL d   1      13.672   7.476 -19.050  0.00  0.00     0.286 C 
ATOM     25  C   UNL d   1      12.375   6.568 -15.655  0.00  0.00     0.155 C 
ENDBRANCH   6  19
TORSDOF 4
