REMARK  11 active torsions:
REMARK  status: ('A' for Active; 'I' for Inactive)
REMARK    1  A    between atoms: C_9  and  C_10 
REMARK    2  A    between atoms: C_10  and  C_12 
REMARK    3  A    between atoms: C_12  and  N_13 
REMARK    4  A    between atoms: N_13  and  C_14 
REMARK    5  A    between atoms: C_14  and  C_15 
REMARK    6  A    between atoms: C_15  and  C_16 
REMARK    7  A    between atoms: C_20  and  C_21 
REMARK    8  A    between atoms: C_21  and  N_22 
REMARK    9  A    between atoms: N_22  and  C_23 
REMARK   10  A    between atoms: C_23  and  C_24 
REMARK   11  A    between atoms: C_24  and  C_25 
ROOT
ATOM      1  C   UNL d   1       8.129   4.849 -12.253  0.00  0.00    -0.020 C 
ATOM      2  C   UNL d   1       7.997   6.137 -12.776  0.00  0.00    -0.004 C 
ATOM      3  C   UNL d   1       8.662   7.252 -12.234  0.00  0.00    -0.001 C 
ATOM      4  C   UNL d   1       9.448   7.104 -11.085  0.00  0.00    -0.002 C 
ATOM      5  C   UNL d   1       9.518   5.819 -10.508  0.00  0.00     0.013 C 
ATOM      6  C   UNL d   1       8.986   4.694 -11.159  0.00  0.00    -0.006 C 
ENDROOT
BRANCH   1   7
ATOM      7  C   UNL d   1       7.321   3.691 -12.856  0.00  0.00     0.065 C 
BRANCH   7   8
ATOM      8  C   UNL d   1       8.176   2.675 -13.636  0.00  0.00     0.295 C 
BRANCH   8   9
ATOM      9  N   UNL d   1       8.649   3.168 -14.903  0.00  0.00     0.343 N 
BRANCH   9  10
ATOM     10  C   UNL d   1       9.477   2.192 -15.599  0.00  0.00     0.327 C 
BRANCH  10  11
ATOM     11  C   UNL d   1       9.863   2.757 -16.976  0.00  0.00     0.211 C 
ATOM     12  O   UNL d   1      10.564   1.772 -17.708  0.00  0.00    -0.216 OA
BRANCH  11  13
ATOM     13  C   UNL d   1      10.647   4.070 -16.886  0.00  0.00     0.018 A 
ATOM     14  C   UNL d   1      11.528   4.319 -15.796  0.00  0.00     0.001 A 
ATOM     15  C   UNL d   1      12.232   5.536 -15.694  0.00  0.00     0.029 A 
ATOM     16  C   UNL d   1      12.106   6.531 -16.684  0.00  0.00     0.149 A 
ATOM     17  C   UNL d   1      11.261   6.271 -17.778  0.00  0.00     0.116 A 
ATOM     18  O   UNL d   1      12.780   7.714 -16.562  0.00  0.00    -0.189 OA
ATOM     19  N   UNL d   1      11.024   7.142 -18.856  0.00  0.00    -0.200 NA
ATOM     20  C   UNL d   1      10.533   5.083 -17.869  0.00  0.00     0.052 A 
ATOM     21  C   UNL d   1      10.106   6.705 -19.797  0.00  0.00     0.311 A 
ATOM     22  O   UNL d   1       9.701   7.303 -20.790  0.00  0.00    -0.258 OA
ATOM     23  S   UNL d   1       9.521   5.071 -19.299  0.00  0.00    -0.024 SA
ENDBRANCH  11  13
ENDBRANCH  10  11
ENDBRANCH   9  10
ENDBRANCH   8   9
ENDBRANCH   7   8
ENDBRANCH   1   7
BRANCH   5  24
ATOM     24  C   UNL d   1      10.332   5.583  -9.287  0.00  0.00     0.317 C 
BRANCH  24  25
ATOM     25  N   UNL d   1       9.762   6.050  -8.057  0.00  0.00     0.344 N 
BRANCH  25  26
ATOM     26  C   UNL d   1      10.841   6.304  -7.110  0.00  0.00     0.295 C 
BRANCH  26  27
ATOM     27  C   UNL d   1      10.153   7.016  -5.932  0.00  0.00     0.066 C 
BRANCH  27  28
ATOM     28  C   UNL d   1      11.147   7.867  -5.221  0.00  0.00     0.001 A 
ATOM     29  C   UNL d   1      11.625   8.964  -5.957  0.00  0.00     0.055 A 
ATOM     30  C   UNL d   1      12.604   9.763  -5.371  0.00  0.00     0.011 A 
ATOM     31 CL   UNL d   1      11.097   9.418  -7.541  0.00  0.00    -0.083 Cl
ATOM     32  C   UNL d   1      13.038   9.563  -4.047  0.00  0.00     0.002 A 
ATOM     33  C   UNL d   1      12.588   8.495  -3.315  0.00  0.00     0.011 A 
ATOM     34  C   UNL d   1      11.669   7.634  -3.906  0.00  0.00     0.055 A 
ATOM     35 CL   UNL d   1      11.211   6.383  -2.841  0.00  0.00    -0.083 Cl
ENDBRANCH  27  28
ENDBRANCH  26  27
ENDBRANCH  25  26
ENDBRANCH  24  25
ENDBRANCH   5  24
TORSDOF 11
