REMARK  6 active torsions:
REMARK  status: ('A' for Active; 'I' for Inactive)
REMARK       I    between atoms: C_2  and  N_3 
REMARK    1  A    between atoms: C_2  and  C_27 
REMARK    2  A    between atoms: N_3  and  C_4 
REMARK    3  A    between atoms: C_7  and  C_8 
REMARK    4  A    between atoms: C_8  and  C_9 
REMARK    5  A    between atoms: C_9  and  N_10 
REMARK    6  A    between atoms: C_13  and  C_14 
ROOT
ATOM      1  C   UNL d   1       9.061   6.683  -8.814  0.00  0.00     0.107 C 
ATOM      2  C   UNL d   1       9.485   7.557 -10.029  0.00  0.00     0.024 C 
ATOM      3  C   UNL d   1       8.980   6.942 -11.350  0.00  0.00     0.002 C 
ATOM      4  C   UNL d   1       9.508   5.517 -11.519  0.00  0.00     0.002 C 
ATOM      5  C   UNL d   1       9.148   4.657 -10.284  0.00  0.00     0.002 C 
ATOM      6  C   UNL d   1       9.565   5.250  -8.951  0.00  0.00     0.024 C 
ENDROOT
BRANCH   4   7
ATOM      7  C   UNL d   1       9.017   4.889 -12.834  0.00  0.00     0.035 C 
BRANCH   7   8
ATOM      8  C   UNL d   1       9.431   3.412 -13.036  0.00  0.00     0.250 C 
BRANCH   8   9
ATOM      9  N   UNL d   1       8.836   2.803 -14.222  0.00  0.00     0.137 N 
ATOM     10  C   UNL d   1       9.449   1.489 -14.433  0.00  0.00     0.251 C 
ATOM     11  C   UNL d   1       8.974   0.879 -15.746  0.00  0.00     0.040 C 
ATOM     12  C   UNL d   1       7.452   0.721 -15.757  0.00  0.00     0.026 C 
ATOM     13  C   UNL d   1       6.830   2.053 -15.369  0.00  0.00     0.040 C 
ATOM     14  C   UNL d   1       7.389   2.643 -14.074  0.00  0.00     0.251 C 
BRANCH  12  15
ATOM     15  C   UNL d   1       6.912   0.280 -17.106  0.00  0.00    -0.024 A 
ATOM     16  C   UNL d   1       5.920  -0.712 -17.219  0.00  0.00    -0.001 A 
ATOM     17  C   UNL d   1       5.446  -1.136 -18.459  0.00  0.00     0.090 A 
ATOM     18  C   UNL d   1       5.205  -1.456 -16.141  0.00  0.00     0.061 A 
ATOM     19  C   UNL d   1       5.938  -0.597 -19.654  0.00  0.00     0.024 A 
ATOM     20  O   UNL d   1       4.492  -2.102 -18.364  0.00  0.00    -0.331 OA
ATOM     21  C   UNL d   1       6.912   0.418 -19.574  0.00  0.00     0.002 A 
ATOM     22  C   UNL d   1       7.383   0.857 -18.311  0.00  0.00    -0.004 A 
ATOM     23  C   UNL d   1       4.258  -2.339 -16.972  0.00  0.00     0.154 A 
ENDBRANCH  12  15
ENDBRANCH   8   9
ENDBRANCH   7   8
ENDBRANCH   4   7
BRANCH   1  24
ATOM     24  N   UNL d   1       9.488   7.269  -7.551  0.00  0.00    -0.236 NA
ATOM     25  C   UNL d   1      10.765   7.513  -7.225  0.00  0.00     0.275 C 
ATOM     26  O   UNL d   1      11.741   7.184  -7.886  0.00  0.00    -0.266 OA
BRANCH  25  27
ATOM     27  C   UNL d   1      10.979   8.394  -6.058  0.00  0.00     0.060 A 
ATOM     28  C   UNL d   1      11.463   7.963  -4.813  0.00  0.00     0.022 A 
ATOM     29  C   UNL d   1      11.631   8.918  -3.768  0.00  0.00     0.082 A 
ATOM     30  C   UNL d   1      11.799   6.620  -4.582  0.00  0.00     0.002 A 
ATOM     31  N   UNL d   1      11.215  10.160  -3.904  0.00  0.00    -0.244 NA
ATOM     32  C   UNL d   1      12.207   8.553  -2.538  0.00  0.00     0.019 A 
ATOM     33  C   UNL d   1      10.750  10.554  -5.093  0.00  0.00     0.099 A 
ATOM     34  C   UNL d   1      10.651   9.746  -6.207  0.00  0.00     0.025 A 
ATOM     35  C   UNL d   1      12.527   7.220  -2.310  0.00  0.00     0.002 A 
ATOM     36  C   UNL d   1      12.274   6.281  -3.323  0.00  0.00     0.000 A 
ENDBRANCH  25  27
ENDBRANCH   1  24
TORSDOF 6
