REMARK  4 active torsions:
REMARK  status: ('A' for Active; 'I' for Inactive)
REMARK    1  A    between atoms: O_2  and  C_3 
REMARK    2  A    between atoms: C_14  and  C_15 
REMARK    3  A    between atoms: C_15  and  C_16 
REMARK    4  A    between atoms: C_16  and  C_17 
ROOT
ATOM      1  C   UNL d   1       7.417   1.441 -14.491  0.00  0.00     0.119 A 
ATOM      2  C   UNL d   1       6.518   2.438 -14.045  0.00  0.00     0.022 A 
ATOM      3  C   UNL d   1       6.965   3.668 -13.532  0.00  0.00    -0.020 A 
ATOM      4  C   UNL d   1       8.353   3.906 -13.449  0.00  0.00     0.007 A 
ATOM      5  C   UNL d   1       9.270   2.925 -13.885  0.00  0.00     0.027 A 
ATOM      6  C   UNL d   1       8.807   1.706 -14.433  0.00  0.00     0.153 A 
ATOM      7  O   UNL d   1       9.704   0.751 -14.818  0.00  0.00    -0.188 OA
ATOM      8  C   UNL d   1       8.852   5.192 -12.807  0.00  0.00     0.246 C 
ATOM      9  C   UNL d   1       9.321   4.939 -11.353  0.00  0.00     0.070 C 
ATOM     10  C   UNL d   1       9.615   6.215 -10.645  0.00  0.00     0.007 C 
ATOM     11  S   UNL d   1      10.174   6.295  -8.998  0.00  0.00    -0.096 SA
ATOM     12  C   UNL d   1      10.236   8.061  -9.089  0.00  0.00     0.007 C 
ATOM     13  C   UNL d   1       9.645   8.506 -10.251  0.00  0.00    -0.000 C 
ATOM     14  C   UNL d   1       9.295   7.449 -11.128  0.00  0.00     0.013 C 
ATOM     15  C   UNL d   1       8.481   7.529 -12.371  0.00  0.00     0.277 C 
ATOM     16  N   UNL d   1       7.868   6.287 -12.880  0.00  0.00     0.144 N 
ATOM     17  C   UNL d   1       6.603   5.880 -12.250  0.00  0.00     0.256 C 
ATOM     18  C   UNL d   1       5.961   4.728 -13.075  0.00  0.00     0.061 C 
ENDROOT
BRANCH  12  19
ATOM     19  C   UNL d   1      10.752   8.872  -7.937  0.00  0.00     0.033 C 
BRANCH  19  20
ATOM     20  C   UNL d   1      11.047   8.123  -6.619  0.00  0.00     0.005 C 
BRANCH  20  21
ATOM     21  C   UNL d   1      11.729   8.966  -5.540  0.00  0.00     0.000 C 
ATOM     22  C   UNL d   1      11.993   8.110  -4.287  0.00  0.00     0.000 C 
ATOM     23  C   UNL d   1      10.956  10.243  -5.168  0.00  0.00     0.000 C 
ENDBRANCH  20  21
ENDBRANCH  19  20
ENDBRANCH  12  19
BRANCH   1  24
ATOM     24  O   UNL d   1       7.018   0.205 -14.960  0.00  0.00    -0.326 OA
ATOM     25  C   UNL d   1       5.633  -0.108 -14.955  0.00  0.00     0.181 C 
ENDBRANCH   1  24
TORSDOF 4
