REMARK  8 active torsions:
REMARK  status: ('A' for Active; 'I' for Inactive)
REMARK    1  A    between atoms: S_2  and  N_4 
REMARK    2  A    between atoms: S_2  and  C_25 
REMARK    3  A    between atoms: N_4  and  C_5 
REMARK    4  A    between atoms: C_5  and  C_6 
REMARK    5  A    between atoms: C_6  and  C_7 
REMARK    6  A    between atoms: C_7  and  C_8 
REMARK    7  A    between atoms: C_8  and  N_9 
REMARK    8  A    between atoms: C_12  and  C_13 
ROOT
ATOM      1  N   UNL d   1       9.369   5.537  -9.277  0.00  0.00     0.142 N 
ATOM      2  C   UNL d   1       9.889   6.745  -9.919  0.00  0.00     0.276 C 
ATOM      3  C   UNL d   1      10.564   7.673  -8.941  0.00  0.00     0.005 C 
ATOM      4  C   UNL d   1      10.436   7.548  -7.620  0.00  0.00    -0.021 C 
ATOM      5  C   UNL d   1       9.557   6.467  -7.032  0.00  0.00     0.061 C 
ATOM      6  C   UNL d   1       8.617   5.906  -8.088  0.00  0.00     0.255 C 
ENDROOT
BRANCH   1   7
ATOM      7  C   UNL d   1       8.460   4.859 -10.192  0.00  0.00     0.251 C 
BRANCH   7   8
ATOM      8  C   UNL d   1       9.198   4.368 -11.467  0.00  0.00     0.037 C 
BRANCH   8   9
ATOM      9  C   UNL d   1       8.209   4.044 -12.599  0.00  0.00     0.029 C 
BRANCH   9  10
ATOM     10  C   UNL d   1       8.903   3.221 -13.697  0.00  0.00     0.139 C 
BRANCH  10  11
ATOM     11  N   UNL d   1       7.931   2.783 -14.688  0.00  0.00    -0.185 NA
BRANCH  11  12
ATOM     12  S   UNL d   1       8.344   1.550 -15.809  0.00  0.00     0.281 S 
ATOM     13  O   UNL d   1       8.813   0.381 -15.015  0.00  0.00    -0.199 OA
ATOM     14  O   UNL d   1       7.238   1.433 -16.745  0.00  0.00    -0.199 OA
BRANCH  12  15
ATOM     15  C   UNL d   1       9.743   2.264 -16.658  0.00  0.00     0.105 A 
ATOM     16  C   UNL d   1      11.039   1.796 -16.389  0.00  0.00     0.014 A 
ATOM     17  C   UNL d   1      12.136   2.376 -17.049  0.00  0.00     0.012 A 
ATOM     18  C   UNL d   1      11.941   3.421 -17.972  0.00  0.00     0.058 A 
ATOM     19  C   UNL d   1      10.639   3.890 -18.241  0.00  0.00     0.012 A 
ATOM     20 CL   UNL d   1      13.302   4.122 -18.766  0.00  0.00    -0.082 Cl
ATOM     21  C   UNL d   1       9.533   3.311 -17.584  0.00  0.00     0.014 A 
ENDBRANCH  12  15
ENDBRANCH  11  12
ENDBRANCH  10  11
ENDBRANCH   9  10
ENDBRANCH   8   9
ENDBRANCH   7   8
ENDBRANCH   1   7
BRANCH   4  22
ATOM     22  C   UNL d   1      11.087   8.485  -6.710  0.00  0.00     0.017 A 
ATOM     23  C   UNL d   1      11.491   8.250  -5.391  0.00  0.00     0.020 A 
ATOM     24  C   UNL d   1      12.147   9.432  -4.985  0.00  0.00     0.082 A 
ATOM     25  C   UNL d   1      11.444   7.199  -4.464  0.00  0.00     0.013 A 
ATOM     26  N   UNL d   1      12.155  10.303  -6.029  0.00  0.00    -0.244 NA
ATOM     27  C   UNL d   1      12.716   9.571  -3.717  0.00  0.00     0.020 A 
ATOM     28  C   UNL d   1      11.481   9.746  -7.080  0.00  0.00     0.099 A 
ATOM     29  C   UNL d   1      12.636   8.563  -2.793  0.00  0.00     0.013 A 
ATOM     30  C   UNL d   1      12.010   7.408  -3.183  0.00  0.00     0.058 A 
ATOM     31 CL   UNL d   1      12.085   6.214  -2.038  0.00  0.00    -0.082 Cl
ENDBRANCH   4  22
TORSDOF 8
