REMARK  4 active torsions:
REMARK  status: ('A' for Active; 'I' for Inactive)
REMARK    1  A    between atoms: C_2  and  C_3 
REMARK    2  A    between atoms: C_2  and  N_12 
REMARK    3  A    between atoms: C_2  and  C_14 
REMARK    4  A    between atoms: C_3  and  C_4 
ROOT
ATOM      1  C   UNL d   1      11.149   7.405  -5.715  0.00  0.00    -0.018 A 
ATOM      2  C   UNL d   1      11.062   8.822  -5.589  0.00  0.00    -0.002 A 
ATOM      3  C   UNL d   1      11.395   9.469  -4.384  0.00  0.00     0.029 A 
ATOM      4  C   UNL d   1      11.903   8.731  -3.323  0.00  0.00     0.156 A 
ATOM      5  O   UNL d   1      12.188   9.375  -2.176  0.00  0.00    -0.188 OA
ATOM      6  C   UNL d   1      12.062   7.328  -3.432  0.00  0.00     0.156 A 
ATOM      7  O   UNL d   1      12.651   6.612  -2.421  0.00  0.00    -0.188 OA
ATOM      8  C   UNL d   1      11.658   6.671  -4.625  0.00  0.00     0.025 A 
ENDROOT
BRANCH   1   9
ATOM      9  C   UNL d   1      10.649   6.678  -6.965  0.00  0.00     0.061 C 
BRANCH   9  10
ATOM     10  C   UNL d   1       9.681   7.471  -7.914  0.00  0.00     0.188 C 
ATOM     11  C   UNL d   1       8.504   8.179  -7.177  0.00  0.00     0.038 C 
BRANCH  10  12
ATOM     12  N   UNL d   1       9.115   6.583  -8.993  0.00  0.00    -0.147 NA
ATOM     13  N   UNL d   1       8.653   5.299  -8.565  0.00  0.00    -0.027 N 
ENDBRANCH  10  12
BRANCH  10  14
ATOM     14  C   UNL d   1      10.547   8.456  -8.761  0.00  0.00     0.208 C 
ATOM     15  O   UNL d   1      11.767   8.596  -8.609  0.00  0.00    -0.646 OA
ATOM     16  O   UNL d   1       9.807   9.165  -9.671  0.00  0.00    -0.646 OA
ENDBRANCH  10  14
ENDBRANCH   9  10
ENDBRANCH   1   9
TORSDOF 4
