REMARK  4 active torsions:
REMARK  status: ('A' for Active; 'I' for Inactive)
REMARK    1  A    between atoms: C_2  and  C_3 
REMARK    2  A    between atoms: C_3  and  C_5 
REMARK    3  A    between atoms: C_5  and  N_6 
REMARK    4  A    between atoms: N_9  and  C_10 
ROOT
ATOM      1  N   UNL d   1      11.696   8.489  -6.377  0.00  0.00     0.144 N 
ATOM      2  C   UNL d   1      12.069   9.047  -7.678  0.00  0.00     0.274 C 
ATOM      3  C   UNL d   1      12.003   7.994  -8.797  0.00  0.00     0.137 C 
ATOM      4  N   UNL d   1      10.697   7.325  -8.807  0.00  0.00    -0.344 N 
ATOM      5  C   UNL d   1      10.239   6.836  -7.511  0.00  0.00     0.137 C 
ATOM      6  C   UNL d   1      10.345   7.929  -6.441  0.00  0.00     0.274 C 
ENDROOT
BRANCH   4   7
ATOM      7  C   UNL d   1       9.917   7.218  -9.972  0.00  0.00     0.068 A 
ATOM      8  C   UNL d   1       9.210   6.035 -10.328  0.00  0.00     0.084 A 
ATOM      9  C   UNL d   1       8.443   6.005 -11.520  0.00  0.00     0.070 A 
ATOM     10 CL   UNL d   1       9.305   4.605  -9.357  0.00  0.00    -0.080 Cl
ATOM     11  C   UNL d   1       8.388   7.126 -12.354  0.00  0.00     0.012 A 
ATOM     12 CL   UNL d   1       7.570   4.596 -11.986  0.00  0.00    -0.081 Cl
ATOM     13  C   UNL d   1       9.091   8.292 -12.016  0.00  0.00     0.002 A 
ATOM     14  C   UNL d   1       9.856   8.332 -10.839  0.00  0.00     0.018 A 
ENDBRANCH   4   7
BRANCH   1  15
ATOM     15  C   UNL d   1      11.863   9.470  -5.309  0.00  0.00     0.283 C 
BRANCH  15  16
ATOM     16  C   UNL d   1      11.711   8.887  -3.892  0.00  0.00     0.185 C 
ATOM     17  O   UNL d   1      12.173   9.815  -2.951  0.00  0.00    -0.221 OA
BRANCH  16  18
ATOM     18  C   UNL d   1      12.446   7.549  -3.656  0.00  0.00     0.035 C 
ATOM     19  C   UNL d   1      12.259   6.983  -2.244  0.00  0.00     0.003 C 
ENDBRANCH  16  18
ENDBRANCH  15  16
ENDBRANCH   1  15
TORSDOF 4
