REMARK  4 active torsions:
REMARK  status: ('A' for Active; 'I' for Inactive)
REMARK    1  A    between atoms: O_2  and  C_3 
REMARK       I    between atoms: C_3  and  N_5 
REMARK    2  A    between atoms: N_5  and  C_6 
REMARK    3  A    between atoms: C_10  and  S_11 
REMARK    4  A    between atoms: S_11  and  C_12 
ROOT
ATOM      1  C   UNL d   1       9.314   6.103  -9.607  0.00  0.00     0.755 A 
ATOM      2  N   UNL d   1       8.820   6.350  -8.403  0.00  0.00    -0.058 NA
ATOM      3  C   UNL d   1       9.625   7.397  -7.990  0.00  0.00     0.118 A 
ATOM      4  C   UNL d   1       9.589   8.210  -6.830  0.00  0.00     0.028 A 
ATOM      5  C   UNL d   1      10.661   9.098  -6.575  0.00  0.00     0.031 A 
ATOM      6  C   UNL d   1      11.749   9.188  -7.452  0.00  0.00     0.008 A 
ATOM      7  C   UNL d   1      11.755   8.475  -8.656  0.00  0.00     0.022 A 
ATOM      8  C   UNL d   1      10.687   7.613  -8.916  0.00  0.00     0.118 A 
ATOM      9  N   UNL d   1      10.412   6.781  -9.975  0.00  0.00    -0.058 NA
ENDROOT
BRANCH   5  10
ATOM     10  S   UNL d   1      10.744  10.007  -5.067  0.00  0.00    -0.087 SA
BRANCH  10  11
ATOM     11  C   UNL d   1      11.499   8.832  -3.990  0.00  0.00     0.029 A 
ATOM     12  C   UNL d   1      11.617   7.473  -4.340  0.00  0.00     0.006 A 
ATOM     13  C   UNL d   1      12.183   6.576  -3.437  0.00  0.00     0.001 A 
ATOM     14  C   UNL d   1      12.629   6.983  -2.177  0.00  0.00     0.000 A 
ATOM     15  C   UNL d   1      12.546   8.341  -1.827  0.00  0.00     0.001 A 
ATOM     16  C   UNL d   1      11.966   9.261  -2.730  0.00  0.00     0.006 A 
ENDBRANCH  10  11
ENDBRANCH   5  10
BRANCH   1  17
ATOM     17  N   UNL d   1       8.671   5.190 -10.484  0.00  0.00     0.005 NA
ATOM     18  C   UNL d   1       8.896   5.061 -11.861  0.00  0.00     0.403 C 
ATOM     19  O   UNL d   1       9.856   5.500 -12.486  0.00  0.00    -0.235 OA
BRANCH  18  20
ATOM     20  O   UNL d   1       7.953   4.327 -12.487  0.00  0.00    -0.280 OA
ATOM     21  C   UNL d   1       6.628   4.217 -11.982  0.00  0.00     0.186 C 
ENDBRANCH  18  20
ENDBRANCH   1  17
TORSDOF 4
