REMARK  1 active torsions:
REMARK  status: ('A' for Active; 'I' for Inactive)
REMARK    1  A    between atoms: C_8  and  C_9 
ROOT
ATOM      1  O   UNL d   1      13.950   7.993 -10.505  0.00  0.00    -0.190 OA
ATOM      2  C   UNL d   1      12.947   8.063  -9.598  0.00  0.00     0.131 A 
ATOM      3  C   UNL d   1      13.194   8.751  -8.414  0.00  0.00     0.027 A 
ATOM      4  C   UNL d   1      12.215   8.867  -7.435  0.00  0.00    -0.002 A 
ATOM      5  C   UNL d   1      10.962   8.287  -7.652  0.00  0.00    -0.024 A 
ATOM      6  C   UNL d   1      10.700   7.557  -8.838  0.00  0.00    -0.018 A 
ATOM      7  C   UNL d   1      11.679   7.511  -9.824  0.00  0.00     0.023 A 
ATOM      8  C   UNL d   1       9.388   6.850  -9.105  0.00  0.00     0.080 C 
ATOM      9  C   UNL d   1       9.053   5.798  -8.054  0.00  0.00     0.299 C 
ATOM     10  N   UNL d   1       8.600   6.424  -6.835  0.00  0.00     0.340 N 
ATOM     11  C   UNL d   1       9.649   7.015  -6.052  0.00  0.00     0.295 C 
ATOM     12  C   UNL d   1       9.960   8.401  -6.556  0.00  0.00     0.064 C 
ENDROOT
BRANCH   8  13
ATOM     13  C   UNL d   1       9.229   6.244 -10.503  0.00  0.00    -0.016 A 
ATOM     14  C   UNL d   1       9.459   4.876 -10.745  0.00  0.00    -0.004 A 
ATOM     15  C   UNL d   1       9.305   4.337 -12.035  0.00  0.00    -0.000 A 
ATOM     16  C   UNL d   1       8.862   5.150 -13.091  0.00  0.00    -0.000 A 
ATOM     17  C   UNL d   1       8.588   6.503 -12.842  0.00  0.00    -0.000 A 
ATOM     18  C   UNL d   1       8.829   7.059 -11.579  0.00  0.00    -0.004 A 
ENDBRANCH   8  13
TORSDOF 1
