REMARK  10 active torsions:
REMARK  status: ('A' for Active; 'I' for Inactive)
REMARK    1  A    between atoms: S_2  and  C_3 
REMARK    2  A    between atoms: C_8  and  C_9 
REMARK    3  A    between atoms: C_11  and  C_12 
REMARK    4  A    between atoms: C_12  and  N_13 
REMARK    5  A    between atoms: N_13  and  C_14 
REMARK    6  A    between atoms: C_14  and  C_15 
REMARK    7  A    between atoms: C_15  and  C_16 
REMARK    8  A    between atoms: C_16  and  C_17 
REMARK    9  A    between atoms: C_17  and  O_18 
REMARK   10  A    between atoms: O_18  and  C_19 
ROOT
ATOM      1  C   UNL d   1       8.282   4.911 -10.930  0.00  0.00     0.041 C 
ENDROOT
BRANCH   1   2
ATOM      2  C   UNL d   1       9.345   4.534 -11.971  0.00  0.00     0.290 C 
BRANCH   2   3
ATOM      3  N   UNL d   1       8.824   4.711 -13.309  0.00  0.00     0.339 N 
BRANCH   3   4
ATOM      4  C   UNL d   1       9.844   4.302 -14.261  0.00  0.00     0.290 C 
BRANCH   4   5
ATOM      5  C   UNL d   1       9.475   4.775 -15.668  0.00  0.00     0.041 A 
ATOM      6  C   UNL d   1       9.414   3.813 -16.839  0.00  0.00     0.025 A 
ATOM      7  C   UNL d   1      10.554   4.805 -16.727  0.00  0.00     0.007 A 
BRANCH   6   8
ATOM      8  C   UNL d   1       9.633   2.345 -16.611  0.00  0.00    -0.017 A 
ATOM      9  C   UNL d   1       8.752   1.586 -15.799  0.00  0.00     0.021 A 
ATOM     10  C   UNL d   1       9.062   0.238 -15.528  0.00  0.00     0.006 A 
ATOM     11  C   UNL d   1      10.204  -0.354 -16.087  0.00  0.00     0.001 A 
ATOM     12  C   UNL d   1      11.055   0.386 -16.923  0.00  0.00    -0.000 A 
ATOM     13  C   UNL d   1      10.765   1.735 -17.185  0.00  0.00    -0.004 A 
BRANCH   9  14
ATOM     14  S   UNL d   1       7.306   2.311 -15.076  0.00  0.00    -0.113 SA
ATOM     15  C   UNL d   1       6.326   1.012 -14.279  0.00  0.00     0.074 C 
ENDBRANCH   9  14
ENDBRANCH   6   8
ENDBRANCH   4   5
ENDBRANCH   3   4
ENDBRANCH   2   3
ENDBRANCH   1   2
BRANCH   1  16
ATOM     16  C   UNL d   1       8.844   4.940  -9.505  0.00  0.00     0.035 C 
BRANCH  16  17
ATOM     17  C   UNL d   1       9.846   6.083  -9.302  0.00  0.00     0.149 C 
BRANCH  17  18
ATOM     18  O   UNL d   1      10.470   5.876  -8.043  0.00  0.00    -0.331 OA
BRANCH  18  19
ATOM     19  C   UNL d   1      10.709   6.941  -7.212  0.00  0.00     0.096 A 
ATOM     20  C   UNL d   1      11.268   6.637  -5.957  0.00  0.00     0.043 A 
ATOM     21  C   UNL d   1      11.456   7.640  -4.993  0.00  0.00     0.087 A 
ATOM     22  C   UNL d   1      11.118   8.969  -5.313  0.00  0.00     0.018 A 
ATOM     23  N   UNL d   1      11.994   7.338  -3.717  0.00  0.00    -0.208 NA
ATOM     24  C   UNL d   1      10.604   9.293  -6.577  0.00  0.00     0.004 A 
ATOM     25  C   UNL d   1      11.333   9.964  -4.279  0.00  0.00     0.006 A 
ATOM     26  C   UNL d   1      10.401   8.282  -7.538  0.00  0.00     0.024 A 
ATOM     27  C   UNL d   1      11.863   9.631  -3.088  0.00  0.00     0.063 A 
ATOM     28  C   UNL d   1      12.218   8.255  -2.745  0.00  0.00     0.279 A 
ATOM     29  O   UNL d   1      12.655   7.929  -1.638  0.00  0.00    -0.265 OA
ENDBRANCH  18  19
ENDBRANCH  17  18
ENDBRANCH  16  17
ENDBRANCH   1  16
TORSDOF 10
