REMARK  3 active torsions:
REMARK  status: ('A' for Active; 'I' for Inactive)
REMARK    1  A    between atoms: C_5  and  N_6 
REMARK    2  A    between atoms: N_9  and  C_10 
REMARK    3  A    between atoms: C_10  and  C_11 
ROOT
ATOM      1  N   UNL d   1      10.044   6.447  -9.497  0.00  0.00    -0.344 N 
ATOM      2  C   UNL d   1      10.956   7.589  -9.658  0.00  0.00     0.137 C 
ATOM      3  C   UNL d   1      10.758   8.595  -8.509  0.00  0.00     0.275 C 
ATOM      4  N   UNL d   1      10.933   7.923  -7.213  0.00  0.00     0.146 N 
ATOM      5  C   UNL d   1       9.858   6.926  -7.093  0.00  0.00     0.275 C 
ATOM      6  C   UNL d   1      10.079   5.859  -8.160  0.00  0.00     0.137 C 
ENDROOT
BRANCH   1   7
ATOM      7  C   UNL d   1       9.139   5.996 -10.494  0.00  0.00     0.056 A 
ATOM      8  C   UNL d   1       8.961   6.689 -11.722  0.00  0.00     0.019 A 
ATOM      9  C   UNL d   1       8.055   6.237 -12.704  0.00  0.00     0.029 A 
ATOM     10  C   UNL d   1       7.294   5.069 -12.469  0.00  0.00     0.131 A 
ATOM     11  O   UNL d   1       6.409   4.597 -13.380  0.00  0.00    -0.190 OA
ATOM     12  C   UNL d   1       7.445   4.396 -11.267  0.00  0.00     0.029 A 
ATOM     13  C   UNL d   1       8.357   4.818 -10.292  0.00  0.00     0.019 A 
ENDBRANCH   1   7
BRANCH   4  14
ATOM     14  C   UNL d   1      10.843   8.893  -6.134  0.00  0.00     0.283 C 
BRANCH  14  15
ATOM     15  C   UNL d   1      11.398   8.399  -4.818  0.00  0.00     0.041 A 
ATOM     16  S   UNL d   1      11.851   9.574  -3.604  0.00  0.00    -0.089 SA
ATOM     17  C   UNL d   1      12.277   8.318  -2.461  0.00  0.00     0.035 A 
ATOM     18  C   UNL d   1      12.076   7.077  -3.004  0.00  0.00     0.007 A 
ATOM     19  C   UNL d   1      11.627   7.116  -4.357  0.00  0.00     0.005 A 
ENDBRANCH  14  15
ENDBRANCH   4  14
TORSDOF 3
