REMARK  9 active torsions:
REMARK  status: ('A' for Active; 'I' for Inactive)
REMARK    1  A    between atoms: S_2  and  N_4 
REMARK    2  A    between atoms: S_2  and  C_24 
REMARK    3  A    between atoms: N_4  and  C_5 
REMARK    4  A    between atoms: C_5  and  C_6 
REMARK    5  A    between atoms: C_6  and  C_7 
REMARK    6  A    between atoms: C_7  and  N_8 
REMARK    7  A    between atoms: C_11  and  C_12 
REMARK    8  A    between atoms: C_27  and  O_28 
REMARK    9  A    between atoms: O_28  and  C_29 
ROOT
ATOM      1  C   UNL d   1       7.796   6.686 -11.743  0.00  0.00     0.062 C 
ENDROOT
BRANCH   1   2
ATOM      2  C   UNL d   1       7.465   6.035 -13.087  0.00  0.00     0.141 C 
BRANCH   2   3
ATOM      3  N   UNL d   1       7.868   4.646 -13.209  0.00  0.00    -0.185 NA
BRANCH   3   4
ATOM      4  S   UNL d   1       9.524   4.287 -13.335  0.00  0.00     0.281 S 
ATOM      5  O   UNL d   1      10.247   5.518 -13.678  0.00  0.00    -0.199 OA
ATOM      6  O   UNL d   1       9.864   3.540 -12.125  0.00  0.00    -0.199 OA
BRANCH   4   7
ATOM      7  C   UNL d   1       9.606   3.202 -14.736  0.00  0.00     0.105 A 
ATOM      8  C   UNL d   1       9.303   1.842 -14.579  0.00  0.00     0.015 A 
ATOM      9  C   UNL d   1       9.368   0.992 -15.698  0.00  0.00     0.025 A 
ATOM     10  C   UNL d   1       9.750   1.517 -16.963  0.00  0.00     0.102 A 
ATOM     11  C   UNL d   1      10.079   2.883 -17.089  0.00  0.00     0.025 A 
ATOM     12  C   UNL d   1      10.009   3.728 -15.972  0.00  0.00     0.015 A 
BRANCH  10  13
ATOM     13  O   UNL d   1       9.834   0.774 -18.120  0.00  0.00    -0.253 OA
BRANCH  13  14
ATOM     14  C   UNL d   1       9.497  -0.535 -18.115  0.00  0.00     0.530 C 
ATOM     15  F   UNL d   1       9.703  -1.051 -19.350  0.00  0.00    -0.144 F 
ATOM     16  F   UNL d   1      10.262  -1.249 -17.253  0.00  0.00    -0.144 F 
ATOM     17  F   UNL d   1       8.187  -0.718 -17.815  0.00  0.00    -0.144 F 
ENDBRANCH  13  14
ENDBRANCH  10  13
ENDBRANCH   4   7
ENDBRANCH   3   4
ENDBRANCH   2   3
ENDBRANCH   1   2
BRANCH   1  18
ATOM     18  C   UNL d   1       9.256   6.611 -11.283  0.00  0.00     0.252 C 
BRANCH  18  19
ATOM     19  N   UNL d   1       9.553   7.279 -10.018  0.00  0.00     0.137 N 
ATOM     20  C   UNL d   1       8.964   6.524  -8.915  0.00  0.00     0.251 C 
ATOM     21  C   UNL d   1       9.207   7.308  -7.626  0.00  0.00     0.041 C 
ATOM     22  C   UNL d   1      10.714   7.486  -7.396  0.00  0.00     0.047 C 
ATOM     23  C   UNL d   1      11.408   8.072  -8.633  0.00  0.00     0.041 C 
ATOM     24  C   UNL d   1      11.005   7.303  -9.883  0.00  0.00     0.251 C 
BRANCH  22  25
ATOM     25  C   UNL d   1      10.961   8.364  -6.197  0.00  0.00     0.087 A 
ATOM     26  C   UNL d   1      11.445   8.047  -4.921  0.00  0.00     0.041 A 
ATOM     27  C   UNL d   1      11.463   9.212  -4.158  0.00  0.00     0.129 A 
ATOM     28  C   UNL d   1      11.850   6.819  -4.351  0.00  0.00     0.006 A 
ATOM     29  O   UNL d   1      10.988  10.216  -4.976  0.00  0.00    -0.211 OA
ATOM     30  C   UNL d   1      11.893   9.241  -2.837  0.00  0.00     0.057 A 
ATOM     31  N   UNL d   1      10.665   9.662  -6.244  0.00  0.00    -0.131 NA
ATOM     32  C   UNL d   1      12.326   8.031  -2.277  0.00  0.00     0.142 A 
ATOM     33  F   UNL d   1      12.847   8.058  -1.034  0.00  0.00    -0.204 F 
ATOM     34  C   UNL d   1      12.281   6.819  -3.007  0.00  0.00     0.030 A 
ENDBRANCH  22  25
ENDBRANCH  18  19
ENDBRANCH   1  18
TORSDOF 9
