REMARK  7 active torsions:
REMARK  status: ('A' for Active; 'I' for Inactive)
REMARK    1  A    between atoms: C_2  and  O_5 
REMARK    2  A    between atoms: O_5  and  C_6 
REMARK    3  A    between atoms: C_9  and  C_10 
REMARK    4  A    between atoms: C_10  and  N_11 
REMARK    5  A    between atoms: C_15  and  C_16 
REMARK    6  A    between atoms: C_16  and  C_17 
REMARK    7  A    between atoms: C_17  and  C_18 
ROOT
ATOM      1  N   UNL d   1       8.044   4.049 -14.045  0.00  0.00     0.147 N 
ATOM      2  C   UNL d   1       6.777   3.376 -13.794  0.00  0.00     0.283 C 
ATOM      3  C   UNL d   1       5.833   4.230 -12.933  0.00  0.00     0.178 C 
ATOM      4  O   UNL d   1       6.517   4.563 -11.733  0.00  0.00    -0.352 OA
ATOM      5  C   UNL d   1       7.703   5.316 -11.957  0.00  0.00     0.149 C 
ATOM      6  C   UNL d   1       8.659   4.462 -12.794  0.00  0.00     0.280 C 
ENDROOT
BRANCH   1   7
ATOM      7  C   UNL d   1       8.950   3.213 -14.838  0.00  0.00     0.277 C 
BRANCH   7   8
ATOM      8  C   UNL d   1      10.203   3.945 -15.279  0.00  0.00     0.011 A 
ATOM      9  C   UNL d   1      11.430   3.706 -14.634  0.00  0.00    -0.000 A 
ATOM     10  C   UNL d   1      12.589   4.391 -15.045  0.00  0.00     0.024 A 
ATOM     11  C   UNL d   1      12.549   5.327 -16.103  0.00  0.00     0.102 A 
ATOM     12  C   UNL d   1      11.301   5.580 -16.730  0.00  0.00     0.024 A 
ATOM     13  C   UNL d   1      10.143   4.887 -16.327  0.00  0.00    -0.000 A 
BRANCH  11  14
ATOM     14  O   UNL d   1      13.747   5.911 -16.463  0.00  0.00    -0.253 OA
BRANCH  14  15
ATOM     15  C   UNL d   1      13.799   6.892 -17.407  0.00  0.00     0.530 C 
ATOM     16  F   UNL d   1      15.086   7.258 -17.604  0.00  0.00    -0.144 F 
ATOM     17  F   UNL d   1      13.125   8.001 -17.014  0.00  0.00    -0.144 F 
ATOM     18  F   UNL d   1      13.327   6.475 -18.608  0.00  0.00    -0.144 F 
ENDBRANCH  14  15
ENDBRANCH  11  14
ENDBRANCH   7   8
ENDBRANCH   1   7
BRANCH   5  19
ATOM     19  C   UNL d   1       8.305   5.637 -10.593  0.00  0.00     0.036 C 
BRANCH  19  20
ATOM     20  C   UNL d   1       9.425   6.697 -10.624  0.00  0.00     0.029 C 
BRANCH  20  21
ATOM     21  C   UNL d   1       9.980   7.084  -9.256  0.00  0.00    -0.022 A 
ATOM     22  C   UNL d   1      11.183   7.822  -9.185  0.00  0.00    -0.004 A 
ATOM     23  C   UNL d   1      11.719   8.201  -7.935  0.00  0.00    -0.000 A 
ATOM     24  C   UNL d   1      11.044   7.851  -6.748  0.00  0.00    -0.000 A 
ATOM     25  C   UNL d   1       9.838   7.128  -6.815  0.00  0.00    -0.000 A 
ATOM     26  C   UNL d   1       9.307   6.744  -8.063  0.00  0.00    -0.004 A 
ENDBRANCH  20  21
ENDBRANCH  19  20
ENDBRANCH   5  19
TORSDOF 7
