REMARK  4 active torsions:
REMARK  status: ('A' for Active; 'I' for Inactive)
REMARK    1  A    between atoms: C_2  and  O_3 
REMARK    2  A    between atoms: C_2  and  C_11 
REMARK    3  A    between atoms: O_3  and  C_4 
REMARK    4  A    between atoms: C_16  and  N_17 
ROOT
ATOM      1  C   UNL d   1      10.346   7.392  -9.449  0.00  0.00     0.203 C 
ATOM      2  N   UNL d   1      11.535   7.627  -9.996  0.00  0.00    -0.039 NA
ATOM      3  C   UNL d   1      12.448   8.048  -9.149  0.00  0.00     0.785 C 
ATOM      4  N   UNL d   1      13.723   7.977  -9.648  0.00  0.00     0.063 N 
ATOM      5  N   UNL d   1      12.288   8.324  -7.886  0.00  0.00     0.134 NA
ATOM      6  C   UNL d   1      11.079   7.979  -7.441  0.00  0.00     0.744 C 
ATOM      7  N   UNL d   1      10.067   7.476  -8.153  0.00  0.00    -0.043 NA
ENDROOT
BRANCH   1   8
ATOM      8  C   UNL d   1       9.261   6.998 -10.448  0.00  0.00     0.181 C 
ATOM      9  C   UNL d   1       9.033   8.190 -11.423  0.00  0.00     0.041 C 
BRANCH   8  10
ATOM     10  O   UNL d   1       9.562   5.801 -11.181  0.00  0.00    -0.326 OA
BRANCH  10  11
ATOM     11  C   UNL d   1       8.563   5.208 -11.936  0.00  0.00     0.095 A 
ATOM     12  C   UNL d   1       8.944   4.184 -12.832  0.00  0.00     0.036 A 
ATOM     13  C   UNL d   1       7.992   3.532 -13.642  0.00  0.00     0.060 A 
ATOM     14  C   UNL d   1       6.631   3.880 -13.564  0.00  0.00     0.011 A 
ATOM     15 CL   UNL d   1       8.486   2.269 -14.709  0.00  0.00    -0.082 Cl
ATOM     16  C   UNL d   1       6.228   4.896 -12.684  0.00  0.00     0.003 A 
ATOM     17  C   UNL d   1       7.179   5.543 -11.870  0.00  0.00     0.024 A 
ENDBRANCH  10  11
ENDBRANCH   8  10
ENDBRANCH   1   8
BRANCH   6  18
ATOM     18  N   UNL d   1      10.884   8.101  -6.083  0.00  0.00    -0.178 N 
ATOM     19  C   UNL d   1      10.661   6.967  -5.203  0.00  0.00     0.155 C 
ATOM     20  C   UNL d   1      11.628   7.050  -3.988  0.00  0.00     0.275 C 
ATOM     21  N   UNL d   1      11.523   8.352  -3.320  0.00  0.00     0.143 N 
ATOM     22  C   UNL d   1      11.856   9.423  -4.254  0.00  0.00     0.275 C 
ATOM     23  C   UNL d   1      12.402   8.405  -2.168  0.00  0.00     0.286 C 
ATOM     24  C   UNL d   1      10.893   9.406  -5.463  0.00  0.00     0.155 C 
ENDBRANCH   6  18
TORSDOF 4
