REMARK  8 active torsions:
REMARK  status: ('A' for Active; 'I' for Inactive)
REMARK    1  A    between atoms: C_3  and  S_4 
REMARK    2  A    between atoms: S_4  and  C_5 
REMARK    3  A    between atoms: C_5  and  C_6 
REMARK    4  A    between atoms: C_6  and  C_7 
REMARK    5  A    between atoms: C_7  and  N_8 
REMARK    6  A    between atoms: C_12  and  C_13 
REMARK    7  A    between atoms: C_16  and  C_17 
REMARK    8  A    between atoms: C_26  and  C_27 
ROOT
ATOM      1  N   UNL d   1       9.393   5.140 -12.266  0.00  0.00     0.143 N 
ATOM      2  C   UNL d   1       9.011   6.245 -13.122  0.00  0.00     0.282 C 
ATOM      3  C   UNL d   1       8.138   7.245 -12.375  0.00  0.00     0.178 C 
ATOM      4  O   UNL d   1       8.946   7.742 -11.325  0.00  0.00    -0.348 OA
ATOM      5  C   UNL d   1       9.083   6.729 -10.335  0.00  0.00     0.171 C 
ATOM      6  C   UNL d   1       9.928   5.669 -11.016  0.00  0.00     0.284 C 
ENDROOT
BRANCH   1   7
ATOM      7  C   UNL d   1      10.354   4.273 -12.934  0.00  0.00     0.251 C 
BRANCH   7   8
ATOM      8  C   UNL d   1       9.837   3.608 -14.216  0.00  0.00     0.047 C 
BRANCH   8   9
ATOM      9  C   UNL d   1      10.835   2.616 -14.824  0.00  0.00     0.067 C 
BRANCH   9  10
ATOM     10  S   UNL d   1      10.214   1.920 -16.377  0.00  0.00    -0.075 SA
BRANCH  10  11
ATOM     11  C   UNL d   1       8.807   1.054 -15.781  0.00  0.00     0.193 A 
ATOM     12  N   UNL d   1       7.753   0.756 -16.581  0.00  0.00    -0.287 N 
ATOM     13  C   UNL d   1       7.561   1.037 -17.993  0.00  0.00     0.134 C 
ATOM     14  C   UNL d   1       6.929   0.124 -15.704  0.00  0.00     0.191 A 
ATOM     15  N   UNL d   1       7.415   0.066 -14.466  0.00  0.00    -0.126 NA
ATOM     16  N   UNL d   1       8.660   0.638 -14.520  0.00  0.00    -0.122 NA
BRANCH  14  17
ATOM     17  C   UNL d   1       5.649  -0.458 -16.048  0.00  0.00     0.147 A 
ATOM     18  S   UNL d   1       5.333  -1.222 -17.594  0.00  0.00    -0.063 SA
ATOM     19  C   UNL d   1       3.736  -1.601 -17.037  0.00  0.00     0.058 A 
ATOM     20  C   UNL d   1       3.531  -1.218 -15.739  0.00  0.00     0.107 A 
ATOM     21  N   UNL d   1       4.621  -0.539 -15.191  0.00  0.00    -0.234 NA
ENDBRANCH  14  17
ENDBRANCH  10  11
ENDBRANCH   9  10
ENDBRANCH   8   9
ENDBRANCH   7   8
ENDBRANCH   1   7
BRANCH   5  22
ATOM     22  C   UNL d   1       9.729   7.281  -9.088  0.00  0.00     0.007 A 
ATOM     23  C   UNL d   1      10.973   7.971  -9.170  0.00  0.00    -0.002 A 
ATOM     24  C   UNL d   1      11.564   8.506  -8.011  0.00  0.00     0.004 A 
ATOM     25  C   UNL d   1      10.917   8.399  -6.764  0.00  0.00     0.071 A 
ATOM     26  C   UNL d   1       9.691   7.720  -6.686  0.00  0.00     0.004 A 
ATOM     27  C   UNL d   1       9.106   7.159  -7.829  0.00  0.00    -0.002 A 
BRANCH  25  28
ATOM     28  C   UNL d   1      11.522   8.990  -5.498  0.00  0.00     0.419 C 
ATOM     29  F   UNL d   1      12.621   9.691  -5.749  0.00  0.00    -0.166 F 
ATOM     30  F   UNL d   1      10.653   9.793  -4.885  0.00  0.00    -0.166 F 
ATOM     31  F   UNL d   1      11.829   7.994  -4.668  0.00  0.00    -0.166 F 
ENDBRANCH  25  28
ENDBRANCH   5  22
TORSDOF 8
