REMARK  7 active torsions:
REMARK  status: ('A' for Active; 'I' for Inactive)
REMARK    1  A    between atoms: C_5  and  O_6 
REMARK    2  A    between atoms: O_6  and  C_7 
REMARK    3  A    between atoms: C_11  and  C_12 
REMARK    4  A    between atoms: C_12  and  N_13 
REMARK    5  A    between atoms: C_16  and  C_17 
REMARK    6  A    between atoms: C_21  and  N_22 
REMARK       I    between atoms: N_22  and  C_23 
REMARK    7  A    between atoms: C_23  and  C_25 
ROOT
ATOM      1  N   UNL d   1       9.034   7.484 -11.251  0.00  0.00     0.141 N 
ATOM      2  C   UNL d   1       9.881   6.503 -11.877  0.00  0.00     0.251 C 
ATOM      3  C   UNL d   1       9.185   5.179 -12.039  0.00  0.00     0.040 C 
ATOM      4  C   UNL d   1       7.989   5.380 -12.975  0.00  0.00     0.026 C 
ATOM      5  C   UNL d   1       7.136   6.566 -12.462  0.00  0.00     0.040 C 
ATOM      6  C   UNL d   1       8.014   7.785 -12.238  0.00  0.00     0.251 C 
ENDROOT
BRANCH   1   7
ATOM      7  C   UNL d   1       9.719   8.721 -10.961  0.00  0.00     0.277 C 
BRANCH   7   8
ATOM      8  C   UNL d   1      10.678   8.721  -9.782  0.00  0.00     0.013 A 
ATOM      9  C   UNL d   1      12.039   8.312  -9.932  0.00  0.00    -0.002 A 
ATOM     10  C   UNL d   1      12.888   8.331  -8.849  0.00  0.00     0.002 A 
ATOM     11  C   UNL d   1      12.469   8.837  -7.608  0.00  0.00     0.025 A 
ATOM     12  C   UNL d   1      11.114   9.210  -7.439  0.00  0.00     0.100 A 
ATOM     13  C   UNL d   1      10.213   9.176  -8.524  0.00  0.00     0.022 A 
BRANCH  12  14
ATOM     14  O   UNL d   1      10.660   9.605  -6.220  0.00  0.00    -0.307 OA
BRANCH  14  15
ATOM     15  C   UNL d   1      11.106   8.873  -5.157  0.00  0.00     0.100 A 
ATOM     16  C   UNL d   1      11.607   9.559  -4.043  0.00  0.00     0.024 A 
ATOM     17  C   UNL d   1      12.098   8.870  -2.919  0.00  0.00    -0.002 A 
ATOM     18  C   UNL d   1      12.054   7.463  -2.904  0.00  0.00    -0.022 A 
ATOM     19  C   UNL d   1      12.516   6.686  -1.696  0.00  0.00     0.031 C 
ATOM     20  C   UNL d   1      11.541   6.771  -4.015  0.00  0.00    -0.002 A 
ATOM     21  C   UNL d   1      11.078   7.460  -5.147  0.00  0.00     0.024 A 
ENDBRANCH  14  15
ENDBRANCH  12  14
ENDBRANCH   7   8
ENDBRANCH   1   7
BRANCH   4  22
ATOM     22  C   UNL d   1       7.198   4.098 -13.115  0.00  0.00    -0.021 A 
ATOM     23  C   UNL d   1       7.513   3.190 -14.142  0.00  0.00     0.015 A 
ATOM     24  C   UNL d   1       6.777   1.998 -14.272  0.00  0.00     0.084 A 
ATOM     25  C   UNL d   1       5.752   1.698 -13.341  0.00  0.00     0.019 A 
ATOM     26  C   UNL d   1       5.439   2.615 -12.331  0.00  0.00     0.001 A 
ATOM     27  C   UNL d   1       6.176   3.790 -12.190  0.00  0.00    -0.004 A 
BRANCH  24  28
ATOM     28  N   UNL d   1       7.131   1.145 -15.332  0.00  0.00    -0.212 NA
ATOM     29  C   UNL d   1       6.441   0.130 -15.879  0.00  0.00     0.255 C 
ATOM     30  O   UNL d   1       5.350  -0.280 -15.486  0.00  0.00    -0.270 OA
BRANCH  29  31
ATOM     31  C   UNL d   1       7.110  -0.541 -17.081  0.00  0.00     0.081 C 
ATOM     32  C   UNL d   1       8.649  -0.354 -17.121  0.00  0.00     0.010 C 
ATOM     33  C   UNL d   1       6.431  -0.137 -18.389  0.00  0.00     0.010 C 
ENDBRANCH  29  31
ENDBRANCH  24  28
ENDBRANCH   4  22
TORSDOF 7
