REMARK  6 active torsions:
REMARK  status: ('A' for Active; 'I' for Inactive)
REMARK       I    between atoms: C_2  and  N_3 
REMARK    1  A    between atoms: C_2  and  C_27 
REMARK    2  A    between atoms: N_3  and  C_4 
REMARK    3  A    between atoms: C_7  and  C_8 
REMARK    4  A    between atoms: C_8  and  C_9 
REMARK    5  A    between atoms: C_9  and  N_10 
REMARK    6  A    between atoms: C_13  and  C_14 
ROOT
ATOM      1  C   UNL d   1       8.746   5.294 -10.493  0.00  0.00     0.250 C 
ENDROOT
BRANCH   1   2
ATOM      2  C   UNL d   1       9.244   5.678 -11.904  0.00  0.00     0.035 C 
BRANCH   2   3
ATOM      3  C   UNL d   1       9.410   4.457 -12.834  0.00  0.00     0.002 C 
ATOM      4  C   UNL d   1       8.106   4.189 -13.604  0.00  0.00     0.002 C 
ATOM      5  C   UNL d   1       8.250   2.987 -14.537  0.00  0.00     0.024 C 
ATOM      6  C   UNL d   1       9.429   3.190 -15.514  0.00  0.00     0.106 C 
ATOM      7  C   UNL d   1      10.741   3.445 -14.758  0.00  0.00     0.024 C 
ATOM      8  C   UNL d   1      10.590   4.641 -13.812  0.00  0.00     0.002 C 
BRANCH   6   9
ATOM      9  N   UNL d   1       9.589   2.020 -16.359  0.00  0.00    -0.240 NA
ATOM     10  C   UNL d   1       8.832   1.714 -17.422  0.00  0.00     0.253 C 
ATOM     11  O   UNL d   1       7.860   2.386 -17.780  0.00  0.00    -0.271 OA
BRANCH  10  12
ATOM     12  C   UNL d   1       9.255   0.475 -18.220  0.00  0.00     0.113 C 
ATOM     13  C   UNL d   1       9.747  -0.679 -17.340  0.00  0.00     0.152 C 
ATOM     14  O   UNL d   1       9.436  -1.877 -18.037  0.00  0.00    -0.354 OA
ATOM     15  C   UNL d   1       8.618  -1.586 -19.173  0.00  0.00     0.143 C 
ATOM     16  C   UNL d   1       8.104  -0.166 -18.971  0.00  0.00     0.044 C 
ENDBRANCH  10  12
ENDBRANCH   6   9
ENDBRANCH   2   3
ENDBRANCH   1   2
BRANCH   1  17
ATOM     17  N   UNL d   1       9.151   6.248  -9.455  0.00  0.00     0.137 N 
ATOM     18  C   UNL d   1       8.672   5.765  -8.154  0.00  0.00     0.251 C 
ATOM     19  C   UNL d   1       9.007   6.772  -7.039  0.00  0.00     0.040 C 
ATOM     20  C   UNL d   1      10.519   7.048  -6.981  0.00  0.00     0.028 C 
ATOM     21  C   UNL d   1      11.015   7.443  -8.369  0.00  0.00     0.040 C 
ATOM     22  C   UNL d   1      10.608   6.403  -9.403  0.00  0.00     0.251 C 
BRANCH  20  23
ATOM     23  C   UNL d   1      10.866   8.115  -5.985  0.00  0.00     0.004 A 
ATOM     24  C   UNL d   1      11.445   7.947  -4.684  0.00  0.00     0.021 A 
ATOM     25  C   UNL d   1      11.546   9.241  -4.125  0.00  0.00     0.100 A 
ATOM     26  C   UNL d   1      11.861   6.858  -3.888  0.00  0.00     0.002 A 
ATOM     27  O   UNL d   1      11.061  10.173  -5.016  0.00  0.00    -0.305 OA
ATOM     28  C   UNL d   1      12.040   9.476  -2.839  0.00  0.00     0.025 A 
ATOM     29  C   UNL d   1      10.676   9.470  -6.121  0.00  0.00     0.118 A 
ATOM     30  C   UNL d   1      12.466   8.379  -2.070  0.00  0.00     0.002 A 
ATOM     31  C   UNL d   1      12.366   7.070  -2.590  0.00  0.00     0.000 A 
ENDBRANCH  20  23
ENDBRANCH   1  17
TORSDOF 6
