REMARK  8 active torsions:
REMARK  status: ('A' for Active; 'I' for Inactive)
REMARK    1  A    between atoms: O_2  and  C_3 
REMARK    2  A    between atoms: C_8  and  O_9 
REMARK    3  A    between atoms: O_9  and  C_10 
REMARK    4  A    between atoms: C_10  and  C_11 
REMARK    5  A    between atoms: C_11  and  N_12 
REMARK    6  A    between atoms: N_12  and  C_13 
REMARK    7  A    between atoms: C_13  and  C_14 
REMARK    8  A    between atoms: C_14  and  C_15 
ROOT
ATOM      1  C   UNL d   1       9.858   7.295 -10.492  0.00  0.00     0.323 C 
ENDROOT
BRANCH   1   2
ATOM      2  C   UNL d   1       9.265   7.398 -11.905  0.00  0.00     0.187 C 
BRANCH   2   3
ATOM      3  O   UNL d   1       9.416   6.149 -12.578  0.00  0.00    -0.327 OA
BRANCH   3   4
ATOM      4  C   UNL d   1       8.348   5.294 -12.748  0.00  0.00     0.116 A 
ATOM      5  C   UNL d   1       8.568   4.158 -13.571  0.00  0.00     0.116 A 
ATOM      6  C   UNL d   1       7.490   3.270 -13.832  0.00  0.00     0.026 A 
ATOM      7  C   UNL d   1       6.224   3.500 -13.272  0.00  0.00     0.002 A 
ATOM      8  C   UNL d   1       6.020   4.609 -12.437  0.00  0.00     0.002 A 
ATOM      9  C   UNL d   1       7.082   5.502 -12.160  0.00  0.00     0.026 A 
BRANCH   5  10
ATOM     10  O   UNL d   1       9.837   3.983 -14.086  0.00  0.00    -0.326 OA
ATOM     11  C   UNL d   1      10.126   2.774 -14.780  0.00  0.00     0.181 C 
ENDBRANCH   5  10
ENDBRANCH   3   4
ENDBRANCH   2   3
ENDBRANCH   1   2
BRANCH   1  12
ATOM     12  N   UNL d   1       9.858   8.619  -9.902  0.00  0.00     0.342 N 
BRANCH  12  13
ATOM     13  C   UNL d   1      10.616   8.620  -8.655  0.00  0.00     0.295 C 
BRANCH  13  14
ATOM     14  C   UNL d   1       9.693   8.320  -7.463  0.00  0.00     0.065 C 
BRANCH  14  15
ATOM     15  C   UNL d   1      10.492   8.108  -6.191  0.00  0.00    -0.018 A 
ATOM     16  C   UNL d   1      10.753   9.180  -5.308  0.00  0.00     0.025 A 
ATOM     17  C   UNL d   1      11.471   8.947  -4.116  0.00  0.00     0.156 A 
ATOM     18  C   UNL d   1      11.948   7.662  -3.811  0.00  0.00     0.156 A 
ATOM     19  O   UNL d   1      11.661   9.995  -3.249  0.00  0.00    -0.188 OA
ATOM     20  C   UNL d   1      11.693   6.600  -4.699  0.00  0.00     0.029 A 
ATOM     21  O   UNL d   1      12.655   7.402  -2.670  0.00  0.00    -0.188 OA
ATOM     22  C   UNL d   1      10.972   6.824  -5.885  0.00  0.00    -0.002 A 
ENDBRANCH  14  15
ENDBRANCH  13  14
ENDBRANCH  12  13
ENDBRANCH   1  12
TORSDOF 8
