REMARK  6 active torsions:
REMARK  status: ('A' for Active; 'I' for Inactive)
REMARK    1  A    between atoms: O_2  and  C_3 
REMARK    2  A    between atoms: C_3  and  C_4 
REMARK    3  A    between atoms: C_3  and  C_17 
REMARK    4  A    between atoms: C_4  and  N_5 
REMARK    5  A    between atoms: N_8  and  C_9 
REMARK    6  A    between atoms: C_17  and  C_20 
ROOT
ATOM      1  C   UNL d   1       8.991   3.589 -15.342  0.00  0.00     0.191 C 
ENDROOT
BRANCH   1   2
ATOM      2  O   UNL d   1       9.472   3.911 -16.660  0.00  0.00    -0.346 OA
ATOM      3  C   UNL d   1       9.400   5.276 -17.102  0.00  0.00     0.175 C 
ENDBRANCH   1   2
BRANCH   1   4
ATOM      4  C   UNL d   1       9.778   4.369 -14.303  0.00  0.00     0.286 C 
BRANCH   4   5
ATOM      5  N   UNL d   1       9.140   4.441 -13.003  0.00  0.00     0.144 N 
ATOM      6  C   UNL d   1      10.217   4.512 -12.055  0.00  0.00     0.274 C 
ATOM      7  C   UNL d   1       9.828   4.616 -10.560  0.00  0.00     0.138 C 
ATOM      8  N   UNL d   1       8.861   5.668 -10.411  0.00  0.00    -0.330 N 
ATOM      9  C   UNL d   1       7.779   5.796 -11.394  0.00  0.00     0.138 C 
ATOM     10  C   UNL d   1       8.334   5.640 -12.820  0.00  0.00     0.274 C 
BRANCH   8  11
ATOM     11  C   UNL d   1       9.125   6.614  -9.422  0.00  0.00     0.140 A 
ATOM     12  N   UNL d   1       8.822   6.252  -8.157  0.00  0.00    -0.227 NA
ATOM     13  C   UNL d   1       8.928   7.190  -7.192  0.00  0.00     0.101 A 
ATOM     14  C   UNL d   1       9.428   8.478  -7.427  0.00  0.00     0.021 A 
ATOM     15  C   UNL d   1       9.834   8.812  -8.732  0.00  0.00     0.005 A 
ATOM     16  C   UNL d   1       9.700   7.856  -9.755  0.00  0.00     0.037 A 
ENDBRANCH   8  11
ENDBRANCH   4   5
ENDBRANCH   1   4
BRANCH   1  17
ATOM     17  C   UNL d   1       8.954   2.053 -15.066  0.00  0.00     0.117 C 
ATOM     18  N   UNL d   1       9.964   1.285 -15.246  0.00  0.00    -0.098 NA
ATOM     19  O   UNL d   1      11.074   2.030 -15.744  0.00  0.00    -0.061 OA
BRANCH  17  20
ATOM     20  C   UNL d   1       7.643   1.470 -14.583  0.00  0.00     0.018 A 
ATOM     21  C   UNL d   1       6.665   2.244 -13.905  0.00  0.00    -0.003 A 
ATOM     22  C   UNL d   1       5.469   1.676 -13.430  0.00  0.00    -0.022 A 
ATOM     23  C   UNL d   1       5.200   0.311 -13.628  0.00  0.00    -0.004 A 
ATOM     24  C   UNL d   1       4.518   2.590 -12.699  0.00  0.00     0.031 C 
ATOM     25  C   UNL d   1       6.155  -0.486 -14.288  0.00  0.00    -0.000 A 
ATOM     26  C   UNL d   1       7.355   0.095 -14.766  0.00  0.00     0.001 A 
ENDBRANCH  17  20
ENDBRANCH   1  17
TORSDOF 6
