REMARK  1 active torsions:
REMARK  status: ('A' for Active; 'I' for Inactive)
REMARK    1  A    between atoms: C_2  and  C_3 
ROOT
ATOM      1  C   UNL d   1      11.015   7.077  -7.519  0.00  0.00     0.082 A 
ATOM      2  C   UNL d   1      11.703   6.553  -6.239  0.00  0.00     0.010 C 
ATOM      3  C   UNL d   1      10.629   5.901  -8.439  0.00  0.00     0.099 A 
ATOM      4  C   UNL d   1       9.117   5.949  -8.476  0.00  0.00     0.259 A 
ATOM      5  O   UNL d   1       8.449   5.172  -9.150  0.00  0.00    -0.270 OA
ATOM      6  N   UNL d   1       8.671   6.930  -7.714  0.00  0.00    -0.177 NA
ATOM      7  C   UNL d   1       9.634   7.644  -7.152  0.00  0.00     0.258 A 
ATOM      8  O   UNL d   1       9.472   8.639  -6.448  0.00  0.00    -0.270 OA
ENDROOT
BRANCH   1   9
ATOM      9  C   UNL d   1      11.918   8.121  -8.241  0.00  0.00     0.009 C 
ATOM     10  C   UNL d   1      11.299   8.795  -9.481  0.00  0.00     0.001 C 
ENDBRANCH   1   9
TORSDOF 1
