REMARK  8 active torsions:
REMARK  status: ('A' for Active; 'I' for Inactive)
REMARK    1  A    between atoms: O_2  and  C_3 
REMARK    2  A    between atoms: C_5  and  O_6 
REMARK    3  A    between atoms: C_8  and  C_9 
REMARK    4  A    between atoms: C_9  and  C_11 
REMARK    5  A    between atoms: C_11  and  C_12 
REMARK    6  A    between atoms: C_12  and  C_13 
REMARK    7  A    between atoms: C_13  and  N_14 
REMARK    8  A    between atoms: C_19  and  O_20 
ROOT
ATOM      1  C   UNL d   1      10.953   0.983 -17.072  0.00  0.00     0.098 A 
ATOM      2  C   UNL d   1       9.892   0.983 -16.131  0.00  0.00     0.049 A 
ATOM      3  C   UNL d   1       9.685   2.041 -15.246  0.00  0.00     0.101 A 
ATOM      4  C   UNL d   1      10.530   3.175 -15.325  0.00  0.00     0.079 A 
ATOM      5  C   UNL d   1      11.627   3.198 -16.238  0.00  0.00     0.101 A 
ATOM      6  C   UNL d   1      11.813   2.088 -17.109  0.00  0.00     0.049 A 
ENDROOT
BRANCH   4   7
ATOM      7  C   UNL d   1      10.312   4.301 -14.395  0.00  0.00     0.177 C 
ATOM      8  O   UNL d   1      11.243   4.789 -13.759  0.00  0.00    -0.291 OA
BRANCH   7   9
ATOM      9  C   UNL d   1       8.877   4.884 -14.280  0.00  0.00     0.071 C 
BRANCH   9  10
ATOM     10  C   UNL d   1       8.616   5.631 -12.962  0.00  0.00     0.043 C 
BRANCH  10  11
ATOM     11  C   UNL d   1       8.881   4.787 -11.689  0.00  0.00     0.251 C 
BRANCH  11  12
ATOM     12  N   UNL d   1       8.782   5.587 -10.480  0.00  0.00     0.137 N 
ATOM     13  C   UNL d   1       9.708   6.708 -10.433  0.00  0.00     0.250 C 
ATOM     14  C   UNL d   1       9.715   7.125  -8.973  0.00  0.00     0.037 C 
ATOM     15  C   UNL d   1       9.310   5.865  -8.216  0.00  0.00     0.037 C 
ATOM     16  C   UNL d   1       9.115   4.806  -9.303  0.00  0.00     0.250 C 
ENDBRANCH  11  12
ENDBRANCH  10  11
ENDBRANCH   9  10
ENDBRANCH   7   9
ENDBRANCH   4   7
BRANCH   3  17
ATOM     17  O   UNL d   1       8.705   1.940 -14.274  0.00  0.00    -0.328 OA
ATOM     18  C   UNL d   1       7.680   0.971 -14.414  0.00  0.00     0.181 C 
ENDBRANCH   3  17
BRANCH   5  19
ATOM     19  O   UNL d   1      12.441   4.322 -16.220  0.00  0.00    -0.328 OA
ATOM     20  C   UNL d   1      13.498   4.438 -17.164  0.00  0.00     0.181 C 
ENDBRANCH   5  19
BRANCH   1  21
ATOM     21  O   UNL d   1      11.216  -0.058 -17.944  0.00  0.00    -0.328 OA
ATOM     22  C   UNL d   1      10.323  -1.187 -17.899  0.00  0.00     0.181 C 
ENDBRANCH   1  21
TORSDOF 8
