REMARK  7 active torsions:
REMARK  status: ('A' for Active; 'I' for Inactive)
REMARK    1  A    between atoms: C_2  and  C_3 
REMARK       I    between atoms: C_3  and  N_5 
REMARK    2  A    between atoms: N_5  and  C_6 
REMARK    3  A    between atoms: C_6  and  C_7 
REMARK    4  A    between atoms: C_7  and  C_8 
REMARK    5  A    between atoms: C_8  and  C_9 
REMARK    6  A    between atoms: C_9  and  N_10 
REMARK    7  A    between atoms: N_13  and  C_14 
ROOT
ATOM      1  N   UNL d   1       9.489   6.516 -10.849  0.00  0.00     0.141 N 
ATOM      2  C   UNL d   1       8.283   6.754 -11.658  0.00  0.00     0.274 C 
ATOM      3  C   UNL d   1       8.373   6.023 -13.003  0.00  0.00     0.137 C 
ATOM      4  N   UNL d   1       8.621   4.622 -12.764  0.00  0.00    -0.344 N 
ATOM      5  C   UNL d   1       9.713   4.295 -11.874  0.00  0.00     0.137 C 
ATOM      6  C   UNL d   1       9.525   5.083 -10.555  0.00  0.00     0.274 C 
ENDROOT
BRANCH   1   7
ATOM      7  C   UNL d   1       9.389   7.289  -9.616  0.00  0.00     0.251 C 
BRANCH   7   8
ATOM      8  C   UNL d   1      10.700   7.404  -8.838  0.00  0.00     0.037 C 
BRANCH   8   9
ATOM      9  C   UNL d   1      10.482   8.074  -7.474  0.00  0.00     0.029 C 
BRANCH   9  10
ATOM     10  C   UNL d   1      11.659   8.981  -7.082  0.00  0.00     0.129 C 
BRANCH  10  11
ATOM     11  N   UNL d   1      11.636   9.429  -5.692  0.00  0.00    -0.238 NA
ATOM     12  C   UNL d   1      11.760   8.632  -4.619  0.00  0.00     0.251 C 
ATOM     13  O   UNL d   1      11.852   7.408  -4.693  0.00  0.00    -0.271 OA
BRANCH  12  14
ATOM     14  C   UNL d   1      11.795   9.330  -3.263  0.00  0.00     0.090 C 
ATOM     15  C   UNL d   1      11.899   8.343  -2.092  0.00  0.00     0.010 C 
ENDBRANCH  12  14
ENDBRANCH  10  11
ENDBRANCH   9  10
ENDBRANCH   8   9
ENDBRANCH   7   8
ENDBRANCH   1   7
BRANCH   4  16
ATOM     16  C   UNL d   1       7.847   3.654 -13.361  0.00  0.00     0.068 A 
ATOM     17  C   UNL d   1       8.395   2.721 -14.288  0.00  0.00     0.084 A 
ATOM     18  C   UNL d   1       7.584   1.707 -14.823  0.00  0.00     0.070 A 
ATOM     19 CL   UNL d   1      10.055   2.836 -14.768  0.00  0.00    -0.080 Cl
ATOM     20  C   UNL d   1       6.250   1.585 -14.389  0.00  0.00     0.012 A 
ATOM     21 CL   UNL d   1       8.196   0.588 -15.985  0.00  0.00    -0.081 Cl
ATOM     22  C   UNL d   1       5.709   2.478 -13.448  0.00  0.00     0.002 A 
ATOM     23  C   UNL d   1       6.485   3.543 -12.967  0.00  0.00     0.018 A 
ENDBRANCH   4  16
TORSDOF 7
