REMARK  4 active torsions:
REMARK  status: ('A' for Active; 'I' for Inactive)
REMARK    1  A    between atoms: C_11  and  C_12 
REMARK    2  A    between atoms: N_15  and  C_16 
REMARK    3  A    between atoms: C_16  and  C_17 
REMARK    4  A    between atoms: C_17  and  C_18 
ROOT
ATOM      1  C   UNL d   1       8.267   5.789 -11.694  0.00  0.00     0.011 C 
ATOM      2  C   UNL d   1       9.363   6.847 -11.956  0.00  0.00     0.036 C 
ATOM      3  C   UNL d   1       9.801   7.587 -10.693  0.00  0.00     0.250 C 
ATOM      4  N   UNL d   1      10.151   6.638  -9.633  0.00  0.00     0.137 N 
ATOM      5  C   UNL d   1       8.995   5.813  -9.284  0.00  0.00     0.250 C 
ATOM      6  C   UNL d   1       8.605   4.951 -10.451  0.00  0.00     0.036 C 
ENDROOT
BRANCH   1   7
ATOM      7  C   UNL d   1       7.978   4.901 -12.931  0.00  0.00     0.062 C 
ATOM      8  C   UNL d   1       9.124   3.947 -13.317  0.00  0.00     0.172 C 
ATOM      9  O   UNL d   1      10.290   4.190 -12.985  0.00  0.00    -0.291 OA
ATOM     10  C   UNL d   1       8.802   2.755 -14.108  0.00  0.00     0.031 A 
ATOM     11  C   UNL d   1       7.465   2.434 -14.459  0.00  0.00    -0.019 A 
ATOM     12  C   UNL d   1       9.850   1.899 -14.509  0.00  0.00     0.003 A 
ATOM     13  C   UNL d   1       7.203   1.275 -15.218  0.00  0.00    -0.004 A 
ATOM     14  C   UNL d   1       6.301   3.306 -14.017  0.00  0.00     0.027 C 
ATOM     15  C   UNL d   1       8.268   0.434 -15.618  0.00  0.00    -0.000 A 
ATOM     16  C   UNL d   1       9.596   0.741 -15.253  0.00  0.00     0.000 A 
ATOM     17  C   UNL d   1       6.633   4.156 -12.771  0.00  0.00     0.012 C 
ENDBRANCH   1   7
BRANCH   4  18
ATOM     18  C   UNL d   1      10.570   7.424  -8.488  0.00  0.00     0.255 C 
BRANCH  18  19
ATOM     19  C   UNL d   1      10.746   6.627  -7.173  0.00  0.00     0.062 C 
BRANCH  19  20
ATOM     20  C   UNL d   1      11.140   7.472  -5.979  0.00  0.00    -0.020 A 
ATOM     21  C   UNL d   1      11.503   6.819  -4.783  0.00  0.00    -0.004 A 
ATOM     22  C   UNL d   1      11.874   7.570  -3.647  0.00  0.00    -0.000 A 
ATOM     23  C   UNL d   1      11.860   8.977  -3.705  0.00  0.00    -0.000 A 
ATOM     24  C   UNL d   1      11.472   9.629  -4.894  0.00  0.00    -0.000 A 
ATOM     25  C   UNL d   1      11.119   8.884  -6.026  0.00  0.00    -0.004 A 
ENDBRANCH  19  20
ENDBRANCH  18  19
ENDBRANCH   4  18
TORSDOF 4
