REMARK  9 active torsions:
REMARK  status: ('A' for Active; 'I' for Inactive)
REMARK    1  A    between atoms: O_2  and  C_3 
REMARK    2  A    between atoms: C_8  and  N_9 
REMARK    3  A    between atoms: N_12  and  C_13 
REMARK    4  A    between atoms: C_13  and  C_14 
REMARK    5  A    between atoms: C_14  and  C_15 
REMARK    6  A    between atoms: C_15  and  C_16 
REMARK    7  A    between atoms: C_16  and  N_17 
REMARK       I    between atoms: N_17  and  C_18 
REMARK    8  A    between atoms: C_18  and  C_20 
REMARK    9  A    between atoms: C_20  and  C_21 
ROOT
ATOM      1  N   UNL d   1      10.969   7.727  -6.290  0.00  0.00    -0.343 N 
ATOM      2  C   UNL d   1      11.569   6.737  -7.178  0.00  0.00     0.137 C 
ATOM      3  C   UNL d   1      10.467   5.863  -7.792  0.00  0.00     0.274 C 
ATOM      4  N   UNL d   1       9.488   6.670  -8.492  0.00  0.00     0.141 N 
ATOM      5  C   UNL d   1       8.858   7.563  -7.518  0.00  0.00     0.274 C 
ATOM      6  C   UNL d   1       9.894   8.498  -6.897  0.00  0.00     0.137 C 
ENDROOT
BRANCH   4   7
ATOM      7  C   UNL d   1       8.475   5.777  -9.067  0.00  0.00     0.251 C 
BRANCH   7   8
ATOM      8  C   UNL d   1       8.387   5.971 -10.583  0.00  0.00     0.037 C 
BRANCH   8   9
ATOM      9  C   UNL d   1       9.299   5.009 -11.354  0.00  0.00     0.029 C 
BRANCH   9  10
ATOM     10  C   UNL d   1       8.719   4.569 -12.700  0.00  0.00     0.129 C 
BRANCH  10  11
ATOM     11  N   UNL d   1       9.625   3.648 -13.372  0.00  0.00    -0.238 NA
ATOM     12  C   UNL d   1      10.689   4.004 -14.101  0.00  0.00     0.251 C 
ATOM     13  O   UNL d   1      11.058   5.171 -14.231  0.00  0.00    -0.271 OA
BRANCH  12  14
ATOM     14  C   UNL d   1      11.452   2.872 -14.790  0.00  0.00     0.090 C 
BRANCH  14  15
ATOM     15  C   UNL d   1      10.958   2.589 -16.229  0.00  0.00     0.009 C 
ATOM     16  C   UNL d   1       9.486   2.135 -16.261  0.00  0.00     0.001 C 
ATOM     17  C   UNL d   1      11.846   1.548 -16.931  0.00  0.00     0.001 C 
ENDBRANCH  14  15
ENDBRANCH  12  14
ENDBRANCH  10  11
ENDBRANCH   9  10
ENDBRANCH   8   9
ENDBRANCH   7   8
ENDBRANCH   4   7
BRANCH   1  18
ATOM     18  C   UNL d   1      11.416   7.923  -4.991  0.00  0.00     0.079 A 
ATOM     19  C   UNL d   1      11.507   9.213  -4.386  0.00  0.00     0.110 A 
ATOM     20  C   UNL d   1      11.899   9.307  -3.038  0.00  0.00     0.026 A 
ATOM     21  C   UNL d   1      12.258   8.172  -2.289  0.00  0.00     0.002 A 
ATOM     22  C   UNL d   1      12.201   6.901  -2.884  0.00  0.00     0.002 A 
ATOM     23  C   UNL d   1      11.769   6.785  -4.220  0.00  0.00     0.019 A 
BRANCH  19  24
ATOM     24  O   UNL d   1      11.191  10.376  -5.052  0.00  0.00    -0.327 OA
ATOM     25  C   UNL d   1      11.933  10.675  -6.222  0.00  0.00     0.181 C 
ENDBRANCH  19  24
ENDBRANCH   1  18
TORSDOF 9
