REMARK  1 active torsions:
REMARK  status: ('A' for Active; 'I' for Inactive)
REMARK    1  A    between atoms: O_2  and  C_3 
ROOT
ATOM      1  C   UNL d   1       7.216   0.415 -19.468  0.00  0.00     0.094 A 
ATOM      2  C   UNL d   1       6.240   0.747 -18.503  0.00  0.00     0.024 A 
ATOM      3  C   UNL d   1       6.563   0.732 -17.135  0.00  0.00    -0.002 A 
ATOM      4  C   UNL d   1       7.861   0.395 -16.686  0.00  0.00    -0.022 A 
ATOM      5  C   UNL d   1       8.842   0.036 -17.653  0.00  0.00    -0.022 A 
ATOM      6  C   UNL d   1       8.504   0.061 -19.025  0.00  0.00     0.020 A 
ATOM      7  C   UNL d   1      10.267  -0.393 -17.301  0.00  0.00     0.061 C 
ATOM      8  C   UNL d   1      11.212   0.748 -16.876  0.00  0.00     0.255 C 
ATOM      9  N   UNL d   1      11.097   1.916 -17.751  0.00  0.00     0.139 N 
ATOM     10  C   UNL d   1      12.204   1.934 -18.698  0.00  0.00     0.285 C 
ATOM     11  C   UNL d   1      11.046   3.170 -16.996  0.00  0.00     0.251 C 
ATOM     12  C   UNL d   1       9.658   3.398 -16.354  0.00  0.00     0.040 C 
ATOM     13  C   UNL d   1       9.600   3.127 -14.836  0.00  0.00     0.028 C 
ATOM     14  C   UNL d   1       8.194   2.877 -14.312  0.00  0.00    -0.026 A 
ATOM     15  C   UNL d   1       7.544   3.936 -13.636  0.00  0.00    -0.005 A 
ATOM     16  C   UNL d   1       6.264   3.759 -13.081  0.00  0.00    -0.000 A 
ATOM     17  C   UNL d   1       5.625   2.514 -13.183  0.00  0.00    -0.000 A 
ATOM     18  C   UNL d   1       6.258   1.452 -13.858  0.00  0.00    -0.004 A 
ATOM     19  C   UNL d   1       7.535   1.619 -14.440  0.00  0.00    -0.022 A 
ATOM     20  C   UNL d   1       8.144   0.421 -15.179  0.00  0.00     0.052 C 
ENDROOT
BRANCH   1  21
ATOM     21  O   UNL d   1       6.994   0.410 -20.828  0.00  0.00    -0.328 OA
ATOM     22  C   UNL d   1       5.667   0.620 -21.288  0.00  0.00     0.181 C 
ENDBRANCH   1  21
TORSDOF 1
