REMARK  5 active torsions:
REMARK  status: ('A' for Active; 'I' for Inactive)
REMARK    1  A    between atoms: N_11  and  C_12 
REMARK    2  A    between atoms: C_12  and  C_13 
REMARK    3  A    between atoms: C_13  and  C_14 
REMARK    4  A    between atoms: C_17  and  N_18 
REMARK       I    between atoms: N_18  and  C_19 
REMARK    5  A    between atoms: C_19  and  C_21 
ROOT
ATOM      1  N   UNL d   1       7.808  -2.913 -19.240  0.00  0.00    -0.191 NA
ATOM      2  C   UNL d   1       8.148  -1.940 -18.716  0.00  0.00     0.101 C 
ATOM      3  C   UNL d   1       8.574  -0.720 -18.051  0.00  0.00     0.068 A 
ATOM      4  C   UNL d   1       9.902  -0.256 -18.157  0.00  0.00     0.010 A 
ATOM      5  C   UNL d   1      10.269   0.936 -17.511  0.00  0.00    -0.004 A 
ATOM      6  C   UNL d   1       9.339   1.685 -16.754  0.00  0.00    -0.024 A 
ATOM      7  C   UNL d   1       8.009   1.192 -16.620  0.00  0.00    -0.023 A 
ATOM      8  C   UNL d   1       7.641  -0.005 -17.281  0.00  0.00     0.006 A 
ATOM      9  C   UNL d   1       6.945   1.908 -15.827  0.00  0.00     0.061 C 
ATOM     10  C   UNL d   1       7.283   2.294 -14.396  0.00  0.00     0.255 C 
ATOM     11  N   UNL d   1       8.161   3.462 -14.316  0.00  0.00     0.138 N 
ATOM     12  C   UNL d   1       9.549   3.088 -14.620  0.00  0.00     0.255 C 
ATOM     13  C   UNL d   1       9.813   2.994 -16.124  0.00  0.00     0.061 C 
ENDROOT
BRANCH  11  14
ATOM     14  C   UNL d   1       8.095   3.965 -12.950  0.00  0.00     0.250 C 
BRANCH  14  15
ATOM     15  C   UNL d   1       8.618   5.409 -12.821  0.00  0.00     0.035 C 
BRANCH  15  16
ATOM     16  C   UNL d   1       8.642   5.929 -11.365  0.00  0.00     0.002 C 
ATOM     17  C   UNL d   1       9.513   7.184 -11.257  0.00  0.00     0.002 C 
ATOM     18  C   UNL d   1       9.689   7.728  -9.832  0.00  0.00     0.024 C 
ATOM     19  C   UNL d   1      10.091   6.635  -8.852  0.00  0.00     0.107 C 
ATOM     20  C   UNL d   1       9.199   5.407  -8.936  0.00  0.00     0.024 C 
ATOM     21  C   UNL d   1       9.126   4.863 -10.354  0.00  0.00     0.002 C 
BRANCH  19  22
ATOM     22  N   UNL d   1      10.001   7.167  -7.502  0.00  0.00    -0.236 NA
ATOM     23  C   UNL d   1      11.010   7.040  -6.642  0.00  0.00     0.275 C 
ATOM     24  O   UNL d   1      11.884   6.192  -6.785  0.00  0.00    -0.266 OA
BRANCH  23  25
ATOM     25  C   UNL d   1      11.075   8.105  -5.587  0.00  0.00     0.060 A 
ATOM     26  C   UNL d   1      11.629   7.939  -4.276  0.00  0.00     0.022 A 
ATOM     27  C   UNL d   1      11.671   9.070  -3.413  0.00  0.00     0.082 A 
ATOM     28  C   UNL d   1      12.098   6.714  -3.783  0.00  0.00     0.002 A 
ATOM     29  N   UNL d   1      11.137  10.236  -3.752  0.00  0.00    -0.244 NA
ATOM     30  C   UNL d   1      12.230   8.956  -2.126  0.00  0.00     0.019 A 
ATOM     31  C   UNL d   1      10.671  10.395  -4.989  0.00  0.00     0.099 A 
ATOM     32  C   UNL d   1      10.645   9.394  -5.949  0.00  0.00     0.025 A 
ATOM     33  C   UNL d   1      12.661   7.719  -1.655  0.00  0.00     0.002 A 
ATOM     34  C   UNL d   1      12.605   6.595  -2.484  0.00  0.00     0.000 A 
ENDBRANCH  23  25
ENDBRANCH  19  22
ENDBRANCH  15  16
ENDBRANCH  14  15
ENDBRANCH  11  14
TORSDOF 5
