REMARK  3 active torsions:
REMARK  status: ('A' for Active; 'I' for Inactive)
REMARK    1  A    between atoms: N_8  and  C_9 
REMARK    2  A    between atoms: C_9  and  C_10 
REMARK    3  A    between atoms: C_19  and  C_20 
ROOT
ATOM      1  O   UNL d   1       6.854   1.552 -18.184  0.00  0.00    -0.291 OA
ATOM      2  C   UNL d   1       7.865   1.175 -17.600  0.00  0.00     0.177 C 
ATOM      3  C   UNL d   1       9.217   1.407 -18.257  0.00  0.00     0.099 C 
ATOM      4  C   UNL d   1      10.265   1.872 -17.232  0.00  0.00     0.137 C 
ATOM      5  C   UNL d   1      11.662   1.956 -17.904  0.00  0.00     0.032 C 
ATOM      6  C   UNL d   1      12.667   2.647 -16.970  0.00  0.00     0.038 C 
ATOM      7  C   UNL d   1      12.141   3.965 -16.351  0.00  0.00     0.251 C 
ATOM      8  N   UNL d   1      10.845   3.704 -15.710  0.00  0.00     0.144 N 
ATOM      9  C   UNL d   1       9.927   3.286 -16.767  0.00  0.00     0.278 C 
ATOM     10  O   UNL d   1      10.296   0.962 -16.146  0.00  0.00    -0.331 OA
ATOM     11  C   UNL d   1       9.102   0.489 -15.652  0.00  0.00     0.119 C 
ATOM     12  C   UNL d   1       7.903   0.541 -16.255  0.00  0.00     0.059 C 
ENDROOT
BRANCH   8  13
ATOM     13  C   UNL d   1      10.352   4.905 -15.062  0.00  0.00     0.277 C 
BRANCH  13  14
ATOM     14  C   UNL d   1       9.221   4.716 -14.025  0.00  0.00     0.011 C 
ATOM     15  C   UNL d   1       9.143   5.601 -12.934  0.00  0.00    -0.002 C 
ATOM     16  C   UNL d   1       8.095   5.484 -11.963  0.00  0.00    -0.000 C 
ATOM     17  C   UNL d   1       7.082   4.501 -12.154  0.00  0.00    -0.000 C 
ATOM     18  C   UNL d   1       7.122   3.692 -13.274  0.00  0.00    -0.000 C 
ATOM     19  C   UNL d   1       8.202   3.724 -14.145  0.00  0.00    -0.002 C 
ENDBRANCH  13  14
ENDBRANCH   8  13
BRANCH  12  20
ATOM     20  C   UNL d   1       6.625   0.117 -15.601  0.00  0.00     0.005 A 
ATOM     21  C   UNL d   1       6.349   0.462 -14.258  0.00  0.00     0.003 A 
ATOM     22  C   UNL d   1       5.101   0.121 -13.702  0.00  0.00     0.030 A 
ATOM     23  C   UNL d   1       4.196  -0.681 -14.438  0.00  0.00     0.140 A 
ATOM     24  C   UNL d   1       4.511  -1.096 -15.741  0.00  0.00     0.030 A 
ATOM     25  F   UNL d   1       3.042  -1.107 -13.855  0.00  0.00    -0.204 F 
ATOM     26  C   UNL d   1       5.717  -0.681 -16.331  0.00  0.00     0.003 A 
ENDBRANCH  12  20
TORSDOF 3
