REMARK  4 active torsions:
REMARK  status: ('A' for Active; 'I' for Inactive)
REMARK    1  A    between atoms: N_11  and  C_12 
REMARK    2  A    between atoms: N_15  and  C_16 
REMARK    3  A    between atoms: N_19  and  S_20 
REMARK    4  A    between atoms: S_20  and  C_23 
ROOT
ATOM      1  C   UNL d   1       9.655   7.336  -8.788  0.00  0.00     0.094 C 
ATOM      2  C   UNL d   1      10.218   5.922  -8.869  0.00  0.00     0.058 C 
ATOM      3  C   UNL d   1       9.516   5.085  -9.943  0.00  0.00     0.252 C 
ATOM      4  N   UNL d   1       9.717   5.674 -11.285  0.00  0.00     0.135 N 
ATOM      5  C   UNL d   1       9.065   6.970 -11.274  0.00  0.00     0.252 C 
ATOM      6  C   UNL d   1       9.710   7.850 -10.255  0.00  0.00     0.058 C 
ENDROOT
BRANCH   4   7
ATOM      7  C   UNL d   1       9.082   4.852 -12.301  0.00  0.00     0.223 C 
ATOM      8  C   UNL d   1       9.186   5.591 -13.640  0.00  0.00     0.058 C 
ATOM      9  C   UNL d   1       8.666   4.762 -14.742  0.00  0.00     0.115 C 
ATOM     10  N   UNL d   1       9.324   3.477 -14.866  0.00  0.00    -0.274 N 
ATOM     11  C   UNL d   1       9.324   2.693 -13.661  0.00  0.00     0.115 C 
ATOM     12  C   UNL d   1       9.868   3.554 -12.521  0.00  0.00     0.058 C 
BRANCH  10  13
ATOM     13  S   UNL d   1       9.961   2.917 -16.373  0.00  0.00     0.264 S 
ATOM     14  O   UNL d   1      10.121   4.104 -17.232  0.00  0.00    -0.200 OA
ATOM     15  O   UNL d   1      11.104   2.058 -16.048  0.00  0.00    -0.200 OA
BRANCH  13  16
ATOM     16  C   UNL d   1       8.658   1.903 -17.091  0.00  0.00     0.103 A 
ATOM     17  C   UNL d   1       7.744   1.192 -16.281  0.00  0.00     0.013 A 
ATOM     18  C   UNL d   1       6.755   0.391 -16.878  0.00  0.00     0.001 A 
ATOM     19  C   UNL d   1       6.676   0.294 -18.279  0.00  0.00     0.000 A 
ATOM     20  C   UNL d   1       7.586   1.006 -19.088  0.00  0.00     0.001 A 
ATOM     21  C   UNL d   1       8.576   1.817 -18.495  0.00  0.00     0.013 A 
ENDBRANCH  13  16
ENDBRANCH  10  13
ENDBRANCH   4   7
BRANCH   1  22
ATOM     22  N   UNL d   1      10.435   8.175  -7.856  0.00  0.00    -0.281 N 
ATOM     23  C   UNL d   1      11.062   9.340  -8.140  0.00  0.00     0.350 A 
ATOM     24  O   UNL d   1      11.067   9.937  -9.236  0.00  0.00    -0.244 OA
ATOM     25  N   UNL d   1      11.624   9.813  -7.008  0.00  0.00    -0.191 NA
ATOM     26  C   UNL d   1      11.466   8.914  -5.980  0.00  0.00     0.102 A 
ATOM     27  C   UNL d   1      10.702   7.873  -6.507  0.00  0.00     0.082 A 
ATOM     28  C   UNL d   1      11.993   8.941  -4.677  0.00  0.00     0.028 A 
ATOM     29  C   UNL d   1      10.344   6.774  -5.728  0.00  0.00     0.019 A 
ATOM     30  C   UNL d   1      10.935   6.752  -4.434  0.00  0.00     0.008 A 
ATOM     31  C   UNL d   1      11.739   7.796  -3.905  0.00  0.00     0.036 A 
ATOM     32 BR   UNL d   1      12.280   7.707  -2.080  0.00  0.00    -0.049 Br
ENDBRANCH   1  22
TORSDOF 4
