REMARK  6 active torsions:
REMARK  status: ('A' for Active; 'I' for Inactive)
REMARK    1  A    between atoms: C_4  and  C_5 
REMARK    2  A    between atoms: C_5  and  C_6 
REMARK    3  A    between atoms: C_6  and  C_7 
REMARK    4  A    between atoms: C_12  and  O_13 
REMARK    5  A    between atoms: O_13  and  C_14 
REMARK    6  A    between atoms: C_14  and  C_15 
ROOT
ATOM      1  C   UNL d   1       8.098   3.672 -13.272  0.00  0.00     0.001 A 
ATOM      2  C   UNL d   1       6.839   3.660 -13.946  0.00  0.00    -0.002 A 
ATOM      3  C   UNL d   1       5.758   4.391 -13.444  0.00  0.00    -0.000 A 
ATOM      4  C   UNL d   1       5.899   5.151 -12.259  0.00  0.00     0.002 A 
ATOM      5  C   UNL d   1       7.130   5.167 -11.600  0.00  0.00     0.024 A 
ATOM      6  C   UNL d   1       8.225   4.415 -12.067  0.00  0.00     0.090 A 
ENDROOT
BRANCH   1   7
ATOM      7  C   UNL d   1       9.322   2.944 -13.804  0.00  0.00     0.033 C 
BRANCH   7   8
ATOM      8  C   UNL d   1       9.054   1.950 -14.968  0.00  0.00     0.031 C 
BRANCH   8   9
ATOM      9  C   UNL d   1      10.213   1.780 -15.917  0.00  0.00    -0.022 A 
ATOM     10  C   UNL d   1      10.469   0.512 -16.473  0.00  0.00    -0.004 A 
ATOM     11  C   UNL d   1      11.468   0.372 -17.447  0.00  0.00    -0.000 A 
ATOM     12  C   UNL d   1      12.231   1.489 -17.858  0.00  0.00    -0.000 A 
ATOM     13  C   UNL d   1      11.948   2.767 -17.325  0.00  0.00    -0.000 A 
ATOM     14  C   UNL d   1      10.924   2.911 -16.386  0.00  0.00    -0.004 A 
ENDBRANCH   8   9
ENDBRANCH   7   8
ENDBRANCH   1   7
BRANCH   6  15
ATOM     15  O   UNL d   1       9.433   4.339 -11.401  0.00  0.00    -0.325 OA
BRANCH  15  16
ATOM     16  C   UNL d   1       9.462   4.656 -10.001  0.00  0.00     0.194 C 
BRANCH  16  17
ATOM     17  C   UNL d   1       9.824   6.102  -9.704  0.00  0.00     0.089 A 
ATOM     18  N   UNL d   1       9.752   6.966 -10.741  0.00  0.00    -0.246 NA
ATOM     19  C   UNL d   1      10.030   8.260 -10.508  0.00  0.00     0.099 A 
ATOM     20  C   UNL d   1      10.448   8.752  -9.255  0.00  0.00     0.021 A 
ATOM     21  C   UNL d   1      10.543   7.845  -8.181  0.00  0.00     0.003 A 
ATOM     22  C   UNL d   1      10.222   6.492  -8.409  0.00  0.00     0.017 A 
ENDBRANCH  16  17
ENDBRANCH  15  16
ENDBRANCH   6  15
TORSDOF 6
