REMARK  7 active torsions:
REMARK  status: ('A' for Active; 'I' for Inactive)
REMARK    1  A    between atoms: C_6  and  C_7 
REMARK    2  A    between atoms: C_10  and  C_11 
REMARK    3  A    between atoms: C_11  and  C_12 
REMARK    4  A    between atoms: C_12  and  N_13 
REMARK    5  A    between atoms: N_16  and  C_17 
REMARK    6  A    between atoms: C_17  and  C_18 
REMARK    7  A    between atoms: C_18  and  C_20 
ROOT
ATOM      1  N   UNL d   1       7.715   4.714 -13.171  0.00  0.00     0.142 N 
ATOM      2  C   UNL d   1       6.596   3.767 -13.046  0.00  0.00     0.285 C 
ATOM      3  C   UNL d   1       6.528   2.777 -14.236  0.00  0.00     0.286 C 
ATOM      4  N   UNL d   1       7.796   2.057 -14.464  0.00  0.00     0.149 N 
ATOM      5  C   UNL d   1       8.886   3.033 -14.565  0.00  0.00     0.286 C 
ATOM      6  C   UNL d   1       8.946   3.930 -13.338  0.00  0.00     0.285 C 
ENDROOT
BRANCH   1   7
ATOM      7  C   UNL d   1       7.778   5.559 -11.980  0.00  0.00     0.255 C 
BRANCH   7   8
ATOM      8  C   UNL d   1       8.954   6.580 -11.937  0.00  0.00     0.062 C 
BRANCH   8   9
ATOM      9  C   UNL d   1       9.461   6.874 -10.537  0.00  0.00    -0.020 A 
ATOM     10  C   UNL d   1       9.905   8.173 -10.218  0.00  0.00    -0.004 A 
ATOM     11  C   UNL d   1      10.354   8.470  -8.921  0.00  0.00     0.001 A 
ATOM     12  C   UNL d   1      10.356   7.482  -7.908  0.00  0.00     0.018 A 
ATOM     13  C   UNL d   1       9.913   6.181  -8.246  0.00  0.00     0.001 A 
ATOM     14  C   UNL d   1       9.493   5.875  -9.545  0.00  0.00    -0.004 A 
BRANCH  12  15
ATOM     15  C   UNL d   1      10.813   7.769  -6.542  0.00  0.00     0.083 A 
ATOM     16  C   UNL d   1      11.339   6.783  -5.676  0.00  0.00     0.019 A 
ATOM     17  C   UNL d   1      11.772   7.137  -4.386  0.00  0.00     0.005 A 
ATOM     18  C   UNL d   1      11.701   8.489  -4.011  0.00  0.00     0.041 A 
ATOM     19  C   UNL d   1      11.177   9.394  -4.950  0.00  0.00     0.184 A 
ATOM     20  N   UNL d   1      11.049  10.723  -4.643  0.00  0.00    -0.127 N 
ATOM     21  N   UNL d   1      10.733   9.061  -6.162  0.00  0.00    -0.225 NA
ENDBRANCH  12  15
ENDBRANCH   8   9
ENDBRANCH   7   8
ENDBRANCH   1   7
BRANCH   4  22
ATOM     22  C   UNL d   1       7.715   1.155 -15.625  0.00  0.00     0.319 C 
BRANCH  22  23
ATOM     23  C   UNL d   1       8.996   0.389 -16.030  0.00  0.00     0.207 C 
ATOM     24  O   UNL d   1       9.904   0.177 -15.227  0.00  0.00    -0.289 OA
BRANCH  23  25
ATOM     25  C   UNL d   1       9.068  -0.059 -17.438  0.00  0.00     0.037 A 
ATOM     26  C   UNL d   1      10.280   0.042 -18.157  0.00  0.00     0.003 A 
ATOM     27  C   UNL d   1      10.355  -0.434 -19.481  0.00  0.00     0.000 A 
ATOM     28  C   UNL d   1       9.227  -1.036 -20.076  0.00  0.00     0.000 A 
ATOM     29  C   UNL d   1       8.025  -1.155 -19.355  0.00  0.00     0.000 A 
ATOM     30  C   UNL d   1       7.944  -0.664 -18.041  0.00  0.00     0.003 A 
ENDBRANCH  23  25
ENDBRANCH  22  23
ENDBRANCH   4  22
TORSDOF 7
