REMARK  4 active torsions:
REMARK  status: ('A' for Active; 'I' for Inactive)
REMARK    1  A    between atoms: N_3  and  C_4 
REMARK    2  A    between atoms: C_4  and  C_5 
REMARK    3  A    between atoms: C_5  and  N_6 
REMARK    4  A    between atoms: N_15  and  C_16 
ROOT
ATOM      1  O   UNL d   1      10.578   5.030 -13.383  0.00  0.00    -0.247 OA
ATOM      2  C   UNL d   1       9.370   4.782 -13.295  0.00  0.00     0.328 A 
ATOM      3  N   UNL d   1       8.485   5.516 -12.612  0.00  0.00    -0.298 N 
ATOM      4  C   UNL d   1       7.137   4.979 -12.648  0.00  0.00     0.131 A 
ATOM      5  C   UNL d   1       7.297   3.742 -13.528  0.00  0.00     0.135 A 
ATOM      6  N   UNL d   1       8.719   3.750 -13.872  0.00  0.00    -0.280 N 
ENDROOT
BRANCH   3   7
ATOM      7  C   UNL d   1       8.805   6.738 -11.884  0.00  0.00     0.141 C 
BRANCH   7   8
ATOM      8  C   UNL d   1       9.648   6.413 -10.640  0.00  0.00     0.274 C 
BRANCH   8   9
ATOM      9  N   UNL d   1       9.867   7.607  -9.820  0.00  0.00     0.137 N 
ATOM     10  C   UNL d   1       9.298   7.420  -8.474  0.00  0.00     0.219 C 
ATOM     11  C   UNL d   1       9.248   8.792  -7.769  0.00  0.00     0.033 C 
ATOM     12  C   UNL d   1      10.417   6.702  -7.735  0.00  0.00     0.035 C 
ATOM     13  C   UNL d   1      10.728   9.052  -7.435  0.00  0.00     0.004 C 
ATOM     14  C   UNL d   1      11.401   7.810  -8.039  0.00  0.00     0.035 C 
ATOM     15  C   UNL d   1      11.295   7.891  -9.570  0.00  0.00     0.250 C 
ENDBRANCH   8   9
ENDBRANCH   7   8
ENDBRANCH   3   7
BRANCH   6  16
ATOM     16  C   UNL d   1       9.330   2.746 -14.676  0.00  0.00     0.065 A 
ATOM     17  C   UNL d   1      10.373   3.067 -15.573  0.00  0.00     0.029 A 
ATOM     18  C   UNL d   1      10.987   2.070 -16.352  0.00  0.00     0.059 A 
ATOM     19  C   UNL d   1      10.561   0.732 -16.257  0.00  0.00     0.011 A 
ATOM     20 CL   UNL d   1      12.261   2.506 -17.430  0.00  0.00    -0.082 Cl
ATOM     21  C   UNL d   1       9.513   0.401 -15.379  0.00  0.00     0.002 A 
ATOM     22  C   UNL d   1       8.894   1.401 -14.599  0.00  0.00     0.017 A 
ENDBRANCH   6  16
TORSDOF 4
