REMARK  6 active torsions:
REMARK  status: ('A' for Active; 'I' for Inactive)
REMARK    1  A    between atoms: C_2  and  C_3 
REMARK    2  A    between atoms: C_3  and  C_4 
REMARK    3  A    between atoms: C_4  and  C_5 
REMARK    4  A    between atoms: C_4  and  N_15 
REMARK    5  A    between atoms: C_5  and  C_7 
REMARK    6  A    between atoms: C_10  and  O_11 
ROOT
ATOM      1  C   UNL d   1       6.681   4.692 -12.319  0.00  0.00     0.204 C 
ATOM      2  O   UNL d   1       5.542   4.358 -12.037  0.00  0.00    -0.289 OA
ENDROOT
BRANCH   1   3
ATOM      3  C   UNL d   1       7.269   6.018 -11.740  0.00  0.00     0.280 C 
BRANCH   3   4
ATOM      4  C   UNL d   1       7.249   7.125 -12.842  0.00  0.00     0.041 C 
BRANCH   4   5
ATOM      5  C   UNL d   1       5.835   7.625 -13.211  0.00  0.00     0.003 C 
ATOM      6  C   UNL d   1       5.190   8.391 -12.064  0.00  0.00     0.000 C 
ENDBRANCH   4   5
ENDBRANCH   3   4
BRANCH   3   7
ATOM      7  N   UNL d   1       8.565   5.874 -11.015  0.00  0.00     0.142 N 
ATOM      8  C   UNL d   1       9.423   7.051 -10.873  0.00  0.00     0.251 C 
ATOM      9  C   UNL d   1      10.448   6.678  -9.830  0.00  0.00     0.037 C 
ATOM     10  C   UNL d   1       9.837   5.529  -9.046  0.00  0.00     0.037 C 
ATOM     11  C   UNL d   1       8.459   5.329  -9.664  0.00  0.00     0.251 C 
ENDBRANCH   3   7
ENDBRANCH   1   3
BRANCH   1  12
ATOM     12  C   UNL d   1       7.497   3.886 -13.290  0.00  0.00     0.037 A 
ATOM     13  C   UNL d   1       8.892   4.081 -13.432  0.00  0.00     0.005 A 
ATOM     14  C   UNL d   1       9.674   3.288 -14.268  0.00  0.00     0.024 A 
ATOM     15  C   UNL d   1       9.075   2.255 -15.047  0.00  0.00     0.094 A 
ATOM     16  C   UNL d   1       7.693   2.045 -14.927  0.00  0.00     0.024 A 
ATOM     17  C   UNL d   1       6.908   2.834 -14.045  0.00  0.00     0.005 A 
BRANCH  15  18
ATOM     18  O   UNL d   1       9.776   1.440 -15.910  0.00  0.00    -0.328 OA
ATOM     19  C   UNL d   1      11.192   1.658 -15.993  0.00  0.00     0.181 C 
ENDBRANCH  15  18
ENDBRANCH   1  12
TORSDOF 6
