REMARK  3 active torsions:
REMARK  status: ('A' for Active; 'I' for Inactive)
REMARK       I    between atoms: C_2  and  N_3 
REMARK    1  A    between atoms: C_2  and  C_8 
REMARK    2  A    between atoms: N_3  and  C_4 
REMARK    3  A    between atoms: C_4  and  C_5 
ROOT
ATOM      1  C   UNL d   1      10.668   8.090  -6.720  0.00  0.00     0.139 A 
ATOM      2  C   UNL d   1      11.106   6.996  -6.012  0.00  0.00     0.025 A 
ATOM      3  C   UNL d   1      11.508   7.449  -4.731  0.00  0.00     0.019 A 
ATOM      4  C   UNL d   1      11.977   6.801  -3.572  0.00  0.00     0.002 A 
ATOM      5  C   UNL d   1      12.348   7.529  -2.421  0.00  0.00     0.000 A 
ATOM      6  C   UNL d   1      12.246   8.933  -2.417  0.00  0.00     0.002 A 
ATOM      7  C   UNL d   1      11.730   9.609  -3.544  0.00  0.00     0.019 A 
ATOM      8  C   UNL d   1      11.394   8.867  -4.700  0.00  0.00     0.082 A 
ATOM      9  N   UNL d   1      10.888   9.221  -5.941  0.00  0.00    -0.241 NA
ENDROOT
BRANCH   1  10
ATOM     10  C   UNL d   1      10.067   8.243  -8.057  0.00  0.00     0.293 C 
ATOM     11  O   UNL d   1      10.375   9.181  -8.766  0.00  0.00    -0.264 OA
ATOM     12  N   UNL d   1       9.108   7.379  -8.400  0.00  0.00    -0.233 NA
BRANCH  12  13
ATOM     13  C   UNL d   1       8.750   6.096  -7.787  0.00  0.00     0.129 C 
BRANCH  13  14
ATOM     14  C   UNL d   1       9.480   4.942  -8.438  0.00  0.00     0.025 A 
ATOM     15  C   UNL d   1       8.841   3.588  -8.449  0.00  0.00     0.002 A 
ATOM     16  C   UNL d   1       8.976   4.390  -9.736  0.00  0.00     0.002 A 
ENDBRANCH  13  14
ENDBRANCH  12  13
ENDBRANCH   1  10
TORSDOF 3
