REMARK  10 active torsions:
REMARK  status: ('A' for Active; 'I' for Inactive)
REMARK    1  A    between atoms: O_2  and  C_3 
REMARK    2  A    between atoms: C_7  and  C_8 
REMARK    3  A    between atoms: C_8  and  C_9 
REMARK    4  A    between atoms: C_9  and  C_10 
REMARK    5  A    between atoms: C_15  and  O_16 
REMARK    6  A    between atoms: O_16  and  C_17 
REMARK    7  A    between atoms: C_17  and  C_18 
REMARK    8  A    between atoms: C_18  and  C_19 
REMARK    9  A    between atoms: C_19  and  C_20 
REMARK   10  A    between atoms: C_20  and  N_21 
ROOT
ATOM      1  C   UNL d   1       8.441   4.421 -11.958  0.00  0.00     0.001 A 
ATOM      2  C   UNL d   1       7.050   4.225 -11.784  0.00  0.00    -0.002 A 
ATOM      3  C   UNL d   1       6.248   3.686 -12.813  0.00  0.00    -0.000 A 
ATOM      4  C   UNL d   1       6.854   3.386 -14.029  0.00  0.00     0.002 A 
ATOM      5  C   UNL d   1       8.223   3.650 -14.245  0.00  0.00     0.024 A 
ATOM      6  C   UNL d   1       9.045   4.168 -13.197  0.00  0.00     0.090 A 
ENDROOT
BRANCH   6   7
ATOM      7  O   UNL d   1      10.401   4.452 -13.299  0.00  0.00    -0.331 OA
BRANCH   7   8
ATOM      8  C   UNL d   1      11.036   4.555 -14.565  0.00  0.00     0.149 C 
BRANCH   8   9
ATOM      9  C   UNL d   1      11.375   3.150 -15.118  0.00  0.00     0.035 C 
BRANCH   9  10
ATOM     10  C   UNL d   1      11.908   3.193 -16.571  0.00  0.00     0.038 C 
BRANCH  10  11
ATOM     11  C   UNL d   1      12.131   1.799 -17.191  0.00  0.00     0.251 C 
BRANCH  11  12
ATOM     12  N   UNL d   1      10.944   1.098 -17.708  0.00  0.00     0.141 N 
ATOM     13  C   UNL d   1      10.055   0.583 -16.649  0.00  0.00     0.285 C 
ATOM     14  C   UNL d   1       8.838  -0.138 -17.218  0.00  0.00     0.285 C 
ATOM     15  N   UNL d   1       9.197  -1.246 -18.072  0.00  0.00     0.143 N 
ATOM     16  C   UNL d   1      10.057  -0.749 -19.146  0.00  0.00     0.285 C 
ATOM     17  C   UNL d   1       7.993  -1.883 -18.581  0.00  0.00     0.285 C 
ATOM     18  C   UNL d   1      11.312  -0.032 -18.583  0.00  0.00     0.285 C 
ENDBRANCH  11  12
ENDBRANCH  10  11
ENDBRANCH   9  10
ENDBRANCH   8   9
ENDBRANCH   7   8
ENDBRANCH   6   7
BRANCH   1  19
ATOM     19  C   UNL d   1       9.246   4.928 -10.773  0.00  0.00     0.033 C 
BRANCH  19  20
ATOM     20  C   UNL d   1       9.279   6.464 -10.755  0.00  0.00     0.031 C 
BRANCH  20  21
ATOM     21  C   UNL d   1      10.052   7.023  -9.561  0.00  0.00    -0.020 A 
ATOM     22  C   UNL d   1      11.156   7.884  -9.757  0.00  0.00    -0.004 A 
ATOM     23  C   UNL d   1      11.888   8.367  -8.661  0.00  0.00     0.002 A 
ATOM     24  C   UNL d   1      11.505   8.018  -7.352  0.00  0.00     0.024 A 
ATOM     25  C   UNL d   1      10.391   7.177  -7.135  0.00  0.00     0.094 A 
ATOM     26  C   UNL d   1       9.656   6.707  -8.241  0.00  0.00     0.020 A 
BRANCH  25  27
ATOM     27  O   UNL d   1       9.964   6.792  -5.887  0.00  0.00    -0.328 OA
ATOM     28  C   UNL d   1      10.932   6.737  -4.854  0.00  0.00     0.181 C 
ENDBRANCH  25  27
ENDBRANCH  20  21
ENDBRANCH  19  20
ENDBRANCH   1  19
TORSDOF 10
