REMARK  4 active torsions:
REMARK  status: ('A' for Active; 'I' for Inactive)
REMARK       I    between atoms: N_11  and  C_12 
REMARK    1  A    between atoms: C_12  and  C_14 
REMARK    2  A    between atoms: C_14  and  N_15 
REMARK    3  A    between atoms: N_18  and  C_19 
REMARK    4  A    between atoms: C_19  and  C_20 
ROOT
ATOM      1  N   UNL d   1       9.187   5.674 -10.723  0.00  0.00     0.151 N 
ATOM      2  C   UNL d   1      10.012   6.874 -10.958  0.00  0.00     0.286 C 
ATOM      3  C   UNL d   1       9.790   8.002  -9.960  0.00  0.00     0.286 C 
ATOM      4  N   UNL d   1       9.969   7.522  -8.573  0.00  0.00     0.146 N 
ATOM      5  C   UNL d   1       9.069   6.370  -8.364  0.00  0.00     0.286 C 
ATOM      6  C   UNL d   1       9.417   5.245  -9.346  0.00  0.00     0.286 C 
ENDROOT
BRANCH   1   7
ATOM      7  C   UNL d   1       9.429   4.606 -11.697  0.00  0.00     0.337 C 
BRANCH   7   8
ATOM      8  C   UNL d   1       8.551   4.734 -12.928  0.00  0.00     0.271 C 
ATOM      9  N   UNL d   1       7.692   3.741 -13.188  0.00  0.00    -0.300 N 
ATOM     10  C   UNL d   1       6.410   3.669 -12.405  0.00  0.00     0.089 C 
ATOM     11  C   UNL d   1       8.097   2.742 -14.133  0.00  0.00     0.058 A 
ATOM     12  C   UNL d   1       5.881   5.051 -11.951  0.00  0.00     0.025 C 
ATOM     13  C   UNL d   1       5.347   2.929 -13.228  0.00  0.00     0.027 C 
ATOM     14  C   UNL d   1       5.825   1.590 -13.806  0.00  0.00     0.030 C 
ATOM     15  C   UNL d   1       7.180   1.668 -14.463  0.00  0.00    -0.006 A 
ATOM     16  C   UNL d   1       7.595   0.693 -15.402  0.00  0.00    -0.003 A 
ATOM     17  C   UNL d   1       8.864   0.717 -15.998  0.00  0.00    -0.000 A 
ATOM     18  C   UNL d   1       9.756   1.746 -15.654  0.00  0.00     0.002 A 
ATOM     19  C   UNL d   1       9.374   2.718 -14.744  0.00  0.00     0.017 A 
ATOM     20  O   UNL d   1       8.708   5.659 -13.686  0.00  0.00    -0.270 OA
ENDBRANCH   7   8
ENDBRANCH   1   7
BRANCH   4  21
ATOM     21  C   UNL d   1       9.772   8.592  -7.616  0.00  0.00     0.277 C 
BRANCH  21  22
ATOM     22  C   UNL d   1      10.523   8.420  -6.280  0.00  0.00     0.011 A 
ATOM     23  C   UNL d   1      10.894   7.146  -5.779  0.00  0.00    -0.002 A 
ATOM     24  C   UNL d   1      11.521   7.027  -4.543  0.00  0.00     0.011 A 
ATOM     25  C   UNL d   1      11.869   8.164  -3.794  0.00  0.00     0.058 A 
ATOM     26  C   UNL d   1      11.566   9.461  -4.301  0.00  0.00     0.011 A 
ATOM     27 CL   UNL d   1      12.666   8.003  -2.267  0.00  0.00    -0.082 Cl
ATOM     28  C   UNL d   1      10.875   9.576  -5.540  0.00  0.00    -0.002 A 
ENDBRANCH  21  22
ENDBRANCH   4  21
TORSDOF 4
