REMARK  8 active torsions:
REMARK  status: ('A' for Active; 'I' for Inactive)
REMARK    1  A    between atoms: O_2  and  C_3 
REMARK    2  A    between atoms: C_8  and  N_9 
REMARK    3  A    between atoms: N_12  and  C_13 
REMARK    4  A    between atoms: C_13  and  C_14 
REMARK    5  A    between atoms: C_14  and  C_15 
REMARK    6  A    between atoms: C_15  and  C_16 
REMARK    7  A    between atoms: C_16  and  N_17 
REMARK       I    between atoms: N_17  and  C_18 
REMARK    8  A    between atoms: C_18  and  C_20 
ROOT
ATOM      1  C   UNL d   1       7.943   5.101 -11.004  0.00  0.00     0.251 C 
ENDROOT
BRANCH   1   2
ATOM      2  N   UNL d   1       8.944   5.222  -9.940  0.00  0.00     0.141 N 
ATOM      3  C   UNL d   1       8.256   5.543  -8.688  0.00  0.00     0.274 C 
ATOM      4  C   UNL d   1       9.159   5.791  -7.496  0.00  0.00     0.137 C 
ATOM      5  N   UNL d   1      10.146   6.762  -7.850  0.00  0.00    -0.343 N 
ATOM      6  C   UNL d   1      10.785   6.560  -9.119  0.00  0.00     0.137 C 
ATOM      7  C   UNL d   1       9.806   6.354 -10.261  0.00  0.00     0.274 C 
BRANCH   5   8
ATOM      8  C   UNL d   1      10.543   7.801  -7.001  0.00  0.00     0.079 A 
ATOM      9  C   UNL d   1      10.723   9.057  -7.584  0.00  0.00     0.110 A 
ATOM     10  C   UNL d   1      11.165  10.115  -6.755  0.00  0.00     0.026 A 
ATOM     11  C   UNL d   1      11.275   9.938  -5.380  0.00  0.00     0.002 A 
ATOM     12  C   UNL d   1      11.078   8.685  -4.807  0.00  0.00     0.002 A 
ATOM     13  C   UNL d   1      10.723   7.586  -5.620  0.00  0.00     0.019 A 
BRANCH   9  14
ATOM     14  O   UNL d   1      10.385   9.254  -8.899  0.00  0.00    -0.327 OA
ATOM     15  C   UNL d   1      11.330   9.903  -9.706  0.00  0.00     0.181 C 
ENDBRANCH   9  14
ENDBRANCH   5   8
ENDBRANCH   1   2
BRANCH   1  16
ATOM     16  C   UNL d   1       8.466   4.292 -12.196  0.00  0.00     0.037 C 
BRANCH  16  17
ATOM     17  C   UNL d   1       9.214   5.117 -13.246  0.00  0.00     0.029 C 
BRANCH  17  18
ATOM     18  C   UNL d   1       9.750   4.239 -14.385  0.00  0.00     0.129 C 
BRANCH  18  19
ATOM     19  N   UNL d   1      10.520   5.058 -15.314  0.00  0.00    -0.233 NA
ATOM     20  C   UNL d   1      10.465   4.976 -16.646  0.00  0.00     0.294 C 
ATOM     21  O   UNL d   1       9.725   4.196 -17.242  0.00  0.00    -0.264 OA
BRANCH  20  22
ATOM     22  C   UNL d   1      11.390   5.911 -17.347  0.00  0.00     0.158 A 
ATOM     23  N   UNL d   1      12.261   6.794 -16.711  0.00  0.00    -0.222 NA
ATOM     24  C   UNL d   1      12.899   7.437 -17.688  0.00  0.00     0.148 A 
ATOM     25  N   UNL d   1      12.479   6.965 -18.953  0.00  0.00    -0.288 N 
ATOM     26  C   UNL d   1      13.865   8.473 -17.673  0.00  0.00     0.037 A 
ATOM     27  C   UNL d   1      11.531   5.990 -18.706  0.00  0.00     0.106 A 
ATOM     28  C   UNL d   1      12.982   7.449 -20.125  0.00  0.00     0.082 A 
ATOM     29  C   UNL d   1      13.923   8.452 -20.093  0.00  0.00     0.019 A 
ATOM     30  C   UNL d   1      14.365   8.972 -18.854  0.00  0.00     0.005 A 
ENDBRANCH  20  22
ENDBRANCH  18  19
ENDBRANCH  17  18
ENDBRANCH  16  17
ENDBRANCH   1  16
TORSDOF 8
