REMARK  10 active torsions:
REMARK  status: ('A' for Active; 'I' for Inactive)
REMARK    1  A    between atoms: C_2  and  C_3 
REMARK    2  A    between atoms: C_3  and  N_4 
REMARK    3  A    between atoms: N_4  and  C_5 
REMARK    4  A    between atoms: N_4  and  C_24 
REMARK    5  A    between atoms: C_5  and  C_6 
REMARK    6  A    between atoms: C_6  and  C_7 
REMARK    7  A    between atoms: C_7  and  C_8 
REMARK    8  A    between atoms: C_8  and  N_9 
REMARK       I    between atoms: N_9  and  C_10 
REMARK    9  A    between atoms: C_10  and  C_12 
REMARK   10  A    between atoms: C_15  and  C_16 
ROOT
ATOM      1  N   UNL d   1      10.124   7.465 -10.421  0.00  0.00    -0.234 NA
ATOM      2  C   UNL d   1       9.891   8.515  -9.629  0.00  0.00     0.275 C 
ATOM      3  O   UNL d   1       9.322   9.537  -9.990  0.00  0.00    -0.266 OA
ENDROOT
BRANCH   1   4
ATOM      4  C   UNL d   1       9.387   7.190 -11.653  0.00  0.00     0.129 C 
BRANCH   4   5
ATOM      5  C   UNL d   1       9.224   5.674 -11.827  0.00  0.00     0.029 C 
BRANCH   5   6
ATOM      6  C   UNL d   1       8.473   5.298 -13.113  0.00  0.00     0.037 C 
BRANCH   6   7
ATOM      7  C   UNL d   1       8.771   3.814 -13.445  0.00  0.00     0.250 C 
BRANCH   7   8
ATOM      8  N   UNL d   1       8.773   3.591 -14.893  0.00  0.00     0.135 N 
BRANCH   8   9
ATOM      9  C   UNL d   1      10.124   3.736 -15.467  0.00  0.00     0.250 C 
BRANCH   9  10
ATOM     10  C   UNL d   1      10.583   5.196 -15.518  0.00  0.00     0.035 C 
ATOM     11  C   UNL d   1      11.951   5.445 -16.145  0.00  0.00     0.002 C 
ENDBRANCH   9  10
ENDBRANCH   8   9
BRANCH   8  12
ATOM     12  C   UNL d   1       8.177   2.315 -15.308  0.00  0.00     0.219 C 
ATOM     13  C   UNL d   1       9.029   1.121 -14.870  0.00  0.00     0.033 C 
ATOM     14  C   UNL d   1       8.389  -0.184 -15.274  0.00  0.00     0.002 C 
ATOM     15  C   UNL d   1       6.954  -0.333 -14.732  0.00  0.00     0.000 C 
ATOM     16  C   UNL d   1       6.079   0.815 -15.252  0.00  0.00     0.002 C 
ATOM     17  C   UNL d   1       6.704   2.160 -14.838  0.00  0.00     0.033 C 
ENDBRANCH   8  12
ENDBRANCH   7   8
ENDBRANCH   6   7
ENDBRANCH   5   6
ENDBRANCH   4   5
ENDBRANCH   1   4
BRANCH   2  18
ATOM     18  C   UNL d   1      10.386   8.391  -8.228  0.00  0.00     0.058 A 
ATOM     19  C   UNL d   1      10.085   7.249  -7.458  0.00  0.00     0.005 A 
ATOM     20  C   UNL d   1      10.523   7.177  -6.125  0.00  0.00     0.000 A 
ATOM     21  C   UNL d   1      11.256   8.232  -5.547  0.00  0.00     0.000 A 
ATOM     22  C   UNL d   1      11.524   9.382  -6.309  0.00  0.00     0.000 A 
ATOM     23  C   UNL d   1      11.094   9.447  -7.636  0.00  0.00     0.005 A 
BRANCH  21  24
ATOM     24  C   UNL d   1      11.744   8.139  -4.164  0.00  0.00     0.000 A 
ATOM     25  C   UNL d   1      11.794   9.290  -3.349  0.00  0.00     0.000 A 
ATOM     26  C   UNL d   1      12.236   9.193  -2.024  0.00  0.00     0.000 A 
ATOM     27  C   UNL d   1      12.649   7.971  -1.532  0.00  0.00     0.000 A 
ATOM     28  C   UNL d   1      12.578   6.806  -2.296  0.00  0.00     0.000 A 
ATOM     29  C   UNL d   1      12.130   6.896  -3.621  0.00  0.00     0.000 A 
ENDBRANCH  21  24
ENDBRANCH   2  18
TORSDOF 10
