REMARK  7 active torsions:
REMARK  status: ('A' for Active; 'I' for Inactive)
REMARK    1  A    between atoms: C_2  and  C_3 
REMARK       I    between atoms: C_2  and  N_10 
REMARK    2  A    between atoms: C_3  and  C_4 
REMARK    3  A    between atoms: N_10  and  C_11 
REMARK    4  A    between atoms: C_14  and  C_15 
REMARK    5  A    between atoms: C_15  and  C_16 
REMARK    6  A    between atoms: C_16  and  N_17 
REMARK    7  A    between atoms: N_20  and  C_21 
ROOT
ATOM      1  C   UNL d   1       8.003   4.856 -11.377  0.00  0.00     0.035 C 
ENDROOT
BRANCH   1   2
ATOM      2  C   UNL d   1       7.951   4.324 -12.821  0.00  0.00     0.002 C 
ATOM      3  C   UNL d   1       9.254   3.521 -13.101  0.00  0.00     0.002 C 
ATOM      4  C   UNL d   1       9.209   2.894 -14.497  0.00  0.00     0.024 C 
ATOM      5  C   UNL d   1       7.938   2.030 -14.729  0.00  0.00     0.106 C 
ATOM      6  C   UNL d   1       6.601   2.771 -14.374  0.00  0.00     0.024 C 
ATOM      7  C   UNL d   1       6.615   3.549 -13.031  0.00  0.00     0.002 C 
BRANCH   5   8
ATOM      8  N   UNL d   1       7.872   1.430 -16.085  0.00  0.00    -0.240 NA
ATOM      9  C   UNL d   1       8.076   2.068 -17.223  0.00  0.00     0.254 C 
ATOM     10  O   UNL d   1       8.601   3.169 -17.252  0.00  0.00    -0.271 OA
BRANCH   9  11
ATOM     11  C   UNL d   1       7.624   1.404 -18.532  0.00  0.00     0.122 C 
BRANCH  11  12
ATOM     12  C   UNL d   1       8.466   1.919 -19.744  0.00  0.00     0.154 C 
ATOM     13  O   UNL d   1       9.885   1.795 -19.566  0.00  0.00    -0.351 OA
ATOM     14  C   UNL d   1      10.338   0.454 -19.408  0.00  0.00     0.174 C 
ATOM     15  C   UNL d   1       9.880  -0.313 -20.659  0.00  0.00     0.174 C 
ATOM     16  O   UNL d   1       8.474  -0.164 -20.866  0.00  0.00    -0.349 OA
ATOM     17  C   UNL d   1       8.092   1.198 -21.038  0.00  0.00     0.172 C 
ENDBRANCH  11  12
ENDBRANCH   9  11
ENDBRANCH   5   8
ENDBRANCH   1   2
BRANCH   1  18
ATOM     18  C   UNL d   1       9.138   5.903 -11.246  0.00  0.00     0.250 C 
BRANCH  18  19
ATOM     19  N   UNL d   1       9.099   6.533  -9.944  0.00  0.00     0.141 N 
ATOM     20  C   UNL d   1       9.721   5.734  -8.897  0.00  0.00     0.274 C 
ATOM     21  C   UNL d   1       9.498   6.383  -7.512  0.00  0.00     0.138 C 
ATOM     22  N   UNL d   1       9.942   7.785  -7.543  0.00  0.00    -0.330 N 
ATOM     23  C   UNL d   1       9.373   8.586  -8.644  0.00  0.00     0.138 C 
ATOM     24  C   UNL d   1       9.613   7.905 -10.004  0.00  0.00     0.274 C 
BRANCH  22  25
ATOM     25  C   UNL d   1      10.807   8.356  -6.595  0.00  0.00     0.138 A 
ATOM     26  C   UNL d   1      11.156   7.771  -5.347  0.00  0.00     0.036 A 
ATOM     27  C   UNL d   1      12.038   8.364  -4.481  0.00  0.00     0.095 A 
ATOM     28  C   UNL d   1      10.794   6.479  -4.766  0.00  0.00     0.064 C 
ATOM     29  C   UNL d   1      12.659   9.561  -4.859  0.00  0.00     0.045 A 
ATOM     30  O   UNL d   1      12.365   7.683  -3.354  0.00  0.00    -0.331 OA
ATOM     31  C   UNL d   1      12.206  10.130  -6.063  0.00  0.00     0.103 A 
ATOM     32  N   UNL d   1      11.335   9.560  -6.910  0.00  0.00    -0.228 NA
ATOM     33  C   UNL d   1      11.460   6.565  -3.364  0.00  0.00     0.154 C 
ENDBRANCH  22  25
ENDBRANCH  18  19
ENDBRANCH   1  18
TORSDOF 7
