REMARK  7 active torsions:
REMARK  status: ('A' for Active; 'I' for Inactive)
REMARK    1  A    between atoms: C_6  and  C_7 
REMARK    2  A    between atoms: C_10  and  S_11 
REMARK    3  A    between atoms: S_11  and  C_12 
REMARK    4  A    between atoms: C_12  and  C_13 
REMARK    5  A    between atoms: C_13  and  C_14 
REMARK    6  A    between atoms: C_14  and  N_15 
REMARK    7  A    between atoms: N_20  and  C_21 
ROOT
ATOM      1  N   UNL d   1      10.513   4.932 -17.317  0.00  0.00     0.138 N 
ATOM      2  C   UNL d   1      11.757   4.692 -16.598  0.00  0.00     0.252 C 
ATOM      3  C   UNL d   1      11.336   3.806 -15.422  0.00  0.00     0.052 C 
ATOM      4  C   UNL d   1      10.880   4.539 -14.155  0.00  0.00     0.021 C 
ATOM      5  C   UNL d   1       9.657   3.741 -13.702  0.00  0.00     0.077 C 
ATOM      6  N   UNL d   1       9.028   3.299 -14.936  0.00  0.00    -0.251 NA
ATOM      7  C   UNL d   1      10.097   3.066 -15.913  0.00  0.00     0.097 C 
ATOM      8  C   UNL d   1       9.789   3.663 -17.288  0.00  0.00     0.266 C 
ENDROOT
BRANCH   1   9
ATOM      9  C   UNL d   1      10.728   5.418 -18.678  0.00  0.00     0.251 C 
BRANCH   9  10
ATOM     10  C   UNL d   1       9.389   5.715 -19.378  0.00  0.00     0.047 C 
BRANCH  10  11
ATOM     11  C   UNL d   1       9.564   6.242 -20.810  0.00  0.00     0.067 C 
BRANCH  11  12
ATOM     12  S   UNL d   1       8.083   5.986 -21.831  0.00  0.00    -0.075 SA
BRANCH  12  13
ATOM     13  C   UNL d   1       7.087   7.342 -21.299  0.00  0.00     0.193 A 
ATOM     14  N   UNL d   1       7.065   7.817 -20.053  0.00  0.00    -0.122 NA
ATOM     15  N   UNL d   1       6.136   8.828 -20.062  0.00  0.00    -0.126 NA
ATOM     16  C   UNL d   1       5.693   8.910 -21.317  0.00  0.00     0.191 A 
ATOM     17  N   UNL d   1       6.248   7.992 -22.132  0.00  0.00    -0.287 N 
ATOM     18  C   UNL d   1       5.985   7.760 -23.542  0.00  0.00     0.134 C 
BRANCH  16  19
ATOM     19  C   UNL d   1       4.704   9.901 -21.712  0.00  0.00     0.151 A 
ATOM     20  C   UNL d   1       4.792  11.049 -22.465  0.00  0.00     0.087 A 
ATOM     21  C   UNL d   1       5.968  11.653 -23.163  0.00  0.00     0.054 C 
ATOM     22  N   UNL d   1       3.541  11.654 -22.474  0.00  0.00    -0.221 NA
ATOM     23  C   UNL d   1       2.770  10.834 -21.765  0.00  0.00     0.225 A 
ATOM     24  O   UNL d   1       3.422   9.762 -21.256  0.00  0.00    -0.282 OA
ENDBRANCH  16  19
ENDBRANCH  12  13
ENDBRANCH  11  12
ENDBRANCH  10  11
ENDBRANCH   9  10
ENDBRANCH   1   9
BRANCH   6  25
ATOM     25  C   UNL d   1       7.984   2.348 -14.836  0.00  0.00     0.047 A 
ATOM     26  C   UNL d   1       6.831   2.579 -14.033  0.00  0.00     0.069 A 
ATOM     27  C   UNL d   1       5.858   1.578 -13.891  0.00  0.00     0.024 A 
ATOM     28 CL   UNL d   1       6.541   4.069 -13.221  0.00  0.00    -0.081 Cl
ATOM     29  C   UNL d   1       5.956   0.366 -14.585  0.00  0.00     0.059 A 
ATOM     30  C   UNL d   1       7.058   0.141 -15.421  0.00  0.00     0.013 A 
ATOM     31 CL   UNL d   1       4.699  -0.806 -14.439  0.00  0.00    -0.082 Cl
ATOM     32  C   UNL d   1       8.064   1.124 -15.539  0.00  0.00     0.013 A 
ENDBRANCH   6  25
TORSDOF 7
