REMARK  7 active torsions:
REMARK  status: ('A' for Active; 'I' for Inactive)
REMARK    1  A    between atoms: C_3  and  O_4 
REMARK    2  A    between atoms: O_4  and  N_5 
REMARK    3  A    between atoms: C_6  and  C_7 
REMARK    4  A    between atoms: C_6  and  C_21 
REMARK    5  A    between atoms: C_7  and  C_8 
REMARK    6  A    between atoms: C_8  and  N_9 
REMARK    7  A    between atoms: N_12  and  C_13 
ROOT
ATOM      1  N   UNL d   1      11.768   2.975 -16.179  0.00  0.00    -0.194 NA
ATOM      2  C   UNL d   1      11.529   4.069 -15.889  0.00  0.00     0.110 C 
ATOM      3  C   UNL d   1      11.227   5.463 -15.520  0.00  0.00     0.280 C 
ENDROOT
BRANCH   3   4
ATOM      4  O   UNL d   1      10.690   5.527 -14.220  0.00  0.00    -0.220 OA
BRANCH   4   5
ATOM      5  N   UNL d   1       9.395   5.036 -14.298  0.00  0.00    -0.135 NA
ATOM      6  C   UNL d   1       8.901   4.825 -13.161  0.00  0.00     0.087 C 
BRANCH   6   7
ATOM      7  C   UNL d   1       9.614   4.952 -11.831  0.00  0.00     0.083 C 
BRANCH   7   8
ATOM      8  C   UNL d   1       9.714   6.407 -11.290  0.00  0.00     0.257 C 
BRANCH   8   9
ATOM      9  N   UNL d   1      10.506   6.503 -10.064  0.00  0.00     0.141 N 
ATOM     10  C   UNL d   1      11.100   7.840  -9.951  0.00  0.00     0.274 C 
ATOM     11  C   UNL d   1      11.995   7.939  -8.707  0.00  0.00     0.138 C 
ATOM     12  N   UNL d   1      11.239   7.500  -7.550  0.00  0.00    -0.330 N 
ATOM     13  C   UNL d   1      10.541   6.224  -7.618  0.00  0.00     0.138 C 
ATOM     14  C   UNL d   1       9.675   6.202  -8.890  0.00  0.00     0.274 C 
BRANCH  12  15
ATOM     15  C   UNL d   1      11.231   8.294  -6.400  0.00  0.00     0.140 C 
ATOM     16  N   UNL d   1      11.157   9.632  -6.579  0.00  0.00    -0.227 NA
ATOM     17  C   UNL d   1      11.165  10.412  -5.491  0.00  0.00     0.101 C 
ATOM     18  C   UNL d   1      11.222   9.923  -4.186  0.00  0.00     0.021 C 
ATOM     19  C   UNL d   1      11.402   8.549  -4.001  0.00  0.00     0.005 C 
ATOM     20  C   UNL d   1      11.347   7.704  -5.125  0.00  0.00     0.037 C 
ENDBRANCH  12  15
ENDBRANCH   8   9
ENDBRANCH   7   8
ENDBRANCH   6   7
BRANCH   6  21
ATOM     21  C   UNL d   1       7.581   4.300 -13.062  0.00  0.00     0.016 A 
ATOM     22  C   UNL d   1       6.686   4.895 -12.147  0.00  0.00     0.001 A 
ATOM     23  C   UNL d   1       5.424   4.333 -12.042  0.00  0.00     0.000 A 
ATOM     24  C   UNL d   1       5.012   3.265 -12.834  0.00  0.00     0.000 A 
ATOM     25  C   UNL d   1       5.923   2.646 -13.702  0.00  0.00     0.000 A 
ATOM     26  C   UNL d   1       7.193   3.191 -13.840  0.00  0.00     0.001 A 
ENDBRANCH   6  21
ENDBRANCH   4   5
ENDBRANCH   3   4
TORSDOF 7
