REMARK  7 active torsions:
REMARK  status: ('A' for Active; 'I' for Inactive)
REMARK    1  A    between atoms: C_2  and  C_4 
REMARK    2  A    between atoms: C_7  and  C_8 
REMARK       I    between atoms: C_8  and  N_10 
REMARK    3  A    between atoms: N_10  and  C_11 
REMARK    4  A    between atoms: C_14  and  C_15 
REMARK    5  A    between atoms: C_15  and  C_16 
REMARK    6  A    between atoms: C_16  and  N_17 
REMARK    7  A    between atoms: C_20  and  C_21 
ROOT
ATOM      1  C   UNL d   1       8.693   6.092 -11.555  0.00  0.00     0.107 C 
ATOM      2  C   UNL d   1       9.409   4.825 -11.982  0.00  0.00     0.024 C 
ATOM      3  C   UNL d   1       8.721   4.196 -13.191  0.00  0.00     0.002 C 
ATOM      4  C   UNL d   1       7.218   3.880 -12.949  0.00  0.00     0.002 C 
ATOM      5  C   UNL d   1       6.501   5.136 -12.489  0.00  0.00     0.002 C 
ATOM      6  C   UNL d   1       7.204   5.768 -11.327  0.00  0.00     0.024 C 
ENDROOT
BRANCH   4   7
ATOM      7  C   UNL d   1       6.505   3.209 -14.128  0.00  0.00     0.035 C 
BRANCH   7   8
ATOM      8  C   UNL d   1       7.436   2.297 -14.944  0.00  0.00     0.250 C 
BRANCH   8   9
ATOM      9  N   UNL d   1       6.669   1.406 -15.798  0.00  0.00     0.137 N 
ATOM     10  C   UNL d   1       7.341   1.255 -17.089  0.00  0.00     0.251 C 
ATOM     11  C   UNL d   1       6.504   0.359 -18.005  0.00  0.00     0.040 C 
ATOM     12  C   UNL d   1       6.266  -1.024 -17.380  0.00  0.00     0.028 C 
ATOM     13  C   UNL d   1       5.715  -0.861 -15.957  0.00  0.00     0.040 C 
ATOM     14  C   UNL d   1       6.576   0.101 -15.133  0.00  0.00     0.251 C 
BRANCH  12  15
ATOM     15  C   UNL d   1       5.354  -1.879 -18.214  0.00  0.00     0.004 A 
ATOM     16  C   UNL d   1       5.261  -3.320 -18.243  0.00  0.00     0.021 A 
ATOM     17  C   UNL d   1       4.250  -3.631 -19.182  0.00  0.00     0.100 A 
ATOM     18  C   UNL d   1       5.894  -4.407 -17.604  0.00  0.00     0.002 A 
ATOM     19  O   UNL d   1       3.743  -2.468 -19.714  0.00  0.00    -0.305 OA
ATOM     20  C   UNL d   1       3.863  -4.938 -19.495  0.00  0.00     0.025 A 
ATOM     21  C   UNL d   1       4.399  -1.442 -19.117  0.00  0.00     0.118 A 
ATOM     22  C   UNL d   1       4.511  -6.006 -18.848  0.00  0.00     0.002 A 
ATOM     23  C   UNL d   1       5.530  -5.738 -17.905  0.00  0.00     0.000 A 
ENDBRANCH  12  15
ENDBRANCH   8   9
ENDBRANCH   7   8
ENDBRANCH   4   7
BRANCH   1  24
ATOM     24  N   UNL d   1       9.348   6.609 -10.342  0.00  0.00    -0.236 NA
ATOM     25  C   UNL d   1       9.858   7.843 -10.222  0.00  0.00     0.275 C 
ATOM     26  O   UNL d   1       9.895   8.667 -11.128  0.00  0.00    -0.266 OA
BRANCH  25  27
ATOM     27  C   UNL d   1      10.389   8.185  -8.871  0.00  0.00     0.058 A 
ATOM     28  C   UNL d   1      11.702   8.666  -8.727  0.00  0.00     0.004 A 
ATOM     29  C   UNL d   1      12.200   8.981  -7.448  0.00  0.00    -0.004 A 
ATOM     30  C   UNL d   1      11.380   8.869  -6.310  0.00  0.00    -0.022 A 
ATOM     31  C   UNL d   1      10.053   8.406  -6.473  0.00  0.00    -0.004 A 
ATOM     32  C   UNL d   1       9.557   8.069  -7.741  0.00  0.00     0.004 A 
BRANCH  30  33
ATOM     33  C   UNL d   1      11.924   9.230  -4.929  0.00  0.00     0.022 C 
ATOM     34  C   UNL d   1      12.029   7.992  -4.024  0.00  0.00     0.005 C 
ATOM     35  C   UNL d   1      11.094  10.334  -4.258  0.00  0.00     0.005 C 
ENDBRANCH  30  33
ENDBRANCH  25  27
ENDBRANCH   1  24
TORSDOF 7
