REMARK  10 active torsions:
REMARK  status: ('A' for Active; 'I' for Inactive)
REMARK    1  A    between atoms: O_2  and  C_3 
REMARK    2  A    between atoms: C_8  and  N_9 
REMARK    3  A    between atoms: N_12  and  C_13 
REMARK    4  A    between atoms: C_13  and  C_14 
REMARK    5  A    between atoms: C_14  and  C_15 
REMARK    6  A    between atoms: C_15  and  C_16 
REMARK    7  A    between atoms: C_16  and  C_17 
REMARK    8  A    between atoms: C_17  and  N_18 
REMARK       I    between atoms: N_18  and  C_19 
REMARK    9  A    between atoms: C_19  and  C_21 
REMARK   10  A    between atoms: C_25  and  O_26 
ROOT
ATOM      1  C   UNL d   1       6.975   4.697 -12.499  0.00  0.00     0.026 C 
ENDROOT
BRANCH   1   2
ATOM      2  C   UNL d   1       6.378   4.073 -13.745  0.00  0.00     0.004 C 
BRANCH   2   3
ATOM      3  C   UNL d   1       6.991   2.676 -13.978  0.00  0.00     0.035 C 
BRANCH   3   4
ATOM      4  C   UNL d   1       6.598   2.023 -15.317  0.00  0.00     0.250 C 
BRANCH   4   5
ATOM      5  N   UNL d   1       7.516   1.027 -15.852  0.00  0.00     0.141 N 
ATOM      6  C   UNL d   1       8.914   1.469 -15.769  0.00  0.00     0.274 C 
ATOM      7  C   UNL d   1       9.869   0.421 -16.327  0.00  0.00     0.137 C 
ATOM      8  N   UNL d   1       9.499   0.093 -17.686  0.00  0.00    -0.343 N 
ATOM      9  C   UNL d   1       8.098  -0.238 -17.904  0.00  0.00     0.137 C 
ATOM     10  C   UNL d   1       7.173   0.824 -17.273  0.00  0.00     0.274 C 
BRANCH   8  11
ATOM     11  C   UNL d   1      10.437   0.254 -18.729  0.00  0.00     0.079 A 
ATOM     12  C   UNL d   1      10.124   0.980 -19.896  0.00  0.00     0.110 A 
ATOM     13  C   UNL d   1      11.106   1.057 -20.929  0.00  0.00     0.026 A 
ATOM     14  C   UNL d   1      12.360   0.442 -20.769  0.00  0.00     0.002 A 
ATOM     15  C   UNL d   1      12.672  -0.245 -19.588  0.00  0.00     0.002 A 
ATOM     16  C   UNL d   1      11.709  -0.326 -18.559  0.00  0.00     0.019 A 
BRANCH  12  17
ATOM     17  O   UNL d   1       8.898   1.605 -19.973  0.00  0.00    -0.327 OA
ATOM     18  C   UNL d   1       8.547   2.286 -21.163  0.00  0.00     0.181 C 
ENDBRANCH  12  17
ENDBRANCH   8  11
ENDBRANCH   4   5
ENDBRANCH   3   4
ENDBRANCH   2   3
ENDBRANCH   1   2
BRANCH   1  19
ATOM     19  C   UNL d   1       8.335   5.449 -12.690  0.00  0.00     0.129 C 
BRANCH  19  20
ATOM     20  N   UNL d   1       8.852   6.026 -11.451  0.00  0.00    -0.234 NA
ATOM     21  C   UNL d   1       8.795   5.505 -10.203  0.00  0.00     0.282 C 
ATOM     22  O   UNL d   1       8.319   4.429  -9.930  0.00  0.00    -0.265 OA
BRANCH  21  23
ATOM     23  C   UNL d   1       9.370   6.319  -9.113  0.00  0.00     0.101 C 
ATOM     24  C   UNL d   1      10.425   7.174  -9.098  0.00  0.00     0.082 C 
ATOM     25  C   UNL d   1      10.786   7.538  -7.747  0.00  0.00     0.035 C 
ATOM     26  N   UNL d   1      11.108   7.687 -10.232  0.00  0.00    -0.100 NA
ATOM     27  C   UNL d   1       9.978   6.909  -6.775  0.00  0.00     0.114 C 
ATOM     28  C   UNL d   1      11.806   8.361  -7.260  0.00  0.00    -0.005 C 
ATOM     29  S   UNL d   1       8.609   6.104  -7.552  0.00  0.00    -0.062 SA
ATOM     30  N   UNL d   1      10.178   6.936  -5.421  0.00  0.00    -0.215 NA
ATOM     31  C   UNL d   1      11.088   7.846  -5.016  0.00  0.00     0.189 C 
ATOM     32  C   UNL d   1      11.851   8.577  -5.856  0.00  0.00     0.095 C 
ATOM     33 CL   UNL d   1      12.983   9.589  -5.052  0.00  0.00    -0.079 Cl
ATOM     34  C   UNL d   1      12.785   8.933  -8.224  0.00  0.00     0.032 C 
BRANCH  31  35
ATOM     35  O   UNL d   1      11.352   8.092  -3.699  0.00  0.00    -0.311 OA
ATOM     36  C   UNL d   1      11.503   7.004  -2.829  0.00  0.00     0.183 C 
ENDBRANCH  31  35
ENDBRANCH  21  23
ENDBRANCH  19  20
ENDBRANCH   1  19
TORSDOF 10
