REMARK  9 active torsions:
REMARK  status: ('A' for Active; 'I' for Inactive)
REMARK    1  A    between atoms: C_2  and  C_3 
REMARK    2  A    between atoms: C_7  and  O_8 
REMARK    3  A    between atoms: C_10  and  N_11 
REMARK    4  A    between atoms: N_14  and  C_15 
REMARK    5  A    between atoms: C_15  and  C_16 
REMARK    6  A    between atoms: C_16  and  C_18 
REMARK    7  A    between atoms: C_18  and  C_19 
REMARK    8  A    between atoms: C_19  and  N_20 
REMARK       I    between atoms: N_20  and  C_21 
REMARK    9  A    between atoms: C_21  and  C_23 
ROOT
ATOM      1  N   UNL d   1      10.095   3.103 -14.556  0.00  0.00    -0.343 N 
ATOM      2  C   UNL d   1      10.895   4.306 -14.629  0.00  0.00     0.137 C 
ATOM      3  C   UNL d   1      10.043   5.453 -14.040  0.00  0.00     0.274 C 
ATOM      4  N   UNL d   1       9.524   5.210 -12.681  0.00  0.00     0.144 N 
ATOM      5  C   UNL d   1       8.722   4.013 -12.741  0.00  0.00     0.274 C 
ATOM      6  C   UNL d   1       9.549   2.816 -13.239  0.00  0.00     0.137 C 
ENDROOT
BRANCH   4   7
ATOM      7  C   UNL d   1       8.719   6.330 -12.169  0.00  0.00     0.283 C 
BRANCH   7   8
ATOM      8  C   UNL d   1       9.546   7.600 -11.814  0.00  0.00     0.188 C 
ATOM      9  O   UNL d   1       8.733   8.726 -11.728  0.00  0.00    -0.221 OA
BRANCH   8  10
ATOM     10  C   UNL d   1      10.351   7.456 -10.502  0.00  0.00     0.061 C 
BRANCH  10  11
ATOM     11  C   UNL d   1       9.495   7.577  -9.242  0.00  0.00     0.132 C 
BRANCH  11  12
ATOM     12  N   UNL d   1      10.282   7.444  -8.041  0.00  0.00    -0.234 NA
ATOM     13  C   UNL d   1      10.870   8.448  -7.402  0.00  0.00     0.275 C 
ATOM     14  O   UNL d   1      11.050   9.556  -7.900  0.00  0.00    -0.266 OA
BRANCH  13  15
ATOM     15  C   UNL d   1      11.247   8.201  -5.990  0.00  0.00     0.060 A 
ATOM     16  C   UNL d   1      11.485   9.285  -5.108  0.00  0.00     0.031 A 
ATOM     17  C   UNL d   1      11.866   8.983  -3.795  0.00  0.00     0.119 A 
ATOM     18  C   UNL d   1      12.010   7.685  -3.358  0.00  0.00     0.119 A 
ATOM     19  O   UNL d   1      12.152   9.821  -2.778  0.00  0.00    -0.300 OA
ATOM     20  C   UNL d   1      11.777   6.601  -4.197  0.00  0.00     0.026 A 
ATOM     21  O   UNL d   1      12.381   7.663  -2.059  0.00  0.00    -0.300 OA
ATOM     22  C   UNL d   1      11.388   6.864  -5.521  0.00  0.00     0.007 A 
ATOM     23  C   UNL d   1      12.528   9.007  -1.690  0.00  0.00     0.304 A 
ENDBRANCH  13  15
ENDBRANCH  11  12
ENDBRANCH  10  11
ENDBRANCH   8  10
ENDBRANCH   7   8
ENDBRANCH   4   7
BRANCH   1  24
ATOM     24  C   UNL d   1       9.871   2.249 -15.669  0.00  0.00     0.079 A 
ATOM     25  C   UNL d   1       8.627   1.595 -15.915  0.00  0.00     0.120 A 
ATOM     26  C   UNL d   1       8.466   0.803 -17.084  0.00  0.00     0.081 A 
ATOM     27  C   UNL d   1       9.547   0.591 -17.951  0.00  0.00     0.009 A 
ATOM     28 CL   UNL d   1       6.943   0.120 -17.527  0.00  0.00    -0.080 Cl
ATOM     29  C   UNL d   1      10.793   1.182 -17.693  0.00  0.00    -0.020 A 
ATOM     30  C   UNL d   1      10.944   2.019 -16.562  0.00  0.00     0.015 A 
BRANCH  25  31
ATOM     31  O   UNL d   1       7.554   1.772 -15.076  0.00  0.00    -0.326 OA
ATOM     32  C   UNL d   1       7.190   0.629 -14.305  0.00  0.00     0.181 C 
ENDBRANCH  25  31
BRANCH  29  33
ATOM     33  C   UNL d   1      11.960   0.923 -18.635  0.00  0.00     0.026 C 
ATOM     34  C   UNL d   1      12.376  -0.551 -18.651  0.00  0.00     0.005 C 
ENDBRANCH  29  33
ENDBRANCH   1  24
TORSDOF 9
