REMARK  5 active torsions:
REMARK  status: ('A' for Active; 'I' for Inactive)
REMARK    1  A    between atoms: N_3  and  C_4 
REMARK    2  A    between atoms: C_4  and  C_5 
REMARK    3  A    between atoms: C_8  and  C_9 
REMARK    4  A    between atoms: C_9  and  N_10 
REMARK    5  A    between atoms: N_13  and  C_14 
ROOT
ATOM      1  C   UNL d   1       8.530   3.129 -14.798  0.00  0.00     0.002 A 
ATOM      2  C   UNL d   1       9.575   4.030 -14.485  0.00  0.00    -0.003 A 
ATOM      3  C   UNL d   1       9.437   4.948 -13.422  0.00  0.00    -0.003 A 
ATOM      4  C   UNL d   1       8.256   4.963 -12.649  0.00  0.00     0.011 A 
ATOM      5  C   UNL d   1       7.210   4.077 -12.964  0.00  0.00    -0.003 A 
ATOM      6  C   UNL d   1       7.333   3.189 -14.037  0.00  0.00    -0.003 A 
ENDROOT
BRANCH   4   7
ATOM      7  C   UNL d   1       8.068   5.932 -11.499  0.00  0.00     0.277 C 
BRANCH   7   8
ATOM      8  N   UNL d   1       9.217   5.973 -10.598  0.00  0.00     0.145 N 
ATOM      9  C   UNL d   1       9.802   7.319 -10.616  0.00  0.00     0.275 C 
ATOM     10  C   UNL d   1      11.023   7.392  -9.682  0.00  0.00     0.137 C 
ATOM     11  N   UNL d   1      10.659   6.947  -8.340  0.00  0.00    -0.344 N 
ATOM     12  C   UNL d   1       9.966   5.672  -8.265  0.00  0.00     0.137 C 
ATOM     13  C   UNL d   1       8.772   5.662  -9.236  0.00  0.00     0.275 C 
BRANCH  11  14
ATOM     14  C   UNL d   1      10.894   7.733  -7.193  0.00  0.00     0.057 A 
ATOM     15  C   UNL d   1      11.193   7.133  -5.950  0.00  0.00     0.028 A 
ATOM     16  C   UNL d   1      11.460   7.933  -4.817  0.00  0.00     0.059 A 
ATOM     17  C   UNL d   1      11.406   9.333  -4.910  0.00  0.00     0.011 A 
ATOM     18 CL   UNL d   1      11.879   7.186  -3.317  0.00  0.00    -0.082 Cl
ATOM     19  C   UNL d   1      11.100   9.937  -6.140  0.00  0.00     0.002 A 
ATOM     20  C   UNL d   1      10.845   9.137  -7.274  0.00  0.00     0.017 A 
ENDBRANCH  11  14
ENDBRANCH   7   8
ENDBRANCH   4   7
BRANCH   1  21
ATOM     21  C   UNL d   1       8.726   2.129 -15.944  0.00  0.00     0.159 C 
BRANCH  21  22
ATOM     22  N   UNL d   1       7.627   1.190 -16.182  0.00  0.00    -0.196 N 
ATOM     23  C   UNL d   1       6.906   1.048 -17.307  0.00  0.00     0.352 A 
ATOM     24  O   UNL d   1       7.067   1.595 -18.398  0.00  0.00    -0.244 OA
ATOM     25  N   UNL d   1       5.960   0.179 -16.977  0.00  0.00    -0.241 N 
ATOM     26  C   UNL d   1       6.154  -0.176 -15.651  0.00  0.00     0.171 A 
ATOM     27  C   UNL d   1       4.961  -0.354 -17.800  0.00  0.00     0.086 A 
ATOM     28  N   UNL d   1       7.200   0.389 -15.165  0.00  0.00    -0.147 NA
ATOM     29  C   UNL d   1       5.179  -1.097 -15.091  0.00  0.00     0.039 A 
ATOM     30  C   UNL d   1       4.204  -1.606 -15.877  0.00  0.00     0.005 A 
ATOM     31  C   UNL d   1       4.090  -1.245 -17.285  0.00  0.00     0.019 A 
ENDBRANCH  21  22
ENDBRANCH   1  21
TORSDOF 5
