REMARK  12 active torsions:
REMARK  status: ('A' for Active; 'I' for Inactive)
REMARK    1  A    between atoms: O_2  and  C_3 
REMARK    2  A    between atoms: C_8  and  N_9 
REMARK    3  A    between atoms: N_12  and  C_13 
REMARK    4  A    between atoms: C_13  and  C_14 
REMARK    5  A    between atoms: N_16  and  C_17 
REMARK    6  A    between atoms: C_20  and  O_21 
REMARK    7  A    between atoms: O_21  and  C_22 
REMARK    8  A    between atoms: C_22  and  C_23 
REMARK    9  A    between atoms: C_23  and  C_24 
REMARK   10  A    between atoms: C_24  and  O_25 
REMARK   11  A    between atoms: O_25  and  C_26 
REMARK   12  A    between atoms: C_28  and  C_29 
ROOT
ATOM      1  C   UNL d   1       8.912   3.037 -15.349  0.00  0.00     0.085 A 
ATOM      2  C   UNL d   1       7.824   2.227 -15.720  0.00  0.00     0.021 A 
ATOM      3  C   UNL d   1       7.749   1.745 -17.034  0.00  0.00     0.026 A 
ATOM      4  C   UNL d   1       8.756   2.053 -17.968  0.00  0.00     0.094 A 
ATOM      5  C   UNL d   1       9.874   2.826 -17.569  0.00  0.00     0.026 A 
ATOM      6  C   UNL d   1       9.955   3.318 -16.261  0.00  0.00     0.021 A 
ENDROOT
BRANCH   1   7
ATOM      7  N   UNL d   1       8.948   3.574 -14.047  0.00  0.00    -0.209 N 
ATOM      8  C   UNL d   1       7.908   3.959 -13.212  0.00  0.00     0.124 A 
ATOM      9  C   UNL d   1       8.580   4.385 -12.082  0.00  0.00     0.135 A 
ATOM     10  N   UNL d   1       9.934   4.208 -12.282  0.00  0.00    -0.128 NA
ATOM     11  N   UNL d   1      10.149   3.738 -13.449  0.00  0.00    -0.059 NA
BRANCH   9  12
ATOM     12  C   UNL d   1       8.074   4.928 -10.770  0.00  0.00     0.070 C 
BRANCH  12  13
ATOM     13  N   UNL d   1       8.975   5.153  -9.606  0.00  0.00    -0.243 NA
ATOM     14  C   UNL d   1       8.252   5.828  -8.503  0.00  0.00     0.122 C 
ATOM     15  C   UNL d   1       9.049   6.099  -7.237  0.00  0.00     0.067 C 
ATOM     16  N   UNL d   1      10.137   6.898  -7.642  0.00  0.00    -0.326 N 
ATOM     17  C   UNL d   1      10.894   6.345  -8.716  0.00  0.00     0.124 C 
ATOM     18  C   UNL d   1       9.995   6.137  -9.933  0.00  0.00     0.102 C 
BRANCH  16  19
ATOM     19  C   UNL d   1      10.619   7.987  -6.950  0.00  0.00     0.082 C 
ATOM     20  C   UNL d   1      10.956   9.099  -7.729  0.00  0.00     0.110 C 
ATOM     21  C   UNL d   1      11.403  10.224  -7.026  0.00  0.00     0.026 C 
ATOM     22  C   UNL d   1      11.389  10.305  -5.643  0.00  0.00     0.002 C 
ATOM     23  C   UNL d   1      11.083   9.169  -4.882  0.00  0.00     0.002 C 
ATOM     24  C   UNL d   1      10.708   7.984  -5.552  0.00  0.00     0.019 C 
BRANCH  20  25
ATOM     25  O   UNL d   1      10.662   9.106  -9.085  0.00  0.00    -0.327 OA
ATOM     26  C   UNL d   1      11.700   9.571  -9.942  0.00  0.00     0.181 C 
ENDBRANCH  20  25
ENDBRANCH  16  19
ENDBRANCH  12  13
ENDBRANCH   9  12
ENDBRANCH   1   7
BRANCH   4  27
ATOM     27  O   UNL d   1       8.568   1.581 -19.242  0.00  0.00    -0.331 OA
BRANCH  27  28
ATOM     28  C   UNL d   1       9.395   2.090 -20.279  0.00  0.00     0.151 C 
BRANCH  28  29
ATOM     29  C   UNL d   1       9.012   3.553 -20.600  0.00  0.00     0.065 C 
BRANCH  29  30
ATOM     30  C   UNL d   1      10.062   4.270 -21.455  0.00  0.00     0.148 C 
BRANCH  30  31
ATOM     31  O   UNL d   1      11.256   4.415 -20.696  0.00  0.00    -0.329 OA
BRANCH  31  32
ATOM     32  C   UNL d   1      12.287   5.048 -21.384  0.00  0.00     0.272 C 
ATOM     33  C   UNL d   1      13.583   4.938 -20.557  0.00  0.00     0.250 C 
ATOM     34  C   UNL d   1      13.439   5.740 -19.244  0.00  0.00     0.222 C 
ATOM     35  F   UNL d   1      13.832   3.646 -20.311  0.00  0.00    -0.229 F 
ATOM     36  C   UNL d   1      13.043   7.188 -19.583  0.00  0.00     0.215 C 
ATOM     37  O   UNL d   1      14.695   5.723 -18.575  0.00  0.00    -0.217 OA
ATOM     38  C   UNL d   1      11.780   7.179 -20.467  0.00  0.00     0.184 C 
ATOM     39  O   UNL d   1      12.801   7.898 -18.379  0.00  0.00    -0.218 OA
ATOM     40  O   UNL d   1      12.037   6.399 -21.631  0.00  0.00    -0.326 OA
BRANCH  38  41
ATOM     41  C   UNL d   1      11.414   8.591 -20.934  0.00  0.00     0.214 C 
ATOM     42  O   UNL d   1      10.084   8.671 -21.413  0.00  0.00    -0.218 OA
ENDBRANCH  38  41
ENDBRANCH  31  32
ENDBRANCH  30  31
ENDBRANCH  29  30
ENDBRANCH  28  29
ENDBRANCH  27  28
ENDBRANCH   4  27
TORSDOF 12
