REMARK  12 active torsions:
REMARK  status: ('A' for Active; 'I' for Inactive)
REMARK    1  A    between atoms: C_2  and  C_3 
REMARK    2  A    between atoms: C_3  and  N_4 
REMARK    3  A    between atoms: N_4  and  C_5 
REMARK    4  A    between atoms: N_4  and  C_22 
REMARK    5  A    between atoms: C_5  and  C_6 
REMARK    6  A    between atoms: C_6  and  C_7 
REMARK    7  A    between atoms: C_7  and  C_8 
REMARK    8  A    between atoms: C_8  and  N_9 
REMARK       I    between atoms: N_9  and  C_10 
REMARK    9  A    between atoms: C_10  and  C_12 
REMARK   10  A    between atoms: C_22  and  C_23 
REMARK   11  A    between atoms: C_25  and  C_26 
REMARK   12  A    between atoms: C_29  and  C_30 
ROOT
ATOM      1  N   UNL d   1       7.494   0.971 -15.550  0.00  0.00     0.137 N 
ENDROOT
BRANCH   1   2
ATOM      2  C   UNL d   1       6.413   0.175 -14.961  0.00  0.00     0.250 C 
BRANCH   2   3
ATOM      3  C   UNL d   1       5.472  -0.415 -16.029  0.00  0.00     0.035 C 
ATOM      4  C   UNL d   1       4.326  -1.198 -15.393  0.00  0.00     0.002 C 
ENDBRANCH   2   3
ENDBRANCH   1   2
BRANCH   1   5
ATOM      5  C   UNL d   1       8.157   1.765 -14.514  0.00  0.00     0.250 C 
BRANCH   5   6
ATOM      6  C   UNL d   1       7.248   2.901 -13.998  0.00  0.00     0.037 C 
BRANCH   6   7
ATOM      7  C   UNL d   1       8.017   3.926 -13.204  0.00  0.00     0.029 C 
BRANCH   7   8
ATOM      8  C   UNL d   1       7.112   4.983 -12.524  0.00  0.00     0.129 C 
BRANCH   8   9
ATOM      9  N   UNL d   1       7.697   5.583 -11.329  0.00  0.00    -0.234 NA
ATOM     10  C   UNL d   1       8.996   5.859 -11.134  0.00  0.00     0.275 C 
ATOM     11  O   UNL d   1       9.863   5.739 -12.008  0.00  0.00    -0.266 OA
BRANCH  10  12
ATOM     12  C   UNL d   1       9.355   6.362  -9.778  0.00  0.00     0.058 A 
ATOM     13  C   UNL d   1      10.407   7.290  -9.642  0.00  0.00     0.005 A 
ATOM     14  C   UNL d   1      10.760   7.779  -8.373  0.00  0.00     0.000 A 
ATOM     15  C   UNL d   1      10.064   7.323  -7.229  0.00  0.00     0.000 A 
ATOM     16  C   UNL d   1      11.802   8.712  -8.235  0.00  0.00     0.000 A 
ATOM     17  C   UNL d   1       9.019   6.394  -7.358  0.00  0.00     0.000 A 
ATOM     18  C   UNL d   1      10.411   7.803  -5.957  0.00  0.00     0.000 A 
ATOM     19  C   UNL d   1       8.677   5.897  -8.623  0.00  0.00     0.005 A 
ATOM     20  C   UNL d   1      11.442   8.741  -5.816  0.00  0.00     0.000 A 
ATOM     21  C   UNL d   1      12.142   9.193  -6.950  0.00  0.00     0.000 A 
ENDBRANCH  10  12
ENDBRANCH   8   9
ENDBRANCH   7   8
ENDBRANCH   6   7
ENDBRANCH   5   6
ENDBRANCH   1   5
BRANCH   1  22
ATOM     22  C   UNL d   1       8.460   0.092 -16.209  0.00  0.00     0.251 C 
BRANCH  22  23
ATOM     23  C   UNL d   1       9.468   0.818 -17.047  0.00  0.00     0.038 A 
ATOM     24  C   UNL d   1      10.944   0.799 -16.726  0.00  0.00     0.024 A 
ATOM     25  C   UNL d   1      10.419  -0.022 -17.880  0.00  0.00     0.007 A 
BRANCH  24  26
ATOM     26  C   UNL d   1      11.765   2.006 -16.923  0.00  0.00    -0.022 A 
ATOM     27  C   UNL d   1      11.653   3.128 -16.072  0.00  0.00    -0.004 A 
ATOM     28  C   UNL d   1      12.435   4.276 -16.291  0.00  0.00     0.004 A 
ATOM     29  C   UNL d   1      13.351   4.315 -17.370  0.00  0.00     0.071 A 
ATOM     30  C   UNL d   1      13.455   3.200 -18.232  0.00  0.00     0.004 A 
ATOM     31  C   UNL d   1      12.668   2.061 -18.013  0.00  0.00    -0.004 A 
BRANCH  29  32
ATOM     32  C   UNL d   1      14.199   5.548 -17.599  0.00  0.00     0.419 C 
ATOM     33  F   UNL d   1      13.458   6.484 -18.189  0.00  0.00    -0.166 F 
ATOM     34  F   UNL d   1      14.655   6.021 -16.439  0.00  0.00    -0.166 F 
ATOM     35  F   UNL d   1      15.249   5.276 -18.381  0.00  0.00    -0.166 F 
ENDBRANCH  29  32
ENDBRANCH  24  26
ENDBRANCH  22  23
ENDBRANCH   1  22
TORSDOF 12
