REMARK  10 active torsions:
REMARK  status: ('A' for Active; 'I' for Inactive)
REMARK    1  A    between atoms: O_2  and  C_3 
REMARK    2  A    between atoms: C_3  and  C_5 
REMARK    3  A    between atoms: C_5  and  C_6 
REMARK    4  A    between atoms: C_6  and  C_7 
REMARK    5  A    between atoms: C_10  and  O_11 
REMARK    6  A    between atoms: O_11  and  C_12 
REMARK    7  A    between atoms: C_12  and  C_13 
REMARK    8  A    between atoms: C_13  and  C_15 
REMARK    9  A    between atoms: C_15  and  N_16 
REMARK   10  A    between atoms: N_16  and  C_17 
ROOT
ATOM      1  C   UNL d   1       9.463   5.916 -10.032  0.00  0.00    -0.021 A 
ATOM      2  C   UNL d   1       8.788   5.446  -8.883  0.00  0.00    -0.002 A 
ATOM      3  C   UNL d   1       8.867   6.181  -7.688  0.00  0.00     0.024 A 
ATOM      4  C   UNL d   1       9.618   7.371  -7.609  0.00  0.00     0.094 A 
ATOM      5  C   UNL d   1      10.289   7.830  -8.771  0.00  0.00     0.024 A 
ATOM      6  C   UNL d   1      10.213   7.103  -9.969  0.00  0.00    -0.002 A 
ENDROOT
BRANCH   4   7
ATOM      7  O   UNL d   1       9.635   8.023  -6.395  0.00  0.00    -0.328 OA
BRANCH   7   8
ATOM      8  C   UNL d   1      10.218   9.314  -6.326  0.00  0.00     0.184 C 
BRANCH   8   9
ATOM      9  C   UNL d   1      11.749   9.269  -6.203  0.00  0.00     0.206 C 
ATOM     10  O   UNL d   1      12.258  10.570  -6.258  0.00  0.00    -0.219 OA
BRANCH   9  11
ATOM     11  C   UNL d   1      12.254   8.548  -4.948  0.00  0.00     0.155 C 
BRANCH  11  12
ATOM     12  N   UNL d   1      11.455   8.829  -3.763  0.00  0.00    -0.295 NA
BRANCH  12  13
ATOM     13  C   UNL d   1      11.675   7.983  -2.587  0.00  0.00     0.098 C 
ATOM     14  C   UNL d   1      12.743   8.593  -1.694  0.00  0.00     0.026 C 
ATOM     15  C   UNL d   1      11.943   6.507  -2.906  0.00  0.00     0.026 C 
ENDBRANCH  12  13
ENDBRANCH  11  12
ENDBRANCH   9  11
ENDBRANCH   8   9
ENDBRANCH   7   8
ENDBRANCH   4   7
BRANCH   1  16
ATOM     16  C   UNL d   1       9.366   5.151 -11.332  0.00  0.00     0.037 C 
BRANCH  16  17
ATOM     17  C   UNL d   1       8.066   5.461 -12.092  0.00  0.00     0.101 C 
BRANCH  17  18
ATOM     18  C   UNL d   1       7.889   4.512 -13.276  0.00  0.00     0.272 C 
ATOM     19  O   UNL d   1       8.675   4.518 -14.220  0.00  0.00    -0.264 OA
BRANCH  18  20
ATOM     20  O   UNL d   1       6.831   3.699 -13.133  0.00  0.00    -0.299 OA
ATOM     21  C   UNL d   1       6.572   2.705 -14.111  0.00  0.00     0.184 C 
ENDBRANCH  18  20
ENDBRANCH  17  18
ENDBRANCH  16  17
ENDBRANCH   1  16
TORSDOF 10
