REMARK  6 active torsions:
REMARK  status: ('A' for Active; 'I' for Inactive)
REMARK    1  A    between atoms: C_2  and  C_3 
REMARK       I    between atoms: C_2  and  N_5 
REMARK    2  A    between atoms: N_5  and  C_6 
REMARK    3  A    between atoms: C_9  and  C_10 
REMARK    4  A    between atoms: C_10  and  C_11 
REMARK    5  A    between atoms: C_11  and  N_12 
REMARK    6  A    between atoms: N_15  and  C_16 
ROOT
ATOM      1  N   UNL d   1       7.870   6.287 -12.092  0.00  0.00     0.141 N 
ATOM      2  C   UNL d   1       6.681   5.436 -12.219  0.00  0.00     0.274 C 
ATOM      3  C   UNL d   1       7.088   3.955 -12.206  0.00  0.00     0.138 C 
ATOM      4  N   UNL d   1       8.095   3.707 -13.252  0.00  0.00    -0.330 N 
ATOM      5  C   UNL d   1       9.248   4.601 -13.272  0.00  0.00     0.138 C 
ATOM      6  C   UNL d   1       8.765   6.050 -13.225  0.00  0.00     0.274 C 
ENDROOT
BRANCH   1   7
ATOM      7  C   UNL d   1       8.517   6.079 -10.803  0.00  0.00     0.250 C 
BRANCH   7   8
ATOM      8  C   UNL d   1       9.559   7.169 -10.514  0.00  0.00     0.035 C 
BRANCH   8   9
ATOM      9  C   UNL d   1      10.144   7.038  -9.107  0.00  0.00     0.002 C 
ATOM     10  C   UNL d   1      11.384   7.928  -8.966  0.00  0.00     0.002 C 
ATOM     11  C   UNL d   1      11.926   7.894  -7.533  0.00  0.00     0.024 C 
ATOM     12  C   UNL d   1      10.851   8.283  -6.513  0.00  0.00     0.106 C 
ATOM     13  C   UNL d   1       9.632   7.368  -6.637  0.00  0.00     0.024 C 
ATOM     14  C   UNL d   1       9.082   7.398  -8.058  0.00  0.00     0.002 C 
BRANCH  12  15
ATOM     15  N   UNL d   1      11.401   8.194  -5.168  0.00  0.00    -0.238 NA
ATOM     16  C   UNL d   1      11.463   9.192  -4.280  0.00  0.00     0.285 C 
ATOM     17  O   UNL d   1      11.025  10.320  -4.501  0.00  0.00    -0.268 OA
BRANCH  16  18
ATOM     18  C   UNL d   1      12.127   8.880  -2.935  0.00  0.00     0.271 C 
ATOM     19  O   UNL d   1      11.880   7.539  -2.543  0.00  0.00    -0.210 OA
ENDBRANCH  16  18
ENDBRANCH  12  15
ENDBRANCH   8   9
ENDBRANCH   7   8
ENDBRANCH   1   7
BRANCH   4  20
ATOM     20  C   UNL d   1       8.006   2.621 -14.130  0.00  0.00     0.142 A 
ATOM     21  C   UNL d   1       9.140   2.052 -14.784  0.00  0.00     0.059 A 
ATOM     22  C   UNL d   1       8.894   0.970 -15.670  0.00  0.00     0.104 A 
ATOM     23  C   UNL d   1      10.571   2.247 -14.815  0.00  0.00     0.032 A 
ATOM     24  C   UNL d   1       7.610   0.462 -15.890  0.00  0.00     0.045 A 
ATOM     25  O   UNL d   1      10.077   0.547 -16.241  0.00  0.00    -0.305 OA
ATOM     26  C   UNL d   1       6.565   1.071 -15.185  0.00  0.00     0.103 A 
ATOM     27  N   UNL d   1       6.765   2.111 -14.352  0.00  0.00    -0.227 NA
ATOM     28  C   UNL d   1      11.059   1.345 -15.720  0.00  0.00     0.123 A 
ENDBRANCH   4  20
TORSDOF 6
