REMARK  8 active torsions:
REMARK  status: ('A' for Active; 'I' for Inactive)
REMARK    1  A    between atoms: O_2  and  C_3 
REMARK    2  A    between atoms: C_8  and  N_9 
REMARK    3  A    between atoms: N_12  and  C_13 
REMARK    4  A    between atoms: C_13  and  C_14 
REMARK    5  A    between atoms: C_14  and  C_15 
REMARK    6  A    between atoms: C_15  and  N_16 
REMARK       I    between atoms: N_16  and  C_17 
REMARK    7  A    between atoms: N_16  and  C_25 
REMARK    8  A    between atoms: C_17  and  C_19 
ROOT
ATOM      1  C   UNL d   1      10.925   2.114 -14.544  0.00  0.00     0.252 C 
ENDROOT
BRANCH   1   2
ATOM      2  N   UNL d   1      10.096   3.276 -14.242  0.00  0.00     0.141 N 
ATOM      3  C   UNL d   1       9.441   3.040 -12.969  0.00  0.00     0.274 C 
ATOM      4  C   UNL d   1       8.477   4.186 -12.549  0.00  0.00     0.137 C 
ATOM      5  N   UNL d   1       9.276   5.394 -12.480  0.00  0.00    -0.343 N 
ATOM      6  C   UNL d   1       9.983   5.647 -13.715  0.00  0.00     0.137 C 
ATOM      7  C   UNL d   1      10.891   4.480 -14.133  0.00  0.00     0.274 C 
BRANCH   5   8
ATOM      8  C   UNL d   1       9.369   6.265 -11.371  0.00  0.00     0.079 A 
ATOM      9  C   UNL d   1       9.407   5.766 -10.040  0.00  0.00     0.110 A 
ATOM     10  C   UNL d   1       9.485   6.644  -8.941  0.00  0.00     0.026 A 
ATOM     11  C   UNL d   1       9.621   8.036  -9.157  0.00  0.00     0.002 A 
ATOM     12  C   UNL d   1       9.636   8.518 -10.459  0.00  0.00     0.002 A 
ATOM     13  C   UNL d   1       9.490   7.674 -11.553  0.00  0.00     0.019 A 
BRANCH   9  14
ATOM     14  O   UNL d   1       9.440   4.425  -9.870  0.00  0.00    -0.327 OA
ATOM     15  C   UNL d   1       8.868   3.942  -8.663  0.00  0.00     0.181 C 
ENDBRANCH   9  14
ENDBRANCH   5   8
ENDBRANCH   1   2
BRANCH   1  16
ATOM     16  C   UNL d   1      10.672   1.774 -16.001  0.00  0.00     0.060 C 
BRANCH  16  17
ATOM     17  C   UNL d   1      11.780   0.948 -16.676  0.00  0.00     0.106 C 
BRANCH  17  18
ATOM     18  N   UNL d   1      11.711   0.576 -18.135  0.00  0.00    -0.319 N 
ATOM     19  C   UNL d   1      10.635   0.162 -18.866  0.00  0.00     0.257 C 
ATOM     20  O   UNL d   1      10.707  -0.478 -19.922  0.00  0.00    -0.267 OA
BRANCH  19  21
ATOM     21  C   UNL d   1       9.270   0.537 -18.394  0.00  0.00     0.056 A 
ATOM     22  C   UNL d   1       8.906   1.890 -18.345  0.00  0.00     0.005 A 
ATOM     23  C   UNL d   1       7.670   2.247 -17.799  0.00  0.00     0.000 A 
ATOM     24  C   UNL d   1       6.769   1.261 -17.347  0.00  0.00     0.000 A 
ATOM     25  C   UNL d   1       7.077  -0.106 -17.495  0.00  0.00     0.000 A 
ATOM     26  C   UNL d   1       8.330  -0.462 -18.036  0.00  0.00     0.005 A 
ENDBRANCH  19  21
BRANCH  18  27
ATOM     27  C   UNL d   1      13.057   0.381 -18.737  0.00  0.00     0.084 C 
ATOM     28  C   UNL d   1      13.272   1.183 -20.018  0.00  0.00     0.024 C 
ATOM     29  C   UNL d   1      13.482  -1.094 -18.911  0.00  0.00     0.024 C 
ENDBRANCH  18  27
ENDBRANCH  17  18
ENDBRANCH  16  17
ENDBRANCH   1  16
TORSDOF 8
