REMARK  4 active torsions:
REMARK  status: ('A' for Active; 'I' for Inactive)
REMARK    1  A    between atoms: O_2  and  C_3 
REMARK    2  A    between atoms: C_6  and  C_7 
REMARK    3  A    between atoms: C_7  and  N_8 
REMARK    4  A    between atoms: C_16  and  O_17 
ROOT
ATOM      1  C   UNL d   1       6.226  -0.288 -14.571  0.00  0.00     0.116 A 
ATOM      2  C   UNL d   1       7.455   0.181 -15.100  0.00  0.00     0.026 A 
ATOM      3  C   UNL d   1       7.852   1.524 -14.918  0.00  0.00    -0.000 A 
ATOM      4  C   UNL d   1       7.035   2.411 -14.191  0.00  0.00     0.013 A 
ATOM      5  C   UNL d   1       5.835   1.921 -13.632  0.00  0.00     0.024 A 
ATOM      6  C   UNL d   1       5.410   0.592 -13.817  0.00  0.00     0.116 A 
ENDROOT
BRANCH   4   7
ATOM      7  C   UNL d   1       7.425   3.872 -14.018  0.00  0.00     0.277 C 
BRANCH   7   8
ATOM      8  N   UNL d   1       7.905   4.179 -12.665  0.00  0.00     0.137 N 
ATOM      9  C   UNL d   1       6.964   4.888 -11.804  0.00  0.00     0.220 C 
ATOM     10  C   UNL d   1       6.865   6.304 -12.402  0.00  0.00     0.035 C 
ATOM     11  C   UNL d   1       7.803   4.951 -10.516  0.00  0.00     0.035 C 
ATOM     12  C   UNL d   1       8.270   6.492 -12.956  0.00  0.00     0.035 C 
ATOM     13  C   UNL d   1       8.963   5.180 -12.575  0.00  0.00     0.220 C 
ATOM     14  C   UNL d   1       9.219   5.144 -11.058  0.00  0.00     0.035 C 
ENDBRANCH   7   8
ENDBRANCH   4   7
BRANCH   6  15
ATOM     15  O   UNL d   1       4.249   0.158 -13.241  0.00  0.00    -0.326 OA
ATOM     16  C   UNL d   1       3.218  -0.375 -14.052  0.00  0.00     0.181 C 
ENDBRANCH   6  15
BRANCH   1  17
ATOM     17  O   UNL d   1       5.849  -1.591 -14.680  0.00  0.00    -0.326 OA
ATOM     18  C   UNL d   1       5.470  -2.052 -15.968  0.00  0.00     0.181 C 
ENDBRANCH   1  17
TORSDOF 4
