REMARK  5 active torsions:
REMARK  status: ('A' for Active; 'I' for Inactive)
REMARK    1  A    between atoms: N_11  and  C_12 
REMARK    2  A    between atoms: C_12  and  C_13 
REMARK    3  A    between atoms: C_13  and  C_14 
REMARK    4  A    between atoms: C_14  and  N_15 
REMARK    5  A    between atoms: C_18  and  N_19 
ROOT
ATOM      1  N   UNL d   1       9.219   6.111  -9.279  0.00  0.00     0.137 N 
ATOM      2  C   UNL d   1      10.667   6.158  -9.198  0.00  0.00     0.252 C 
ATOM      3  C   UNL d   1      11.106   7.265  -8.287  0.00  0.00     0.058 C 
ATOM      4  C   UNL d   1      10.571   7.010  -6.866  0.00  0.00     0.094 C 
ATOM      5  C   UNL d   1       9.040   6.823  -6.931  0.00  0.00     0.058 C 
ATOM      6  C   UNL d   1       8.668   5.765  -7.979  0.00  0.00     0.252 C 
ENDROOT
BRANCH   1   7
ATOM      7  C   UNL d   1       8.717   5.152 -10.253  0.00  0.00     0.252 C 
BRANCH   7   8
ATOM      8  C   UNL d   1       9.345   5.351 -11.638  0.00  0.00     0.060 C 
BRANCH   8   9
ATOM      9  C   UNL d   1       8.418   5.088 -12.830  0.00  0.00     0.111 C 
BRANCH   9  10
ATOM     10  N   UNL d   1       8.925   4.081 -13.790  0.00  0.00    -0.295 N 
ATOM     11  C   UNL d   1      10.129   4.262 -14.389  0.00  0.00     0.268 C 
ATOM     12  O   UNL d   1      10.917   5.175 -14.123  0.00  0.00    -0.269 OA
ATOM     13  C   UNL d   1      10.555   3.257 -15.466  0.00  0.00     0.236 C 
ATOM     14  O   UNL d   1      10.072   1.941 -15.196  0.00  0.00    -0.319 OA
ATOM     15  C   UNL d   1       8.756   1.857 -14.816  0.00  0.00     0.110 A 
ATOM     16  C   UNL d   1       8.127   2.935 -14.136  0.00  0.00     0.085 A 
ATOM     17  C   UNL d   1       8.057   0.661 -15.080  0.00  0.00     0.026 A 
ATOM     18  C   UNL d   1       6.756   2.796 -13.780  0.00  0.00     0.019 A 
ATOM     19  C   UNL d   1       6.077   1.592 -14.025  0.00  0.00     0.002 A 
ATOM     20  C   UNL d   1       6.713   0.529 -14.685  0.00  0.00     0.002 A 
ENDBRANCH   9  10
ENDBRANCH   8   9
ENDBRANCH   7   8
ENDBRANCH   1   7
BRANCH   4  21
ATOM     21  N   UNL d   1      10.932   8.098  -5.927  0.00  0.00    -0.281 N 
ATOM     22  C   UNL d   1      11.475   7.945  -4.648  0.00  0.00     0.084 A 
ATOM     23  C   UNL d   1      11.614   9.202  -4.107  0.00  0.00     0.102 A 
ATOM     24  C   UNL d   1      11.818   6.788  -3.929  0.00  0.00     0.049 A 
ATOM     25  N   UNL d   1      11.181  10.091  -5.064  0.00  0.00    -0.191 NA
ATOM     26  C   UNL d   1      12.106   9.454  -2.837  0.00  0.00     0.023 A 
ATOM     27  C   UNL d   1      10.825   9.405  -6.157  0.00  0.00     0.350 A 
ATOM     28  O   UNL d   1      10.506   9.921  -7.200  0.00  0.00    -0.244 OA
ATOM     29  C   UNL d   1      12.494   8.319  -2.098  0.00  0.00     0.031 A 
ATOM     30  C   UNL d   1      12.342   7.021  -2.632  0.00  0.00     0.142 A 
ATOM     31  F   UNL d   1      12.737   5.991  -1.853  0.00  0.00    -0.204 F 
ENDBRANCH   4  21
TORSDOF 5
