REMARK  4 active torsions:
REMARK  status: ('A' for Active; 'I' for Inactive)
REMARK    1  A    between atoms: C_6  and  C_7 
REMARK    2  A    between atoms: C_11  and  C_12 
REMARK    3  A    between atoms: C_12  and  N_13 
REMARK    4  A    between atoms: N_16  and  C_17 
ROOT
ATOM      1  C   UNL d   1       8.240   1.903 -15.222  0.00  0.00    -0.000 A 
ATOM      2  C   UNL d   1       7.617   0.827 -15.904  0.00  0.00    -0.000 A 
ATOM      3  C   UNL d   1       8.311   0.035 -16.839  0.00  0.00    -0.000 A 
ATOM      4  C   UNL d   1       9.657   0.315 -17.142  0.00  0.00    -0.002 A 
ATOM      5  C   UNL d   1      10.303   1.382 -16.492  0.00  0.00     0.011 A 
ATOM      6  C   UNL d   1       9.613   2.122 -15.509  0.00  0.00    -0.002 A 
ENDROOT
BRANCH   5   7
ATOM      7  C   UNL d   1      11.740   1.732 -16.837  0.00  0.00     0.277 C 
BRANCH   7   8
ATOM      8  N   UNL d   1      11.872   2.849 -17.781  0.00  0.00     0.145 N 
ATOM      9  C   UNL d   1      13.286   3.003 -18.127  0.00  0.00     0.275 C 
ATOM     10  C   UNL d   1      13.473   4.138 -19.155  0.00  0.00     0.155 C 
ATOM     11  N   UNL d   1      12.943   5.400 -18.620  0.00  0.00    -0.179 N 
ATOM     12  C   UNL d   1      11.556   5.271 -18.177  0.00  0.00     0.155 C 
ATOM     13  C   UNL d   1      11.423   4.114 -17.189  0.00  0.00     0.275 C 
BRANCH  11  14
ATOM     14  C   UNL d   1      13.658   6.582 -18.564  0.00  0.00     0.727 A 
ATOM     15  N   UNL d   1      14.778   6.662 -19.287  0.00  0.00    -0.060 NA
ATOM     16  C   UNL d   1      15.470   7.807 -19.239  0.00  0.00     0.120 A 
ATOM     17  C   UNL d   1      15.061   8.886 -18.438  0.00  0.00     0.043 A 
ATOM     18  C   UNL d   1      13.877   8.699 -17.708  0.00  0.00     0.120 A 
ATOM     19  N   UNL d   1      13.188   7.552 -17.763  0.00  0.00    -0.060 NA
ENDBRANCH  11  14
ENDBRANCH   7   8
ENDBRANCH   5   7
BRANCH   1  20
ATOM     20  C   UNL d   1       7.515   2.767 -14.245  0.00  0.00     0.002 A 
ATOM     21  C   UNL d   1       6.261   2.382 -13.724  0.00  0.00     0.000 A 
ATOM     22  C   UNL d   1       5.551   3.183 -12.805  0.00  0.00     0.002 A 
ATOM     23  C   UNL d   1       6.097   4.398 -12.367  0.00  0.00     0.030 A 
ATOM     24  C   UNL d   1       7.347   4.809 -12.858  0.00  0.00     0.140 A 
ATOM     25  F   UNL d   1       7.889   5.978 -12.450  0.00  0.00    -0.204 F 
ATOM     26  C   UNL d   1       8.038   4.008 -13.787  0.00  0.00     0.030 A 
ENDBRANCH   1  20
TORSDOF 4
