REMARK  4 active torsions:
REMARK  status: ('A' for Active; 'I' for Inactive)
REMARK    1  A    between atoms: C_2  and  C_3 
REMARK       I    between atoms: C_2  and  N_18 
REMARK    2  A    between atoms: C_3  and  N_4 
REMARK    3  A    between atoms: N_7  and  C_8 
REMARK    4  A    between atoms: C_8  and  C_9 
ROOT
ATOM      1  N   UNL d   1       9.376   5.120 -12.724  0.00  0.00     0.151 N 
ATOM      2  C   UNL d   1       9.660   3.968 -11.870  0.00  0.00     0.286 C 
ATOM      3  C   UNL d   1       9.589   4.344 -10.385  0.00  0.00     0.286 C 
ATOM      4  N   UNL d   1       8.291   4.909 -10.037  0.00  0.00     0.146 N 
ATOM      5  C   UNL d   1       7.841   5.983 -10.971  0.00  0.00     0.286 C 
ATOM      6  C   UNL d   1       8.005   5.596 -12.450  0.00  0.00     0.286 C 
ENDROOT
BRANCH   1   7
ATOM      7  C   UNL d   1       9.545   4.768 -14.138  0.00  0.00     0.337 C 
BRANCH   7   8
ATOM      8  C   UNL d   1      10.968   4.419 -14.636  0.00  0.00     0.268 C 
ATOM      9  O   UNL d   1      11.906   4.452 -13.850  0.00  0.00    -0.270 OA
ATOM     10  N   UNL d   1      11.148   4.088 -15.947  0.00  0.00    -0.320 N 
ATOM     11  C   UNL d   1      10.098   4.221 -16.978  0.00  0.00     0.084 C 
ATOM     12  C   UNL d   1      12.482   3.700 -16.444  0.00  0.00     0.104 C 
ATOM     13  C   UNL d   1      10.037   2.970 -17.893  0.00  0.00     0.021 C 
ATOM     14  C   UNL d   1      10.269   5.537 -17.773  0.00  0.00     0.022 C 
ATOM     15  C   UNL d   1      11.417   2.595 -18.449  0.00  0.00     0.004 C 
ATOM     16  C   UNL d   1       8.967   3.155 -18.982  0.00  0.00     0.002 C 
ATOM     17  C   UNL d   1      12.423   2.429 -17.309  0.00  0.00     0.024 C 
ATOM     18  C   UNL d   1       9.131   4.470 -19.767  0.00  0.00     0.000 C 
ATOM     19  C   UNL d   1       9.178   5.691 -18.835  0.00  0.00     0.002 C 
ENDBRANCH   7   8
ENDBRANCH   1   7
BRANCH   4  20
ATOM     20  C   UNL d   1       8.273   5.296  -8.631  0.00  0.00     0.277 C 
BRANCH  20  21
ATOM     21  C   UNL d   1       9.227   6.402  -8.204  0.00  0.00     0.011 A 
ATOM     22  C   UNL d   1      10.090   7.101  -9.095  0.00  0.00    -0.002 A 
ATOM     23  C   UNL d   1      10.968   8.073  -8.643  0.00  0.00     0.011 A 
ATOM     24  C   UNL d   1      11.003   8.413  -7.268  0.00  0.00     0.058 A 
ATOM     25  C   UNL d   1      10.129   7.749  -6.374  0.00  0.00     0.011 A 
ATOM     26 CL   UNL d   1      12.075   9.606  -6.653  0.00  0.00    -0.082 Cl
ATOM     27  C   UNL d   1       9.239   6.779  -6.832  0.00  0.00    -0.002 A 
ENDBRANCH  20  21
ENDBRANCH   4  20
TORSDOF 4
