REMARK  4 active torsions:
REMARK  status: ('A' for Active; 'I' for Inactive)
REMARK    1  A    between atoms: O_2  and  C_3 
REMARK    2  A    between atoms: C_8  and  O_9 
REMARK    3  A    between atoms: N_12  and  C_13 
REMARK    4  A    between atoms: N_14  and  C_15 
ROOT
ATOM      1  C   UNL d   1      11.360   9.198  -4.589  0.00  0.00     0.116 A 
ATOM      2  C   UNL d   1      11.135   9.616  -5.911  0.00  0.00     0.022 A 
ATOM      3  C   UNL d   1      10.985   8.661  -6.930  0.00  0.00    -0.020 A 
ATOM      4  C   UNL d   1      11.015   7.298  -6.587  0.00  0.00    -0.002 A 
ATOM      5  C   UNL d   1      11.277   6.884  -5.280  0.00  0.00     0.024 A 
ATOM      6  C   UNL d   1      11.474   7.818  -4.268  0.00  0.00     0.116 A 
ATOM      7  C   UNL d   1      10.844   6.224  -7.607  0.00  0.00     0.130 C 
ATOM      8  N   UNL d   1      10.505   6.702  -8.944  0.00  0.00    -0.327 N 
ATOM      9  C   UNL d   1      11.149   7.949  -9.356  0.00  0.00     0.108 C 
ATOM     10  C   UNL d   1      10.814   9.085  -8.376  0.00  0.00     0.050 C 
ENDROOT
BRANCH   8  11
ATOM     11  C   UNL d   1       9.519   6.073  -9.696  0.00  0.00     0.175 C 
ATOM     12  N   UNL d   1       9.585   5.942 -10.978  0.00  0.00    -0.226 NA
BRANCH  12  13
ATOM     13  C   UNL d   1       8.558   5.268 -11.633  0.00  0.00     0.083 A 
ATOM     14  C   UNL d   1       8.886   4.255 -12.566  0.00  0.00     0.017 A 
ATOM     15  C   UNL d   1       7.855   3.606 -13.259  0.00  0.00     0.005 A 
ATOM     16  C   UNL d   1       6.520   3.915 -12.989  0.00  0.00    -0.024 A 
ATOM     17  C   UNL d   1       7.976   2.468 -14.236  0.00  0.00     0.174 C 
ATOM     18  C   UNL d   1       6.157   4.922 -12.098  0.00  0.00    -0.003 A 
ATOM     19  C   UNL d   1       5.595   3.070 -13.777  0.00  0.00     0.029 C 
ATOM     20  C   UNL d   1       7.190   5.593 -11.430  0.00  0.00     0.019 A 
ATOM     21  C   UNL d   1       6.511   2.022 -14.461  0.00  0.00     0.042 C 
ATOM     22  O   UNL d   1       8.622   2.814 -15.443  0.00  0.00    -0.219 OA
ENDBRANCH  12  13
ENDBRANCH   8  11
BRANCH   6  23
ATOM     23  O   UNL d   1      11.499   7.413  -2.957  0.00  0.00    -0.326 OA
ATOM     24  C   UNL d   1      12.468   6.463  -2.613  0.00  0.00     0.181 C 
ENDBRANCH   6  23
BRANCH   1  25
ATOM     25  O   UNL d   1      11.324  10.152  -3.605  0.00  0.00    -0.326 OA
ATOM     26  C   UNL d   1      12.242   9.953  -2.542  0.00  0.00     0.181 C 
ENDBRANCH   1  25
TORSDOF 4
