REMARK  7 active torsions:
REMARK  status: ('A' for Active; 'I' for Inactive)
REMARK    1  A    between atoms: O_2  and  C_3 
REMARK    2  A    between atoms: C_6  and  O_7 
REMARK    3  A    between atoms: O_7  and  C_8 
REMARK    4  A    between atoms: C_8  and  C_9 
REMARK    5  A    between atoms: C_9  and  N_11 
REMARK       I    between atoms: N_14  and  C_15 
REMARK    6  A    between atoms: C_15  and  C_17 
REMARK    7  A    between atoms: C_20  and  O_21 
ROOT
ATOM      1  N   UNL d   1       8.399   3.994 -13.303  0.00  0.00     0.142 N 
ATOM      2  C   UNL d   1       9.428   4.227 -14.329  0.00  0.00     0.274 C 
ATOM      3  C   UNL d   1       9.996   2.897 -14.857  0.00  0.00     0.140 C 
ATOM      4  N   UNL d   1       8.917   2.063 -15.417  0.00  0.00    -0.312 N 
ATOM      5  C   UNL d   1       8.985   1.534 -16.660  0.00  0.00     0.257 C 
ATOM      6  O   UNL d   1       9.992   1.620 -17.372  0.00  0.00    -0.267 OA
ATOM      7  C   UNL d   1       7.828   1.859 -14.449  0.00  0.00     0.140 C 
ATOM      8  C   UNL d   1       7.327   3.201 -13.917  0.00  0.00     0.274 C 
ENDROOT
BRANCH   1   9
ATOM      9  C   UNL d   1       7.854   5.258 -12.780  0.00  0.00     0.249 C 
ATOM     10  C   UNL d   1       6.618   5.045 -11.864  0.00  0.00     0.038 C 
BRANCH   9  11
ATOM     11  C   UNL d   1       8.906   6.085 -12.000  0.00  0.00     0.182 C 
BRANCH  11  12
ATOM     12  O   UNL d   1       9.137   5.481 -10.734  0.00  0.00    -0.329 OA
BRANCH  12  13
ATOM     13  C   UNL d   1       9.670   6.267  -9.741  0.00  0.00     0.094 A 
ATOM     14  C   UNL d   1       9.608   5.768  -8.429  0.00  0.00     0.026 A 
ATOM     15  C   UNL d   1      10.141   6.508  -7.357  0.00  0.00     0.026 A 
ATOM     16  C   UNL d   1      10.753   7.757  -7.573  0.00  0.00     0.094 A 
ATOM     17  C   UNL d   1      10.813   8.264  -8.894  0.00  0.00     0.026 A 
ATOM     18  C   UNL d   1      10.275   7.527  -9.966  0.00  0.00     0.026 A 
BRANCH  16  19
ATOM     19  O   UNL d   1      11.257   8.406  -6.466  0.00  0.00    -0.328 OA
ATOM     20  C   UNL d   1      12.027   9.579  -6.677  0.00  0.00     0.181 C 
ENDBRANCH  16  19
ENDBRANCH  12  13
ENDBRANCH  11  12
ENDBRANCH   9  11
ENDBRANCH   1   9
BRANCH   5  21
ATOM     21  C   UNL d   1       7.750   0.899 -17.249  0.00  0.00     0.056 A 
ATOM     22  C   UNL d   1       7.011  -0.083 -16.555  0.00  0.00     0.007 A 
ATOM     23  C   UNL d   1       5.828  -0.581 -17.068  0.00  0.00     0.024 A 
ATOM     24  C   UNL d   1       5.361  -0.177 -18.351  0.00  0.00     0.094 A 
ATOM     25  C   UNL d   1       6.130   0.756 -19.080  0.00  0.00     0.024 A 
ATOM     26  C   UNL d   1       7.316   1.285 -18.532  0.00  0.00     0.007 A 
BRANCH  24  27
ATOM     27  O   UNL d   1       4.198  -0.639 -18.933  0.00  0.00    -0.328 OA
ATOM     28  C   UNL d   1       3.468  -1.640 -18.233  0.00  0.00     0.181 C 
ENDBRANCH  24  27
ENDBRANCH   5  21
TORSDOF 7
