REMARK  8 active torsions:
REMARK  status: ('A' for Active; 'I' for Inactive)
REMARK    1  A    between atoms: S_2  and  N_4 
REMARK    2  A    between atoms: S_2  and  C_24 
REMARK    3  A    between atoms: N_4  and  C_5 
REMARK    4  A    between atoms: C_5  and  C_6 
REMARK    5  A    between atoms: C_6  and  C_7 
REMARK    6  A    between atoms: C_7  and  C_8 
REMARK    7  A    between atoms: C_8  and  N_9 
REMARK    8  A    between atoms: N_12  and  C_13 
ROOT
ATOM      1  C   UNL d   1       9.261   4.732 -12.645  0.00  0.00     0.251 C 
ENDROOT
BRANCH   1   2
ATOM      2  C   UNL d   1       9.059   4.468 -11.148  0.00  0.00     0.037 C 
BRANCH   2   3
ATOM      3  C   UNL d   1       9.139   5.760 -10.346  0.00  0.00     0.029 C 
BRANCH   3   4
ATOM      4  C   UNL d   1       9.147   5.537  -8.821  0.00  0.00     0.139 C 
BRANCH   4   5
ATOM      5  N   UNL d   1       9.061   6.807  -8.108  0.00  0.00    -0.185 NA
BRANCH   5   6
ATOM      6  S   UNL d   1      10.288   7.997  -8.290  0.00  0.00     0.281 S 
ATOM      7  O   UNL d   1      11.453   7.367  -8.922  0.00  0.00    -0.199 OA
ATOM      8  O   UNL d   1       9.661   9.183  -8.891  0.00  0.00    -0.199 OA
BRANCH   6   9
ATOM      9  C   UNL d   1      10.740   8.361  -6.609  0.00  0.00     0.106 A 
ATOM     10  C   UNL d   1      11.159   7.330  -5.743  0.00  0.00     0.027 A 
ATOM     11  C   UNL d   1      11.543   7.664  -4.422  0.00  0.00     0.086 A 
ATOM     12  C   UNL d   1      11.505   8.999  -3.982  0.00  0.00     0.151 A 
ATOM     13 CL   UNL d   1      12.059   6.470  -3.296  0.00  0.00    -0.080 Cl
ATOM     14  C   UNL d   1      11.077  10.014  -4.847  0.00  0.00     0.031 A 
ATOM     15  F   UNL d   1      11.874   9.306  -2.722  0.00  0.00    -0.203 F 
ATOM     16  C   UNL d   1      10.712   9.698  -6.168  0.00  0.00     0.015 A 
ENDBRANCH   6   9
ENDBRANCH   5   6
ENDBRANCH   4   5
ENDBRANCH   3   4
ENDBRANCH   2   3
ENDBRANCH   1   2
BRANCH   1  17
ATOM     17  N   UNL d   1       9.186   3.481 -13.392  0.00  0.00     0.141 N 
ATOM     18  C   UNL d   1       9.953   3.582 -14.636  0.00  0.00     0.274 C 
ATOM     19  C   UNL d   1       9.897   2.251 -15.414  0.00  0.00     0.138 C 
ATOM     20  N   UNL d   1       8.506   1.871 -15.688  0.00  0.00    -0.329 N 
ATOM     21  C   UNL d   1       7.665   1.874 -14.490  0.00  0.00     0.138 C 
ATOM     22  C   UNL d   1       7.785   3.204 -13.729  0.00  0.00     0.274 C 
BRANCH  20  23
ATOM     23  C   UNL d   1       8.032   1.567 -16.982  0.00  0.00     0.148 A 
ATOM     24  C   UNL d   1       6.885   0.692 -17.243  0.00  0.00     0.042 A 
ATOM     25  C   UNL d   1       6.661   0.623 -18.661  0.00  0.00     0.050 A 
ATOM     26  C   UNL d   1       6.004  -0.073 -16.431  0.00  0.00     0.004 A 
ATOM     27  S   UNL d   1       7.915   1.559 -19.449  0.00  0.00     0.015 SA
ATOM     28  C   UNL d   1       5.602  -0.113 -19.228  0.00  0.00     0.008 A 
ATOM     29  N   UNL d   1       8.645   2.075 -18.035  0.00  0.00    -0.192 NA
ATOM     30  C   UNL d   1       4.718  -0.822 -18.386  0.00  0.00     0.001 A 
ATOM     31  C   UNL d   1       4.932  -0.803 -16.989  0.00  0.00     0.000 A 
ENDBRANCH  20  23
ENDBRANCH   1  17
TORSDOF 8
