REMARK  7 active torsions:
REMARK  status: ('A' for Active; 'I' for Inactive)
REMARK    1  A    between atoms: O_2  and  C_3 
REMARK    2  A    between atoms: N_13  and  C_14 
REMARK    3  A    between atoms: C_14  and  C_15 
REMARK    4  A    between atoms: C_15  and  C_16 
REMARK    5  A    between atoms: C_16  and  C_17 
REMARK    6  A    between atoms: C_17  and  N_18 
REMARK       I    between atoms: N_18  and  C_19 
REMARK    7  A    between atoms: C_19  and  C_21 
ROOT
ATOM      1  C   UNL d   1       7.649   0.925 -16.201  0.00  0.00     0.094 A 
ATOM      2  C   UNL d   1       9.011   0.562 -16.340  0.00  0.00     0.026 A 
ATOM      3  C   UNL d   1      10.011   1.261 -15.636  0.00  0.00     0.026 A 
ATOM      4  C   UNL d   1       9.676   2.339 -14.790  0.00  0.00     0.092 A 
ATOM      5  C   UNL d   1       8.314   2.686 -14.627  0.00  0.00     0.031 A 
ATOM      6  C   UNL d   1       7.316   1.983 -15.331  0.00  0.00     0.024 A 
ATOM      7  C   UNL d   1       7.927   3.841 -13.723  0.00  0.00     0.173 C 
ATOM      8  O   UNL d   1       6.702   3.596 -13.039  0.00  0.00    -0.348 OA
ATOM      9  C   UNL d   1       6.291   4.693 -12.238  0.00  0.00     0.178 C 
ATOM     10  C   UNL d   1       7.404   5.085 -11.259  0.00  0.00     0.282 C 
ATOM     11  N   UNL d   1       8.683   5.357 -11.914  0.00  0.00     0.143 N 
ATOM     12  C   UNL d   1       9.047   4.171 -12.717  0.00  0.00     0.280 C 
ATOM     13  C   UNL d   1      10.369   4.243 -13.508  0.00  0.00     0.185 C 
ATOM     14  O   UNL d   1      10.691   3.001 -14.133  0.00  0.00    -0.329 OA
ENDROOT
BRANCH  11  15
ATOM     15  C   UNL d   1       9.703   5.717 -10.925  0.00  0.00     0.251 C 
BRANCH  15  16
ATOM     16  C   UNL d   1       9.370   6.904 -10.005  0.00  0.00     0.037 C 
BRANCH  16  17
ATOM     17  C   UNL d   1      10.303   7.048  -8.806  0.00  0.00     0.029 C 
BRANCH  17  18
ATOM     18  C   UNL d   1       9.805   8.127  -7.834  0.00  0.00     0.129 C 
BRANCH  18  19
ATOM     19  N   UNL d   1      10.421   7.955  -6.523  0.00  0.00    -0.234 NA
ATOM     20  C   UNL d   1      11.066   8.895  -5.814  0.00  0.00     0.281 C 
ATOM     21  O   UNL d   1      11.233  10.045  -6.211  0.00  0.00    -0.265 OA
BRANCH  20  22
ATOM     22  C   UNL d   1      11.536   8.493  -4.471  0.00  0.00     0.087 A 
ATOM     23  S   UNL d   1      11.772   6.794  -4.149  0.00  0.00    -0.082 SA
ATOM     24  C   UNL d   1      12.260   7.123  -2.512  0.00  0.00     0.036 A 
ATOM     25  C   UNL d   1      12.274   8.469  -2.254  0.00  0.00     0.008 A 
ATOM     26  C   UNL d   1      11.861   9.251  -3.373  0.00  0.00     0.012 A 
ENDBRANCH  20  22
ENDBRANCH  18  19
ENDBRANCH  17  18
ENDBRANCH  16  17
ENDBRANCH  15  16
ENDBRANCH  11  15
BRANCH   1  27
ATOM     27  O   UNL d   1       6.606   0.312 -16.862  0.00  0.00    -0.328 OA
ATOM     28  C   UNL d   1       6.917  -0.608 -17.897  0.00  0.00     0.181 C 
ENDBRANCH   1  27
TORSDOF 7
