REMARK  8 active torsions:
REMARK  status: ('A' for Active; 'I' for Inactive)
REMARK    1  A    between atoms: O_2  and  C_3 
REMARK    2  A    between atoms: C_9  and  N_10 
REMARK    3  A    between atoms: N_13  and  C_14 
REMARK    4  A    between atoms: C_14  and  C_15 
REMARK    5  A    between atoms: C_15  and  C_16 
REMARK    6  A    between atoms: C_16  and  C_17 
REMARK    7  A    between atoms: C_17  and  N_18 
REMARK       I    between atoms: N_18  and  C_19 
REMARK    8  A    between atoms: C_19  and  C_21 
ROOT
ATOM      1  N   UNL d   1       9.610   0.991 -15.401  0.00  0.00    -0.328 N 
ATOM      2  C   UNL d   1      10.827   1.658 -14.983  0.00  0.00     0.138 C 
ATOM      3  C   UNL d   1      10.527   3.153 -14.723  0.00  0.00     0.274 C 
ATOM      4  N   UNL d   1       9.415   3.289 -13.771  0.00  0.00     0.141 N 
ATOM      5  C   UNL d   1       8.216   2.648 -14.325  0.00  0.00     0.274 C 
ATOM      6  C   UNL d   1       8.469   1.144 -14.528  0.00  0.00     0.138 C 
ENDROOT
BRANCH   4   7
ATOM      7  C   UNL d   1       9.145   4.699 -13.512  0.00  0.00     0.251 C 
BRANCH   7   8
ATOM      8  C   UNL d   1       8.275   4.869 -12.250  0.00  0.00     0.037 C 
BRANCH   8   9
ATOM      9  C   UNL d   1       9.171   5.146 -11.047  0.00  0.00     0.029 C 
BRANCH   9  10
ATOM     10  C   UNL d   1       8.400   5.405  -9.740  0.00  0.00     0.129 C 
BRANCH  10  11
ATOM     11  N   UNL d   1       9.211   6.018  -8.682  0.00  0.00    -0.234 NA
ATOM     12  C   UNL d   1      10.066   7.048  -8.826  0.00  0.00     0.275 C 
ATOM     13  O   UNL d   1      10.420   7.541  -9.880  0.00  0.00    -0.266 OA
BRANCH  12  14
ATOM     14  C   UNL d   1      10.556   7.682  -7.546  0.00  0.00     0.059 A 
ATOM     15  C   UNL d   1      10.760   6.933  -6.376  0.00  0.00     0.025 A 
ATOM     16  C   UNL d   1      11.271   7.535  -5.211  0.00  0.00     0.099 A 
ATOM     17  C   UNL d   1      11.583   8.935  -5.222  0.00  0.00     0.099 A 
ATOM     18  N   UNL d   1      11.471   6.792  -4.101  0.00  0.00    -0.241 NA
ATOM     19  C   UNL d   1      11.388   9.675  -6.403  0.00  0.00     0.021 A 
ATOM     20  N   UNL d   1      12.069   9.547  -4.120  0.00  0.00    -0.241 NA
ATOM     21  C   UNL d   1      10.881   9.045  -7.556  0.00  0.00     0.006 A 
ATOM     22  C   UNL d   1      12.257   8.790  -3.022  0.00  0.00     0.120 A 
ATOM     23  C   UNL d   1      11.963   7.413  -3.011  0.00  0.00     0.120 A 
ENDBRANCH  12  14
ENDBRANCH  10  11
ENDBRANCH   9  10
ENDBRANCH   8   9
ENDBRANCH   7   8
ENDBRANCH   4   7
BRANCH   1  24
ATOM     24  C   UNL d   1       9.555   0.231 -16.604  0.00  0.00     0.169 A 
ATOM     25  N   UNL d   1      10.630  -0.354 -17.101  0.00  0.00    -0.109 NA
ATOM     26  O   UNL d   1      10.215  -1.037 -18.279  0.00  0.00    -0.210 OA
ATOM     27  C   UNL d   1       8.867  -0.817 -18.493  0.00  0.00     0.128 A 
ATOM     28  C   UNL d   1       8.023  -1.250 -19.528  0.00  0.00     0.029 A 
ATOM     29  C   UNL d   1       8.442  -0.002 -17.436  0.00  0.00     0.063 A 
ATOM     30  C   UNL d   1       6.683  -0.845 -19.474  0.00  0.00     0.026 A 
ATOM     31  C   UNL d   1       6.195  -0.019 -18.426  0.00  0.00     0.094 A 
ATOM     32  C   UNL d   1       7.085   0.431 -17.409  0.00  0.00     0.029 A 
BRANCH  31  33
ATOM     33  O   UNL d   1       4.888   0.390 -18.317  0.00  0.00    -0.328 OA
ATOM     34  C   UNL d   1       4.004  -0.018 -19.355  0.00  0.00     0.181 C 
ENDBRANCH  31  33
ENDBRANCH   1  24
TORSDOF 8
