REMARK  3 active torsions:
REMARK  status: ('A' for Active; 'I' for Inactive)
REMARK    1  A    between atoms: CA_2  and  C_3 
REMARK    2  A    between atoms: CA_2  and  C_12 
REMARK    3  A    between atoms: C_3  and  C_4 
ROOT
ATOM      1  C   UNL d   1      10.973   7.425  -6.579  0.00  0.00    -0.017 A 
ATOM      2  C   UNL d   1      11.626   8.211  -7.557  0.00  0.00    -0.002 A 
ATOM      3  C   UNL d   1      11.076   8.353  -8.837  0.00  0.00     0.029 A 
ATOM      4  C   UNL d   1       9.944   7.619  -9.200  0.00  0.00     0.156 A 
ATOM      5  O   UNL d   1       9.467   7.748 -10.472  0.00  0.00    -0.188 OA
ATOM      6  C   UNL d   1       9.335   6.752  -8.265  0.00  0.00     0.156 A 
ATOM      7  O   UNL d   1       8.281   5.963  -8.624  0.00  0.00    -0.188 OA
ATOM      8  C   UNL d   1       9.832   6.679  -6.948  0.00  0.00     0.025 A 
ENDROOT
BRANCH   1   9
ATOM      9  C   UNL d   1      11.458   7.394  -5.136  0.00  0.00     0.077 C 
BRANCH   9  10
ATOM     10  CA  UNL d   1      12.027   8.708  -4.523  0.00  0.00     0.391 C 
ATOM     11  N   UNL d   1      12.059   8.617  -3.058  0.00  0.00     0.628 N 
BRANCH  10  12
ATOM     12  C   UNL d   1      11.292   9.986  -4.988  0.00  0.00     0.224 C 
ATOM     13  O   UNL d   1      10.297  10.379  -4.399  0.00  0.00    -0.646 OA
ATOM     14  OXT UNL d   1      11.844  10.662  -6.037  0.00  0.00    -0.646 OA
ENDBRANCH  10  12
ENDBRANCH   9  10
ENDBRANCH   1   9
TORSDOF 3
