REMARK  8 active torsions:
REMARK  status: ('A' for Active; 'I' for Inactive)
REMARK    1  A    between atoms: O_2  and  C_3 
REMARK    2  A    between atoms: C_8  and  N_9 
REMARK    3  A    between atoms: N_13  and  C_14 
REMARK    4  A    between atoms: C_14  and  C_15 
REMARK    5  A    between atoms: C_15  and  C_16 
REMARK    6  A    between atoms: C_16  and  C_17 
REMARK    7  A    between atoms: C_17  and  N_18 
REMARK       I    between atoms: N_18  and  C_19 
REMARK    8  A    between atoms: C_19  and  C_21 
ROOT
ATOM      1  N   UNL d   1       9.120   2.707 -16.418  0.00  0.00    -0.345 N 
ATOM      2  C   UNL d   1       9.457   4.028 -16.941  0.00  0.00     0.104 C 
ATOM      3  C   UNL d   1       9.416   5.186 -15.921  0.00  0.00     0.059 C 
ATOM      4  C   UNL d   1      10.182   4.973 -14.625  0.00  0.00     0.252 C 
ATOM      5  N   UNL d   1       9.340   4.283 -13.646  0.00  0.00     0.139 N 
ATOM      6  C   UNL d   1       9.266   2.865 -13.977  0.00  0.00     0.274 C 
ATOM      7  C   UNL d   1       8.385   2.548 -15.171  0.00  0.00     0.137 C 
ENDROOT
BRANCH   5   8
ATOM      8  C   UNL d   1       9.934   4.414 -12.322  0.00  0.00     0.250 C 
BRANCH   8   9
ATOM      9  C   UNL d   1       9.493   5.689 -11.568  0.00  0.00     0.037 C 
BRANCH   9  10
ATOM     10  C   UNL d   1       9.984   5.711 -10.100  0.00  0.00     0.029 C 
BRANCH  10  11
ATOM     11  C   UNL d   1       9.195   6.677  -9.229  0.00  0.00     0.129 C 
BRANCH  11  12
ATOM     12  N   UNL d   1       9.852   6.896  -7.944  0.00  0.00    -0.234 NA
ATOM     13  C   UNL d   1      10.535   8.011  -7.638  0.00  0.00     0.276 C 
ATOM     14  O   UNL d   1      10.724   8.935  -8.426  0.00  0.00    -0.266 OA
BRANCH  13  15
ATOM     15  C   UNL d   1      11.014   8.125  -6.227  0.00  0.00     0.077 A 
ATOM     16  C   UNL d   1      11.393   6.987  -5.480  0.00  0.00     0.104 A 
ATOM     17  N   UNL d   1      11.854   7.051  -4.215  0.00  0.00    -0.237 NA
ATOM     18  C   UNL d   1      11.965   8.266  -3.644  0.00  0.00     0.116 A 
ATOM     19  C   UNL d   1      11.600   9.456  -4.296  0.00  0.00     0.026 A 
ATOM     20 BR   UNL d   1      12.657   8.374  -1.885  0.00  0.00    -0.028 Br
ATOM     21  C   UNL d   1      11.133   9.393  -5.619  0.00  0.00     0.008 A 
ENDBRANCH  13  15
ENDBRANCH  11  12
ENDBRANCH  10  11
ENDBRANCH   9  10
ENDBRANCH   8   9
ENDBRANCH   5   8
BRANCH   1  22
ATOM     22  C   UNL d   1       9.785   1.581 -16.941  0.00  0.00     0.079 A 
ATOM     23  C   UNL d   1       9.034   0.442 -17.350  0.00  0.00     0.110 A 
ATOM     24  C   UNL d   1       9.706  -0.664 -17.912  0.00  0.00     0.026 A 
ATOM     25  C   UNL d   1      11.098  -0.655 -18.097  0.00  0.00     0.002 A 
ATOM     26  C   UNL d   1      11.840   0.472 -17.692  0.00  0.00     0.002 A 
ATOM     27  C   UNL d   1      11.192   1.566 -17.104  0.00  0.00     0.019 A 
BRANCH  23  28
ATOM     28  O   UNL d   1       7.660   0.499 -17.208  0.00  0.00    -0.327 OA
ATOM     29  C   UNL d   1       6.876  -0.577 -17.700  0.00  0.00     0.181 C 
ENDBRANCH  23  28
ENDBRANCH   1  22
TORSDOF 8
