REMARK  11 active torsions:
REMARK  status: ('A' for Active; 'I' for Inactive)
REMARK    1  A    between atoms: C_2  and  N_3 
REMARK    2  A    between atoms: N_3  and  C_4 
REMARK    3  A    between atoms: N_3  and  C_20 
REMARK    4  A    between atoms: C_4  and  C_5 
REMARK    5  A    between atoms: C_5  and  C_6 
REMARK    6  A    between atoms: C_6  and  S_7 
REMARK    7  A    between atoms: S_7  and  C_8 
REMARK    8  A    between atoms: C_11  and  C_12 
REMARK    9  A    between atoms: C_20  and  C_21 
REMARK   10  A    between atoms: C_23  and  C_24 
REMARK   11  A    between atoms: C_30  and  O_31 
ROOT
ATOM      1  N   UNL d   1       8.418   5.233 -11.805  0.00  0.00     0.137 N 
ENDROOT
BRANCH   1   2
ATOM      2  C   UNL d   1       8.679   5.869 -10.513  0.00  0.00     0.250 C 
ATOM      3  C   UNL d   1       9.696   7.014 -10.602  0.00  0.00     0.037 C 
ENDBRANCH   1   2
BRANCH   1   4
ATOM      4  C   UNL d   1       9.577   4.400 -12.147  0.00  0.00     0.251 C 
BRANCH   4   5
ATOM      5  C   UNL d   1       9.389   3.640 -13.446  0.00  0.00     0.047 C 
BRANCH   5   6
ATOM      6  C   UNL d   1      10.592   2.895 -14.009  0.00  0.00     0.067 C 
BRANCH   6   7
ATOM      7  S   UNL d   1      11.805   4.000 -14.789  0.00  0.00    -0.075 SA
BRANCH   7   8
ATOM      8  C   UNL d   1      10.893   4.477 -16.243  0.00  0.00     0.193 A 
ATOM      9  N   UNL d   1      11.183   5.597 -16.931  0.00  0.00    -0.289 N 
ATOM     10  C   UNL d   1      10.282   5.522 -17.964  0.00  0.00     0.167 A 
ATOM     11  C   UNL d   1      12.187   6.593 -16.598  0.00  0.00     0.134 C 
ATOM     12  N   UNL d   1       9.495   4.455 -17.873  0.00  0.00    -0.128 NA
ATOM     13  N   UNL d   1       9.888   3.772 -16.760  0.00  0.00    -0.122 NA
BRANCH  10  14
ATOM     14  C   UNL d   1      10.146   6.459 -19.075  0.00  0.00     0.036 A 
ATOM     15  C   UNL d   1       8.858   6.715 -19.626  0.00  0.00     0.003 A 
ATOM     16  C   UNL d   1       8.709   7.641 -20.689  0.00  0.00     0.000 A 
ATOM     17  C   UNL d   1       9.842   8.344 -21.163  0.00  0.00     0.000 A 
ATOM     18  C   UNL d   1      11.113   8.076 -20.623  0.00  0.00     0.000 A 
ATOM     19  C   UNL d   1      11.278   7.099 -19.614  0.00  0.00     0.003 A 
ENDBRANCH  10  14
ENDBRANCH   7   8
ENDBRANCH   6   7
ENDBRANCH   5   6
ENDBRANCH   4   5
ENDBRANCH   1   4
BRANCH   1  20
ATOM     20  C   UNL d   1       7.099   4.580 -11.744  0.00  0.00     0.251 C 
BRANCH  20  21
ATOM     21  C   UNL d   1       6.583   4.037 -13.079  0.00  0.00     0.038 A 
ATOM     22  C   UNL d   1       5.977   2.621 -13.138  0.00  0.00     0.026 A 
ATOM     23  C   UNL d   1       5.110   3.846 -13.320  0.00  0.00     0.007 A 
BRANCH  22  24
ATOM     24  C   UNL d   1       6.274   1.681 -14.275  0.00  0.00     0.002 A 
ATOM     25  C   UNL d   1       5.467   0.534 -14.473  0.00  0.00     0.090 A 
ATOM     26  C   UNL d   1       5.713  -0.329 -15.568  0.00  0.00     0.026 A 
ATOM     27  C   UNL d   1       6.817  -0.077 -16.437  0.00  0.00     0.032 A 
ATOM     28  C   UNL d   1       7.629   1.036 -16.202  0.00  0.00     0.140 A 
ATOM     29  C   UNL d   1       7.347   1.943 -15.174  0.00  0.00     0.027 A 
ATOM     30  F   UNL d   1       8.700   1.209 -17.019  0.00  0.00    -0.204 F 
BRANCH  25  31
ATOM     31  O   UNL d   1       4.418   0.332 -13.591  0.00  0.00    -0.328 OA
ATOM     32  C   UNL d   1       3.425  -0.605 -13.973  0.00  0.00     0.181 C 
ENDBRANCH  25  31
ENDBRANCH  22  24
ENDBRANCH  20  21
ENDBRANCH   1  20
TORSDOF 11
