REMARK  4 active torsions:
REMARK  status: ('A' for Active; 'I' for Inactive)
REMARK    1  A    between atoms: C_5  and  N_6 
REMARK    2  A    between atoms: N_9  and  C_10 
REMARK    3  A    between atoms: C_10  and  C_11 
REMARK    4  A    between atoms: C_11  and  N_12 
ROOT
ATOM      1  N   UNL d   1      15.980   6.022 -17.543  0.00  0.00    -0.191 NA
ATOM      2  C   UNL d   1      15.179   5.195 -17.653  0.00  0.00     0.103 C 
ATOM      3  C   UNL d   1      14.173   4.150 -17.783  0.00  0.00     0.097 A 
ATOM      4  C   UNL d   1      13.157   4.076 -16.816  0.00  0.00     0.030 A 
ATOM      5  C   UNL d   1      12.169   3.067 -16.868  0.00  0.00     0.065 A 
ATOM      6  C   UNL d   1      12.222   2.108 -17.905  0.00  0.00     0.020 A 
ATOM      7  C   UNL d   1      13.239   2.181 -18.882  0.00  0.00     0.032 A 
ATOM      8  C   UNL d   1      14.213   3.197 -18.823  0.00  0.00     0.150 A 
ATOM      9  F   UNL d   1      15.194   3.241 -19.760  0.00  0.00    -0.203 F 
ENDROOT
BRANCH   5  10
ATOM     10  N   UNL d   1      11.141   3.025 -15.885  0.00  0.00    -0.280 N 
ATOM     11  C   UNL d   1      10.505   4.105 -15.399  0.00  0.00     0.328 A 
ATOM     12  N   UNL d   1       9.613   3.711 -14.486  0.00  0.00    -0.298 N 
ATOM     13  O   UNL d   1      10.697   5.274 -15.733  0.00  0.00    -0.247 OA
ATOM     14  C   UNL d   1       9.555   2.272 -14.338  0.00  0.00     0.131 A 
ATOM     15  C   UNL d   1      10.620   1.786 -15.322  0.00  0.00     0.135 A 
BRANCH  12  16
ATOM     16  C   UNL d   1       8.736   4.605 -13.741  0.00  0.00     0.141 C 
BRANCH  16  17
ATOM     17  C   UNL d   1       9.407   5.062 -12.438  0.00  0.00     0.275 C 
BRANCH  17  18
ATOM     18  N   UNL d   1       8.504   5.981 -11.749  0.00  0.00     0.148 N 
ATOM     19  C   UNL d   1       9.068   7.349 -11.706  0.00  0.00     0.277 C 
ATOM     20  C   UNL d   1       9.879   7.393 -10.436  0.00  0.00     0.009 A 
ATOM     21  C   UNL d   1       9.462   6.365  -9.618  0.00  0.00     0.009 A 
ATOM     22  C   UNL d   1      10.879   8.296 -10.032  0.00  0.00    -0.003 A 
ATOM     23  C   UNL d   1       8.368   5.616 -10.325  0.00  0.00     0.277 C 
ATOM     24  C   UNL d   1       9.999   6.174  -8.336  0.00  0.00    -0.003 A 
ATOM     25  C   UNL d   1      11.011   7.065  -7.908  0.00  0.00    -0.000 A 
ATOM     26  C   UNL d   1      11.454   8.112  -8.755  0.00  0.00    -0.000 A 
ENDBRANCH  17  18
ENDBRANCH  16  17
ENDBRANCH  12  16
ENDBRANCH   5  10
TORSDOF 4
