REMARK  9 active torsions:
REMARK  status: ('A' for Active; 'I' for Inactive)
REMARK    1  A    between atoms: C_2  and  C_3 
REMARK    2  A    between atoms: C_7  and  O_8 
REMARK    3  A    between atoms: C_10  and  N_11 
REMARK    4  A    between atoms: N_14  and  C_15 
REMARK    5  A    between atoms: C_15  and  C_16 
REMARK    6  A    between atoms: C_16  and  C_18 
REMARK    7  A    between atoms: C_18  and  C_19 
REMARK    8  A    between atoms: C_19  and  N_20 
REMARK       I    between atoms: N_20  and  C_21 
REMARK    9  A    between atoms: C_21  and  C_23 
ROOT
ATOM      1  N   UNL d   1       7.808   2.088 -14.766  0.00  0.00    -0.343 N 
ATOM      2  C   UNL d   1       9.147   1.846 -14.249  0.00  0.00     0.137 C 
ATOM      3  C   UNL d   1       9.870   3.182 -14.052  0.00  0.00     0.274 C 
ATOM      4  N   UNL d   1       9.095   4.113 -13.211  0.00  0.00     0.144 N 
ATOM      5  C   UNL d   1       7.781   4.336 -13.847  0.00  0.00     0.274 C 
ATOM      6  C   UNL d   1       6.979   3.038 -14.037  0.00  0.00     0.137 C 
ENDROOT
BRANCH   4   7
ATOM      7  C   UNL d   1       9.818   5.365 -13.041  0.00  0.00     0.283 C 
BRANCH   7   8
ATOM      8  C   UNL d   1       9.229   6.332 -11.982  0.00  0.00     0.188 C 
ATOM      9  O   UNL d   1       9.462   7.654 -12.415  0.00  0.00    -0.221 OA
BRANCH   8  10
ATOM     10  C   UNL d   1       9.901   6.136 -10.613  0.00  0.00     0.061 C 
BRANCH  10  11
ATOM     11  C   UNL d   1       9.266   6.968  -9.502  0.00  0.00     0.132 C 
BRANCH  11  12
ATOM     12  N   UNL d   1      10.096   6.983  -8.306  0.00  0.00    -0.233 NA
ATOM     13  C   UNL d   1      10.606   8.098  -7.768  0.00  0.00     0.293 C 
ATOM     14  O   UNL d   1      10.627   9.193  -8.327  0.00  0.00    -0.264 OA
BRANCH  13  15
ATOM     15  C   UNL d   1      11.058   7.967  -6.380  0.00  0.00     0.139 A 
ATOM     16  N   UNL d   1      11.171   9.112  -5.610  0.00  0.00    -0.241 NA
ATOM     17  C   UNL d   1      11.608   8.802  -4.345  0.00  0.00     0.082 A 
ATOM     18  C   UNL d   1      11.794   7.386  -4.342  0.00  0.00     0.019 A 
ATOM     19  C   UNL d   1      11.857   9.588  -3.212  0.00  0.00     0.019 A 
ATOM     20  C   UNL d   1      11.457   6.886  -5.636  0.00  0.00     0.025 A 
ATOM     21  C   UNL d   1      12.248   6.789  -3.151  0.00  0.00     0.002 A 
ATOM     22  C   UNL d   1      12.499   7.575  -2.020  0.00  0.00     0.000 A 
ATOM     23  C   UNL d   1      12.290   8.961  -2.039  0.00  0.00     0.002 A 
ENDBRANCH  13  15
ENDBRANCH  11  12
ENDBRANCH  10  11
ENDBRANCH   8  10
ENDBRANCH   7   8
ENDBRANCH   4   7
BRANCH   1  24
ATOM     24  C   UNL d   1       7.327   1.352 -15.854  0.00  0.00     0.079 A 
ATOM     25  C   UNL d   1       6.183   0.519 -15.750  0.00  0.00     0.120 A 
ATOM     26  C   UNL d   1       5.724  -0.183 -16.889  0.00  0.00     0.081 A 
ATOM     27  C   UNL d   1       6.404  -0.061 -18.112  0.00  0.00     0.009 A 
ATOM     28 CL   UNL d   1       4.343  -1.214 -16.777  0.00  0.00    -0.080 Cl
ATOM     29  C   UNL d   1       7.541   0.759 -18.223  0.00  0.00    -0.020 A 
ATOM     30  C   UNL d   1       8.004   1.460 -17.087  0.00  0.00     0.015 A 
BRANCH  25  31
ATOM     31  O   UNL d   1       5.497   0.394 -14.571  0.00  0.00    -0.326 OA
ATOM     32  C   UNL d   1       6.146  -0.430 -13.618  0.00  0.00     0.181 C 
ENDBRANCH  25  31
BRANCH  29  33
ATOM     33  C   UNL d   1       8.269   0.897 -19.548  0.00  0.00     0.026 C 
ATOM     34  C   UNL d   1       7.896   2.184 -20.290  0.00  0.00     0.005 C 
ENDBRANCH  29  33
ENDBRANCH   1  24
TORSDOF 9
