REMARK  5 active torsions:
REMARK  status: ('A' for Active; 'I' for Inactive)
REMARK    1  A    between atoms: C_4  and  C_5 
REMARK    2  A    between atoms: C_5  and  C_6 
REMARK    3  A    between atoms: C_6  and  N_7 
REMARK    4  A    between atoms: C_10  and  C_11 
REMARK    5  A    between atoms: C_13  and  C_14 
ROOT
ATOM      1  N   UNL d   1       9.386   7.359  -7.914  0.00  0.00     0.137 N 
ATOM      2  C   UNL d   1       8.961   5.982  -7.671  0.00  0.00     0.251 C 
ATOM      3  C   UNL d   1       8.379   5.353  -8.938  0.00  0.00     0.041 C 
ATOM      4  C   UNL d   1       9.366   5.435 -10.116  0.00  0.00     0.046 C 
ATOM      5  C   UNL d   1       9.849   6.882 -10.284  0.00  0.00     0.041 C 
ATOM      6  C   UNL d   1      10.389   7.448  -8.975  0.00  0.00     0.251 C 
ENDROOT
BRANCH   4   7
ATOM      7  C   UNL d   1       8.752   4.920 -11.392  0.00  0.00     0.082 A 
ATOM      8  N   UNL d   1       7.567   5.384 -11.773  0.00  0.00    -0.152 NA
ATOM      9  N   UNL d   1       7.287   4.730 -12.910  0.00  0.00    -0.148 NA
ATOM     10  C   UNL d   1       8.312   3.896 -13.284  0.00  0.00     0.104 A 
ATOM     11  C   UNL d   1       9.292   4.004 -12.342  0.00  0.00     0.037 A 
BRANCH  10  12
ATOM     12  C   UNL d   1       8.238   3.105 -14.498  0.00  0.00     0.023 A 
ATOM     13  C   UNL d   1       9.302   3.109 -15.421  0.00  0.00     0.022 A 
ATOM     14  C   UNL d   1       9.175   2.361 -16.608  0.00  0.00     0.099 A 
ATOM     15  N   UNL d   1       8.080   1.632 -16.911  0.00  0.00    -0.242 NA
ATOM     16  C   UNL d   1       7.069   1.612 -16.017  0.00  0.00     0.099 A 
ATOM     17  C   UNL d   1       7.092   2.344 -14.810  0.00  0.00     0.022 A 
ENDBRANCH  10  12
ENDBRANCH   4   7
BRANCH   1  18
ATOM     18  C   UNL d   1       9.818   7.979  -6.669  0.00  0.00     0.255 C 
BRANCH  18  19
ATOM     19  C   UNL d   1      11.202   7.473  -6.212  0.00  0.00     0.062 C 
BRANCH  19  20
ATOM     20  C   UNL d   1      11.531   7.880  -4.806  0.00  0.00    -0.020 A 
ATOM     21  C   UNL d   1      11.860   6.884  -3.861  0.00  0.00    -0.004 A 
ATOM     22  C   UNL d   1      12.210   7.243  -2.549  0.00  0.00    -0.000 A 
ATOM     23  C   UNL d   1      12.227   8.601  -2.187  0.00  0.00    -0.000 A 
ATOM     24  C   UNL d   1      11.868   9.590  -3.122  0.00  0.00    -0.000 A 
ATOM     25  C   UNL d   1      11.538   9.238  -4.440  0.00  0.00    -0.004 A 
ENDBRANCH  19  20
ENDBRANCH  18  19
ENDBRANCH   1  18
TORSDOF 5
