REMARK  1 active torsions:
REMARK  status: ('A' for Active; 'I' for Inactive)
REMARK    1  A    between atoms: N_5  and  C_6 
ROOT
ATOM      1  C   UNL d   1       6.353   0.607 -17.154  0.00  0.00     0.246 C 
ATOM      2  C   UNL d   1       6.666   0.552 -15.650  0.00  0.00     0.065 C 
ATOM      3  C   UNL d   1       7.638   1.601 -15.135  0.00  0.00    -0.014 A 
ATOM      4  C   UNL d   1       7.191   2.728 -14.437  0.00  0.00    -0.004 A 
ATOM      5  C   UNL d   1       8.130   3.668 -13.963  0.00  0.00    -0.000 A 
ATOM      6  C   UNL d   1       9.505   3.476 -14.187  0.00  0.00     0.001 A 
ATOM      7  C   UNL d   1       9.945   2.351 -14.909  0.00  0.00     0.006 A 
ATOM      8  C   UNL d   1       8.989   1.427 -15.388  0.00  0.00     0.025 A 
ATOM      9  S   UNL d   1       9.516   0.029 -16.307  0.00  0.00    -0.087 SA
ATOM     10  C   UNL d   1       8.915   0.522 -17.890  0.00  0.00     0.027 A 
ATOM     11  C   UNL d   1       9.880   0.673 -18.914  0.00  0.00     0.007 A 
ATOM     12  C   UNL d   1       9.507   1.090 -20.205  0.00  0.00     0.011 A 
ATOM     13  C   UNL d   1       8.155   1.389 -20.470  0.00  0.00     0.068 A 
ATOM     14  C   UNL d   1       7.738   1.804 -21.801  0.00  0.00     0.101 C 
ATOM     15  N   UNL d   1       7.400   2.132 -22.853  0.00  0.00    -0.191 NA
ATOM     16  C   UNL d   1       7.202   1.270 -19.443  0.00  0.00     0.008 A 
ATOM     17  C   UNL d   1       7.529   0.800 -18.155  0.00  0.00     0.015 A 
ENDROOT
BRANCH   1  18
ATOM     18  N   UNL d   1       5.411  -0.474 -17.543  0.00  0.00     0.144 N 
ATOM     19  C   UNL d   1       6.098  -1.754 -17.748  0.00  0.00     0.286 C 
ATOM     20  C   UNL d   1       5.116  -2.882 -18.102  0.00  0.00     0.286 C 
ATOM     21  N   UNL d   1       4.323  -2.554 -19.287  0.00  0.00     0.143 N 
ATOM     22  C   UNL d   1       3.416  -3.630 -19.644  0.00  0.00     0.285 C 
ATOM     23  C   UNL d   1       3.607  -1.303 -19.041  0.00  0.00     0.286 C 
ATOM     24  C   UNL d   1       4.600  -0.175 -18.732  0.00  0.00     0.286 C 
ENDBRANCH   1  18
TORSDOF 1
