REMARK  6 active torsions:
REMARK  status: ('A' for Active; 'I' for Inactive)
REMARK    1  A    between atoms: C_2  and  O_4 
REMARK    2  A    between atoms: O_4  and  C_5 
REMARK    3  A    between atoms: C_10  and  N_11 
REMARK    4  A    between atoms: N_14  and  C_15 
REMARK    5  A    between atoms: C_15  and  C_16 
REMARK    6  A    between atoms: C_20  and  C_21 
REMARK       I    between atoms: C_21  and  N_23 
ROOT
ATOM      1  C   UNL d   1      10.792   2.626 -18.959  0.00  0.00     0.011 C 
ATOM      2  C   UNL d   1      12.165   2.302 -19.042  0.00  0.00    -0.002 C 
ATOM      3  C   UNL d   1      13.034   2.646 -17.986  0.00  0.00    -0.000 C 
ATOM      4  C   UNL d   1      12.522   3.256 -16.820  0.00  0.00     0.005 C 
ATOM      5  C   UNL d   1      11.145   3.555 -16.719  0.00  0.00     0.056 C 
ATOM      6  C   UNL d   1      10.307   3.326 -17.832  0.00  0.00     0.002 C 
ENDROOT
BRANCH   1   7
ATOM      7  C   UNL d   1       9.827   2.216 -20.064  0.00  0.00     0.277 C 
BRANCH   7   8
ATOM      8  N   UNL d   1       8.480   1.855 -19.615  0.00  0.00     0.145 N 
ATOM      9  C   UNL d   1       7.671   1.488 -20.789  0.00  0.00     0.275 C 
ATOM     10  C   UNL d   1       6.230   1.111 -20.383  0.00  0.00     0.137 C 
ATOM     11  N   UNL d   1       6.263   0.080 -19.363  0.00  0.00    -0.343 N 
ATOM     12  C   UNL d   1       7.125   0.339 -18.223  0.00  0.00     0.137 C 
ATOM     13  C   UNL d   1       8.532   0.698 -18.706  0.00  0.00     0.275 C 
BRANCH  11  14
ATOM     14  C   UNL d   1       5.516  -1.103 -19.452  0.00  0.00     0.079 A 
ATOM     15  C   UNL d   1       4.785  -1.576 -18.330  0.00  0.00     0.109 A 
ATOM     16  C   UNL d   1       4.059  -2.780 -18.447  0.00  0.00     0.026 A 
ATOM     17  C   UNL d   1       4.069  -3.520 -19.644  0.00  0.00     0.002 A 
ATOM     18  C   UNL d   1       4.799  -3.053 -20.749  0.00  0.00     0.002 A 
ATOM     19  C   UNL d   1       5.515  -1.849 -20.655  0.00  0.00     0.019 A 
BRANCH  15  20
ATOM     20  O   UNL d   1       4.783  -0.791 -17.190  0.00  0.00    -0.332 OA
BRANCH  20  21
ATOM     21  C   UNL d   1       4.788  -1.416 -15.910  0.00  0.00     0.122 C 
ATOM     22  C   UNL d   1       3.403  -1.208 -15.308  0.00  0.00     0.033 C 
ATOM     23  C   UNL d   1       5.841  -0.717 -15.037  0.00  0.00     0.033 C 
ENDBRANCH  20  21
ENDBRANCH  15  20
ENDBRANCH  11  14
ENDBRANCH   7   8
ENDBRANCH   1   7
BRANCH   5  24
ATOM     24  C   UNL d   1      10.612   4.179 -15.457  0.00  0.00     0.261 C 
ATOM     25  O   UNL d   1      11.344   4.977 -14.870  0.00  0.00    -0.267 OA
ATOM     26  N   UNL d   1       9.401   3.777 -14.993  0.00  0.00    -0.296 N 
ATOM     27  C   UNL d   1       8.709   4.387 -13.917  0.00  0.00     0.059 A 
ATOM     28  C   UNL d   1       8.655   2.569 -15.423  0.00  0.00     0.114 A 
ATOM     29  C   UNL d   1       7.602   3.617 -13.567  0.00  0.00    -0.004 A 
ATOM     30  C   UNL d   1       8.990   5.591 -13.240  0.00  0.00     0.017 A 
ATOM     31  C   UNL d   1       7.505   2.387 -14.422  0.00  0.00     0.052 A 
ATOM     32  C   UNL d   1       6.738   4.016 -12.525  0.00  0.00    -0.003 A 
ATOM     33  C   UNL d   1       7.025   5.220 -11.844  0.00  0.00    -0.000 A 
ATOM     34  C   UNL d   1       8.138   6.005 -12.198  0.00  0.00     0.002 A 
ENDBRANCH   5  24
TORSDOF 6
