REMARK  2 active torsions:
REMARK  status: ('A' for Active; 'I' for Inactive)
REMARK    1  A    between atoms: C_9  and  C_10 
REMARK    2  A    between atoms: C_10  and  C_11 
ROOT
ATOM      1  C   UNL d   1       6.025  -1.438 -17.546  0.00  0.00     0.285 C 
ATOM      2  N   UNL d   1       6.617  -0.127 -17.283  0.00  0.00     0.137 N 
ATOM      3  C   UNL d   1       7.948  -0.132 -17.893  0.00  0.00     0.250 C 
ATOM      4  C   UNL d   1       8.587   1.257 -17.796  0.00  0.00     0.036 C 
ATOM      5  C   UNL d   1       8.720   1.683 -16.330  0.00  0.00     0.011 C 
ATOM      6  C   UNL d   1       9.342   3.083 -16.215  0.00  0.00     0.065 C 
ATOM      7  C   UNL d   1       9.389   3.532 -14.757  0.00  0.00     0.150 C 
ATOM      8  O   UNL d   1      10.439   3.947 -14.262  0.00  0.00    -0.296 OA
ATOM      9  C   UNL d   1       8.062   3.438 -13.973  0.00  0.00     0.062 C 
ATOM     10  C   UNL d   1       7.431   2.019 -14.148  0.00  0.00     0.009 C 
ATOM     11  C   UNL d   1       6.015   1.933 -13.527  0.00  0.00     0.001 C 
ATOM     12  C   UNL d   1       5.409   0.533 -13.688  0.00  0.00     0.002 C 
ATOM     13  C   UNL d   1       5.348   0.109 -15.156  0.00  0.00     0.033 C 
ATOM     14  C   UNL d   1       6.727   0.180 -15.841  0.00  0.00     0.219 C 
ATOM     15  C   UNL d   1       7.337   1.602 -15.650  0.00  0.00     0.032 C 
ENDROOT
BRANCH   9  16
ATOM     16  C   UNL d   1       8.243   3.897 -12.499  0.00  0.00     0.034 C 
BRANCH  16  17
ATOM     17  C   UNL d   1       8.313   5.396 -12.350  0.00  0.00    -0.022 A 
ATOM     18  C   UNL d   1       9.434   6.003 -11.757  0.00  0.00    -0.004 A 
ATOM     19  C   UNL d   1       9.472   7.403 -11.605  0.00  0.00    -0.000 A 
ATOM     20  C   UNL d   1       8.432   8.198 -12.098  0.00  0.00    -0.000 A 
ATOM     21  C   UNL d   1       7.290   7.586 -12.653  0.00  0.00    -0.000 A 
ATOM     22  C   UNL d   1       7.224   6.184 -12.760  0.00  0.00    -0.004 A 
ENDBRANCH  16  17
ENDBRANCH   9  16
TORSDOF 2
