REMARK  7 active torsions:
REMARK  status: ('A' for Active; 'I' for Inactive)
REMARK    1  A    between atoms: C_6  and  N_7 
REMARK    2  A    between atoms: N_7  and  C_8 
REMARK    3  A    between atoms: C_8  and  C_9 
REMARK    4  A    between atoms: C_9  and  C_10 
REMARK    5  A    between atoms: C_10  and  C_11 
REMARK    6  A    between atoms: C_11  and  N_12 
REMARK    7  A    between atoms: N_15  and  C_16 
ROOT
ATOM      1  N   UNL d   1       8.819   5.755 -12.118  0.00  0.00     0.141 N 
ATOM      2  C   UNL d   1       9.268   4.407 -11.769  0.00  0.00     0.274 C 
ATOM      3  C   UNL d   1       9.396   3.543 -13.026  0.00  0.00     0.137 C 
ATOM      4  N   UNL d   1       8.122   3.502 -13.716  0.00  0.00    -0.344 N 
ATOM      5  C   UNL d   1       7.524   4.788 -13.991  0.00  0.00     0.137 C 
ATOM      6  C   UNL d   1       7.477   5.654 -12.718  0.00  0.00     0.274 C 
ENDROOT
BRANCH   1   7
ATOM      7  C   UNL d   1       8.710   6.603 -10.929  0.00  0.00     0.251 C 
BRANCH   7   8
ATOM      8  C   UNL d   1      10.023   6.775 -10.147  0.00  0.00     0.037 C 
BRANCH   8   9
ATOM      9  C   UNL d   1       9.910   7.671  -8.912  0.00  0.00     0.028 C 
BRANCH   9  10
ATOM     10  C   UNL d   1      11.288   7.805  -8.226  0.00  0.00     0.127 C 
BRANCH  10  11
ATOM     11  N   UNL d   1      11.405   9.054  -7.485  0.00  0.00    -0.252 NA
BRANCH  11  12
ATOM     12  C   UNL d   1      11.361   9.085  -6.087  0.00  0.00     0.178 A 
ATOM     13  C   UNL d   1      11.052  10.292  -5.427  0.00  0.00     0.137 A 
ATOM     14  N   UNL d   1      11.070  10.389  -4.083  0.00  0.00    -0.237 NA
ATOM     15  C   UNL d   1      11.467   9.300  -3.396  0.00  0.00     0.130 A 
ATOM     16  C   UNL d   1      11.777   8.091  -4.043  0.00  0.00     0.159 A 
ATOM     17 CL   UNL d   1      12.263   6.754  -3.084  0.00  0.00    -0.060 Cl
ATOM     18  N   UNL d   1      11.697   7.976  -5.387  0.00  0.00    -0.212 NA
ENDBRANCH  11  12
ENDBRANCH  10  11
ENDBRANCH   9  10
ENDBRANCH   8   9
ENDBRANCH   7   8
ENDBRANCH   1   7
BRANCH   4  19
ATOM     19  C   UNL d   1       7.508   2.305 -14.067  0.00  0.00     0.056 A 
ATOM     20  C   UNL d   1       8.239   1.318 -14.761  0.00  0.00     0.017 A 
ATOM     21  C   UNL d   1       7.627   0.109 -15.118  0.00  0.00     0.002 A 
ATOM     22  C   UNL d   1       6.293  -0.155 -14.758  0.00  0.00     0.000 A 
ATOM     23  C   UNL d   1       5.562   0.807 -14.039  0.00  0.00     0.002 A 
ATOM     24  C   UNL d   1       6.162   2.039 -13.708  0.00  0.00     0.017 A 
ENDBRANCH   4  19
TORSDOF 7
