REMARK  4 active torsions:
REMARK  status: ('A' for Active; 'I' for Inactive)
REMARK    1  A    between atoms: C_2  and  C_3 
REMARK    2  A    between atoms: C_3  and  N_4 
REMARK    3  A    between atoms: C_8  and  C_9 
REMARK    4  A    between atoms: C_13  and  O_14 
ROOT
ATOM      1  N   UNL d   1       7.922   5.146 -12.721  0.00  0.00     0.137 N 
ATOM      2  C   UNL d   1       9.175   4.717 -12.101  0.00  0.00     0.250 C 
ATOM      3  C   UNL d   1      10.129   4.162 -13.176  0.00  0.00     0.036 C 
ATOM      4  C   UNL d   1       9.519   2.961 -13.913  0.00  0.00     0.008 C 
ATOM      5  C   UNL d   1       8.136   3.342 -14.447  0.00  0.00     0.056 C 
ATOM      6  C   UNL d   1       7.274   3.983 -13.333  0.00  0.00     0.255 C 
ENDROOT
BRANCH   5   7
ATOM      7  C   UNL d   1       7.438   2.143 -15.101  0.00  0.00    -0.019 A 
ATOM      8  C   UNL d   1       7.511   1.915 -16.497  0.00  0.00     0.020 A 
ATOM      9  C   UNL d   1       6.849   0.817 -17.084  0.00  0.00     0.094 A 
ATOM     10  C   UNL d   1       6.109  -0.070 -16.247  0.00  0.00     0.024 A 
ATOM     11  C   UNL d   1       6.043   0.158 -14.864  0.00  0.00     0.002 A 
ATOM     12  C   UNL d   1       6.701   1.249 -14.303  0.00  0.00    -0.004 A 
BRANCH   9  13
ATOM     13  O   UNL d   1       6.956   0.658 -18.451  0.00  0.00    -0.328 OA
ATOM     14  C   UNL d   1       6.289  -0.471 -19.018  0.00  0.00     0.181 C 
ENDBRANCH   9  13
ENDBRANCH   5   7
BRANCH   1  15
ATOM     15  C   UNL d   1       7.041   5.677 -11.678  0.00  0.00     0.250 C 
BRANCH  15  16
ATOM     16  C   UNL d   1       5.856   6.470 -12.261  0.00  0.00     0.035 C 
ATOM     17  C   UNL d   1       6.290   7.822 -12.826  0.00  0.00     0.002 C 
ENDBRANCH  15  16
ENDBRANCH   1  15
TORSDOF 4
