REMARK  10 active torsions:
REMARK  status: ('A' for Active; 'I' for Inactive)
REMARK    1  A    between atoms: O_2  and  C_3 
REMARK    2  A    between atoms: C_8  and  N_9 
REMARK    3  A    between atoms: N_12  and  C_13 
REMARK    4  A    between atoms: C_13  and  C_14 
REMARK    5  A    between atoms: C_14  and  C_15 
REMARK    6  A    between atoms: C_15  and  C_16 
REMARK    7  A    between atoms: C_16  and  C_17 
REMARK    8  A    between atoms: C_17  and  C_18 
REMARK    9  A    between atoms: N_20  and  C_21 
REMARK   10  A    between atoms: C_24  and  S_25 
ROOT
ATOM      1  C   UNL d   1      12.361   2.747 -17.613  0.00  0.00     0.035 C 
ENDROOT
BRANCH   1   2
ATOM      2  C   UNL d   1      10.890   3.097 -17.327  0.00  0.00     0.250 C 
BRANCH   2   3
ATOM      3  N   UNL d   1      10.097   1.884 -17.137  0.00  0.00     0.141 N 
ATOM      4  C   UNL d   1       8.747   2.107 -17.664  0.00  0.00     0.274 C 
ATOM      5  C   UNL d   1       7.892   0.841 -17.522  0.00  0.00     0.137 C 
ATOM      6  N   UNL d   1       7.860   0.422 -16.131  0.00  0.00    -0.343 N 
ATOM      7  C   UNL d   1       9.165   0.266 -15.501  0.00  0.00     0.137 C 
ATOM      8  C   UNL d   1      10.011   1.540 -15.711  0.00  0.00     0.274 C 
BRANCH   6   9
ATOM      9  C   UNL d   1       6.650   0.141 -15.467  0.00  0.00     0.079 A 
ATOM     10  C   UNL d   1       5.614  -0.602 -16.096  0.00  0.00     0.110 A 
ATOM     11  C   UNL d   1       4.398  -0.821 -15.397  0.00  0.00     0.026 A 
ATOM     12  C   UNL d   1       4.208  -0.310 -14.102  0.00  0.00     0.002 A 
ATOM     13  C   UNL d   1       5.242   0.408 -13.478  0.00  0.00     0.002 A 
ATOM     14  C   UNL d   1       6.455   0.629 -14.157  0.00  0.00     0.019 A 
BRANCH  10  15
ATOM     15  O   UNL d   1       5.853  -1.101 -17.361  0.00  0.00    -0.327 OA
ATOM     16  C   UNL d   1       4.846  -1.866 -17.997  0.00  0.00     0.181 C 
ENDBRANCH  10  15
ENDBRANCH   6   9
ENDBRANCH   2   3
ENDBRANCH   1   2
BRANCH   1  17
ATOM     17  C   UNL d   1      13.065   3.857 -18.414  0.00  0.00     0.003 C 
BRANCH  17  18
ATOM     18  C   UNL d   1      14.420   3.428 -19.007  0.00  0.00     0.006 C 
BRANCH  18  19
ATOM     19  C   UNL d   1      14.939   4.380 -20.105  0.00  0.00     0.049 C 
BRANCH  19  20
ATOM     20  C   UNL d   1      15.666   5.580 -19.576  0.00  0.00     0.101 A 
ATOM     21  N   UNL d   1      15.055   6.505 -18.736  0.00  0.00    -0.133 NA
ATOM     22  N   UNL d   1      15.904   7.434 -18.439  0.00  0.00    -0.060 NA
ATOM     23  N   UNL d   1      17.067   7.156 -19.080  0.00  0.00    -0.209 N 
ATOM     24  C   UNL d   1      16.945   5.993 -19.823  0.00  0.00     0.119 A 
BRANCH  23  25
ATOM     25  C   UNL d   1      18.191   8.016 -18.959  0.00  0.00     0.085 A 
ATOM     26  C   UNL d   1      18.049   9.327 -18.440  0.00  0.00     0.020 A 
ATOM     27  C   UNL d   1      19.168  10.172 -18.318  0.00  0.00     0.008 A 
ATOM     28  C   UNL d   1      20.443   9.723 -18.716  0.00  0.00     0.025 A 
ATOM     29  C   UNL d   1      20.590   8.424 -19.240  0.00  0.00     0.008 A 
ATOM     30  C   UNL d   1      19.473   7.575 -19.361  0.00  0.00     0.020 A 
BRANCH  28  31
ATOM     31  S   UNL d   1      21.872  10.758 -18.576  0.00  0.00    -0.113 SA
ATOM     32  C   UNL d   1      21.443  12.199 -17.561  0.00  0.00     0.074 C 
ENDBRANCH  28  31
ENDBRANCH  23  25
ENDBRANCH  19  20
ENDBRANCH  18  19
ENDBRANCH  17  18
ENDBRANCH   1  17
TORSDOF 10
