REMARK  5 active torsions:
REMARK  status: ('A' for Active; 'I' for Inactive)
REMARK       I    between atoms: N_2  and  C_3 
REMARK    1  A    between atoms: N_2  and  C_13 
REMARK    2  A    between atoms: C_3  and  C_5 
REMARK    3  A    between atoms: C_6  and  C_7 
REMARK    4  A    between atoms: N_16  and  C_17 
REMARK    5  A    between atoms: C_17  and  C_18 
ROOT
ATOM      1  C   UNL d   1       9.352   6.779  -9.902  0.00  0.00     0.088 C 
ATOM      2  C   UNL d   1      10.752   7.390  -9.867  0.00  0.00     0.058 C 
ATOM      3  C   UNL d   1      10.860   8.541  -8.845  0.00  0.00     0.253 C 
ATOM      4  N   UNL d   1      10.488   8.066  -7.514  0.00  0.00     0.141 N 
ATOM      5  C   UNL d   1       9.081   7.657  -7.505  0.00  0.00     0.253 C 
ATOM      6  C   UNL d   1       8.897   6.470  -8.453  0.00  0.00     0.058 C 
ENDROOT
BRANCH   1   7
ATOM      7  N   UNL d   1       9.268   5.619 -10.809  0.00  0.00    -0.316 N 
ATOM      8  C   UNL d   1       9.527   4.332 -10.146  0.00  0.00     0.129 C 
ATOM      9  C   UNL d   1       8.902   5.722 -12.115  0.00  0.00     0.257 C 
ATOM     10  O   UNL d   1       8.495   6.784 -12.601  0.00  0.00    -0.267 OA
BRANCH   9  11
ATOM     11  C   UNL d   1       9.069   4.514 -12.924  0.00  0.00     0.060 C 
ATOM     12  C   UNL d   1       9.146   4.566 -14.269  0.00  0.00     0.005 C 
BRANCH  12  13
ATOM     13  C   UNL d   1       9.355   3.393 -15.137  0.00  0.00     0.000 A 
ATOM     14  C   UNL d   1       9.575   3.616 -16.509  0.00  0.00     0.000 A 
ATOM     15  C   UNL d   1       9.770   2.537 -17.392  0.00  0.00     0.000 A 
ATOM     16  C   UNL d   1       9.760   1.214 -16.908  0.00  0.00     0.000 A 
ATOM     17  C   UNL d   1       9.563   0.974 -15.536  0.00  0.00     0.000 A 
ATOM     18  C   UNL d   1       9.365   2.057 -14.658  0.00  0.00     0.000 A 
ENDBRANCH  12  13
ENDBRANCH   9  11
ENDBRANCH   1   7
BRANCH   4  19
ATOM     19  C   UNL d   1      10.691   9.113  -6.516  0.00  0.00     0.277 C 
BRANCH  19  20
ATOM     20  C   UNL d   1      11.210   8.629  -5.172  0.00  0.00     0.011 A 
ATOM     21  C   UNL d   1      11.518   9.581  -4.178  0.00  0.00    -0.002 A 
ATOM     22  C   UNL d   1      12.019   9.165  -2.929  0.00  0.00    -0.000 A 
ATOM     23  C   UNL d   1      12.209   7.793  -2.664  0.00  0.00    -0.000 A 
ATOM     24  C   UNL d   1      11.888   6.841  -3.646  0.00  0.00    -0.000 A 
ATOM     25  C   UNL d   1      11.396   7.252  -4.896  0.00  0.00    -0.002 A 
ENDBRANCH  19  20
ENDBRANCH   4  19
TORSDOF 5
