REMARK  6 active torsions:
REMARK  status: ('A' for Active; 'I' for Inactive)
REMARK    1  A    between atoms: C_6  and  N_7 
REMARK    2  A    between atoms: N_10  and  C_11 
REMARK    3  A    between atoms: C_11  and  C_12 
REMARK    4  A    between atoms: C_12  and  C_13 
REMARK    5  A    between atoms: C_17  and  N_18 
REMARK       I    between atoms: N_18  and  C_19 
REMARK    6  A    between atoms: C_19  and  C_21 
ROOT
ATOM      1  N   UNL d   1       9.254   3.978 -14.542  0.00  0.00    -0.344 N 
ATOM      2  C   UNL d   1       8.286   5.068 -14.446  0.00  0.00     0.137 C 
ATOM      3  C   UNL d   1       8.487   5.908 -13.187  0.00  0.00     0.274 C 
ATOM      4  N   UNL d   1       8.432   5.016 -12.026  0.00  0.00     0.141 N 
ATOM      5  C   UNL d   1       9.478   3.980 -12.143  0.00  0.00     0.274 C 
ATOM      6  C   UNL d   1       9.259   3.110 -13.370  0.00  0.00     0.137 C 
ENDROOT
BRANCH   4   7
ATOM      7  C   UNL d   1       8.544   5.827 -10.808  0.00  0.00     0.255 C 
BRANCH   7   8
ATOM      8  C   UNL d   1      10.015   6.047 -10.441  0.00  0.00     0.062 C 
BRANCH   8   9
ATOM      9  C   UNL d   1      10.280   7.261  -9.607  0.00  0.00    -0.019 A 
ATOM     10  C   UNL d   1      10.285   7.184  -8.206  0.00  0.00     0.015 A 
ATOM     11  C   UNL d   1      10.661   8.320  -7.462  0.00  0.00     0.084 A 
ATOM     12  C   UNL d   1      11.054   9.498  -8.121  0.00  0.00     0.019 A 
ATOM     13  C   UNL d   1      11.070   9.560  -9.522  0.00  0.00     0.001 A 
ATOM     14  C   UNL d   1      10.654   8.441 -10.266  0.00  0.00    -0.004 A 
BRANCH  11  15
ATOM     15  N   UNL d   1      10.681   8.186  -6.071  0.00  0.00    -0.207 NA
ATOM     16  C   UNL d   1      11.035   9.112  -5.168  0.00  0.00     0.298 C 
ATOM     17  O   UNL d   1      10.866  10.329  -5.277  0.00  0.00    -0.263 OA
BRANCH  16  18
ATOM     18  C   UNL d   1      11.603   8.525  -3.926  0.00  0.00     0.158 A 
ATOM     19  N   UNL d   1      11.860   9.374  -2.908  0.00  0.00    -0.236 NA
ATOM     20  C   UNL d   1      12.383   8.815  -1.796  0.00  0.00     0.120 A 
ATOM     21  C   UNL d   1      12.658   7.435  -1.721  0.00  0.00     0.120 A 
ATOM     22  N   UNL d   1      12.388   6.585  -2.728  0.00  0.00    -0.239 NA
ATOM     23  C   UNL d   1      11.860   7.132  -3.833  0.00  0.00     0.123 A 
ENDBRANCH  16  18
ENDBRANCH  11  15
ENDBRANCH   8   9
ENDBRANCH   7   8
ENDBRANCH   4   7
BRANCH   1  24
ATOM     24  C   UNL d   1      10.039   3.751 -15.665  0.00  0.00     0.058 A 
ATOM     25  C   UNL d   1      10.102   2.471 -16.314  0.00  0.00     0.033 A 
ATOM     26  C   UNL d   1       9.300   1.385 -15.884  0.00  0.00     0.004 A 
ATOM     27  C   UNL d   1      10.959   2.267 -17.424  0.00  0.00     0.082 A 
ATOM     28  C   UNL d   1       9.406   0.148 -16.535  0.00  0.00     0.015 A 
ATOM     29  C   UNL d   1      10.284   0.045 -17.620  0.00  0.00     0.059 A 
ATOM     30  C   UNL d   1      10.405  -1.257 -18.373  0.00  0.00     0.052 C 
ATOM     31  N   UNL d   1      11.041   1.071 -18.060  0.00  0.00    -0.250 NA
ATOM     32  C   UNL d   1      11.741   3.340 -17.890  0.00  0.00     0.019 A 
ATOM     33  C   UNL d   1      11.684   4.602 -17.274  0.00  0.00     0.003 A 
ATOM     34  C   UNL d   1      10.839   4.805 -16.176  0.00  0.00     0.017 A 
ENDBRANCH   1  24
TORSDOF 6
