REMARK  2 active torsions:
REMARK  status: ('A' for Active; 'I' for Inactive)
REMARK    1  A    between atoms: N_11  and  C_12 
REMARK    2  A    between atoms: C_12  and  C_13 
ROOT
ATOM      1  N   UNL d   1      13.024   1.513 -18.553  0.00  0.00    -0.191 NA
ATOM      2  C   UNL d   1      12.562   2.160 -17.716  0.00  0.00     0.101 C 
ATOM      3  C   UNL d   1      11.982   2.977 -16.660  0.00  0.00     0.068 A 
ATOM      4  C   UNL d   1      12.623   4.161 -16.238  0.00  0.00     0.012 A 
ATOM      5  C   UNL d   1      12.042   4.964 -15.236  0.00  0.00     0.025 A 
ATOM      6  C   UNL d   1      10.827   4.593 -14.630  0.00  0.00     0.090 A 
ATOM      7  C   UNL d   1      10.195   3.407 -15.059  0.00  0.00     0.003 A 
ATOM      8  C   UNL d   1      10.767   2.592 -16.062  0.00  0.00     0.008 A 
ATOM      9  C   UNL d   1       8.912   3.049 -14.377  0.00  0.00     0.062 C 
ATOM     10  C   UNL d   1       7.871   2.326 -15.163  0.00  0.00     0.255 C 
ATOM     11  N   UNL d   1       6.623   2.550 -14.409  0.00  0.00     0.142 N 
ATOM     12  C   UNL d   1       6.872   3.617 -13.409  0.00  0.00     0.254 C 
ATOM     13  C   UNL d   1       8.167   4.261 -13.912  0.00  0.00     0.070 C 
ATOM     14  C   UNL d   1       9.097   4.992 -12.953  0.00  0.00     0.151 C 
ATOM     15  O   UNL d   1      10.284   5.422 -13.655  0.00  0.00    -0.331 OA
ENDROOT
BRANCH  11  16
ATOM     16  C   UNL d   1       6.082   1.307 -13.853  0.00  0.00     0.277 C 
BRANCH  16  17
ATOM     17  C   UNL d   1       5.475   0.323 -14.872  0.00  0.00     0.011 A 
ATOM     18  C   UNL d   1       6.103   0.028 -16.121  0.00  0.00    -0.000 A 
ATOM     19  C   UNL d   1       5.535  -0.884 -17.017  0.00  0.00     0.029 A 
ATOM     20  C   UNL d   1       4.313  -1.516 -16.718  0.00  0.00     0.140 A 
ATOM     21  C   UNL d   1       3.671  -1.230 -15.499  0.00  0.00     0.029 A 
ATOM     22  F   UNL d   1       3.775  -2.359 -17.630  0.00  0.00    -0.204 F 
ATOM     23  C   UNL d   1       4.251  -0.333 -14.574  0.00  0.00    -0.000 A 
ENDBRANCH  16  17
ENDBRANCH  11  16
TORSDOF 2
