REMARK  0 active torsions:
REMARK  status: ('A' for Active; 'I' for Inactive)
ROOT
ATOM      1  O   UNL d   1       3.813  -0.412 -13.479  0.00  0.00    -0.188 OA
ATOM      2  C   UNL d   1       4.966   0.289 -13.711  0.00  0.00     0.156 C 
ATOM      3  C   UNL d   1       5.140   1.600 -13.230  0.00  0.00     0.025 C 
ATOM      4  C   UNL d   1       6.264   2.369 -13.617  0.00  0.00    -0.024 C 
ATOM      5  C   UNL d   1       7.260   1.784 -14.437  0.00  0.00    -0.018 C 
ATOM      6  C   UNL d   1       7.133   0.417 -14.791  0.00  0.00     0.025 C 
ATOM      7  C   UNL d   1       5.986  -0.324 -14.445  0.00  0.00     0.156 C 
ATOM      8  O   UNL d   1       5.837  -1.611 -14.842  0.00  0.00    -0.188 OA
ATOM      9  C   UNL d   1       8.554   2.545 -14.757  0.00  0.00     0.079 C 
ATOM     10  C   UNL d   1       8.988   2.626 -16.225  0.00  0.00    -0.001 A 
ATOM     11  C   UNL d   1       8.466   1.832 -17.274  0.00  0.00    -0.001 A 
ATOM     12  C   UNL d   1       8.960   2.010 -18.578  0.00  0.00     0.020 A 
ATOM     13  C   UNL d   1       9.947   2.989 -18.792  0.00  0.00     0.099 A 
ATOM     14  N   UNL d   1      10.431   3.779 -17.814  0.00  0.00    -0.247 NA
ATOM     15  C   UNL d   1       9.965   3.596 -16.561  0.00  0.00     0.091 A 
ATOM     16  C   UNL d   1      10.452   4.616 -15.534  0.00  0.00     0.335 C 
ATOM     17  N   UNL d   1       9.998   4.420 -14.153  0.00  0.00     0.344 N 
ATOM     18  C   UNL d   1       8.611   3.984 -14.175  0.00  0.00     0.265 C 
ATOM     19  C   UNL d   1       7.917   4.166 -12.832  0.00  0.00     0.041 C 
ATOM     20  C   UNL d   1       6.441   3.749 -12.986  0.00  0.00     0.028 C 
ENDROOT
TORSDOF 0
