REMARK  6 active torsions:
REMARK  status: ('A' for Active; 'I' for Inactive)
REMARK    1  A    between atoms: N_3  and  C_4 
REMARK    2  A    between atoms: C_4  and  C_5 
REMARK    3  A    between atoms: C_5  and  C_6 
REMARK    4  A    between atoms: C_6  and  C_7 
REMARK    5  A    between atoms: C_7  and  N_8 
REMARK    6  A    between atoms: N_11  and  C_12 
ROOT
ATOM      1  N   UNL d   1       8.560   4.396 -12.982  0.00  0.00     0.141 N 
ATOM      2  C   UNL d   1       9.519   4.081 -11.919  0.00  0.00     0.274 C 
ATOM      3  C   UNL d   1       9.144   4.809 -10.611  0.00  0.00     0.137 C 
ATOM      4  N   UNL d   1       9.079   6.237 -10.862  0.00  0.00    -0.344 N 
ATOM      5  C   UNL d   1       8.202   6.624 -11.956  0.00  0.00     0.137 C 
ATOM      6  C   UNL d   1       8.591   5.842 -13.222  0.00  0.00     0.274 C 
ENDROOT
BRANCH   1   7
ATOM      7  C   UNL d   1       8.943   3.705 -14.210  0.00  0.00     0.251 C 
BRANCH   7   8
ATOM      8  C   UNL d   1       8.530   2.225 -14.173  0.00  0.00     0.037 C 
BRANCH   8   9
ATOM      9  C   UNL d   1       8.490   1.553 -15.547  0.00  0.00     0.029 C 
BRANCH   9  10
ATOM     10  C   UNL d   1       7.361   2.091 -16.445  0.00  0.00     0.133 C 
BRANCH  10  11
ATOM     11  N   UNL d   1       6.618   1.022 -17.098  0.00  0.00    -0.201 N 
ATOM     12  C   UNL d   1       6.537   0.782 -18.414  0.00  0.00     0.352 A 
ATOM     13  O   UNL d   1       7.033   1.440 -19.327  0.00  0.00    -0.244 OA
ATOM     14  N   UNL d   1       5.797  -0.320 -18.486  0.00  0.00    -0.239 N 
ATOM     15  C   UNL d   1       5.448  -0.689 -17.196  0.00  0.00     0.171 A 
ATOM     16  C   UNL d   1       5.418  -1.031 -19.633  0.00  0.00     0.116 A 
ATOM     17  N   UNL d   1       5.922   0.141 -16.330  0.00  0.00    -0.147 NA
ATOM     18  C   UNL d   1       4.651  -1.893 -17.060  0.00  0.00     0.042 A 
ATOM     19  C   UNL d   1       4.287  -2.587 -18.163  0.00  0.00     0.034 A 
ATOM     20  C   UNL d   1       4.677  -2.147 -19.494  0.00  0.00     0.158 A 
ATOM     21  F   UNL d   1       4.312  -2.859 -20.573  0.00  0.00    -0.203 F 
ENDBRANCH  10  11
ENDBRANCH   9  10
ENDBRANCH   8   9
ENDBRANCH   7   8
ENDBRANCH   1   7
BRANCH   4  22
ATOM     22  C   UNL d   1       9.711   7.189 -10.051  0.00  0.00     0.057 A 
ATOM     23  C   UNL d   1       9.659   7.133  -8.634  0.00  0.00     0.022 A 
ATOM     24  C   UNL d   1      10.382   8.126  -7.899  0.00  0.00     0.031 A 
ATOM     25  C   UNL d   1       8.969   6.233  -7.749  0.00  0.00     0.009 A 
ATOM     26  C   UNL d   1      11.100   9.138  -8.526  0.00  0.00     0.007 A 
ATOM     27  S   UNL d   1      10.243   7.900  -6.176  0.00  0.00    -0.086 SA
ATOM     28  C   UNL d   1      11.128   9.189  -9.925  0.00  0.00     0.002 A 
ATOM     29  C   UNL d   1      10.393   8.253 -10.670  0.00  0.00     0.017 A 
ATOM     30  C   UNL d   1       9.170   6.568  -6.442  0.00  0.00     0.035 A 
ENDBRANCH   4  22
TORSDOF 6
