REMARK  7 active torsions:
REMARK  status: ('A' for Active; 'I' for Inactive)
REMARK    1  A    between atoms: O_2  and  C_3 
REMARK    2  A    between atoms: C_8  and  N_9 
REMARK    3  A    between atoms: N_12  and  C_13 
REMARK    4  A    between atoms: C_13  and  C_14 
REMARK    5  A    between atoms: C_17  and  C_18 
REMARK    6  A    between atoms: C_18  and  N_19 
REMARK       I    between atoms: N_19  and  C_20 
REMARK    7  A    between atoms: C_20  and  C_22 
ROOT
ATOM      1  C   UNL d   1       8.881   2.347 -14.239  0.00  0.00     0.011 A 
ATOM      2  C   UNL d   1       9.875   3.150 -13.641  0.00  0.00    -0.003 A 
ATOM      3  C   UNL d   1       9.536   4.390 -13.112  0.00  0.00    -0.003 A 
ATOM      4  C   UNL d   1       8.184   4.811 -13.063  0.00  0.00     0.002 A 
ATOM      5  C   UNL d   1       7.178   3.992 -13.614  0.00  0.00    -0.003 A 
ATOM      6  C   UNL d   1       7.532   2.769 -14.217  0.00  0.00    -0.003 A 
ENDROOT
BRANCH   1   7
ATOM      7  C   UNL d   1       9.275   1.066 -14.958  0.00  0.00     0.277 C 
BRANCH   7   8
ATOM      8  N   UNL d   1       9.984   1.270 -16.226  0.00  0.00     0.145 N 
ATOM      9  C   UNL d   1      11.366   1.720 -16.021  0.00  0.00     0.275 C 
ATOM     10  C   UNL d   1      12.126   1.832 -17.359  0.00  0.00     0.137 C 
ATOM     11  N   UNL d   1      11.393   2.723 -18.238  0.00  0.00    -0.343 N 
ATOM     12  C   UNL d   1       9.994   2.374 -18.446  0.00  0.00     0.137 C 
ATOM     13  C   UNL d   1       9.273   2.226 -17.092  0.00  0.00     0.275 C 
BRANCH  11  14
ATOM     14  C   UNL d   1      11.983   3.903 -18.767  0.00  0.00     0.079 A 
ATOM     15  C   UNL d   1      11.287   5.134 -18.826  0.00  0.00     0.110 A 
ATOM     16  C   UNL d   1      11.911   6.260 -19.436  0.00  0.00     0.026 A 
ATOM     17  C   UNL d   1      13.219   6.164 -19.946  0.00  0.00     0.002 A 
ATOM     18  C   UNL d   1      13.917   4.951 -19.851  0.00  0.00     0.002 A 
ATOM     19  C   UNL d   1      13.300   3.828 -19.262  0.00  0.00     0.019 A 
BRANCH  15  20
ATOM     20  O   UNL d   1      10.027   5.199 -18.259  0.00  0.00    -0.327 OA
ATOM     21  C   UNL d   1       9.227   6.340 -18.503  0.00  0.00     0.181 C 
ENDBRANCH  15  20
ENDBRANCH  11  14
ENDBRANCH   7   8
ENDBRANCH   1   7
BRANCH   4  22
ATOM     22  C   UNL d   1       7.819   6.114 -12.375  0.00  0.00     0.155 C 
BRANCH  22  23
ATOM     23  N   UNL d   1       8.837   6.603 -11.459  0.00  0.00    -0.229 NA
ATOM     24  C   UNL d   1       9.186   6.017 -10.291  0.00  0.00     0.275 C 
ATOM     25  O   UNL d   1       8.899   4.858  -9.992  0.00  0.00    -0.266 OA
BRANCH  24  26
ATOM     26  C   UNL d   1       9.907   6.913  -9.324  0.00  0.00     0.058 A 
ATOM     27  C   UNL d   1      10.041   6.513  -7.973  0.00  0.00     0.005 A 
ATOM     28  C   UNL d   1      10.675   7.355  -7.036  0.00  0.00     0.000 A 
ATOM     29  C   UNL d   1      11.183   8.608  -7.448  0.00  0.00     0.000 A 
ATOM     30  C   UNL d   1      10.812   6.950  -5.692  0.00  0.00     0.000 A 
ATOM     31  C   UNL d   1      11.064   9.004  -8.794  0.00  0.00     0.000 A 
ATOM     32  C   UNL d   1      11.814   9.454  -6.511  0.00  0.00     0.000 A 
ATOM     33  C   UNL d   1      10.437   8.164  -9.725  0.00  0.00     0.005 A 
ATOM     34  C   UNL d   1      11.943   9.049  -5.170  0.00  0.00     0.000 A 
ATOM     35  C   UNL d   1      11.459   7.794  -4.763  0.00  0.00     0.000 A 
ENDBRANCH  24  26
ENDBRANCH  22  23
ENDBRANCH   4  22
TORSDOF 7
