REMARK  7 active torsions:
REMARK  status: ('A' for Active; 'I' for Inactive)
REMARK    1  A    between atoms: C_2  and  O_5 
REMARK    2  A    between atoms: O_5  and  C_6 
REMARK       I    between atoms: C_6  and  N_8 
REMARK    3  A    between atoms: N_8  and  C_9 
REMARK    4  A    between atoms: C_9  and  C_10 
REMARK    5  A    between atoms: C_13  and  C_14 
REMARK    6  A    between atoms: C_14  and  N_15 
REMARK    7  A    between atoms: N_18  and  C_19 
ROOT
ATOM      1  C   UNL d   1       9.529   4.104 -13.910  0.00  0.00     0.025 C 
ATOM      2  C   UNL d   1       8.623   3.493 -12.838  0.00  0.00     0.002 C 
ATOM      3  C   UNL d   1       8.047   4.468 -11.815  0.00  0.00     0.002 C 
ATOM      4  C   UNL d   1       9.204   5.134 -11.093  0.00  0.00     0.033 C 
ATOM      5  C   UNL d   1      10.060   5.816 -12.138  0.00  0.00     0.002 C 
ATOM      6  C   UNL d   1      10.659   4.839 -13.198  0.00  0.00     0.002 C 
ENDROOT
BRANCH   4   7
ATOM      7  C   UNL d   1       8.706   6.218 -10.101  0.00  0.00     0.250 C 
BRANCH   7   8
ATOM      8  N   UNL d   1       9.745   6.830  -9.262  0.00  0.00     0.141 N 
ATOM      9  C   UNL d   1      10.410   5.840  -8.410  0.00  0.00     0.274 C 
ATOM     10  C   UNL d   1      11.512   6.545  -7.605  0.00  0.00     0.137 C 
ATOM     11  N   UNL d   1      10.899   7.559  -6.794  0.00  0.00    -0.344 N 
ATOM     12  C   UNL d   1      10.140   8.543  -7.545  0.00  0.00     0.137 C 
ATOM     13  C   UNL d   1       9.116   7.834  -8.404  0.00  0.00     0.274 C 
BRANCH  11  14
ATOM     14  C   UNL d   1      11.207   7.655  -5.443  0.00  0.00     0.068 A 
ATOM     15  C   UNL d   1      11.451   8.880  -4.811  0.00  0.00     0.084 A 
ATOM     16  C   UNL d   1      11.702   8.863  -3.436  0.00  0.00     0.070 A 
ATOM     17 CL   UNL d   1      11.483  10.359  -5.689  0.00  0.00    -0.080 Cl
ATOM     18  C   UNL d   1      11.749   7.693  -2.648  0.00  0.00     0.012 A 
ATOM     19 CL   UNL d   1      11.835  10.339  -2.698  0.00  0.00    -0.081 Cl
ATOM     20  C   UNL d   1      11.554   6.469  -3.279  0.00  0.00     0.002 A 
ATOM     21  C   UNL d   1      11.295   6.487  -4.658  0.00  0.00     0.018 A 
ENDBRANCH  11  14
ENDBRANCH   7   8
ENDBRANCH   4   7
BRANCH   1  22
ATOM     22  C   UNL d   1      10.158   2.987 -14.780  0.00  0.00     0.131 C 
BRANCH  22  23
ATOM     23  N   UNL d   1       9.185   1.974 -15.183  0.00  0.00    -0.212 NA
ATOM     24  C   UNL d   1       8.584   1.991 -16.428  0.00  0.00     0.383 C 
ATOM     25  O   UNL d   1       8.665   2.893 -17.259  0.00  0.00    -0.236 OA
BRANCH  24  26
ATOM     26  O   UNL d   1       7.909   0.832 -16.594  0.00  0.00    -0.289 OA
BRANCH  26  27
ATOM     27  C   UNL d   1       7.231   0.470 -17.813  0.00  0.00     0.103 C 
ATOM     28  C   UNL d   1       5.925   1.268 -17.835  0.00  0.00     0.030 C 
ATOM     29  C   UNL d   1       6.897  -1.039 -17.746  0.00  0.00     0.030 C 
ATOM     30  C   UNL d   1       8.082   0.702 -19.094  0.00  0.00     0.030 C 
ENDBRANCH  26  27
ENDBRANCH  24  26
ENDBRANCH  22  23
ENDBRANCH   1  22
TORSDOF 7
