REMARK  7 active torsions:
REMARK  status: ('A' for Active; 'I' for Inactive)
REMARK    1  A    between atoms: S_2  and  N_4 
REMARK    2  A    between atoms: S_2  and  C_24 
REMARK    3  A    between atoms: N_4  and  C_5 
REMARK    4  A    between atoms: C_5  and  C_6 
REMARK    5  A    between atoms: C_6  and  C_7 
REMARK    6  A    between atoms: C_7  and  N_8 
REMARK    7  A    between atoms: C_11  and  C_12 
ROOT
ATOM      1  N   UNL d   1       9.126   6.021 -11.768  0.00  0.00     0.142 N 
ATOM      2  C   UNL d   1       7.801   5.596 -11.295  0.00  0.00     0.276 C 
ATOM      3  C   UNL d   1       7.245   4.414 -12.063  0.00  0.00     0.005 C 
ATOM      4  C   UNL d   1       7.766   3.969 -13.231  0.00  0.00    -0.021 C 
ATOM      5  C   UNL d   1       8.965   4.689 -13.809  0.00  0.00     0.061 C 
ATOM      6  C   UNL d   1       9.145   6.076 -13.215  0.00  0.00     0.255 C 
ENDROOT
BRANCH   1   7
ATOM      7  C   UNL d   1       9.484   7.328 -11.230  0.00  0.00     0.253 C 
BRANCH   7   8
ATOM      8  C   UNL d   1       9.964   7.193  -9.788  0.00  0.00     0.062 C 
BRANCH   8   9
ATOM      9  C   UNL d   1      10.866   8.363  -9.351  0.00  0.00     0.141 C 
BRANCH   9  10
ATOM     10  N   UNL d   1      11.321   8.232  -7.963  0.00  0.00    -0.185 NA
BRANCH  10  11
ATOM     11  S   UNL d   1      10.173   7.800  -6.759  0.00  0.00     0.281 S 
ATOM     12  O   UNL d   1       9.095   8.786  -6.805  0.00  0.00    -0.199 OA
ATOM     13  O   UNL d   1       9.855   6.382  -6.930  0.00  0.00    -0.199 OA
BRANCH  11  14
ATOM     14  C   UNL d   1      11.061   7.984  -5.238  0.00  0.00     0.105 A 
ATOM     15  C   UNL d   1      11.460   6.836  -4.527  0.00  0.00     0.015 A 
ATOM     16  C   UNL d   1      12.139   6.975  -3.301  0.00  0.00     0.030 A 
ATOM     17  C   UNL d   1      12.396   8.264  -2.789  0.00  0.00     0.140 A 
ATOM     18  C   UNL d   1      11.984   9.409  -3.503  0.00  0.00     0.030 A 
ATOM     19  F   UNL d   1      13.037   8.406  -1.606  0.00  0.00    -0.204 F 
ATOM     20  C   UNL d   1      11.317   9.274  -4.735  0.00  0.00     0.015 A 
ENDBRANCH  11  14
ENDBRANCH  10  11
ENDBRANCH   9  10
ENDBRANCH   8   9
ENDBRANCH   7   8
ENDBRANCH   1   7
BRANCH   4  21
ATOM     21  C   UNL d   1       7.209   2.801 -13.931  0.00  0.00     0.017 A 
ATOM     22  C   UNL d   1       7.872   2.020 -14.947  0.00  0.00     0.020 A 
ATOM     23  C   UNL d   1       6.968   0.971 -15.304  0.00  0.00     0.082 A 
ATOM     24  C   UNL d   1       9.124   2.043 -15.624  0.00  0.00     0.013 A 
ATOM     25  N   UNL d   1       5.863   1.117 -14.481  0.00  0.00    -0.244 NA
ATOM     26  C   UNL d   1       7.272   0.035 -16.310  0.00  0.00     0.020 A 
ATOM     27  C   UNL d   1       6.004   2.212 -13.646  0.00  0.00     0.099 A 
ATOM     28  C   UNL d   1       8.513   0.106 -16.976  0.00  0.00     0.013 A 
ATOM     29  C   UNL d   1       9.442   1.100 -16.619  0.00  0.00     0.058 A 
ATOM     30 CL   UNL d   1      10.974   1.183 -17.411  0.00  0.00    -0.082 Cl
ENDBRANCH   4  21
TORSDOF 7
