REMARK  9 active torsions:
REMARK  status: ('A' for Active; 'I' for Inactive)
REMARK    1  A    between atoms: C_2  and  C_3 
REMARK    2  A    between atoms: C_7  and  O_8 
REMARK    3  A    between atoms: C_10  and  N_11 
REMARK    4  A    between atoms: N_14  and  C_15 
REMARK    5  A    between atoms: C_15  and  C_16 
REMARK    6  A    between atoms: C_16  and  C_18 
REMARK    7  A    between atoms: C_18  and  C_19 
REMARK    8  A    between atoms: C_19  and  N_20 
REMARK       I    between atoms: N_20  and  C_21 
REMARK    9  A    between atoms: C_21  and  C_23 
ROOT
ATOM      1  N   UNL d   1       9.207   5.277 -10.176  0.00  0.00    -0.343 N 
ATOM      2  C   UNL d   1       9.812   4.937 -11.478  0.00  0.00     0.137 C 
ATOM      3  C   UNL d   1       8.818   4.996 -12.654  0.00  0.00     0.274 C 
ATOM      4  N   UNL d   1       7.668   4.148 -12.302  0.00  0.00     0.144 N 
ATOM      5  C   UNL d   1       7.050   4.671 -11.091  0.00  0.00     0.274 C 
ATOM      6  C   UNL d   1       7.949   4.666  -9.829  0.00  0.00     0.137 C 
ENDROOT
BRANCH   4   7
ATOM      7  C   UNL d   1       6.697   4.198 -13.394  0.00  0.00     0.285 C 
BRANCH   7   8
ATOM      8  C   UNL d   1       6.810   2.960 -14.297  0.00  0.00     0.196 C 
ATOM      9  F   UNL d   1       6.221   1.929 -13.682  0.00  0.00    -0.235 F 
BRANCH   8  10
ATOM     10  C   UNL d   1       8.238   2.579 -14.721  0.00  0.00     0.064 C 
BRANCH  10  11
ATOM     11  C   UNL d   1       8.278   1.315 -15.586  0.00  0.00     0.132 C 
BRANCH  11  12
ATOM     12  N   UNL d   1       9.518   1.263 -16.351  0.00  0.00    -0.233 NA
ATOM     13  C   UNL d   1       9.815   0.324 -17.256  0.00  0.00     0.293 C 
ATOM     14  O   UNL d   1       9.097  -0.646 -17.492  0.00  0.00    -0.264 OA
BRANCH  13  15
ATOM     15  C   UNL d   1      11.095   0.506 -17.952  0.00  0.00     0.139 A 
ATOM     16  N   UNL d   1      11.693  -0.598 -18.532  0.00  0.00    -0.241 NA
ATOM     17  C   UNL d   1      12.877  -0.251 -19.154  0.00  0.00     0.082 A 
ATOM     18  C   UNL d   1      13.001   1.159 -18.965  0.00  0.00     0.019 A 
ATOM     19  C   UNL d   1      13.845  -0.997 -19.848  0.00  0.00     0.019 A 
ATOM     20  C   UNL d   1      11.864   1.613 -18.215  0.00  0.00     0.025 A 
ATOM     21  C   UNL d   1      14.140   1.789 -19.516  0.00  0.00     0.002 A 
ATOM     22  C   UNL d   1      15.118   1.048 -20.210  0.00  0.00     0.000 A 
ATOM     23  C   UNL d   1      14.974  -0.344 -20.372  0.00  0.00     0.002 A 
ENDBRANCH  13  15
ENDBRANCH  11  12
ENDBRANCH  10  11
ENDBRANCH   8  10
ENDBRANCH   7   8
ENDBRANCH   4   7
BRANCH   1  24
ATOM     24  C   UNL d   1       9.649   6.306  -9.341  0.00  0.00     0.079 A 
ATOM     25  C   UNL d   1      10.148   7.488  -9.855  0.00  0.00     0.120 A 
ATOM     26  C   UNL d   1      10.700   8.412  -8.966  0.00  0.00     0.081 A 
ATOM     27  C   UNL d   1      10.709   8.290  -7.574  0.00  0.00     0.009 A 
ATOM     28 CL   UNL d   1      11.462   9.723  -9.687  0.00  0.00    -0.080 Cl
ATOM     29  C   UNL d   1      10.158   7.130  -7.063  0.00  0.00    -0.020 A 
ATOM     30  C   UNL d   1       9.622   6.136  -7.925  0.00  0.00     0.015 A 
BRANCH  25  31
ATOM     31  O   UNL d   1      10.198   7.819 -11.199  0.00  0.00    -0.326 OA
ATOM     32  C   UNL d   1       8.986   8.320 -11.732  0.00  0.00     0.181 C 
ENDBRANCH  25  31
BRANCH  29  33
ATOM     33  C   UNL d   1      10.158   6.995  -5.565  0.00  0.00     0.026 C 
ATOM     34  C   UNL d   1      11.537   6.618  -5.007  0.00  0.00     0.005 C 
ENDBRANCH  29  33
ENDBRANCH   1  24
TORSDOF 9
