REMARK  4 active torsions:
REMARK  status: ('A' for Active; 'I' for Inactive)
REMARK    1  A    between atoms: C_8  and  C_9 
REMARK    2  A    between atoms: C_9  and  C_10 
REMARK    3  A    between atoms: C_10  and  N_11 
REMARK    4  A    between atoms: N_14  and  C_15 
ROOT
ATOM      1  C   UNL d   1       9.583   5.964 -11.627  0.00  0.00     0.255 C 
ENDROOT
BRANCH   1   2
ATOM      2  C   UNL d   1       9.393   4.452 -11.848  0.00  0.00     0.068 C 
BRANCH   2   3
ATOM      3  C   UNL d   1       9.543   4.016 -13.311  0.00  0.00     0.050 A 
ATOM      4  C   UNL d   1       8.489   3.591 -14.054  0.00  0.00     0.061 A 
ATOM      5  C   UNL d   1       7.041   3.601 -13.575  0.00  0.00     0.052 C 
ATOM      6  N   UNL d   1       8.672   3.155 -15.366  0.00  0.00    -0.234 NA
ATOM      7  C   UNL d   1       9.826   3.225 -15.930  0.00  0.00     0.150 A 
ATOM      8  C   UNL d   1       9.998   2.810 -17.408  0.00  0.00     0.177 C 
ATOM      9  N   UNL d   1      10.983   3.655 -15.222  0.00  0.00    -0.283 N 
ATOM     10  C   UNL d   1      11.320   3.249 -18.057  0.00  0.00     0.040 C 
ATOM     11  C   UNL d   1       8.822   3.301 -18.275  0.00  0.00     0.041 C 
ATOM     12  O   UNL d   1       9.966   1.397 -17.457  0.00  0.00    -0.218 OA
ATOM     13  C   UNL d   1      12.496   2.960 -17.139  0.00  0.00     0.028 C 
ATOM     14  C   UNL d   1      12.310   3.773 -15.867  0.00  0.00     0.111 C 
ATOM     15  C   UNL d   1      10.887   4.041 -13.922  0.00  0.00     0.259 A 
ATOM     16  O   UNL d   1      11.896   4.405 -13.329  0.00  0.00    -0.267 OA
ENDBRANCH   2   3
ENDBRANCH   1   2
BRANCH   1  17
ATOM     17  N   UNL d   1       9.390   6.390 -10.249  0.00  0.00     0.141 N 
ATOM     18  C   UNL d   1      10.450   5.882  -9.384  0.00  0.00     0.274 C 
ATOM     19  C   UNL d   1      10.225   6.248  -7.929  0.00  0.00     0.138 C 
ATOM     20  N   UNL d   1      10.181   7.688  -7.828  0.00  0.00    -0.329 N 
ATOM     21  C   UNL d   1       9.240   8.330  -8.727  0.00  0.00     0.138 C 
ATOM     22  C   UNL d   1       9.486   7.863 -10.181  0.00  0.00     0.274 C 
BRANCH  20  23
ATOM     23  C   UNL d   1      10.937   8.407  -6.902  0.00  0.00     0.148 A 
ATOM     24  C   UNL d   1      11.288   7.959  -5.569  0.00  0.00     0.042 A 
ATOM     25  C   UNL d   1      12.043   8.981  -4.916  0.00  0.00     0.050 A 
ATOM     26  C   UNL d   1      11.038   6.793  -4.829  0.00  0.00     0.004 A 
ATOM     27  S   UNL d   1      12.162  10.315  -6.036  0.00  0.00     0.015 SA
ATOM     28  C   UNL d   1      12.555   8.826  -3.619  0.00  0.00     0.008 A 
ATOM     29  N   UNL d   1      11.343   9.598  -7.262  0.00  0.00    -0.192 NA
ATOM     30  C   UNL d   1      12.299   7.638  -2.912  0.00  0.00     0.001 A 
ATOM     31  C   UNL d   1      11.533   6.632  -3.522  0.00  0.00     0.000 A 
ENDBRANCH  20  23
ENDBRANCH   1  17
TORSDOF 4
