REMARK  5 active torsions:
REMARK  status: ('A' for Active; 'I' for Inactive)
REMARK    1  A    between atoms: C_2  and  C_3 
REMARK       I    between atoms: C_2  and  N_8 
REMARK    2  A    between atoms: N_11  and  C_12 
REMARK    3  A    between atoms: C_12  and  C_13 
REMARK    4  A    between atoms: C_13  and  O_14 
REMARK    5  A    between atoms: O_14  and  C_15 
ROOT
ATOM      1  O   UNL d   1      11.084  10.248  -5.706  0.00  0.00    -0.266 OA
ATOM      2  C   UNL d   1      11.329   9.035  -5.713  0.00  0.00     0.275 C 
ATOM      3  N   UNL d   1      11.328   8.300  -6.861  0.00  0.00    -0.311 N 
ATOM      4  C   UNL d   1      11.339   8.909  -8.207  0.00  0.00     0.140 C 
ATOM      5  C   UNL d   1      10.188   8.337  -9.051  0.00  0.00     0.274 C 
ATOM      6  N   UNL d   1      10.305   6.876  -9.153  0.00  0.00     0.144 N 
ATOM      7  C   UNL d   1      10.206   6.327  -7.804  0.00  0.00     0.274 C 
ATOM      8  C   UNL d   1      11.350   6.839  -6.947  0.00  0.00     0.140 C 
ENDROOT
BRANCH   6   9
ATOM      9  C   UNL d   1       9.233   6.277  -9.947  0.00  0.00     0.283 C 
BRANCH   9  10
ATOM     10  C   UNL d   1       9.281   6.778 -11.403  0.00  0.00     0.184 C 
BRANCH  10  11
ATOM     11  O   UNL d   1       9.440   5.698 -12.299  0.00  0.00    -0.327 OA
BRANCH  11  12
ATOM     12  C   UNL d   1       8.331   4.955 -12.618  0.00  0.00     0.113 A 
ATOM     13  C   UNL d   1       8.477   3.971 -13.611  0.00  0.00     0.123 A 
ATOM     14  N   UNL d   1       7.470   3.184 -14.039  0.00  0.00    -0.240 NA
ATOM     15  C   UNL d   1       6.257   3.347 -13.472  0.00  0.00     0.099 A 
ATOM     16  C   UNL d   1       6.001   4.289 -12.464  0.00  0.00     0.023 A 
ATOM     17  C   UNL d   1       7.053   5.111 -12.028  0.00  0.00     0.027 A 
ENDBRANCH  11  12
ENDBRANCH  10  11
ENDBRANCH   9  10
ENDBRANCH   6   9
BRANCH   2  18
ATOM     18  C   UNL d   1      11.698   8.369  -4.404  0.00  0.00     0.137 A 
ATOM     19  N   UNL d   1      11.934   9.186  -3.298  0.00  0.00    -0.239 NA
ATOM     20  C   UNL d   1      12.263   8.423  -2.182  0.00  0.00     0.099 A 
ATOM     21  C   UNL d   1      12.239   7.118  -2.582  0.00  0.00     0.022 A 
ATOM     22  C   UNL d   1      11.922   7.088  -3.952  0.00  0.00     0.026 A 
ENDBRANCH   2  18
TORSDOF 5
