REMARK  6 active torsions:
REMARK  status: ('A' for Active; 'I' for Inactive)
REMARK    1  A    between atoms: O_2  and  C_3 
REMARK    2  A    between atoms: C_8  and  N_9 
REMARK    3  A    between atoms: N_12  and  C_13 
REMARK    4  A    between atoms: C_13  and  C_14 
REMARK    5  A    between atoms: C_14  and  C_15 
REMARK    6  A    between atoms: C_21  and  N_22 
ROOT
ATOM      1  C   UNL d   1       9.972   4.904 -12.605  0.00  0.00     0.251 C 
ENDROOT
BRANCH   1   2
ATOM      2  N   UNL d   1       9.785   5.012 -14.046  0.00  0.00     0.141 N 
ATOM      3  C   UNL d   1       8.376   5.148 -14.413  0.00  0.00     0.274 C 
ATOM      4  C   UNL d   1       7.558   3.888 -13.999  0.00  0.00     0.137 C 
ATOM      5  N   UNL d   1       8.218   2.683 -14.502  0.00  0.00    -0.343 N 
ATOM      6  C   UNL d   1       9.663   2.550 -14.339  0.00  0.00     0.137 C 
ATOM      7  C   UNL d   1      10.365   3.865 -14.758  0.00  0.00     0.274 C 
BRANCH   5   8
ATOM      8  C   UNL d   1       7.507   1.736 -15.258  0.00  0.00     0.079 A 
ATOM      9  C   UNL d   1       7.938   1.378 -16.559  0.00  0.00     0.110 A 
ATOM     10  C   UNL d   1       7.204   0.391 -17.271  0.00  0.00     0.026 A 
ATOM     11  C   UNL d   1       6.070  -0.208 -16.697  0.00  0.00     0.002 A 
ATOM     12  C   UNL d   1       5.648   0.161 -15.410  0.00  0.00     0.002 A 
ATOM     13  C   UNL d   1       6.362   1.141 -14.692  0.00  0.00     0.019 A 
BRANCH   9  14
ATOM     14  O   UNL d   1       9.048   2.011 -17.077  0.00  0.00    -0.327 OA
ATOM     15  C   UNL d   1       9.460   1.710 -18.400  0.00  0.00     0.181 C 
ENDBRANCH   9  14
ENDBRANCH   5   8
ENDBRANCH   1   2
BRANCH   1  16
ATOM     16  C   UNL d   1       9.454   6.147 -11.878  0.00  0.00     0.038 C 
BRANCH  16  17
ATOM     17  C   UNL d   1       9.756   6.126 -10.362  0.00  0.00     0.037 C 
ATOM     18  C   UNL d   1      10.273   7.491  -9.880  0.00  0.00     0.174 C 
ATOM     19  C   UNL d   1      10.407   7.564  -8.383  0.00  0.00     0.005 A 
ATOM     20  O   UNL d   1       9.464   8.546 -10.349  0.00  0.00    -0.219 OA
ATOM     21  C   UNL d   1       9.737   6.665  -7.527  0.00  0.00    -0.024 A 
ATOM     22  C   UNL d   1      11.172   8.623  -7.854  0.00  0.00     0.021 A 
ATOM     23  C   UNL d   1       8.888   5.516  -8.065  0.00  0.00     0.026 C 
ATOM     24  C   UNL d   1       9.846   6.840  -6.144  0.00  0.00    -0.003 A 
ATOM     25  C   UNL d   1       8.562   5.632  -9.548  0.00  0.00     0.008 C 
ATOM     26  C   UNL d   1      10.618   7.887  -5.620  0.00  0.00     0.023 A 
ATOM     27  C   UNL d   1      11.279   8.787  -6.469  0.00  0.00     0.126 A 
BRANCH  27  28
ATOM     28  N   UNL d   1      12.055   9.882  -5.886  0.00  0.00    -0.114 N 
ATOM     29  O   UNL d   1      12.760   9.584  -4.924  0.00  0.00    -0.532 OA
ATOM     30  O   UNL d   1      11.930  10.992  -6.387  0.00  0.00    -0.532 OA
ENDBRANCH  27  28
ENDBRANCH  16  17
ENDBRANCH   1  16
TORSDOF 6
