REMARK  11 active torsions:
REMARK  status: ('A' for Active; 'I' for Inactive)
REMARK    1  A    between atoms: O_2  and  C_3 
REMARK    2  A    between atoms: C_8  and  C_9 
REMARK    3  A    between atoms: C_11  and  C_12 
REMARK    4  A    between atoms: C_12  and  N_13 
REMARK    5  A    between atoms: N_13  and  C_14 
REMARK    6  A    between atoms: C_14  and  C_15 
REMARK    7  A    between atoms: C_15  and  C_16 
REMARK    8  A    between atoms: C_16  and  C_17 
REMARK    9  A    between atoms: C_17  and  C_18 
REMARK   10  A    between atoms: C_18  and  O_19 
REMARK   11  A    between atoms: O_19  and  C_20 
ROOT
ATOM      1  C   UNL d   1       9.403   4.046 -12.144  0.00  0.00     0.038 C 
ENDROOT
BRANCH   1   2
ATOM      2  C   UNL d   1       8.245   4.570 -11.285  0.00  0.00     0.290 C 
BRANCH   2   3
ATOM      3  N   UNL d   1       8.707   4.890  -9.943  0.00  0.00     0.339 N 
BRANCH   3   4
ATOM      4  C   UNL d   1       9.583   6.052  -9.953  0.00  0.00     0.290 C 
BRANCH   4   5
ATOM      5  C   UNL d   1       9.488   6.797  -8.647  0.00  0.00     0.041 A 
ATOM      6  C   UNL d   1      10.629   7.702  -8.222  0.00  0.00     0.026 A 
ATOM      7  C   UNL d   1       9.314   8.301  -8.635  0.00  0.00     0.007 A 
BRANCH   6   8
ATOM      8  C   UNL d   1      11.076   7.736  -6.800  0.00  0.00    -0.000 A 
ATOM      9  C   UNL d   1      11.436   8.941  -6.168  0.00  0.00     0.090 A 
ATOM     10  C   UNL d   1      11.819   8.949  -4.803  0.00  0.00     0.024 A 
ATOM     11  C   UNL d   1      11.843   7.752  -4.073  0.00  0.00     0.002 A 
ATOM     12  C   UNL d   1      11.487   6.556  -4.713  0.00  0.00    -0.000 A 
ATOM     13  C   UNL d   1      11.125   6.548  -6.068  0.00  0.00    -0.002 A 
BRANCH   9  14
ATOM     14  O   UNL d   1      11.366  10.059  -6.942  0.00  0.00    -0.328 OA
ATOM     15  C   UNL d   1      11.914  11.231  -6.396  0.00  0.00     0.181 C 
ENDBRANCH   9  14
ENDBRANCH   6   8
ENDBRANCH   4   5
ENDBRANCH   3   4
ENDBRANCH   2   3
ENDBRANCH   1   2
BRANCH   1  16
ATOM     16  C   UNL d   1       8.966   3.644 -13.545  0.00  0.00     0.005 C 
BRANCH  16  17
ATOM     17  C   UNL d   1      10.079   2.862 -14.255  0.00  0.00     0.033 C 
BRANCH  17  18
ATOM     18  C   UNL d   1       9.660   2.461 -15.688  0.00  0.00     0.149 C 
BRANCH  18  19
ATOM     19  O   UNL d   1      10.759   2.019 -16.475  0.00  0.00    -0.331 OA
BRANCH  19  20
ATOM     20  C   UNL d   1      11.631   2.969 -16.948  0.00  0.00     0.096 A 
ATOM     21  C   UNL d   1      11.571   4.336 -16.578  0.00  0.00     0.043 A 
ATOM     22  C   UNL d   1      12.530   5.233 -17.030  0.00  0.00     0.082 A 
ATOM     23  C   UNL d   1      13.540   4.816 -17.936  0.00  0.00    -0.004 A 
ATOM     24  N   UNL d   1      12.477   6.579 -16.580  0.00  0.00    -0.212 NA
ATOM     25  C   UNL d   1      13.591   3.465 -18.345  0.00  0.00    -0.001 A 
ATOM     26  C   UNL d   1      14.488   5.864 -18.473  0.00  0.00     0.038 C 
ATOM     27  C   UNL d   1      12.654   2.546 -17.835  0.00  0.00     0.024 A 
ATOM     28  C   UNL d   1      14.729   6.995 -17.444  0.00  0.00     0.095 C 
ATOM     29  C   UNL d   1      13.439   7.475 -16.776  0.00  0.00     0.256 C 
ATOM     30  O   UNL d   1      13.314   8.641 -16.402  0.00  0.00    -0.270 OA
ENDBRANCH  19  20
ENDBRANCH  18  19
ENDBRANCH  17  18
ENDBRANCH  16  17
ENDBRANCH   1  16
TORSDOF 11
