REMARK  3 active torsions:
REMARK  status: ('A' for Active; 'I' for Inactive)
REMARK    1  A    between atoms: C_5  and  C_6 
REMARK    2  A    between atoms: C_6  and  N_7 
REMARK    3  A    between atoms: N_10  and  C_11 
ROOT
ATOM      1  N   UNL d   1       7.960   4.002 -12.945  0.00  0.00     0.146 N 
ATOM      2  C   UNL d   1       6.976   3.157 -13.624  0.00  0.00     0.286 C 
ATOM      3  C   UNL d   1       7.657   2.055 -14.489  0.00  0.00     0.286 C 
ATOM      4  N   UNL d   1       8.561   2.650 -15.489  0.00  0.00     0.148 N 
ATOM      5  C   UNL d   1       9.477   3.587 -14.818  0.00  0.00     0.286 C 
ATOM      6  C   UNL d   1       8.801   4.606 -13.958  0.00  0.00     0.286 C 
ENDROOT
BRANCH   4   7
ATOM      7  C   UNL d   1       9.233   1.649 -16.372  0.00  0.00     0.297 C 
ATOM      8  C   UNL d   1       9.283   2.020 -17.874  0.00  0.00     0.269 C 
ATOM      9  N   UNL d   1      10.032   3.053 -18.320  0.00  0.00    -0.298 N 
ATOM     10  O   UNL d   1       8.596   1.361 -18.655  0.00  0.00    -0.270 OA
ATOM     11  C   UNL d   1      10.926   3.814 -17.549  0.00  0.00     0.054 A 
ATOM     12  C   UNL d   1       9.653   3.791 -19.518  0.00  0.00     0.114 C 
ATOM     13  C   UNL d   1      11.774   3.340 -16.525  0.00  0.00    -0.006 A 
ATOM     14  C   UNL d   1      10.849   5.162 -17.939  0.00  0.00    -0.005 A 
ATOM     15  C   UNL d   1      11.851   1.821 -16.393  0.00  0.00     0.030 C 
ATOM     16  C   UNL d   1      12.469   4.334 -15.778  0.00  0.00    -0.003 A 
ATOM     17  C   UNL d   1      10.586   1.092 -15.877  0.00  0.00     0.048 C 
ATOM     18  C   UNL d   1      12.337   5.714 -16.094  0.00  0.00    -0.001 A 
ATOM     19  C   UNL d   1      11.543   6.126 -17.186  0.00  0.00    -0.003 A 
ATOM     20  C   UNL d   1       9.920   5.253 -19.124  0.00  0.00     0.052 C 
ENDBRANCH   4   7
BRANCH   1  21
ATOM     21  C   UNL d   1       7.347   5.033 -12.117  0.00  0.00     0.277 C 
BRANCH  21  22
ATOM     22  C   UNL d   1       8.355   5.761 -11.242  0.00  0.00     0.011 A 
ATOM     23  C   UNL d   1       8.973   6.960 -11.678  0.00  0.00    -0.003 A 
ATOM     24  C   UNL d   1       9.860   7.645 -10.843  0.00  0.00    -0.004 A 
ATOM     25  C   UNL d   1      10.172   7.136  -9.558  0.00  0.00    -0.022 A 
ATOM     26  C   UNL d   1      11.140   7.864  -8.660  0.00  0.00     0.031 C 
ATOM     27  C   UNL d   1       9.570   5.934  -9.133  0.00  0.00    -0.004 A 
ATOM     28  C   UNL d   1       8.676   5.252  -9.963  0.00  0.00    -0.003 A 
ENDBRANCH  21  22
ENDBRANCH   1  21
TORSDOF 3
