REMARK  9 active torsions:
REMARK  status: ('A' for Active; 'I' for Inactive)
REMARK    1  A    between atoms: C_2  and  C_3 
REMARK    2  A    between atoms: C_3  and  N_4 
REMARK    3  A    between atoms: C_11  and  O_12 
REMARK    4  A    between atoms: O_12  and  C_13 
REMARK    5  A    between atoms: C_13  and  C_14 
REMARK    6  A    between atoms: C_14  and  C_15 
REMARK    7  A    between atoms: C_15  and  C_16 
REMARK    8  A    between atoms: C_16  and  N_17 
REMARK       I    between atoms: N_17  and  C_18 
REMARK    9  A    between atoms: C_18  and  C_20 
ROOT
ATOM      1  N   UNL d   1      12.523   6.866 -18.935  0.00  0.00     0.143 N 
ATOM      2  C   UNL d   1      11.345   7.070 -19.785  0.00  0.00     0.282 C 
ATOM      3  C   UNL d   1      10.611   5.754 -20.098  0.00  0.00     0.178 C 
ATOM      4  O   UNL d   1      10.262   5.094 -18.887  0.00  0.00    -0.348 OA
ATOM      5  C   UNL d   1      11.399   4.837 -18.066  0.00  0.00     0.173 C 
ATOM      6  C   UNL d   1      11.046   4.042 -16.825  0.00  0.00     0.031 A 
ATOM      7  C   UNL d   1      10.115   2.990 -16.905  0.00  0.00     0.024 A 
ATOM      8  C   UNL d   1       9.768   2.237 -15.769  0.00  0.00     0.094 A 
ATOM      9  C   UNL d   1      10.384   2.551 -14.531  0.00  0.00     0.026 A 
ATOM     10  C   UNL d   1      11.326   3.594 -14.443  0.00  0.00     0.026 A 
ATOM     11  C   UNL d   1      11.671   4.329 -15.590  0.00  0.00     0.092 A 
ATOM     12  O   UNL d   1      12.604   5.323 -15.448  0.00  0.00    -0.329 OA
ATOM     13  C   UNL d   1      13.152   5.872 -16.639  0.00  0.00     0.185 C 
ATOM     14  C   UNL d   1      12.080   6.174 -17.708  0.00  0.00     0.280 C 
ENDROOT
BRANCH   8  15
ATOM     15  O   UNL d   1       8.829   1.237 -15.948  0.00  0.00    -0.331 OA
BRANCH  15  16
ATOM     16  C   UNL d   1       7.886   0.973 -14.899  0.00  0.00     0.149 C 
BRANCH  16  17
ATOM     17  C   UNL d   1       7.101   2.262 -14.631  0.00  0.00     0.035 C 
BRANCH  17  18
ATOM     18  C   UNL d   1       5.937   2.092 -13.634  0.00  0.00     0.029 C 
BRANCH  18  19
ATOM     19  C   UNL d   1       5.456   3.451 -13.062  0.00  0.00     0.129 C 
BRANCH  19  20
ATOM     20  N   UNL d   1       6.447   4.121 -12.214  0.00  0.00    -0.233 NA
ATOM     21  C   UNL d   1       7.504   4.814 -12.652  0.00  0.00     0.293 C 
ATOM     22  O   UNL d   1       7.800   4.918 -13.835  0.00  0.00    -0.264 OA
BRANCH  21  23
ATOM     23  C   UNL d   1       8.348   5.477 -11.643  0.00  0.00     0.139 A 
ATOM     24  N   UNL d   1       8.260   5.159 -10.291  0.00  0.00    -0.241 NA
ATOM     25  C   UNL d   1       9.083   5.987  -9.555  0.00  0.00     0.082 A 
ATOM     26  C   UNL d   1       9.758   6.798 -10.510  0.00  0.00     0.019 A 
ATOM     27  C   UNL d   1       9.304   6.105  -8.184  0.00  0.00     0.019 A 
ATOM     28  C   UNL d   1       9.308   6.441 -11.810  0.00  0.00     0.025 A 
ATOM     29  C   UNL d   1      10.688   7.748 -10.022  0.00  0.00     0.002 A 
ATOM     30  C   UNL d   1      10.928   7.859  -8.645  0.00  0.00     0.000 A 
ATOM     31  C   UNL d   1      10.244   7.047  -7.725  0.00  0.00     0.002 A 
ENDBRANCH  21  23
ENDBRANCH  19  20
ENDBRANCH  18  19
ENDBRANCH  17  18
ENDBRANCH  16  17
ENDBRANCH  15  16
ENDBRANCH   8  15
BRANCH   1  32
ATOM     32  C   UNL d   1      13.210   8.143 -18.697  0.00  0.00     0.251 C 
BRANCH  32  33
ATOM     33  C   UNL d   1      14.733   8.031 -18.448  0.00  0.00     0.035 C 
ATOM     34  C   UNL d   1      15.422   9.397 -18.419  0.00  0.00     0.002 C 
ENDBRANCH  32  33
ENDBRANCH   1  32
TORSDOF 9
