REMARK  7 active torsions:
REMARK  status: ('A' for Active; 'I' for Inactive)
REMARK    1  A    between atoms: S_2  and  N_4 
REMARK    2  A    between atoms: S_2  and  C_22 
REMARK    3  A    between atoms: N_4  and  C_5 
REMARK    4  A    between atoms: N_8  and  C_9 
REMARK    5  A    between atoms: C_9  and  C_10 
REMARK    6  A    between atoms: C_10  and  C_11 
REMARK    7  A    between atoms: C_11  and  C_12 
ROOT
ATOM      1  C   UNL d   1       6.997   5.086 -11.998  0.00  0.00     0.151 C 
ATOM      2  C   UNL d   1       5.509   4.959 -12.225  0.00  0.00     0.063 C 
ATOM      3  C   UNL d   1       5.389   3.938 -13.355  0.00  0.00     0.252 C 
ATOM      4  N   UNL d   1       6.621   3.159 -13.275  0.00  0.00     0.139 N 
ATOM      5  C   UNL d   1       7.634   4.188 -13.084  0.00  0.00     0.275 C 
ENDROOT
BRANCH   1   6
ATOM      6  N   UNL d   1       7.430   6.500 -12.116  0.00  0.00    -0.185 NA
BRANCH   6   7
ATOM      7  S   UNL d   1       9.100   6.905 -12.027  0.00  0.00     0.281 S 
ATOM      8  O   UNL d   1       9.826   5.856 -12.766  0.00  0.00    -0.199 OA
ATOM      9  O   UNL d   1       9.243   8.308 -12.432  0.00  0.00    -0.199 OA
BRANCH   7  10
ATOM     10  C   UNL d   1       9.548   6.747 -10.272  0.00  0.00     0.106 C 
ATOM     11  C   UNL d   1      10.294   7.786  -9.656  0.00  0.00     0.027 C 
ATOM     12  C   UNL d   1      10.620   7.687  -8.277  0.00  0.00     0.086 C 
ATOM     13  C   UNL d   1      10.161   6.592  -7.512  0.00  0.00     0.151 C 
ATOM     14 CL   UNL d   1      11.593   8.885  -7.508  0.00  0.00    -0.080 Cl
ATOM     15  C   UNL d   1       9.419   5.588  -8.150  0.00  0.00     0.031 C 
ATOM     16  F   UNL d   1      10.498   6.465  -6.201  0.00  0.00    -0.203 F 
ATOM     17  C   UNL d   1       9.160   5.578  -9.540  0.00  0.00     0.015 C 
ENDBRANCH   7  10
ENDBRANCH   6   7
ENDBRANCH   1   6
BRANCH   4  18
ATOM     18  C   UNL d   1       6.890   2.426 -14.496  0.00  0.00     0.251 C 
BRANCH  18  19
ATOM     19  C   UNL d   1       7.890   1.272 -14.290  0.00  0.00     0.042 C 
BRANCH  19  20
ATOM     20  C   UNL d   1       8.455   0.710 -15.604  0.00  0.00     0.050 C 
BRANCH  20  21
ATOM     21  C   UNL d   1       7.453   0.663 -16.729  0.00  0.00     0.088 A 
ATOM     22  C   UNL d   1       6.267  -0.083 -16.865  0.00  0.00     0.041 A 
ATOM     23  C   UNL d   1       5.662   0.231 -18.082  0.00  0.00     0.126 A 
ATOM     24  C   UNL d   1       5.645  -1.004 -15.997  0.00  0.00     0.003 A 
ATOM     25  O   UNL d   1       6.482   1.189 -18.656  0.00  0.00    -0.211 OA
ATOM     26  C   UNL d   1       4.468  -0.361 -18.515  0.00  0.00     0.027 A 
ATOM     27  N   UNL d   1       7.580   1.460 -17.792  0.00  0.00    -0.131 NA
ATOM     28  C   UNL d   1       3.858  -1.302 -17.659  0.00  0.00     0.002 A 
ATOM     29  C   UNL d   1       4.438  -1.613 -16.406  0.00  0.00     0.000 A 
ENDBRANCH  20  21
ENDBRANCH  19  20
ENDBRANCH  18  19
ENDBRANCH   4  18
TORSDOF 7
