REMARK  7 active torsions:
REMARK  status: ('A' for Active; 'I' for Inactive)
REMARK    1  A    between atoms: C_2  and  C_3 
REMARK    2  A    between atoms: C_3  and  C_4 
REMARK    3  A    between atoms: C_4  and  C_5 
REMARK    4  A    between atoms: C_5  and  C_6 
REMARK    5  A    between atoms: C_6  and  C_7 
REMARK    6  A    between atoms: C_7  and  N_8 
REMARK    7  A    between atoms: C_11  and  C_12 
ROOT
ATOM      1  N   UNL d   1      10.883   7.277  -9.516  0.00  0.00     0.137 N 
ATOM      2  C   UNL d   1      11.843   8.372  -9.564  0.00  0.00     0.251 C 
ATOM      3  C   UNL d   1      12.672   8.162  -8.314  0.00  0.00     0.042 C 
ATOM      4  C   UNL d   1      11.719   7.447  -7.338  0.00  0.00     0.058 C 
ATOM      5  C   UNL d   1      10.429   7.267  -8.130  0.00  0.00     0.255 C 
ENDROOT
BRANCH   1   6
ATOM      6  C   UNL d   1       9.766   7.531 -10.411  0.00  0.00     0.250 C 
BRANCH   6   7
ATOM      7  C   UNL d   1       9.043   6.219 -10.747  0.00  0.00     0.035 C 
BRANCH   7   8
ATOM      8  C   UNL d   1       9.435   5.718 -12.139  0.00  0.00     0.002 C 
BRANCH   8   9
ATOM      9  C   UNL d   1       8.674   4.451 -12.523  0.00  0.00     0.000 C 
BRANCH   9  10
ATOM     10  C   UNL d   1       8.752   4.121 -14.025  0.00  0.00     0.000 C 
BRANCH  10  11
ATOM     11  C   UNL d   1       7.981   2.848 -14.420  0.00  0.00     0.000 C 
ATOM     12  C   UNL d   1       6.499   2.842 -13.997  0.00  0.00     0.000 C 
ENDBRANCH  10  11
ENDBRANCH   9  10
ENDBRANCH   8   9
ENDBRANCH   7   8
ENDBRANCH   6   7
ENDBRANCH   1   6
BRANCH   4  13
ATOM     13  C   UNL d   1      11.492   8.178  -6.029  0.00  0.00    -0.018 A 
ATOM     14  C   UNL d   1      11.760   7.537  -4.792  0.00  0.00     0.023 A 
ATOM     15  C   UNL d   1      11.717   8.286  -3.599  0.00  0.00     0.131 A 
ATOM     16  C   UNL d   1      11.345   9.636  -3.632  0.00  0.00     0.027 A 
ATOM     17  O   UNL d   1      11.970   7.684  -2.399  0.00  0.00    -0.190 OA
ATOM     18  C   UNL d   1      11.043  10.261  -4.850  0.00  0.00     0.002 A 
ATOM     19  C   UNL d   1      11.128   9.539  -6.045  0.00  0.00    -0.004 A 
ENDBRANCH   4  13
TORSDOF 7
