REMARK  5 active torsions:
REMARK  status: ('A' for Active; 'I' for Inactive)
REMARK    1  A    between atoms: O_2  and  C_3 
REMARK    2  A    between atoms: C_10  and  C_11 
REMARK       I    between atoms: C_11  and  N_13 
REMARK    3  A    between atoms: N_13  and  C_14 
REMARK    4  A    between atoms: N_17  and  C_18 
REMARK    5  A    between atoms: C_18  and  C_19 
ROOT
ATOM      1  C   UNL d   1       8.991   6.065 -10.049  0.00  0.00     0.111 C 
ATOM      2  C   UNL d   1       9.400   5.601  -8.654  0.00  0.00     0.060 C 
ATOM      3  C   UNL d   1       9.228   6.743  -7.638  0.00  0.00     0.253 C 
ATOM      4  N   UNL d   1      10.127   7.844  -8.023  0.00  0.00     0.141 N 
ATOM      5  C   UNL d   1       9.694   8.405  -9.312  0.00  0.00     0.253 C 
ATOM      6  C   UNL d   1       9.789   7.335 -10.424  0.00  0.00     0.056 C 
ATOM      7  C   UNL d   1       9.316   7.920 -11.773  0.00  0.00     0.004 C 
ENDROOT
BRANCH   1   8
ATOM      8  N   UNL d   1       9.207   4.986 -11.014  0.00  0.00    -0.236 NA
ATOM      9  C   UNL d   1       8.392   4.723 -12.046  0.00  0.00     0.277 C 
ATOM     10  O   UNL d   1       7.208   5.068 -12.088  0.00  0.00    -0.266 OA
BRANCH   9  11
ATOM     11  C   UNL d   1       9.045   4.049 -13.222  0.00  0.00     0.081 A 
ATOM     12  C   UNL d   1       8.361   3.106 -14.022  0.00  0.00     0.100 A 
ATOM     13  C   UNL d   1       9.036   2.513 -15.119  0.00  0.00     0.039 A 
ATOM     14  C   UNL d   1      10.358   2.883 -15.443  0.00  0.00     0.083 A 
ATOM     15  N   UNL d   1      10.986   2.282 -16.534  0.00  0.00    -0.100 NA
ATOM     16  C   UNL d   1      11.021   3.855 -14.670  0.00  0.00     0.071 A 
ATOM     17 CL   UNL d   1      12.623   4.392 -15.049  0.00  0.00    -0.081 Cl
ATOM     18  C   UNL d   1      10.366   4.421 -13.568  0.00  0.00     0.019 A 
BRANCH  12  19
ATOM     19  O   UNL d   1       7.049   2.810 -13.698  0.00  0.00    -0.328 OA
ATOM     20  C   UNL d   1       6.462   1.652 -14.263  0.00  0.00     0.181 C 
ENDBRANCH  12  19
ENDBRANCH   9  11
ENDBRANCH   1   8
BRANCH   4  21
ATOM     21  C   UNL d   1      10.116   8.901  -7.011  0.00  0.00     0.277 C 
BRANCH  21  22
ATOM     22  C   UNL d   1      10.853   8.568  -5.714  0.00  0.00     0.011 A 
ATOM     23  C   UNL d   1      11.059   9.582  -4.746  0.00  0.00    -0.002 A 
ATOM     24  C   UNL d   1      11.695   9.287  -3.517  0.00  0.00    -0.000 A 
ATOM     25  C   UNL d   1      12.098   7.965  -3.236  0.00  0.00    -0.000 A 
ATOM     26  C   UNL d   1      11.887   6.958  -4.204  0.00  0.00    -0.000 A 
ATOM     27  C   UNL d   1      11.317   7.260  -5.449  0.00  0.00    -0.002 A 
ENDBRANCH  21  22
ENDBRANCH   4  21
TORSDOF 5
