REMARK  9 active torsions:
REMARK  status: ('A' for Active; 'I' for Inactive)
REMARK    1  A    between atoms: N_2  and  C_3 
REMARK    2  A    between atoms: N_2  and  C_19 
REMARK    3  A    between atoms: C_3  and  C_4 
REMARK    4  A    between atoms: C_4  and  C_5 
REMARK    5  A    between atoms: C_5  and  C_6 
REMARK    6  A    between atoms: C_6  and  O_7 
REMARK    7  A    between atoms: O_7  and  C_8 
REMARK    8  A    between atoms: C_19  and  C_20 
REMARK    9  A    between atoms: C_22  and  C_23 
ROOT
ATOM      1  C   UNL d   1       9.035   4.661 -10.707  0.00  0.00     0.250 C 
ENDROOT
BRANCH   1   2
ATOM      2  N   UNL d   1       8.790   5.708  -9.712  0.00  0.00     0.139 N 
ATOM      3  C   UNL d   1       8.608   5.031  -8.429  0.00  0.00     0.285 C 
BRANCH   2   4
ATOM      4  C   UNL d   1       9.855   6.717  -9.672  0.00  0.00     0.251 C 
BRANCH   4   5
ATOM      5  C   UNL d   1       9.675   7.758  -8.565  0.00  0.00     0.038 A 
ATOM      6  C   UNL d   1      10.852   8.639  -8.182  0.00  0.00     0.025 A 
ATOM      7  C   UNL d   1       9.646   9.242  -8.864  0.00  0.00     0.007 A 
BRANCH   6   8
ATOM      8  C   UNL d   1      11.107   8.854  -6.721  0.00  0.00    -0.011 A 
ATOM      9  C   UNL d   1      11.455   7.802  -5.842  0.00  0.00     0.064 A 
ATOM     10  C   UNL d   1      11.650   8.036  -4.458  0.00  0.00     0.068 A 
ATOM     11 CL   UNL d   1      11.708   6.269  -6.540  0.00  0.00    -0.082 Cl
ATOM     12  C   UNL d   1      11.471   9.324  -3.943  0.00  0.00     0.012 A 
ATOM     13 CL   UNL d   1      12.130   6.787  -3.356  0.00  0.00    -0.082 Cl
ATOM     14  C   UNL d   1      11.091  10.356  -4.815  0.00  0.00     0.001 A 
ATOM     15  C   UNL d   1      10.978  10.122  -6.176  0.00  0.00    -0.003 A 
ENDBRANCH   6   8
ENDBRANCH   4   5
ENDBRANCH   2   4
ENDBRANCH   1   2
BRANCH   1  16
ATOM     16  C   UNL d   1       9.294   5.141 -12.141  0.00  0.00     0.038 C 
BRANCH  16  17
ATOM     17  C   UNL d   1       9.308   3.980 -13.150  0.00  0.00     0.035 C 
BRANCH  17  18
ATOM     18  C   UNL d   1       9.579   4.523 -14.562  0.00  0.00     0.149 C 
BRANCH  18  19
ATOM     19  O   UNL d   1       9.379   3.464 -15.501  0.00  0.00    -0.331 OA
BRANCH  19  20
ATOM     20  C   UNL d   1      10.390   3.037 -16.332  0.00  0.00     0.096 A 
ATOM     21  C   UNL d   1      10.088   2.014 -17.276  0.00  0.00     0.043 A 
ATOM     22  C   UNL d   1      11.082   1.546 -18.166  0.00  0.00     0.082 A 
ATOM     23  C   UNL d   1      12.378   2.093 -18.103  0.00  0.00    -0.004 A 
ATOM     24  N   UNL d   1      10.793   0.527 -19.115  0.00  0.00    -0.212 NA
ATOM     25  C   UNL d   1      12.679   3.102 -17.171  0.00  0.00    -0.001 A 
ATOM     26  C   UNL d   1      13.461   1.563 -19.016  0.00  0.00     0.038 C 
ATOM     27  C   UNL d   1      11.704   3.571 -16.291  0.00  0.00     0.024 A 
ATOM     28  C   UNL d   1      12.874   1.066 -20.346  0.00  0.00     0.095 C 
ATOM     29  C   UNL d   1      11.608   0.217 -20.145  0.00  0.00     0.256 C 
ATOM     30  O   UNL d   1      11.350  -0.690 -20.929  0.00  0.00    -0.270 OA
ENDBRANCH  19  20
ENDBRANCH  18  19
ENDBRANCH  17  18
ENDBRANCH  16  17
ENDBRANCH   1  16
TORSDOF 9
