REMARK  12 active torsions:
REMARK  status: ('A' for Active; 'I' for Inactive)
REMARK    1  A    between atoms: O_2  and  C_3 
REMARK    2  A    between atoms: C_8  and  N_9 
REMARK    3  A    between atoms: N_12  and  C_13 
REMARK    4  A    between atoms: C_13  and  C_14 
REMARK    5  A    between atoms: C_14  and  C_15 
REMARK    6  A    between atoms: C_15  and  C_16 
REMARK    7  A    between atoms: C_16  and  N_17 
REMARK       I    between atoms: N_17  and  C_18 
REMARK    8  A    between atoms: C_18  and  C_20 
REMARK    9  A    between atoms: C_21  and  C_22 
REMARK   10  A    between atoms: C_25  and  O_26 
REMARK   11  A    between atoms: O_26  and  C_27 
REMARK   12  A    between atoms: C_27  and  C_28 
ROOT
ATOM      1  N   UNL d   1       7.284   2.536 -14.337  0.00  0.00    -0.234 NA
ATOM      2  C   UNL d   1       6.775   3.548 -13.620  0.00  0.00     0.275 C 
ATOM      3  O   UNL d   1       5.576   3.832 -13.589  0.00  0.00    -0.266 OA
ENDROOT
BRANCH   1   4
ATOM      4  C   UNL d   1       6.518   1.399 -14.842  0.00  0.00     0.129 C 
BRANCH   4   5
ATOM      5  C   UNL d   1       6.718   1.218 -16.349  0.00  0.00     0.029 C 
BRANCH   5   6
ATOM      6  C   UNL d   1       8.137   0.762 -16.711  0.00  0.00     0.037 C 
BRANCH   6   7
ATOM      7  C   UNL d   1       8.532   1.143 -18.148  0.00  0.00     0.251 C 
BRANCH   7   8
ATOM      8  N   UNL d   1       9.639   0.336 -18.646  0.00  0.00     0.141 N 
ATOM      9  C   UNL d   1      10.866   0.563 -17.872  0.00  0.00     0.274 C 
ATOM     10  C   UNL d   1      12.006  -0.337 -18.386  0.00  0.00     0.137 C 
ATOM     11  N   UNL d   1      12.212  -0.123 -19.808  0.00  0.00    -0.343 N 
ATOM     12  C   UNL d   1      11.018  -0.182 -20.637  0.00  0.00     0.137 C 
ATOM     13  C   UNL d   1       9.898   0.701 -20.045  0.00  0.00     0.274 C 
BRANCH  11  14
ATOM     14  C   UNL d   1      13.466   0.275 -20.311  0.00  0.00     0.079 A 
ATOM     15  C   UNL d   1      13.611   1.416 -21.147  0.00  0.00     0.110 A 
ATOM     16  C   UNL d   1      14.898   1.751 -21.640  0.00  0.00     0.026 A 
ATOM     17  C   UNL d   1      16.023   0.974 -21.309  0.00  0.00     0.002 A 
ATOM     18  C   UNL d   1      15.877  -0.146 -20.472  0.00  0.00     0.002 A 
ATOM     19  C   UNL d   1      14.605  -0.488 -19.978  0.00  0.00     0.019 A 
BRANCH  15  20
ATOM     20  O   UNL d   1      12.484   2.167 -21.408  0.00  0.00    -0.327 OA
ATOM     21  C   UNL d   1      12.589   3.298 -22.253  0.00  0.00     0.181 C 
ENDBRANCH  15  20
ENDBRANCH  11  14
ENDBRANCH   7   8
ENDBRANCH   6   7
ENDBRANCH   5   6
ENDBRANCH   4   5
ENDBRANCH   1   4
BRANCH   2  22
ATOM     22  C   UNL d   1       7.795   4.179 -12.809  0.00  0.00     0.062 C 
ATOM     23  C   UNL d   1       7.458   4.634 -11.593  0.00  0.00     0.005 C 
BRANCH  23  24
ATOM     24  C   UNL d   1       8.389   5.313 -10.686  0.00  0.00     0.000 A 
ATOM     25  C   UNL d   1       8.473   4.907  -9.344  0.00  0.00     0.002 A 
ATOM     26  C   UNL d   1       9.324   5.560  -8.446  0.00  0.00     0.024 A 
ATOM     27  C   UNL d   1      10.155   6.616  -8.879  0.00  0.00     0.095 A 
ATOM     28  C   UNL d   1      10.065   7.024 -10.226  0.00  0.00     0.024 A 
ATOM     29  C   UNL d   1       9.202   6.371 -11.132  0.00  0.00     0.002 A 
BRANCH  27  30
ATOM     30  O   UNL d   1      11.034   7.301  -8.067  0.00  0.00    -0.326 OA
BRANCH  30  31
ATOM     31  C   UNL d   1      11.441   6.777  -6.801  0.00  0.00     0.175 C 
BRANCH  31  32
ATOM     32  C   UNL d   1      11.448   7.826  -5.714  0.00  0.00     0.008 A 
ATOM     33  C   UNL d   1      11.863   7.454  -4.419  0.00  0.00    -0.002 A 
ATOM     34  C   UNL d   1      11.864   8.394  -3.375  0.00  0.00    -0.000 A 
ATOM     35  C   UNL d   1      11.462   9.714  -3.633  0.00  0.00    -0.000 A 
ATOM     36  C   UNL d   1      11.056  10.098  -4.928  0.00  0.00    -0.000 A 
ATOM     37  C   UNL d   1      11.053   9.156  -5.971  0.00  0.00    -0.002 A 
ENDBRANCH  31  32
ENDBRANCH  30  31
ENDBRANCH  27  30
ENDBRANCH  23  24
ENDBRANCH   2  22
TORSDOF 12
