REMARK  8 active torsions:
REMARK  status: ('A' for Active; 'I' for Inactive)
REMARK    1  A    between atoms: C_2  and  C_4 
REMARK    2  A    between atoms: C_4  and  N_5 
REMARK    3  A    between atoms: N_8  and  C_9 
REMARK    4  A    between atoms: C_9  and  C_10 
REMARK    5  A    between atoms: C_10  and  S_11 
REMARK    6  A    between atoms: S_11  and  C_12 
REMARK    7  A    between atoms: C_12  and  C_13 
REMARK    8  A    between atoms: C_12  and  C_20 
ROOT
ATOM      1  C   UNL d   1       9.416   3.421 -13.790  0.00  0.00     0.092 C 
ENDROOT
BRANCH   1   2
ATOM      2  S   UNL d   1       8.487   4.727 -12.910  0.00  0.00    -0.130 SA
BRANCH   2   3
ATOM      3  C   UNL d   1       9.685   5.210 -11.643  0.00  0.00     0.093 C 
BRANCH   3   4
ATOM      4  C   UNL d   1       9.246   6.472 -10.890  0.00  0.00     0.262 C 
BRANCH   4   5
ATOM      5  N   UNL d   1      10.078   6.789  -9.734  0.00  0.00     0.142 N 
ATOM      6  C   UNL d   1       9.966   8.207  -9.396  0.00  0.00     0.285 C 
ATOM      7  C   UNL d   1      10.803   8.582  -8.171  0.00  0.00     0.286 C 
ATOM      8  N   UNL d   1      10.403   7.832  -6.981  0.00  0.00     0.144 N 
ATOM      9  C   UNL d   1      10.509   6.410  -7.302  0.00  0.00     0.286 C 
ATOM     10  C   UNL d   1       9.677   6.025  -8.546  0.00  0.00     0.285 C 
BRANCH   8  11
ATOM     11  C   UNL d   1      11.204   8.177  -5.804  0.00  0.00     0.283 C 
BRANCH  11  12
ATOM     12  C   UNL d   1      10.979   9.592  -5.232  0.00  0.00     0.186 C 
ATOM     13  C   UNL d   1      11.535   9.733  -3.806  0.00  0.00     0.038 C 
ATOM     14  O   UNL d   1      11.663  10.545  -6.023  0.00  0.00    -0.221 OA
ENDBRANCH  11  12
ENDBRANCH   8  11
ENDBRANCH   4   5
ENDBRANCH   3   4
ENDBRANCH   2   3
ENDBRANCH   1   2
BRANCH   1  15
ATOM     15  C   UNL d   1      10.358   4.077 -14.798  0.00  0.00    -0.008 A 
ATOM     16  C   UNL d   1      11.756   3.912 -14.703  0.00  0.00    -0.001 A 
ATOM     17  C   UNL d   1      12.608   4.513 -15.652  0.00  0.00     0.029 A 
ATOM     18  C   UNL d   1      12.072   5.287 -16.701  0.00  0.00     0.140 A 
ATOM     19  C   UNL d   1      10.680   5.451 -16.806  0.00  0.00     0.029 A 
ATOM     20  F   UNL d   1      12.895   5.875 -17.602  0.00  0.00    -0.204 F 
ATOM     21  C   UNL d   1       9.834   4.848 -15.856  0.00  0.00    -0.001 A 
ENDBRANCH   1  15
BRANCH   1  22
ATOM     22  C   UNL d   1       8.495   2.385 -14.445  0.00  0.00    -0.008 A 
ATOM     23  C   UNL d   1       9.068   1.361 -15.231  0.00  0.00    -0.001 A 
ATOM     24  C   UNL d   1       8.256   0.379 -15.839  0.00  0.00     0.029 A 
ATOM     25  C   UNL d   1       6.868   0.391 -15.634  0.00  0.00     0.140 A 
ATOM     26  C   UNL d   1       6.295   1.373 -14.820  0.00  0.00     0.029 A 
ATOM     27  F   UNL d   1       6.076  -0.540 -16.216  0.00  0.00    -0.204 F 
ATOM     28  C   UNL d   1       7.088   2.383 -14.249  0.00  0.00    -0.001 A 
ENDBRANCH   1  22
TORSDOF 8
