REMARK  7 active torsions:
REMARK  status: ('A' for Active; 'I' for Inactive)
REMARK       I    between atoms: C_2  and  N_3 
REMARK    1  A    between atoms: C_2  and  C_23 
REMARK    2  A    between atoms: N_3  and  C_4 
REMARK    3  A    between atoms: C_4  and  C_5 
REMARK    4  A    between atoms: C_5  and  C_6 
REMARK    5  A    between atoms: C_6  and  C_8 
REMARK    6  A    between atoms: C_8  and  N_9 
REMARK    7  A    between atoms: N_12  and  C_13 
ROOT
ATOM      1  C   UNL d   1       9.042   5.843 -11.843  0.00  0.00     0.196 C 
ATOM      2  F   UNL d   1       8.867   7.037 -12.414  0.00  0.00    -0.235 F 
ENDROOT
BRANCH   1   3
ATOM      3  C   UNL d   1       9.901   6.002 -10.580  0.00  0.00     0.064 C 
BRANCH   3   4
ATOM      4  C   UNL d   1       9.279   6.922  -9.531  0.00  0.00     0.132 C 
BRANCH   4   5
ATOM      5  N   UNL d   1      10.145   7.070  -8.366  0.00  0.00    -0.233 NA
ATOM      6  C   UNL d   1      10.704   8.236  -8.009  0.00  0.00     0.298 C 
ATOM      7  O   UNL d   1      10.818   9.191  -8.770  0.00  0.00    -0.263 OA
BRANCH   6   8
ATOM      8  C   UNL d   1      11.086   8.359  -6.591  0.00  0.00     0.157 A 
ATOM      9  O   UNL d   1      11.332   7.216  -5.872  0.00  0.00    -0.302 OA
ATOM     10  C   UNL d   1      11.647   7.610  -4.591  0.00  0.00     0.100 A 
ATOM     11  C   UNL d   1      11.591   9.020  -4.500  0.00  0.00     0.025 A 
ATOM     12  C   UNL d   1      11.998   6.786  -3.515  0.00  0.00     0.025 A 
ATOM     13  C   UNL d   1      11.227   9.481  -5.804  0.00  0.00     0.032 A 
ATOM     14  C   UNL d   1      11.884   9.593  -3.239  0.00  0.00     0.002 A 
ATOM     15  C   UNL d   1      12.259   8.780  -2.147  0.00  0.00     0.000 A 
ATOM     16  C   UNL d   1      12.309   7.379  -2.281  0.00  0.00     0.002 A 
ENDBRANCH   6   8
ENDBRANCH   4   5
ENDBRANCH   3   4
ENDBRANCH   1   3
BRANCH   1  17
ATOM     17  C   UNL d   1       9.692   4.920 -12.906  0.00  0.00     0.285 C 
BRANCH  17  18
ATOM     18  N   UNL d   1       8.925   3.710 -13.193  0.00  0.00     0.144 N 
ATOM     19  C   UNL d   1       9.718   2.840 -14.082  0.00  0.00     0.274 C 
ATOM     20  C   UNL d   1       8.952   1.540 -14.403  0.00  0.00     0.137 C 
ATOM     21  N   UNL d   1       7.636   1.856 -14.924  0.00  0.00    -0.344 N 
ATOM     22  C   UNL d   1       6.843   2.789 -14.147  0.00  0.00     0.137 C 
ATOM     23  C   UNL d   1       7.663   4.059 -13.859  0.00  0.00     0.274 C 
BRANCH  21  24
ATOM     24  C   UNL d   1       7.154   1.258 -16.095  0.00  0.00     0.068 A 
ATOM     25  C   UNL d   1       6.059   0.364 -16.072  0.00  0.00     0.084 A 
ATOM     26  C   UNL d   1       5.608  -0.210 -17.285  0.00  0.00     0.070 A 
ATOM     27 CL   UNL d   1       5.274  -0.046 -14.581  0.00  0.00    -0.080 Cl
ATOM     28  C   UNL d   1       6.252   0.103 -18.493  0.00  0.00     0.012 A 
ATOM     29 CL   UNL d   1       4.283  -1.311 -17.305  0.00  0.00    -0.081 Cl
ATOM     30  C   UNL d   1       7.341   0.985 -18.514  0.00  0.00     0.002 A 
ATOM     31  C   UNL d   1       7.794   1.565 -17.313  0.00  0.00     0.018 A 
ENDBRANCH  21  24
ENDBRANCH  17  18
ENDBRANCH   1  17
TORSDOF 7
