REMARK  6 active torsions:
REMARK  status: ('A' for Active; 'I' for Inactive)
REMARK       I    between atoms: C_2  and  N_3 
REMARK    1  A    between atoms: C_2  and  C_27 
REMARK    2  A    between atoms: N_3  and  C_4 
REMARK    3  A    between atoms: C_7  and  C_8 
REMARK    4  A    between atoms: C_8  and  C_9 
REMARK    5  A    between atoms: C_9  and  N_10 
REMARK    6  A    between atoms: C_13  and  C_14 
ROOT
ATOM      1  C   UNL d   1       8.511   5.319 -10.118  0.00  0.00     0.250 C 
ENDROOT
BRANCH   1   2
ATOM      2  C   UNL d   1       9.269   5.053 -11.436  0.00  0.00     0.035 C 
BRANCH   2   3
ATOM      3  C   UNL d   1       8.615   4.039 -12.374  0.00  0.00     0.002 C 
ATOM      4  C   UNL d   1       7.493   4.596 -13.230  0.00  0.00     0.002 C 
ATOM      5  C   UNL d   1       6.887   3.503 -14.134  0.00  0.00     0.024 C 
ATOM      6  C   UNL d   1       7.969   2.826 -15.006  0.00  0.00     0.106 C 
ATOM      7  C   UNL d   1       9.061   2.202 -14.143  0.00  0.00     0.024 C 
ATOM      8  C   UNL d   1       9.654   3.280 -13.219  0.00  0.00     0.002 C 
BRANCH   6   9
ATOM      9  N   UNL d   1       7.356   1.809 -15.845  0.00  0.00    -0.240 NA
ATOM     10  C   UNL d   1       7.596   1.624 -17.148  0.00  0.00     0.253 C 
ATOM     11  O   UNL d   1       8.285   2.387 -17.828  0.00  0.00    -0.271 OA
BRANCH  10  12
ATOM     12  C   UNL d   1       6.947   0.384 -17.770  0.00  0.00     0.113 C 
ATOM     13  C   UNL d   1       7.958  -0.552 -18.436  0.00  0.00     0.152 C 
ATOM     14  O   UNL d   1       7.254  -1.209 -19.485  0.00  0.00    -0.354 OA
ATOM     15  C   UNL d   1       5.991  -0.589 -19.707  0.00  0.00     0.143 C 
ATOM     16  C   UNL d   1       6.034   0.723 -18.935  0.00  0.00     0.044 C 
ENDBRANCH  10  12
ENDBRANCH   6   9
ENDBRANCH   2   3
ENDBRANCH   1   2
BRANCH   1  17
ATOM     17  N   UNL d   1       9.340   6.060  -9.157  0.00  0.00     0.137 N 
ATOM     18  C   UNL d   1       8.511   6.541  -8.084  0.00  0.00     0.251 C 
ATOM     19  C   UNL d   1       9.237   7.492  -7.152  0.00  0.00     0.040 C 
ATOM     20  C   UNL d   1      10.394   6.759  -6.479  0.00  0.00     0.028 C 
ATOM     21  C   UNL d   1      11.194   6.080  -7.573  0.00  0.00     0.040 C 
ATOM     22  C   UNL d   1      10.282   5.222  -8.467  0.00  0.00     0.251 C 
BRANCH  20  23
ATOM     23  C   UNL d   1      11.241   7.690  -5.665  0.00  0.00     0.002 A 
ATOM     24  C   UNL d   1      11.488   7.419  -4.317  0.00  0.00     0.115 A 
ATOM     25  C   UNL d   1      12.250   8.256  -3.553  0.00  0.00     0.119 A 
ATOM     26  O   UNL d   1      11.065   6.390  -3.557  0.00  0.00    -0.300 OA
ATOM     27  C   UNL d   1      12.815   9.391  -4.108  0.00  0.00     0.026 A 
ATOM     28  O   UNL d   1      12.338   7.786  -2.289  0.00  0.00    -0.300 OA
ATOM     29  C   UNL d   1      12.595   9.691  -5.468  0.00  0.00     0.002 A 
ATOM     30  C   UNL d   1      11.800   8.843  -6.252  0.00  0.00    -0.002 A 
ATOM     31  C   UNL d   1      11.586   6.615  -2.278  0.00  0.00     0.304 A 
ENDBRANCH  20  23
ENDBRANCH   1  17
TORSDOF 6
