REMARK  9 active torsions:
REMARK  status: ('A' for Active; 'I' for Inactive)
REMARK       I    between atoms: C_2  and  N_3 
REMARK    1  A    between atoms: C_2  and  C_24 
REMARK    2  A    between atoms: N_3  and  C_4 
REMARK    3  A    between atoms: C_4  and  C_5 
REMARK    4  A    between atoms: C_5  and  C_6 
REMARK    5  A    between atoms: C_6  and  C_7 
REMARK    6  A    between atoms: C_7  and  N_8 
REMARK    7  A    between atoms: N_11  and  C_12 
REMARK    8  A    between atoms: C_16  and  C_17 
REMARK    9  A    between atoms: C_27  and  C_28 
ROOT
ATOM      1  C   UNL d   1       6.249   2.946 -13.699  0.00  0.00     0.037 C 
ENDROOT
BRANCH   1   2
ATOM      2  C   UNL d   1       7.034   3.618 -12.567  0.00  0.00     0.029 C 
BRANCH   2   3
ATOM      3  C   UNL d   1       7.012   5.149 -12.602  0.00  0.00     0.129 C 
BRANCH   3   4
ATOM      4  N   UNL d   1       7.726   5.704 -11.455  0.00  0.00    -0.234 NA
ATOM      5  C   UNL d   1       9.055   5.851 -11.343  0.00  0.00     0.275 C 
ATOM      6  O   UNL d   1       9.841   5.585 -12.254  0.00  0.00    -0.266 OA
BRANCH   5   7
ATOM      7  C   UNL d   1       9.531   6.392 -10.020  0.00  0.00     0.058 A 
ATOM      8  C   UNL d   1       8.971   5.909  -8.816  0.00  0.00     0.005 A 
ATOM      9  C   UNL d   1       9.426   6.388  -7.572  0.00  0.00     0.000 A 
ATOM     10  C   UNL d   1      10.458   7.344  -7.506  0.00  0.00     0.001 A 
ATOM     11  C   UNL d   1      11.024   7.830  -8.703  0.00  0.00     0.000 A 
ATOM     12  C   UNL d   1      10.566   7.353  -9.948  0.00  0.00     0.005 A 
BRANCH  10  13
ATOM     13  C   UNL d   1      10.944   7.806  -6.206  0.00  0.00     0.007 A 
ATOM     14  C   UNL d   1      11.377   7.021  -5.168  0.00  0.00     0.035 A 
ATOM     15  S   UNL d   1      11.865   7.959  -3.785  0.00  0.00    -0.086 SA
ATOM     16  C   UNL d   1      11.459   9.436  -4.611  0.00  0.00     0.035 A 
ATOM     17  C   UNL d   1      11.000   9.197  -5.882  0.00  0.00     0.007 A 
ENDBRANCH  10  13
ENDBRANCH   5   7
ENDBRANCH   3   4
ENDBRANCH   2   3
ENDBRANCH   1   2
BRANCH   1  18
ATOM     18  C   UNL d   1       6.293   1.404 -13.629  0.00  0.00     0.251 C 
BRANCH  18  19
ATOM     19  N   UNL d   1       5.555   0.785 -14.722  0.00  0.00     0.141 N 
ATOM     20  C   UNL d   1       5.193  -0.597 -14.380  0.00  0.00     0.274 C 
ATOM     21  C   UNL d   1       4.363  -1.229 -15.509  0.00  0.00     0.137 C 
ATOM     22  N   UNL d   1       5.103  -1.169 -16.764  0.00  0.00    -0.344 N 
ATOM     23  C   UNL d   1       5.594   0.156 -17.122  0.00  0.00     0.137 C 
ATOM     24  C   UNL d   1       6.373   0.766 -15.943  0.00  0.00     0.274 C 
BRANCH  22  25
ATOM     25  C   UNL d   1       5.353  -2.305 -17.563  0.00  0.00     0.056 A 
ATOM     26  C   UNL d   1       5.461  -3.592 -16.979  0.00  0.00     0.021 A 
ATOM     27  C   UNL d   1       5.719  -4.738 -17.760  0.00  0.00     0.073 A 
ATOM     28  C   UNL d   1       5.852  -4.597 -19.158  0.00  0.00     0.004 A 
ATOM     29  C   UNL d   1       5.752  -3.326 -19.755  0.00  0.00     0.001 A 
ATOM     30  C   UNL d   1       5.506  -2.189 -18.966  0.00  0.00     0.017 A 
BRANCH  27  31
ATOM     31  C   UNL d   1       5.840  -6.107 -17.098  0.00  0.00     0.419 C 
ATOM     32  F   UNL d   1       6.680  -6.881 -17.782  0.00  0.00    -0.166 F 
ATOM     33  F   UNL d   1       6.297  -6.020 -15.847  0.00  0.00    -0.166 F 
ATOM     34  F   UNL d   1       4.649  -6.697 -17.076  0.00  0.00    -0.166 F 
ENDBRANCH  27  31
ENDBRANCH  22  25
ENDBRANCH  18  19
ENDBRANCH   1  18
TORSDOF 9
