REMARK  2 active torsions:
REMARK  status: ('A' for Active; 'I' for Inactive)
REMARK    1  A    between atoms: C_3  and  C_4 
REMARK    2  A    between atoms: C_9  and  O_10 
ROOT
ATOM      1  C   UNL d   1      10.902   7.572  -6.017  0.00  0.00     0.002 A 
ATOM      2  C   UNL d   1      10.620   8.959  -6.071  0.00  0.00     0.002 A 
ATOM      3  C   UNL d   1      10.993   9.798  -5.014  0.00  0.00     0.029 A 
ATOM      4  C   UNL d   1      11.598   9.258  -3.878  0.00  0.00     0.153 A 
ATOM      5  O   UNL d   1      11.869  10.071  -2.829  0.00  0.00    -0.188 OA
ATOM      6  C   UNL d   1      11.862   7.883  -3.768  0.00  0.00     0.119 A 
ATOM      7  C   UNL d   1      11.507   7.038  -4.855  0.00  0.00     0.026 A 
ENDROOT
BRANCH   1   8
ATOM      8  C   UNL d   1      10.584   6.685  -7.154  0.00  0.00    -0.004 C 
ATOM      9  C   UNL d   1      10.494   6.988  -8.467  0.00  0.00    -0.026 C 
ATOM     10  C   UNL d   1      10.791   8.310  -9.162  0.00  0.00     0.031 C 
ENDBRANCH   1   8
BRANCH   6  11
ATOM     11  O   UNL d   1      12.456   7.485  -2.587  0.00  0.00    -0.326 OA
ATOM     12  C   UNL d   1      12.483   6.104  -2.305  0.00  0.00     0.181 C 
ENDBRANCH   6  11
TORSDOF 2
