REMARK  8 active torsions:
REMARK  status: ('A' for Active; 'I' for Inactive)
REMARK    1  A    between atoms: C_7  and  C_8 
REMARK       I    between atoms: C_8  and  N_10 
REMARK    2  A    between atoms: N_10  and  C_11 
REMARK    3  A    between atoms: C_11  and  C_12 
REMARK    4  A    between atoms: C_12  and  C_13 
REMARK    5  A    between atoms: C_13  and  C_14 
REMARK    6  A    between atoms: C_14  and  N_15 
REMARK    7  A    between atoms: N_18  and  C_19 
REMARK    8  A    between atoms: C_24  and  O_25 
ROOT
ATOM      1  C   UNL d   1      11.658   7.807  -4.239  0.00  0.00     0.081 C 
ATOM      2  C   UNL d   1      11.417   7.788  -5.436  0.00  0.00    -0.127 C 
ATOM      3  C   UNL d   1      11.146   7.771  -6.866  0.00  0.00     0.030 A 
ATOM      4  C   UNL d   1      11.705   8.760  -7.697  0.00  0.00     0.007 A 
ATOM      5  C   UNL d   1      11.458   8.732  -9.083  0.00  0.00     0.001 A 
ATOM      6  C   UNL d   1      10.656   7.715  -9.639  0.00  0.00     0.005 A 
ATOM      7  C   UNL d   1      10.083   6.717  -8.816  0.00  0.00     0.058 A 
ATOM      8  C   UNL d   1      10.337   6.756  -7.424  0.00  0.00     0.012 A 
ENDROOT
BRANCH   7   9
ATOM      9  C   UNL d   1       9.251   5.600  -9.399  0.00  0.00     0.275 C 
ATOM     10  O   UNL d   1       9.091   4.543  -8.791  0.00  0.00    -0.266 OA
ATOM     11  N   UNL d   1       8.666   5.859 -10.578  0.00  0.00    -0.234 NA
BRANCH  11  12
ATOM     12  C   UNL d   1       7.724   4.991 -11.275  0.00  0.00     0.129 C 
BRANCH  12  13
ATOM     13  C   UNL d   1       8.376   4.322 -12.493  0.00  0.00     0.029 C 
BRANCH  13  14
ATOM     14  C   UNL d   1       7.367   3.599 -13.403  0.00  0.00     0.037 C 
BRANCH  14  15
ATOM     15  C   UNL d   1       8.061   2.655 -14.403  0.00  0.00     0.251 C 
BRANCH  15  16
ATOM     16  N   UNL d   1       7.086   2.010 -15.284  0.00  0.00     0.141 N 
ATOM     17  C   UNL d   1       6.689   0.700 -14.746  0.00  0.00     0.274 C 
ATOM     18  C   UNL d   1       5.642   0.012 -15.653  0.00  0.00     0.137 C 
ATOM     19  N   UNL d   1       6.129  -0.064 -17.024  0.00  0.00    -0.343 N 
ATOM     20  C   UNL d   1       6.625   1.190 -17.574  0.00  0.00     0.137 C 
ATOM     21  C   UNL d   1       7.666   1.815 -16.619  0.00  0.00     0.274 C 
BRANCH  19  22
ATOM     22  C   UNL d   1       6.215  -1.294 -17.709  0.00  0.00     0.079 A 
ATOM     23  C   UNL d   1       7.376  -1.665 -18.442  0.00  0.00     0.110 A 
ATOM     24  C   UNL d   1       7.392  -2.907 -19.128  0.00  0.00     0.026 A 
ATOM     25  C   UNL d   1       6.292  -3.781 -19.069  0.00  0.00     0.002 A 
ATOM     26  C   UNL d   1       5.157  -3.424 -18.328  0.00  0.00     0.002 A 
ATOM     27  C   UNL d   1       5.116  -2.186 -17.655  0.00  0.00     0.019 A 
BRANCH  23  28
ATOM     28  O   UNL d   1       8.456  -0.803 -18.425  0.00  0.00    -0.327 OA
ATOM     29  C   UNL d   1       9.682  -1.212 -19.004  0.00  0.00     0.181 C 
ENDBRANCH  23  28
ENDBRANCH  19  22
ENDBRANCH  15  16
ENDBRANCH  14  15
ENDBRANCH  13  14
ENDBRANCH  12  13
ENDBRANCH  11  12
ENDBRANCH   7   9
TORSDOF 8
