REMARK  5 active torsions:
REMARK  status: ('A' for Active; 'I' for Inactive)
REMARK    1  A    between atoms: C_5  and  C_6 
REMARK    2  A    between atoms: C_6  and  N_7 
REMARK    3  A    between atoms: N_7  and  C_8 
REMARK    4  A    between atoms: C_8  and  C_9 
REMARK       I    between atoms: N_13  and  C_14 
REMARK    5  A    between atoms: C_14  and  C_16 
ROOT
ATOM      1  C   UNL d   1       8.729   5.495 -10.975  0.00  0.00     0.172 C 
ATOM      2  F   UNL d   1       7.452   5.907 -11.072  0.00  0.00    -0.238 F 
ATOM      3  C   UNL d   1       9.623   6.634 -11.483  0.00  0.00     0.059 C 
ATOM      4  C   UNL d   1       9.672   7.875 -10.614  0.00  0.00     0.107 C 
ATOM      5  N   UNL d   1      10.027   7.488  -9.243  0.00  0.00    -0.317 N 
ATOM      6  C   UNL d   1      11.055   8.110  -8.612  0.00  0.00     0.258 C 
ATOM      7  O   UNL d   1      11.717   9.003  -9.137  0.00  0.00    -0.267 OA
ATOM      8  C   UNL d   1       9.118   6.482  -8.652  0.00  0.00     0.107 C 
ATOM      9  C   UNL d   1       9.073   5.199  -9.501  0.00  0.00     0.059 C 
ENDROOT
BRANCH   1  10
ATOM     10  C   UNL d   1       8.804   4.208 -11.827  0.00  0.00     0.323 C 
BRANCH  10  11
ATOM     11  N   UNL d   1       8.827   4.434 -13.268  0.00  0.00     0.348 N 
BRANCH  11  12
ATOM     12  C   UNL d   1      10.174   4.771 -13.704  0.00  0.00     0.336 C 
BRANCH  12  13
ATOM     13  C   UNL d   1      10.565   4.018 -14.934  0.00  0.00     0.095 A 
ATOM     14  C   UNL d   1      10.646   4.686 -16.167  0.00  0.00     0.017 A 
ATOM     15  C   UNL d   1      11.036   3.941 -17.285  0.00  0.00    -0.002 A 
ATOM     16  C   UNL d   1      11.322   2.571 -17.108  0.00  0.00    -0.003 A 
ATOM     17  C   UNL d   1      11.737   1.720 -18.278  0.00  0.00     0.033 C 
ATOM     18  C   UNL d   1      11.216   2.005 -15.821  0.00  0.00     0.094 A 
ATOM     19  N   UNL d   1      10.840   2.713 -14.745  0.00  0.00    -0.247 NA
ENDBRANCH  12  13
ENDBRANCH  11  12
ENDBRANCH  10  11
ENDBRANCH   1  10
BRANCH   6  20
ATOM     20  C   UNL d   1      11.316   7.708  -7.210  0.00  0.00     0.063 A 
ATOM     21  C   UNL d   1      11.303   8.653  -6.131  0.00  0.00     0.011 A 
ATOM     22  C   UNL d   1      11.553   8.040  -4.872  0.00  0.00     0.030 A 
ATOM     23  C   UNL d   1      11.059  10.023  -6.078  0.00  0.00     0.001 A 
ATOM     24  S   UNL d   1      11.803   6.387  -5.031  0.00  0.00    -0.086 SA
ATOM     25  C   UNL d   1      11.610   8.675  -3.642  0.00  0.00     0.006 A 
ATOM     26  C   UNL d   1      11.588   6.457  -6.746  0.00  0.00     0.040 A 
ATOM     27  C   UNL d   1      11.344  10.022  -3.634  0.00  0.00     0.001 A 
ATOM     28  C   UNL d   1      11.051  10.675  -4.843  0.00  0.00     0.000 A 
ENDBRANCH   6  20
TORSDOF 5
