REMARK  1 active torsions:
REMARK  status: ('A' for Active; 'I' for Inactive)
REMARK    1  A    between atoms: O_2  and  C_3 
ROOT
ATOM      1  C   UNL d   1      10.788   6.323 -18.550  0.00  0.00     0.094 A 
ATOM      2  C   UNL d   1       9.727   5.852 -19.356  0.00  0.00     0.026 A 
ATOM      3  C   UNL d   1       9.055   4.669 -19.031  0.00  0.00     0.021 A 
ATOM      4  C   UNL d   1       9.419   3.957 -17.884  0.00  0.00     0.081 A 
ATOM      5  N   UNL d   1       8.912   2.799 -17.336  0.00  0.00    -0.250 NA
ATOM      6  C   UNL d   1       9.574   2.481 -16.168  0.00  0.00     0.059 A 
ATOM      7  C   UNL d   1      10.560   3.424 -15.945  0.00  0.00    -0.005 A 
ATOM      8  C   UNL d   1      10.468   4.383 -17.022  0.00  0.00     0.017 A 
ATOM      9  C   UNL d   1      11.140   5.587 -17.386  0.00  0.00     0.025 A 
ATOM     10  C   UNL d   1      11.518   3.451 -14.794  0.00  0.00     0.063 C 
ATOM     11  C   UNL d   1      11.268   4.584 -13.780  0.00  0.00     0.255 C 
ATOM     12  N   UNL d   1       9.870   4.824 -13.405  0.00  0.00     0.140 N 
ATOM     13  C   UNL d   1       9.721   5.886 -12.419  0.00  0.00     0.285 C 
ATOM     14  C   UNL d   1       9.091   3.650 -13.004  0.00  0.00     0.255 C 
ATOM     15  C   UNL d   1       7.808   3.661 -13.859  0.00  0.00     0.061 C 
ATOM     16  C   UNL d   1       7.146   2.301 -14.053  0.00  0.00    -0.024 A 
ATOM     17  C   UNL d   1       5.866   2.105 -13.490  0.00  0.00    -0.004 A 
ATOM     18  C   UNL d   1       5.188   0.875 -13.638  0.00  0.00    -0.000 A 
ATOM     19  C   UNL d   1       5.775  -0.157 -14.380  0.00  0.00    -0.000 A 
ATOM     20  C   UNL d   1       7.045   0.024 -14.952  0.00  0.00    -0.004 A 
ATOM     21  C   UNL d   1       7.756   1.236 -14.790  0.00  0.00    -0.020 A 
ATOM     22  C   UNL d   1       9.177   1.273 -15.371  0.00  0.00     0.071 C 
ENDROOT
BRANCH   1  23
ATOM     23  O   UNL d   1      11.509   7.461 -18.837  0.00  0.00    -0.328 OA
ATOM     24  C   UNL d   1      11.139   8.188 -20.011  0.00  0.00     0.181 C 
ENDBRANCH   1  23
TORSDOF 1
