REMARK  4 active torsions:
REMARK  status: ('A' for Active; 'I' for Inactive)
REMARK    1  A    between atoms: O_2  and  C_3 
REMARK    2  A    between atoms: C_6  and  C_7 
REMARK    3  A    between atoms: C_10  and  C_11 
REMARK       I    between atoms: C_11  and  N_13 
REMARK       I    between atoms: N_16  and  C_17 
REMARK    4  A    between atoms: C_17  and  C_19 
ROOT
ATOM      1  C   UNL d   1       8.476   5.786 -12.554  0.00  0.00     0.257 C 
ATOM      2  O   UNL d   1       7.854   6.588 -13.227  0.00  0.00    -0.267 OA
ATOM      3  N   UNL d   1       8.619   4.486 -12.907  0.00  0.00    -0.313 N 
ATOM      4  C   UNL d   1       7.667   3.800 -13.789  0.00  0.00     0.129 C 
ATOM      5  C   UNL d   1       8.356   3.307 -15.075  0.00  0.00     0.129 C 
ATOM      6  N   UNL d   1       9.530   2.480 -14.743  0.00  0.00    -0.315 N 
ATOM      7  C   UNL d   1       9.732   1.183 -15.116  0.00  0.00     0.257 C 
ATOM      8  O   UNL d   1      10.723   0.527 -14.802  0.00  0.00    -0.267 OA
ATOM      9  C   UNL d   1      10.498   3.255 -13.939  0.00  0.00     0.106 C 
ATOM     10  C   UNL d   1      11.142   4.430 -14.722  0.00  0.00     0.026 C 
ATOM     11  C   UNL d   1       9.820   3.701 -12.625  0.00  0.00     0.127 C 
ENDROOT
BRANCH   1  12
ATOM     12  C   UNL d   1       9.083   6.248 -11.269  0.00  0.00     0.056 A 
ATOM     13  C   UNL d   1       9.735   7.492 -11.211  0.00  0.00     0.005 A 
ATOM     14  C   UNL d   1      10.290   7.946  -9.999  0.00  0.00     0.000 A 
ATOM     15  C   UNL d   1      10.152   7.201  -8.798  0.00  0.00     0.000 A 
ATOM     16  C   UNL d   1       9.434   5.976  -8.876  0.00  0.00     0.000 A 
ATOM     17  C   UNL d   1       8.912   5.504 -10.093  0.00  0.00     0.005 A 
BRANCH  15  18
ATOM     18  C   UNL d   1      10.727   7.688  -7.511  0.00  0.00     0.000 A 
ATOM     19  C   UNL d   1      11.126   9.036  -7.327  0.00  0.00     0.002 A 
ATOM     20  C   UNL d   1      11.672   9.483  -6.111  0.00  0.00     0.024 A 
ATOM     21  C   UNL d   1      11.828   8.608  -5.021  0.00  0.00     0.094 A 
ATOM     22  C   UNL d   1      11.434   7.257  -5.186  0.00  0.00     0.024 A 
ATOM     23  C   UNL d   1      10.906   6.815  -6.413  0.00  0.00     0.002 A 
BRANCH  21  24
ATOM     24  O   UNL d   1      12.385   9.120  -3.870  0.00  0.00    -0.328 OA
ATOM     25  C   UNL d   1      12.472   8.257  -2.750  0.00  0.00     0.181 C 
ENDBRANCH  21  24
ENDBRANCH  15  18
ENDBRANCH   1  12
BRANCH   7  26
ATOM     26  C   UNL d   1       8.741   0.530 -16.032  0.00  0.00     0.057 A 
ATOM     27  C   UNL d   1       7.377   0.408 -15.679  0.00  0.00     0.024 A 
ATOM     28  C   UNL d   1       6.475  -0.158 -16.589  0.00  0.00     0.082 A 
ATOM     29  C   UNL d   1       6.890  -0.708 -17.835  0.00  0.00     0.019 A 
ATOM     30  N   UNL d   1       5.113  -0.341 -16.531  0.00  0.00    -0.244 NA
ATOM     31  C   UNL d   1       8.273  -0.639 -18.142  0.00  0.00     0.002 A 
ATOM     32  C   UNL d   1       5.721  -1.232 -18.494  0.00  0.00     0.022 A 
ATOM     33  C   UNL d   1       9.184  -0.030 -17.251  0.00  0.00     0.005 A 
ATOM     34  C   UNL d   1       4.654  -0.981 -17.669  0.00  0.00     0.099 A 
ENDBRANCH   7  26
TORSDOF 4
