REMARK  2 active torsions:
REMARK  status: ('A' for Active; 'I' for Inactive)
REMARK    1  A    between atoms: C_4  and  C_5 
REMARK    2  A    between atoms: C_5  and  N_6 
ROOT
ATOM      1  C   UNL d   1       9.822   7.421  -7.890  0.00  0.00    -0.000 A 
ATOM      2  C   UNL d   1      10.268   8.119  -9.029  0.00  0.00    -0.000 A 
ATOM      3  C   UNL d   1      10.107   7.552 -10.309  0.00  0.00    -0.002 A 
ATOM      4  C   UNL d   1       9.494   6.288 -10.461  0.00  0.00     0.011 A 
ATOM      5  C   UNL d   1       9.066   5.587  -9.313  0.00  0.00    -0.002 A 
ATOM      6  C   UNL d   1       9.220   6.157  -8.038  0.00  0.00    -0.000 A 
ENDROOT
BRANCH   4   7
ATOM      7  C   UNL d   1       9.332   5.689 -11.849  0.00  0.00     0.277 C 
BRANCH   7   8
ATOM      8  N   UNL d   1       8.124   4.889 -12.014  0.00  0.00     0.141 N 
ATOM      9  C   UNL d   1       8.093   4.172 -13.278  0.00  0.00     0.251 C 
ATOM     10  C   UNL d   1       6.629   3.749 -13.402  0.00  0.00     0.037 C 
ATOM     11  C   UNL d   1       5.860   4.783 -12.587  0.00  0.00     0.037 C 
ATOM     12  C   UNL d   1       6.930   5.722 -12.042  0.00  0.00     0.251 C 
ENDBRANCH   7   8
ENDBRANCH   4   7
TORSDOF 2
