REMARK  7 active torsions:
REMARK  status: ('A' for Active; 'I' for Inactive)
REMARK    1  A    between atoms: O_2  and  C_3 
REMARK    2  A    between atoms: C_3  and  C_5 
REMARK    3  A    between atoms: C_9  and  C_10 
REMARK    4  A    between atoms: C_10  and  S_11 
REMARK    5  A    between atoms: S_11  and  C_12 
REMARK    6  A    between atoms: N_20  and  C_21 
REMARK    7  A    between atoms: C_21  and  C_22 
ROOT
ATOM      1  C   UNL d   1       9.902   0.835 -16.652  0.00  0.00     0.172 A 
ATOM      2  N   UNL d   1       9.592  -0.456 -16.936  0.00  0.00    -0.221 NA
ATOM      3  C   UNL d   1       8.294  -0.352 -17.445  0.00  0.00     0.099 A 
ATOM      4  C   UNL d   1       7.363  -1.302 -17.919  0.00  0.00     0.021 A 
ATOM      5  C   UNL d   1       6.068  -0.963 -18.376  0.00  0.00     0.002 A 
ATOM      6  C   UNL d   1       5.689   0.398 -18.383  0.00  0.00     0.002 A 
ATOM      7  C   UNL d   1       6.576   1.370 -17.874  0.00  0.00     0.019 A 
ATOM      8  C   UNL d   1       7.841   0.993 -17.424  0.00  0.00     0.080 A 
ATOM      9  N   UNL d   1       8.913   1.728 -16.888  0.00  0.00    -0.303 N 
ENDROOT
BRANCH   1  10
ATOM     10  S   UNL d   1      11.437   1.403 -16.067  0.00  0.00    -0.072 SA
BRANCH  10  11
ATOM     11  C   UNL d   1      12.293   1.725 -17.655  0.00  0.00     0.091 C 
BRANCH  11  12
ATOM     12  C   UNL d   1      12.181   3.207 -17.931  0.00  0.00    -0.011 A 
ATOM     13  C   UNL d   1      13.074   4.132 -17.347  0.00  0.00    -0.003 A 
ATOM     14  C   UNL d   1      12.904   5.511 -17.558  0.00  0.00    -0.000 A 
ATOM     15  C   UNL d   1      11.867   5.961 -18.396  0.00  0.00     0.005 A 
ATOM     16  C   UNL d   1      10.962   5.062 -18.993  0.00  0.00     0.063 A 
ATOM     17  C   UNL d   1      11.155   3.685 -18.785  0.00  0.00     0.002 A 
BRANCH  16  18
ATOM     18  C   UNL d   1       9.799   5.499 -19.798  0.00  0.00     0.296 C 
ATOM     19  O   UNL d   1       8.892   4.742 -20.149  0.00  0.00    -0.259 OA
BRANCH  18  20
ATOM     20  O   UNL d   1       9.770   6.833 -19.996  0.00  0.00    -0.296 OA
ATOM     21  C   UNL d   1       8.764   7.405 -20.809  0.00  0.00     0.185 C 
ENDBRANCH  18  20
ENDBRANCH  16  18
ENDBRANCH  11  12
ENDBRANCH  10  11
ENDBRANCH   1  10
BRANCH   9  22
ATOM     22  C   UNL d   1       9.043   3.175 -16.676  0.00  0.00     0.135 C 
BRANCH  22  23
ATOM     23  C   UNL d   1       8.803   3.559 -15.223  0.00  0.00     0.001 A 
ATOM     24  C   UNL d   1       9.669   4.511 -14.657  0.00  0.00    -0.002 A 
ATOM     25  C   UNL d   1       9.456   4.974 -13.351  0.00  0.00     0.011 A 
ATOM     26  C   UNL d   1       8.352   4.487 -12.638  0.00  0.00     0.058 A 
ATOM     27  C   UNL d   1       7.463   3.558 -13.223  0.00  0.00     0.011 A 
ATOM     28 CL   UNL d   1       8.131   4.986 -10.999  0.00  0.00    -0.082 Cl
ATOM     29  C   UNL d   1       7.726   3.029 -14.493  0.00  0.00    -0.002 A 
ENDBRANCH  22  23
ENDBRANCH   9  22
TORSDOF 7
