REMARK  2 active torsions:
REMARK  status: ('A' for Active; 'I' for Inactive)
REMARK    1  A    between atoms: N_13  and  C_14 
REMARK    2  A    between atoms: C_14  and  C_15 
ROOT
ATOM      1  O   UNL d   1       8.983   8.759  -6.432  0.00  0.00    -0.192 OA
ATOM      2  C   UNL d   1       9.854   8.085  -7.238  0.00  0.00     0.315 C 
ATOM      3  C   UNL d   1      10.454   8.943  -8.356  0.00  0.00     0.061 C 
ATOM      4  C   UNL d   1       9.631   8.623  -9.614  0.00  0.00     0.004 C 
ATOM      5  C   UNL d   1      10.674   8.570 -10.684  0.00  0.00     0.000 C 
ATOM      6  C   UNL d   1      11.530   7.542  -9.995  0.00  0.00     0.002 C 
ATOM      7  C   UNL d   1      10.554   6.443  -9.632  0.00  0.00     0.002 A 
ATOM      8  C   UNL d   1       9.273   7.159  -9.386  0.00  0.00     0.005 A 
ATOM      9  C   UNL d   1       9.353   6.840  -7.921  0.00  0.00     0.061 A 
ATOM     10  C   UNL d   1      10.653   6.147  -8.165  0.00  0.00     0.036 A 
ATOM     11  C   UNL d   1      11.690   7.091  -7.560  0.00  0.00     0.223 C 
ATOM     12  C   UNL d   1      11.777   8.202  -8.608  0.00  0.00     0.036 C 
ATOM     13  N   UNL d   1      11.019   7.738  -6.468  0.00  0.00     0.163 N 
ENDROOT
BRANCH  13  14
ATOM     14  C   UNL d   1      10.820   6.786  -5.393  0.00  0.00     0.280 C 
BRANCH  14  15
ATOM     15  C   UNL d   1      11.525   7.286  -4.169  0.00  0.00     0.013 A 
ATOM     16  C   UNL d   1      11.517   8.644  -3.874  0.00  0.00     0.027 A 
ATOM     17  C   UNL d   1      12.052   9.073  -2.684  0.00  0.00     0.140 A 
ATOM     18  C   UNL d   1      12.640   8.190  -1.759  0.00  0.00     0.030 A 
ATOM     19  F   UNL d   1      11.880  10.387  -2.482  0.00  0.00    -0.204 F 
ATOM     20  C   UNL d   1      12.616   6.826  -2.048  0.00  0.00     0.002 A 
ATOM     21  C   UNL d   1      12.117   6.404  -3.262  0.00  0.00    -0.002 A 
ENDBRANCH  14  15
ENDBRANCH  13  14
TORSDOF 2
