REMARK  1 active torsions:
REMARK  status: ('A' for Active; 'I' for Inactive)
REMARK    1  A    between atoms: C_4  and  C_5 
ROOT
ATOM      1  O   UNL d   1       8.367   4.447  -8.375  0.00  0.00    -0.286 OA
ATOM      2  C   UNL d   1       8.930   5.517  -8.550  0.00  0.00     0.200 C 
ATOM      3  C   UNL d   1       9.532   6.234  -7.434  0.00  0.00     0.067 C 
ATOM      4  C   UNL d   1      10.258   7.342  -7.588  0.00  0.00     0.103 C 
ATOM      5  O   UNL d   1      10.460   7.879  -8.834  0.00  0.00    -0.307 OA
ATOM      6  C   UNL d   1       9.817   7.340  -9.918  0.00  0.00     0.103 A 
ATOM      7  C   UNL d   1       9.908   8.043 -11.116  0.00  0.00     0.025 A 
ATOM      8  C   UNL d   1       9.373   7.504 -12.289  0.00  0.00     0.002 A 
ATOM      9  C   UNL d   1       8.680   6.282 -12.279  0.00  0.00     0.000 A 
ATOM     10  C   UNL d   1       8.167   5.761 -13.478  0.00  0.00     0.000 A 
ATOM     11  C   UNL d   1       7.367   4.627 -13.519  0.00  0.00     0.000 A 
ATOM     12  C   UNL d   1       7.057   3.989 -12.322  0.00  0.00     0.000 A 
ATOM     13  C   UNL d   1       7.642   4.435 -11.128  0.00  0.00     0.000 A 
ATOM     14  C   UNL d   1       8.475   5.590 -11.067  0.00  0.00     0.005 A 
ATOM     15  C   UNL d   1       9.075   6.131  -9.874  0.00  0.00     0.062 A 
ENDROOT
BRANCH   4  16
ATOM     16  C   UNL d   1      10.957   7.968  -6.458  0.00  0.00     0.023 A 
ATOM     17  C   UNL d   1      11.396   9.287  -6.632  0.00  0.00     0.002 A 
ATOM     18  C   UNL d   1      12.057   9.947  -5.587  0.00  0.00     0.000 A 
ATOM     19  C   UNL d   1      12.284   9.296  -4.352  0.00  0.00     0.000 A 
ATOM     20  C   UNL d   1      11.862   7.970  -4.174  0.00  0.00     0.000 A 
ATOM     21  C   UNL d   1      11.191   7.308  -5.221  0.00  0.00     0.002 A 
ENDBRANCH   4  16
TORSDOF 1
