REMARK  4 active torsions:
REMARK  status: ('A' for Active; 'I' for Inactive)
REMARK    1  A    between atoms: C_2  and  C_3 
REMARK    2  A    between atoms: N_11  and  C_12 
REMARK    3  A    between atoms: C_12  and  C_13 
REMARK    4  A    between atoms: N_16  and  C_17 
ROOT
ATOM      1  C   UNL d   1       9.801   7.847  -6.683  0.00  0.00     0.005 C 
ATOM      2  C   UNL d   1      11.028   8.260  -6.351  0.00  0.00    -0.022 C 
ATOM      3  C   UNL d   1      11.959   8.819  -7.409  0.00  0.00     0.061 C 
ATOM      4  C   UNL d   1      11.564   8.428  -8.839  0.00  0.00     0.256 C 
ATOM      5  N   UNL d   1      10.139   8.666  -9.031  0.00  0.00     0.146 N 
ATOM      6  C   UNL d   1       9.267   7.928  -8.085  0.00  0.00     0.277 C 
ENDROOT
BRANCH   5   7
ATOM      7  C   UNL d   1       9.758   8.497 -10.436  0.00  0.00     0.280 C 
BRANCH   7   8
ATOM      8  C   UNL d   1       9.501   7.069 -10.879  0.00  0.00     0.051 A 
ATOM      9  C   UNL d   1       8.909   6.628 -12.015  0.00  0.00     0.100 A 
ATOM     10  N   UNL d   1       8.895   5.246 -11.964  0.00  0.00    -0.229 N 
ATOM     11  N   UNL d   1       9.462   4.780 -10.849  0.00  0.00    -0.164 NA
ATOM     12  C   UNL d   1       9.801   5.842 -10.216  0.00  0.00     0.120 A 
BRANCH  10  13
ATOM     13  C   UNL d   1       8.394   4.340 -12.905  0.00  0.00     0.083 A 
ATOM     14  C   UNL d   1       7.006   4.151 -13.016  0.00  0.00     0.019 A 
ATOM     15  C   UNL d   1       6.520   3.203 -13.929  0.00  0.00     0.002 A 
ATOM     16  C   UNL d   1       7.418   2.449 -14.718  0.00  0.00     0.000 A 
ATOM     17  C   UNL d   1       8.810   2.639 -14.581  0.00  0.00     0.002 A 
ATOM     18  C   UNL d   1       9.298   3.579 -13.661  0.00  0.00     0.019 A 
ENDBRANCH  10  13
ENDBRANCH   7   8
ENDBRANCH   5   7
BRANCH   2  19
ATOM     19  C   UNL d   1      11.472   8.153  -4.970  0.00  0.00    -0.004 A 
ATOM     20  C   UNL d   1      11.669   9.347  -4.257  0.00  0.00    -0.000 A 
ATOM     21  C   UNL d   1      12.110   9.301  -2.925  0.00  0.00    -0.000 A 
ATOM     22  C   UNL d   1      12.365   8.060  -2.311  0.00  0.00    -0.000 A 
ATOM     23  C   UNL d   1      12.176   6.858  -3.022  0.00  0.00    -0.000 A 
ATOM     24  C   UNL d   1      11.727   6.903  -4.361  0.00  0.00    -0.000 A 
ENDBRANCH   2  19
TORSDOF 4
