REMARK  1 active torsions:
REMARK  status: ('A' for Active; 'I' for Inactive)
REMARK    1  A    between atoms: C_4  and  C_5 
ROOT
ATOM      1  C   UNL d   1       8.804   5.987 -12.012  0.00  0.00     0.242 C 
ATOM      2  C   UNL d   1       8.211   7.266 -12.566  0.00  0.00     0.038 C 
ATOM      3  C   UNL d   1       9.266   8.361 -12.443  0.00  0.00     0.005 C 
ATOM      4  C   UNL d   1       9.583   8.622 -10.972  0.00  0.00     0.040 C 
ATOM      5  C   UNL d   1      10.014   7.309 -10.358  0.00  0.00     0.259 C 
ATOM      6  C   UNL d   1      10.324   7.538  -8.948  0.00  0.00     0.086 A 
ATOM      7  N   UNL d   1      11.014   8.630  -8.422  0.00  0.00    -0.248 NA
ATOM      8  C   UNL d   1      11.186   8.453  -7.077  0.00  0.00     0.081 A 
ATOM      9  C   UNL d   1      11.775   9.250  -6.049  0.00  0.00     0.019 A 
ATOM     10  C   UNL d   1      11.831   8.758  -4.722  0.00  0.00     0.002 A 
ATOM     11  C   UNL d   1      11.349   7.467  -4.463  0.00  0.00     0.000 A 
ATOM     12  C   UNL d   1      10.754   6.718  -5.473  0.00  0.00     0.001 A 
ATOM     13  C   UNL d   1      10.624   7.164  -6.798  0.00  0.00     0.015 A 
ATOM     14  C   UNL d   1      10.049   6.625  -8.004  0.00  0.00    -0.003 A 
ATOM     15  C   UNL d   1       9.307   5.352  -8.373  0.00  0.00     0.063 C 
ATOM     16  C   UNL d   1       9.295   5.084  -9.879  0.00  0.00     0.256 C 
ATOM     17  N   UNL d   1       8.970   6.282 -10.587  0.00  0.00     0.143 N 
ENDROOT
BRANCH   1  18
ATOM     18  C   UNL d   1       7.806   4.914 -12.383  0.00  0.00     0.009 A 
ATOM     19  C   UNL d   1       8.044   3.982 -13.427  0.00  0.00    -0.002 A 
ATOM     20  C   UNL d   1       7.064   3.023 -13.733  0.00  0.00    -0.000 A 
ATOM     21  C   UNL d   1       5.845   3.004 -13.006  0.00  0.00    -0.000 A 
ATOM     22  C   UNL d   1       5.603   4.003 -12.065  0.00  0.00    -0.000 A 
ATOM     23  C   UNL d   1       6.577   4.956 -11.752  0.00  0.00    -0.002 A 
ENDBRANCH   1  18
TORSDOF 1
