REMARK  6 active torsions:
REMARK  status: ('A' for Active; 'I' for Inactive)
REMARK       I    between atoms: C_2  and  N_3 
REMARK    1  A    between atoms: C_2  and  C_30 
REMARK    2  A    between atoms: N_3  and  C_4 
REMARK    3  A    between atoms: C_10  and  C_11 
REMARK    4  A    between atoms: C_11  and  C_12 
REMARK    5  A    between atoms: C_12  and  N_13 
REMARK    6  A    between atoms: N_16  and  C_17 
ROOT
ATOM      1  C   UNL d   1      10.232   1.586 -15.084  0.00  0.00     0.129 C 
ATOM      2  C   UNL d   1       9.320   0.472 -15.675  0.00  0.00     0.034 C 
ATOM      3  C   UNL d   1       7.865   0.957 -15.564  0.00  0.00     0.028 C 
ATOM      4  C   UNL d   1       7.949   2.136 -14.639  0.00  0.00    -0.024 A 
ATOM      5  C   UNL d   1       6.868   2.847 -14.096  0.00  0.00    -0.005 A 
ATOM      6  C   UNL d   1       7.143   3.938 -13.255  0.00  0.00    -0.005 A 
ATOM      7  C   UNL d   1       8.482   4.297 -12.976  0.00  0.00    -0.020 A 
ATOM      8  C   UNL d   1       9.565   3.576 -13.527  0.00  0.00    -0.007 A 
ATOM      9  C   UNL d   1       9.264   2.489 -14.372  0.00  0.00    -0.004 A 
ENDROOT
BRANCH   7  10
ATOM     10  C   UNL d   1       8.731   5.440 -12.040  0.00  0.00     0.062 C 
BRANCH  10  11
ATOM     11  C   UNL d   1       9.199   4.945 -10.668  0.00  0.00     0.255 C 
BRANCH  11  12
ATOM     12  N   UNL d   1       8.994   5.988  -9.672  0.00  0.00     0.141 N 
ATOM     13  C   UNL d   1       9.467   5.504  -8.369  0.00  0.00     0.274 C 
ATOM     14  C   UNL d   1       9.100   6.507  -7.281  0.00  0.00     0.138 C 
ATOM     15  N   UNL d   1       9.810   7.738  -7.578  0.00  0.00    -0.329 N 
ATOM     16  C   UNL d   1       9.466   8.320  -8.882  0.00  0.00     0.138 C 
ATOM     17  C   UNL d   1       9.686   7.248  -9.981  0.00  0.00     0.274 C 
BRANCH  15  18
ATOM     18  C   UNL d   1      10.654   8.446  -6.715  0.00  0.00     0.148 A 
ATOM     19  C   UNL d   1      11.172   7.965  -5.448  0.00  0.00     0.042 A 
ATOM     20  C   UNL d   1      11.982   8.993  -4.878  0.00  0.00     0.050 A 
ATOM     21  C   UNL d   1      11.066   6.785  -4.649  0.00  0.00     0.004 A 
ATOM     22  S   UNL d   1      12.079  10.338  -6.039  0.00  0.00     0.015 SA
ATOM     23  C   UNL d   1      12.647   8.856  -3.619  0.00  0.00     0.008 A 
ATOM     24  N   UNL d   1      11.060   9.639  -7.129  0.00  0.00    -0.192 NA
ATOM     25  C   UNL d   1      12.528   7.631  -2.903  0.00  0.00     0.001 A 
ATOM     26  C   UNL d   1      11.742   6.616  -3.451  0.00  0.00     0.000 A 
ENDBRANCH  15  18
ENDBRANCH  11  12
ENDBRANCH  10  11
ENDBRANCH   7  10
BRANCH   1  27
ATOM     27  N   UNL d   1      10.947   2.338 -16.102  0.00  0.00    -0.232 NA
ATOM     28  C   UNL d   1      11.788   1.849 -17.024  0.00  0.00     0.275 C 
ATOM     29  O   UNL d   1      11.934   0.651 -17.252  0.00  0.00    -0.266 OA
BRANCH  28  30
ATOM     30  C   UNL d   1      12.557   2.874 -17.800  0.00  0.00     0.058 A 
ATOM     31  C   UNL d   1      13.150   2.520 -19.032  0.00  0.00     0.007 A 
ATOM     32  C   UNL d   1      13.906   3.467 -19.749  0.00  0.00     0.030 A 
ATOM     33  C   UNL d   1      14.068   4.770 -19.240  0.00  0.00     0.140 A 
ATOM     34  C   UNL d   1      13.494   5.125 -18.007  0.00  0.00     0.030 A 
ATOM     35  F   UNL d   1      14.775   5.685 -19.940  0.00  0.00    -0.204 F 
ATOM     36  C   UNL d   1      12.746   4.181 -17.286  0.00  0.00     0.007 A 
ENDBRANCH  28  30
ENDBRANCH   1  27
TORSDOF 6
