REMARK  2 active torsions:
REMARK  status: ('A' for Active; 'I' for Inactive)
REMARK    1  A    between atoms: C_2  and  C_3 
REMARK    2  A    between atoms: C_3  and  N_4 
ROOT
ATOM      1  N   UNL d   1      10.454   8.305  -5.332  0.00  0.00     0.140 N 
ATOM      2  C   UNL d   1      10.972   9.656  -5.470  0.00  0.00     0.282 C 
ATOM      3  C   UNL d   1      11.826   9.838  -6.715  0.00  0.00     0.178 C 
ATOM      4  O   UNL d   1      11.120   9.396  -7.878  0.00  0.00    -0.348 OA
ATOM      5  C   UNL d   1      10.683   8.036  -7.795  0.00  0.00     0.169 C 
ATOM      6  C   UNL d   1      10.004   7.511  -9.043  0.00  0.00     0.005 A 
ATOM      7  C   UNL d   1      10.121   8.171 -10.270  0.00  0.00     0.025 A 
ATOM      8  C   UNL d   1       9.441   7.629 -11.377  0.00  0.00     0.131 A 
ATOM      9  O   UNL d   1       9.416   8.332 -12.515  0.00  0.00    -0.190 OA
ATOM     10  C   UNL d   1       8.739   6.418 -11.336  0.00  0.00     0.027 A 
ATOM     11  C   UNL d   1       8.644   5.743 -10.110  0.00  0.00    -0.002 A 
ATOM     12  C   UNL d   1       9.249   6.327  -8.982  0.00  0.00    -0.024 A 
ATOM     13  C   UNL d   1       9.123   5.652  -7.659  0.00  0.00     0.028 C 
ATOM     14  C   UNL d   1       8.915   6.623  -6.487  0.00  0.00     0.041 C 
ATOM     15  C   UNL d   1       9.750   7.923  -6.566  0.00  0.00     0.251 C 
ENDROOT
BRANCH   1  16
ATOM     16  C   UNL d   1      11.441   7.342  -4.848  0.00  0.00     0.250 C 
BRANCH  16  17
ATOM     17  C   UNL d   1      12.072   7.685  -3.483  0.00  0.00     0.035 C 
ATOM     18  C   UNL d   1      12.198   6.464  -2.580  0.00  0.00     0.002 C 
ENDBRANCH  16  17
ENDBRANCH   1  16
TORSDOF 2
