REMARK  2 active torsions:
REMARK  status: ('A' for Active; 'I' for Inactive)
REMARK    1  A    between atoms: C_2  and  C_3 
REMARK    2  A    between atoms: C_8  and  O_9 
ROOT
ATOM      1  C   UNL d   1       4.729  -0.823 -15.790  0.00  0.00     0.022 A 
ATOM      2  C   UNL d   1       4.769  -1.182 -17.151  0.00  0.00     0.002 A 
ATOM      3  C   UNL d   1       5.847  -0.789 -17.958  0.00  0.00    -0.004 A 
ATOM      4  C   UNL d   1       6.885  -0.003 -17.419  0.00  0.00    -0.018 A 
ATOM      5  C   UNL d   1       6.842   0.426 -16.072  0.00  0.00     0.018 A 
ATOM      6  C   UNL d   1       5.777  -0.036 -15.246  0.00  0.00     0.094 A 
ATOM      7  C   UNL d   1       7.925   1.321 -15.597  0.00  0.00    -0.001 A 
ATOM      8  C   UNL d   1       7.764   2.230 -14.519  0.00  0.00    -0.000 A 
ATOM      9  C   UNL d   1       8.799   3.056 -14.048  0.00  0.00    -0.000 A 
ATOM     10  C   UNL d   1      10.053   3.031 -14.671  0.00  0.00    -0.004 A 
ATOM     11  C   UNL d   1      10.267   2.188 -15.774  0.00  0.00    -0.022 A 
ATOM     12  C   UNL d   1       9.199   1.367 -16.223  0.00  0.00     0.005 A 
ATOM     13  C   UNL d   1       9.391   0.426 -17.433  0.00  0.00     0.246 C 
ATOM     14  C   UNL d   1       8.089   0.352 -18.273  0.00  0.00     0.064 C 
ATOM     15  N   UNL d   1      10.542   0.758 -18.288  0.00  0.00     0.142 N 
ATOM     16  C   UNL d   1      10.821  -0.275 -19.282  0.00  0.00     0.286 C 
ATOM     17  C   UNL d   1      11.717   0.876 -17.438  0.00  0.00     0.255 C 
ATOM     18  C   UNL d   1      11.550   2.132 -16.585  0.00  0.00     0.061 C 
ENDROOT
BRANCH   1  19
ATOM     19  C   UNL d   1       3.573  -1.277 -14.995  0.00  0.00     0.002 C 
ATOM     20  C   UNL d   1       3.061  -0.672 -13.914  0.00  0.00     0.000 C 
ENDBRANCH   1  19
BRANCH   6  21
ATOM     21  O   UNL d   1       5.769   0.228 -13.902  0.00  0.00    -0.328 OA
ATOM     22  C   UNL d   1       6.674  -0.564 -13.152  0.00  0.00     0.181 C 
ENDBRANCH   6  21
TORSDOF 2
