REMARK  7 active torsions:
REMARK  status: ('A' for Active; 'I' for Inactive)
REMARK    1  A    between atoms: O_2  and  C_3 
REMARK    2  A    between atoms: C_6  and  N_7 
REMARK    3  A    between atoms: N_10  and  C_11 
REMARK    4  A    between atoms: C_11  and  C_12 
REMARK    5  A    between atoms: C_12  and  C_13 
REMARK    6  A    between atoms: C_13  and  O_14 
REMARK    7  A    between atoms: O_14  and  C_15 
ROOT
ATOM      1  C   UNL d   1       6.692   1.823 -14.685  0.00  0.00     0.151 C 
ENDROOT
BRANCH   1   2
ATOM      2  C   UNL d   1       7.863   1.764 -15.681  0.00  0.00     0.068 C 
BRANCH   2   3
ATOM      3  C   UNL d   1       8.315   0.315 -16.043  0.00  0.00     0.253 C 
BRANCH   3   4
ATOM      4  N   UNL d   1       9.568   0.337 -16.812  0.00  0.00     0.141 N 
ATOM      5  C   UNL d   1      10.708   1.014 -16.135  0.00  0.00     0.274 C 
ATOM      6  C   UNL d   1      11.968   0.972 -16.988  0.00  0.00     0.137 C 
ATOM      7  N   UNL d   1      11.685   1.540 -18.299  0.00  0.00    -0.344 N 
ATOM      8  C   UNL d   1      10.567   0.918 -19.003  0.00  0.00     0.137 C 
ATOM      9  C   UNL d   1       9.325   0.967 -18.119  0.00  0.00     0.274 C 
BRANCH   7  10
ATOM     10  C   UNL d   1      12.470   2.572 -18.872  0.00  0.00     0.056 A 
ATOM     11  C   UNL d   1      13.183   3.485 -18.063  0.00  0.00     0.019 A 
ATOM     12  C   UNL d   1      13.960   4.512 -18.644  0.00  0.00     0.026 A 
ATOM     13  C   UNL d   1      14.026   4.643 -20.044  0.00  0.00     0.094 A 
ATOM     14  C   UNL d   1      13.325   3.736 -20.852  0.00  0.00     0.026 A 
ATOM     15  C   UNL d   1      12.558   2.703 -20.275  0.00  0.00     0.019 A 
BRANCH  13  16
ATOM     16  O   UNL d   1      14.749   5.628 -20.695  0.00  0.00    -0.328 OA
ATOM     17  C   UNL d   1      15.428   6.583 -19.899  0.00  0.00     0.181 C 
ENDBRANCH  13  16
ENDBRANCH   7  10
ENDBRANCH   3   4
ENDBRANCH   2   3
ENDBRANCH   1   2
BRANCH   1  18
ATOM     18  O   UNL d   1       6.419   3.180 -14.339  0.00  0.00    -0.331 OA
BRANCH  18  19
ATOM     19  C   UNL d   1       7.168   3.860 -13.403  0.00  0.00     0.094 A 
ATOM     20  C   UNL d   1       6.450   4.824 -12.650  0.00  0.00     0.024 A 
ATOM     21  C   UNL d   1       7.113   5.545 -11.639  0.00  0.00     0.005 A 
ATOM     22  C   UNL d   1       8.491   5.338 -11.377  0.00  0.00     0.036 A 
ATOM     23  C   UNL d   1       9.203   4.412 -12.147  0.00  0.00     0.005 A 
ATOM     24  C   UNL d   1       9.188   6.021 -10.315  0.00  0.00     0.162 A 
ATOM     25  C   UNL d   1       8.562   3.656 -13.142  0.00  0.00     0.024 A 
ATOM     26  N   UNL d   1      10.160   6.920 -10.563  0.00  0.00    -0.225 NA
ATOM     27  N   UNL d   1       8.994   5.765  -9.018  0.00  0.00    -0.225 NA
ATOM     28  C   UNL d   1      10.607   7.400  -9.348  0.00  0.00     0.101 A 
ATOM     29  C   UNL d   1       9.843   6.665  -8.398  0.00  0.00     0.101 A 
ATOM     30  C   UNL d   1      11.563   8.351  -8.968  0.00  0.00     0.021 A 
ATOM     31  C   UNL d   1      10.050   6.933  -7.032  0.00  0.00     0.021 A 
ATOM     32  C   UNL d   1      11.006   7.886  -6.638  0.00  0.00     0.002 A 
ATOM     33  C   UNL d   1      11.763   8.589  -7.598  0.00  0.00     0.002 A 
ENDBRANCH  18  19
ENDBRANCH   1  18
TORSDOF 7
