REMARK  4 active torsions:
REMARK  status: ('A' for Active; 'I' for Inactive)
REMARK    1  A    between atoms: C_2  and  C_3 
REMARK    2  A    between atoms: C_3  and  N_4 
REMARK    3  A    between atoms: C_8  and  C_9 
REMARK    4  A    between atoms: C_13  and  C_14 
ROOT
ATOM      1  N   UNL d   1       7.790   5.448 -10.860  0.00  0.00     0.137 N 
ATOM      2  C   UNL d   1       7.900   6.529 -11.838  0.00  0.00     0.250 C 
ATOM      3  C   UNL d   1       6.513   6.679 -12.508  0.00  0.00     0.036 C 
ATOM      4  C   UNL d   1       6.154   5.373 -13.233  0.00  0.00     0.008 C 
ATOM      5  C   UNL d   1       6.181   4.178 -12.321  0.00  0.00     0.056 C 
ATOM      6  C   UNL d   1       7.496   4.195 -11.530  0.00  0.00     0.255 C 
ENDROOT
BRANCH   5   7
ATOM      7  C   UNL d   1       6.011   2.874 -13.104  0.00  0.00    -0.020 A 
ATOM      8  C   UNL d   1       6.702   2.595 -14.312  0.00  0.00    -0.001 A 
ATOM      9  C   UNL d   1       6.522   1.381 -15.009  0.00  0.00     0.034 A 
ATOM     10  C   UNL d   1       5.672   0.391 -14.467  0.00  0.00     0.003 A 
ATOM     11  C   UNL d   1       5.022   0.641 -13.247  0.00  0.00    -0.000 A 
ATOM     12  C   UNL d   1       5.183   1.866 -12.576  0.00  0.00    -0.004 A 
BRANCH   9  13
ATOM     13  C   UNL d   1       7.185   1.212 -16.331  0.00  0.00     0.173 C 
ATOM     14  C   UNL d   1       6.840  -0.029 -17.130  0.00  0.00     0.077 C 
ATOM     15  O   UNL d   1       7.955   2.032 -16.820  0.00  0.00    -0.291 OA
ENDBRANCH   9  13
ENDBRANCH   5   7
BRANCH   1  16
ATOM     16  C   UNL d   1       8.972   5.320 -10.013  0.00  0.00     0.250 C 
BRANCH  16  17
ATOM     17  C   UNL d   1       9.092   6.493  -9.018  0.00  0.00     0.035 C 
ATOM     18  C   UNL d   1      10.381   6.439  -8.215  0.00  0.00     0.002 C 
ENDBRANCH  16  17
ENDBRANCH   1  16
TORSDOF 4
