REMARK  3 active torsions:
REMARK  status: ('A' for Active; 'I' for Inactive)
REMARK    1  A    between atoms: C_2  and  C_3 
REMARK    2  A    between atoms: C_3  and  N_4 
REMARK    3  A    between atoms: C_13  and  O_14 
ROOT
ATOM      1  N   UNL d   1       5.167  -0.196 -13.683  0.00  0.00     0.140 N 
ATOM      2  C   UNL d   1       6.143  -1.081 -14.337  0.00  0.00     0.251 C 
ATOM      3  C   UNL d   1       7.291  -0.195 -14.854  0.00  0.00     0.042 C 
ATOM      4  C   UNL d   1       6.845   1.223 -14.544  0.00  0.00     0.057 C 
ATOM      5  C   UNL d   1       7.882   2.321 -14.362  0.00  0.00    -0.002 A 
ATOM      6  C   UNL d   1       7.593   3.391 -13.461  0.00  0.00    -0.024 A 
ATOM      7  C   UNL d   1       8.517   4.440 -13.308  0.00  0.00    -0.004 A 
ATOM      8  C   UNL d   1       9.704   4.446 -14.054  0.00  0.00     0.002 A 
ATOM      9  C   UNL d   1       9.990   3.405 -14.947  0.00  0.00     0.024 A 
ATOM     10  C   UNL d   1       9.086   2.334 -15.119  0.00  0.00     0.090 A 
ATOM     11  C   UNL d   1       6.349   3.388 -12.562  0.00  0.00     0.028 C 
ATOM     12  C   UNL d   1       5.334   2.256 -12.822  0.00  0.00     0.038 C 
ATOM     13  C   UNL d   1       5.999   0.947 -13.308  0.00  0.00     0.224 C 
ENDROOT
BRANCH   1  14
ATOM     14  C   UNL d   1       4.047   0.171 -14.553  0.00  0.00     0.276 C 
BRANCH  14  15
ATOM     15  C   UNL d   1       3.335  -1.008 -15.161  0.00  0.00     0.009 C 
ATOM     16  C   UNL d   1       3.359  -1.268 -16.477  0.00  0.00    -0.003 C 
ENDBRANCH  14  15
ENDBRANCH   1  14
BRANCH  10  17
ATOM     17  O   UNL d   1       9.308   1.302 -16.018  0.00  0.00    -0.328 OA
ATOM     18  C   UNL d   1      10.563   1.234 -16.676  0.00  0.00     0.181 C 
ENDBRANCH  10  17
TORSDOF 3
