REMARK  2 active torsions:
REMARK  status: ('A' for Active; 'I' for Inactive)
REMARK    1  A    between atoms: N_2  and  C_4 
REMARK    2  A    between atoms: C_4  and  C_5 
ROOT
ATOM      1  C   UNL d   1      10.095   3.826 -14.419  0.00  0.00     0.173 C 
ATOM      2  C   UNL d   1       9.873   4.530 -15.749  0.00  0.00     0.057 C 
ATOM      3  C   UNL d   1      11.232   4.367 -16.397  0.00  0.00     0.113 C 
ATOM      4  C   UNL d   1      11.314   4.827 -17.866  0.00  0.00    -0.009 A 
ATOM      5  C   UNL d   1      10.480   5.885 -18.309  0.00  0.00    -0.003 A 
ATOM      6  C   UNL d   1      10.562   6.378 -19.624  0.00  0.00    -0.000 A 
ATOM      7  C   UNL d   1      11.492   5.827 -20.523  0.00  0.00    -0.000 A 
ATOM      8  C   UNL d   1      12.337   4.786 -20.099  0.00  0.00    -0.004 A 
ATOM      9  C   UNL d   1      12.260   4.290 -18.781  0.00  0.00    -0.020 A 
ATOM     10  C   UNL d   1      13.165   3.144 -18.383  0.00  0.00     0.053 C 
ATOM     11  C   UNL d   1      12.312   1.938 -18.061  0.00  0.00    -0.005 A 
ATOM     12  C   UNL d   1      12.275   0.843 -18.950  0.00  0.00    -0.001 A 
ATOM     13  C   UNL d   1      11.450  -0.262 -18.671  0.00  0.00     0.029 A 
ATOM     14  C   UNL d   1      10.656  -0.267 -17.512  0.00  0.00     0.141 A 
ATOM     15  F   UNL d   1       9.860  -1.328 -17.244  0.00  0.00    -0.204 F 
ATOM     16  C   UNL d   1      10.699   0.820 -16.622  0.00  0.00     0.043 A 
ATOM     17  C   UNL d   1      11.528   1.937 -16.888  0.00  0.00     0.061 A 
ATOM     18  N   UNL d   1      11.610   3.011 -15.984  0.00  0.00    -0.142 NA
ATOM     19  O   UNL d   1      10.939   2.734 -14.746  0.00  0.00    -0.279 OA
ENDROOT
BRANCH   1  20
ATOM     20  C   UNL d   1       8.806   3.332 -13.744  0.00  0.00     0.282 C 
BRANCH  20  21
ATOM     21  N   UNL d   1       7.891   4.436 -13.456  0.00  0.00     0.144 N 
ATOM     22  C   UNL d   1       6.589   3.920 -13.049  0.00  0.00     0.286 C 
ATOM     23  C   UNL d   1       8.400   5.304 -12.400  0.00  0.00     0.286 C 
ENDBRANCH  20  21
ENDBRANCH   1  20
TORSDOF 2
