REMARK  5 active torsions:
REMARK  status: ('A' for Active; 'I' for Inactive)
REMARK    1  A    between atoms: C_5  and  C_6 
REMARK    2  A    between atoms: C_6  and  N_7 
REMARK    3  A    between atoms: C_11  and  C_12 
REMARK    4  A    between atoms: C_12  and  S_13 
REMARK    5  A    between atoms: S_13  and  C_14 
ROOT
ATOM      1  N   UNL d   1       8.747   3.734 -13.075  0.00  0.00     0.147 N 
ATOM      2  C   UNL d   1       7.900   4.803 -13.595  0.00  0.00     0.283 C 
ATOM      3  C   UNL d   1       7.161   5.543 -12.469  0.00  0.00     0.178 C 
ATOM      4  O   UNL d   1       8.119   6.053 -11.556  0.00  0.00    -0.352 OA
ATOM      5  C   UNL d   1       8.888   5.032 -10.937  0.00  0.00     0.160 C 
ATOM      6  C   UNL d   1       9.642   4.275 -12.057  0.00  0.00     0.281 C 
ENDROOT
BRANCH   1   7
ATOM      7  C   UNL d   1       9.481   3.017 -14.114  0.00  0.00     0.277 C 
BRANCH   7   8
ATOM      8  C   UNL d   1       8.589   2.312 -15.123  0.00  0.00     0.011 A 
ATOM      9  C   UNL d   1       8.874   2.408 -16.503  0.00  0.00    -0.002 A 
ATOM     10  C   UNL d   1       8.034   1.781 -17.446  0.00  0.00     0.011 A 
ATOM     11  C   UNL d   1       6.910   1.049 -17.013  0.00  0.00     0.058 A 
ATOM     12 CL   UNL d   1       5.861   0.312 -18.166  0.00  0.00    -0.082 Cl
ATOM     13  C   UNL d   1       6.636   0.938 -15.635  0.00  0.00     0.011 A 
ATOM     14  C   UNL d   1       7.469   1.567 -14.694  0.00  0.00    -0.002 A 
ENDBRANCH   7   8
ENDBRANCH   1   7
BRANCH   5  15
ATOM     15  C   UNL d   1       9.858   5.702  -9.956  0.00  0.00     0.094 C 
BRANCH  15  16
ATOM     16  S   UNL d   1       9.060   6.366  -8.473  0.00  0.00    -0.111 SA
BRANCH  16  17
ATOM     17  C   UNL d   1      10.166   7.521  -7.710  0.00  0.00     0.025 A 
ATOM     18  C   UNL d   1      11.414   7.862  -8.285  0.00  0.00     0.006 A 
ATOM     19  C   UNL d   1      12.255   8.788  -7.645  0.00  0.00     0.001 A 
ATOM     20  C   UNL d   1      11.863   9.385  -6.432  0.00  0.00     0.000 A 
ATOM     21  C   UNL d   1      10.627   9.049  -5.855  0.00  0.00     0.001 A 
ATOM     22  C   UNL d   1       9.778   8.121  -6.496  0.00  0.00     0.006 A 
ENDBRANCH  16  17
ENDBRANCH  15  16
ENDBRANCH   5  15
TORSDOF 5
