REMARK  5 active torsions:
REMARK  status: ('A' for Active; 'I' for Inactive)
REMARK    1  A    between atoms: O_2  and  C_3 
REMARK    2  A    between atoms: C_9  and  C_10 
REMARK    3  A    between atoms: C_10  and  N_11 
REMARK    4  A    between atoms: C_14  and  C_16 
REMARK    5  A    between atoms: C_19  and  S_20 
ROOT
ATOM      1  N   UNL d   1       9.037   5.176 -11.398  0.00  0.00     0.142 N 
ATOM      2  C   UNL d   1       8.084   5.936 -10.605  0.00  0.00     0.254 C 
ATOM      3  C   UNL d   1       8.642   6.313  -9.234  0.00  0.00     0.070 C 
ATOM      4  C   UNL d   1       9.818   7.254  -9.324  0.00  0.00     0.149 C 
ATOM      5  O   UNL d   1       9.484   8.459  -9.990  0.00  0.00    -0.221 OA
ATOM      6  C   UNL d   1      10.799   6.509 -10.243  0.00  0.00     0.070 C 
ATOM      7  C   UNL d   1      10.139   6.109 -11.616  0.00  0.00     0.254 C 
ENDROOT
BRANCH   1   8
ATOM      8  C   UNL d   1       8.483   4.844 -12.729  0.00  0.00     0.278 C 
BRANCH   8   9
ATOM      9  C   UNL d   1       7.263   3.963 -12.887  0.00  0.00     0.032 A 
ATOM     10  C   UNL d   1       6.074   4.033 -12.184  0.00  0.00     0.097 A 
ATOM     11  N   UNL d   1       5.294   2.934 -12.490  0.00  0.00    -0.244 NA
ATOM     12  C   UNL d   1       5.890   2.173 -13.464  0.00  0.00     0.081 A 
ATOM     13  C   UNL d   1       5.479   0.986 -14.082  0.00  0.00     0.021 A 
ATOM     14  C   UNL d   1       7.132   2.809 -13.760  0.00  0.00     0.019 A 
ATOM     15  C   UNL d   1       6.295   0.413 -15.075  0.00  0.00     0.026 A 
ATOM     16  C   UNL d   1       7.547   0.985 -15.384  0.00  0.00     0.094 A 
ATOM     17  C   UNL d   1       7.973   2.165 -14.706  0.00  0.00     0.025 A 
BRANCH  16  18
ATOM     18  O   UNL d   1       8.285   0.333 -16.346  0.00  0.00    -0.328 OA
ATOM     19  C   UNL d   1       9.596   0.797 -16.610  0.00  0.00     0.181 C 
ENDBRANCH  16  18
ENDBRANCH   8   9
ENDBRANCH   1   8
BRANCH   4  20
ATOM     20  C   UNL d   1      10.431   7.475  -7.929  0.00  0.00     0.005 A 
ATOM     21  C   UNL d   1      10.941   6.376  -7.203  0.00  0.00    -0.001 A 
ATOM     22  C   UNL d   1      11.464   6.515  -5.896  0.00  0.00     0.006 A 
ATOM     23  C   UNL d   1      11.457   7.788  -5.292  0.00  0.00     0.025 A 
ATOM     24  C   UNL d   1      10.917   8.886  -5.983  0.00  0.00     0.006 A 
ATOM     25  C   UNL d   1      10.394   8.724  -7.288  0.00  0.00    -0.001 A 
BRANCH  23  26
ATOM     26  S   UNL d   1      12.132   8.018  -3.672  0.00  0.00    -0.113 SA
ATOM     27  C   UNL d   1      11.892   6.445  -2.808  0.00  0.00     0.074 C 
ENDBRANCH  23  26
ENDBRANCH   4  20
TORSDOF 5
