REMARK  7 active torsions:
REMARK  status: ('A' for Active; 'I' for Inactive)
REMARK    1  A    between atoms: C_2  and  N_3 
REMARK    2  A    between atoms: N_3  and  C_5 
REMARK    3  A    between atoms: C_5  and  C_6 
REMARK    4  A    between atoms: C_6  and  C_7 
REMARK    5  A    between atoms: C_8  and  C_9 
REMARK    6  A    between atoms: C_11  and  C_12 
REMARK    7  A    between atoms: C_17  and  C_18 
ROOT
ATOM      1  C   UNL d   1       8.514   2.530 -14.933  0.00  0.00    -0.001 A 
ATOM      2  C   UNL d   1       9.196   1.829 -15.918  0.00  0.00     0.077 A 
ATOM      3  N   UNL d   1       8.478   0.674 -16.194  0.00  0.00    -0.246 NA
ATOM      4  C   UNL d   1       7.333   0.585 -15.431  0.00  0.00     0.081 A 
ATOM      5  C   UNL d   1       6.305  -0.380 -15.352  0.00  0.00     0.019 A 
ATOM      6  C   UNL d   1       5.252  -0.204 -14.440  0.00  0.00     0.002 A 
ATOM      7  C   UNL d   1       5.235   0.947 -13.636  0.00  0.00     0.000 A 
ATOM      8  C   UNL d   1       6.235   1.923 -13.758  0.00  0.00     0.001 A 
ATOM      9  C   UNL d   1       7.332   1.758 -14.631  0.00  0.00     0.015 A 
ENDROOT
BRANCH   2  10
ATOM     10  C   UNL d   1      10.444   2.103 -16.659  0.00  0.00     0.017 A 
ATOM     11  C   UNL d   1      11.138   3.334 -16.535  0.00  0.00     0.005 A 
ATOM     12  C   UNL d   1      12.351   3.583 -17.193  0.00  0.00     0.071 A 
ATOM     13  C   UNL d   1      12.873   2.628 -18.084  0.00  0.00     0.008 A 
ATOM     14  C   UNL d   1      12.180   1.407 -18.265  0.00  0.00     0.071 A 
ATOM     15  C   UNL d   1      10.986   1.135 -17.553  0.00  0.00     0.005 A 
BRANCH  12  16
ATOM     16  C   UNL d   1      13.045   4.913 -16.937  0.00  0.00     0.419 C 
ATOM     17  F   UNL d   1      14.332   4.856 -17.251  0.00  0.00    -0.166 F 
ATOM     18  F   UNL d   1      12.450   5.860 -17.660  0.00  0.00    -0.166 F 
ATOM     19  F   UNL d   1      12.950   5.258 -15.646  0.00  0.00    -0.166 F 
ENDBRANCH  12  16
BRANCH  14  20
ATOM     20  C   UNL d   1      12.720   0.377 -19.233  0.00  0.00     0.419 C 
ATOM     21  F   UNL d   1      13.992   0.641 -19.554  0.00  0.00    -0.166 F 
ATOM     22  F   UNL d   1      12.660  -0.827 -18.669  0.00  0.00    -0.166 F 
ATOM     23  F   UNL d   1      11.976   0.382 -20.343  0.00  0.00    -0.166 F 
ENDBRANCH  14  20
ENDBRANCH   2  10
BRANCH   1  24
ATOM     24  C   UNL d   1       8.845   3.858 -14.286  0.00  0.00     0.063 C 
BRANCH  24  25
ATOM     25  C   UNL d   1       8.775   3.837 -12.754  0.00  0.00     0.255 C 
BRANCH  25  26
ATOM     26  N   UNL d   1       9.227   5.101 -12.178  0.00  0.00     0.139 N 
ATOM     27  C   UNL d   1       9.228   4.905 -10.732  0.00  0.00     0.285 C 
BRANCH  26  28
ATOM     28  C   UNL d   1       8.317   6.199 -12.533  0.00  0.00     0.250 C 
ATOM     29  C   UNL d   1       8.823   7.560 -12.055  0.00  0.00     0.037 C 
ENDBRANCH  26  28
ENDBRANCH  25  26
ENDBRANCH  24  25
ENDBRANCH   1  24
TORSDOF 7
