REMARK  7 active torsions:
REMARK  status: ('A' for Active; 'I' for Inactive)
REMARK    1  A    between atoms: O_2  and  C_3 
REMARK    2  A    between atoms: C_7  and  C_8 
REMARK    3  A    between atoms: C_8  and  S_9 
REMARK    4  A    between atoms: S_9  and  C_11 
REMARK    5  A    between atoms: C_15  and  O_16 
REMARK    6  A    between atoms: O_16  and  C_17 
REMARK    7  A    between atoms: C_24  and  O_25 
ROOT
ATOM      1  C   UNL d   1       9.493   7.191 -10.211  0.00  0.00     0.221 A 
ATOM      2  N   UNL d   1      10.398   8.151 -10.006  0.00  0.00    -0.218 NA
ATOM      3  C   UNL d   1      10.583   8.071  -8.629  0.00  0.00     0.103 A 
ATOM      4  C   UNL d   1      11.412   8.797  -7.738  0.00  0.00     0.045 A 
ATOM      5  C   UNL d   1      11.425   8.508  -6.347  0.00  0.00     0.101 A 
ATOM      6  C   UNL d   1      10.611   7.475  -5.828  0.00  0.00     0.026 A 
ATOM      7  C   UNL d   1       9.764   6.768  -6.689  0.00  0.00     0.023 A 
ATOM      8  C   UNL d   1       9.769   7.043  -8.062  0.00  0.00     0.101 A 
ATOM      9  N   UNL d   1       9.093   6.504  -9.132  0.00  0.00    -0.218 NA
ENDROOT
BRANCH   1  10
ATOM     10  S   UNL d   1       8.701   6.802 -11.806  0.00  0.00     0.108 S 
ATOM     11  O   UNL d   1       9.443   7.660 -12.825  0.00  0.00    -0.248 OA
BRANCH  10  12
ATOM     12  C   UNL d   1       9.377   5.076 -11.873  0.00  0.00     0.147 C 
BRANCH  12  13
ATOM     13  C   UNL d   1       8.446   4.224 -12.703  0.00  0.00     0.097 A 
ATOM     14  N   UNL d   1       7.143   4.313 -12.361  0.00  0.00    -0.245 NA
ATOM     15  C   UNL d   1       6.258   3.570 -13.043  0.00  0.00     0.101 A 
ATOM     16  C   UNL d   1       6.633   2.706 -14.085  0.00  0.00     0.047 A 
ATOM     17  C   UNL d   1       7.998   2.603 -14.453  0.00  0.00     0.119 A 
ATOM     18  C   UNL d   1       8.945   3.380 -13.723  0.00  0.00     0.131 A 
BRANCH  17  19
ATOM     19  O   UNL d   1       8.418   1.805 -15.497  0.00  0.00    -0.326 OA
ATOM     20  C   UNL d   1       7.466   1.001 -16.175  0.00  0.00     0.181 C 
ENDBRANCH  17  19
BRANCH  18  21
ATOM     21  O   UNL d   1      10.315   3.392 -13.918  0.00  0.00    -0.325 OA
ATOM     22  C   UNL d   1      10.942   2.375 -14.683  0.00  0.00     0.181 C 
ENDBRANCH  18  21
ENDBRANCH  12  13
ENDBRANCH  10  12
ENDBRANCH   1  10
BRANCH   5  23
ATOM     23  O   UNL d   1      12.256   9.232  -5.525  0.00  0.00    -0.275 OA
BRANCH  23  24
ATOM     24  C   UNL d   1      11.878   9.488  -4.242  0.00  0.00     0.455 C 
ATOM     25  F   UNL d   1      10.733  10.211  -4.193  0.00  0.00    -0.166 F 
ATOM     26  F   UNL d   1      11.720   8.366  -3.519  0.00  0.00    -0.166 F 
ENDBRANCH  23  24
ENDBRANCH   5  23
TORSDOF 7
