REMARK  1 active torsions:
REMARK  status: ('A' for Active; 'I' for Inactive)
REMARK    1  A    between atoms: C_12  and  C_13 
ROOT
ATOM      1  C   UNL d   1       6.500   4.384 -12.238  0.00  0.00     0.286 C 
ATOM      2  N   UNL d   1       7.237   3.467 -13.078  0.00  0.00     0.144 N 
ATOM      3  C   UNL d   1       8.681   3.640 -12.882  0.00  0.00     0.255 C 
ATOM      4  C   UNL d   1       9.628   2.599 -13.515  0.00  0.00     0.062 C 
ATOM      5  C   UNL d   1       9.787   2.636 -14.994  0.00  0.00    -0.018 A 
ATOM      6  C   UNL d   1      11.112   2.658 -15.446  0.00  0.00     0.023 A 
ATOM      7  C   UNL d   1      11.391   2.737 -16.814  0.00  0.00     0.131 A 
ATOM      8  O   UNL d   1      12.685   2.809 -17.231  0.00  0.00    -0.190 OA
ATOM      9  C   UNL d   1      10.331   2.764 -17.735  0.00  0.00     0.027 A 
ATOM     10  C   UNL d   1       8.999   2.669 -17.286  0.00  0.00     0.002 A 
ATOM     11  C   UNL d   1       8.700   2.576 -15.902  0.00  0.00    -0.006 A 
ATOM     12  C   UNL d   1       7.231   2.501 -15.443  0.00  0.00     0.011 C 
ATOM     13  C   UNL d   1       6.824   3.622 -14.446  0.00  0.00     0.277 C 
ENDROOT
BRANCH  12  14
ATOM     14  C   UNL d   1       6.698   1.093 -15.137  0.00  0.00    -0.002 A 
ATOM     15  C   UNL d   1       7.046   0.393 -14.000  0.00  0.00    -0.000 A 
ATOM     16  C   UNL d   1       6.613  -0.855 -13.650  0.00  0.00    -0.000 A 
ATOM     17  C   UNL d   1       5.666  -1.448 -14.474  0.00  0.00    -0.000 A 
ATOM     18  C   UNL d   1       5.218  -0.793 -15.633  0.00  0.00    -0.000 A 
ATOM     19  C   UNL d   1       5.761   0.463 -15.982  0.00  0.00    -0.000 A 
ENDBRANCH  12  14
TORSDOF 1
