REMARK  3 active torsions:
REMARK  status: ('A' for Active; 'I' for Inactive)
REMARK    1  A    between atoms: C_6  and  C_7 
REMARK    2  A    between atoms: C_7  and  C_8 
REMARK    3  A    between atoms: C_10  and  C_11 
ROOT
ATOM      1  C   UNL d   1       8.991   4.733 -13.448  0.00  0.00     0.094 A 
ATOM      2  N   UNL d   1       9.641   5.333 -12.448  0.00  0.00    -0.242 NA
ATOM      3  C   UNL d   1       8.841   5.566 -11.318  0.00  0.00     0.088 A 
ATOM      4  C   UNL d   1       7.547   5.150 -11.518  0.00  0.00     0.056 A 
ATOM      5  S   UNL d   1       7.291   4.472 -13.100  0.00  0.00    -0.070 SA
ENDROOT
BRANCH   1   6
ATOM      6  C   UNL d   1       9.633   4.344 -14.743  0.00  0.00     0.100 C 
BRANCH   6   7
ATOM      7  C   UNL d   1       9.679   2.858 -14.975  0.00  0.00     0.081 A 
ATOM      8  C   UNL d   1      10.551   2.069 -15.700  0.00  0.00     0.075 A 
ATOM      9  C   UNL d   1      11.751   2.472 -16.498  0.00  0.00     0.053 C 
ATOM     10  N   UNL d   1      10.171   0.726 -15.614  0.00  0.00    -0.227 NA
ATOM     11  C   UNL d   1       9.079   0.748 -14.861  0.00  0.00     0.198 A 
ATOM     12  N   UNL d   1       8.750   1.974 -14.449  0.00  0.00    -0.227 NA
ENDBRANCH   6   7
ENDBRANCH   1   6
BRANCH   3  13
ATOM     13  C   UNL d   1       9.405   6.206 -10.127  0.00  0.00     0.018 A 
ATOM     14  C   UNL d   1       9.061   5.749  -8.839  0.00  0.00     0.002 A 
ATOM     15  C   UNL d   1       9.584   6.389  -7.697  0.00  0.00     0.000 A 
ATOM     16  C   UNL d   1      10.455   7.486  -7.837  0.00  0.00     0.000 A 
ATOM     17  C   UNL d   1      10.792   7.955  -9.120  0.00  0.00     0.000 A 
ATOM     18  C   UNL d   1      10.260   7.325 -10.255  0.00  0.00     0.002 A 
ENDBRANCH   3  13
TORSDOF 3
