REMARK  3 active torsions:
REMARK  status: ('A' for Active; 'I' for Inactive)
REMARK    1  A    between atoms: C_5  and  N_6 
REMARK    2  A    between atoms: N_9  and  C_10 
REMARK    3  A    between atoms: C_10  and  C_11 
ROOT
ATOM      1  N   UNL d   1       9.427   6.609 -11.022  0.00  0.00    -0.344 N 
ATOM      2  C   UNL d   1       8.696   7.332 -12.064  0.00  0.00     0.137 C 
ATOM      3  C   UNL d   1       7.316   6.675 -12.357  0.00  0.00     0.275 C 
ATOM      4  N   UNL d   1       7.474   5.255 -12.639  0.00  0.00     0.145 N 
ATOM      5  C   UNL d   1       8.060   4.636 -11.460  0.00  0.00     0.275 C 
ATOM      6  C   UNL d   1       9.453   5.166 -11.182  0.00  0.00     0.137 C 
ENDROOT
BRANCH   4   7
ATOM      7  C   UNL d   1       6.188   4.615 -12.884  0.00  0.00     0.278 C 
BRANCH   7   8
ATOM      8  C   UNL d   1       6.350   3.218 -13.463  0.00  0.00     0.030 A 
ATOM      9  C   UNL d   1       5.442   2.237 -13.137  0.00  0.00     0.098 A 
ATOM     10  N   UNL d   1       5.500   1.030 -13.772  0.00  0.00    -0.229 N 
ATOM     11  C   UNL d   1       6.489   0.729 -14.723  0.00  0.00     0.085 A 
ATOM     12  N   UNL d   1       4.606  -0.004 -13.633  0.00  0.00    -0.164 NA
ATOM     13  C   UNL d   1       7.472   1.702 -15.013  0.00  0.00     0.019 A 
ATOM     14  C   UNL d   1       6.214  -0.531 -15.164  0.00  0.00     0.042 A 
ATOM     15  C   UNL d   1       7.394   2.925 -14.385  0.00  0.00     0.001 A 
ATOM     16  C   UNL d   1       5.068  -0.926 -14.445  0.00  0.00     0.122 A 
ENDBRANCH   7   8
ENDBRANCH   4   7
BRANCH   1  17
ATOM     17  C   UNL d   1       9.858   7.228  -9.832  0.00  0.00     0.056 A 
ATOM     18  C   UNL d   1      10.459   8.502  -9.893  0.00  0.00     0.018 A 
ATOM     19  C   UNL d   1      10.961   9.105  -8.729  0.00  0.00     0.013 A 
ATOM     20  C   UNL d   1      10.857   8.488  -7.478  0.00  0.00     0.058 A 
ATOM     21 CL   UNL d   1      11.450   9.275  -6.070  0.00  0.00    -0.082 Cl
ATOM     22  C   UNL d   1      10.252   7.225  -7.390  0.00  0.00     0.013 A 
ATOM     23  C   UNL d   1       9.753   6.603  -8.556  0.00  0.00     0.018 A 
ENDBRANCH   1  17
TORSDOF 3
