REMARK  5 active torsions:
REMARK  status: ('A' for Active; 'I' for Inactive)
REMARK    1  A    between atoms: C_2  and  C_4 
REMARK    2  A    between atoms: C_4  and  N_5 
REMARK    3  A    between atoms: N_8  and  C_9 
REMARK    4  A    between atoms: N_18  and  N_19 
REMARK       I    between atoms: N_19  and  C_20 
REMARK    5  A    between atoms: C_20  and  C_22 
ROOT
ATOM      1  C   UNL d   1       8.805   1.133 -19.199  0.00  0.00     0.142 C 
ATOM      2  N   UNL d   1       8.060   1.968 -19.863  0.00  0.00    -0.227 NA
ATOM      3  C   UNL d   1       8.502   2.812 -20.892  0.00  0.00     0.101 A 
ATOM      4  C   UNL d   1       7.576   3.063 -21.929  0.00  0.00     0.032 A 
ATOM      5  C   UNL d   1       7.859   3.983 -22.952  0.00  0.00     0.059 A 
ATOM      6 CL   UNL d   1       6.693   4.280 -24.188  0.00  0.00    -0.082 Cl
ATOM      7  C   UNL d   1       9.082   4.674 -22.957  0.00  0.00     0.013 A 
ATOM      8  C   UNL d   1      10.018   4.434 -21.935  0.00  0.00     0.022 A 
ATOM      9  C   UNL d   1       9.739   3.510 -20.906  0.00  0.00     0.101 A 
ATOM     10  N   UNL d   1      10.715   3.263 -19.937  0.00  0.00    -0.225 N 
ATOM     11  C   UNL d   1      11.185   1.969 -19.689  0.00  0.00     0.086 A 
ATOM     12  C   UNL d   1      12.571   1.713 -19.774  0.00  0.00     0.019 A 
ATOM     13  C   UNL d   1      13.071   0.410 -19.607  0.00  0.00     0.002 A 
ATOM     14  C   UNL d   1      12.181  -0.639 -19.349  0.00  0.00     0.000 A 
ATOM     15  C   UNL d   1      10.805  -0.397 -19.260  0.00  0.00     0.004 A 
ATOM     16  C   UNL d   1      10.278   0.912 -19.418  0.00  0.00     0.051 A 
ENDROOT
BRANCH   1  17
ATOM     17  N   UNL d   1       8.282   0.413 -18.138  0.00  0.00    -0.330 N 
ATOM     18  C   UNL d   1       8.077   1.022 -16.831  0.00  0.00     0.138 C 
ATOM     19  C   UNL d   1       6.614   0.891 -16.383  0.00  0.00     0.274 C 
ATOM     20  N   UNL d   1       6.258  -0.534 -16.348  0.00  0.00     0.141 N 
ATOM     21  C   UNL d   1       6.348  -1.079 -17.716  0.00  0.00     0.274 C 
ATOM     22  C   UNL d   1       7.794  -0.958 -18.227  0.00  0.00     0.138 C 
BRANCH  20  23
ATOM     23  C   UNL d   1       4.902  -0.743 -15.843  0.00  0.00     0.250 C 
BRANCH  23  24
ATOM     24  C   UNL d   1       4.790  -0.768 -14.295  0.00  0.00     0.033 C 
ATOM     25  C   UNL d   1       3.314  -0.801 -13.861  0.00  0.00     0.002 C 
ATOM     26  C   UNL d   1       5.495   0.398 -13.586  0.00  0.00     0.002 C 
ENDBRANCH  23  24
ENDBRANCH  20  23
ENDBRANCH   1  17
BRANCH  10  27
ATOM     27  N   UNL d   1      11.364   4.340 -19.339  0.00  0.00    -0.123 NA
ATOM     28  C   UNL d   1      10.959   4.879 -18.177  0.00  0.00     0.296 C 
ATOM     29  O   UNL d   1       9.976   4.482 -17.549  0.00  0.00    -0.264 OA
BRANCH  28  30
ATOM     30  C   UNL d   1      11.824   6.008 -17.685  0.00  0.00     0.070 A 
ATOM     31  C   UNL d   1      12.097   6.208 -16.302  0.00  0.00     0.062 A 
ATOM     32  C   UNL d   1      12.905   7.288 -15.898  0.00  0.00     0.012 A 
ATOM     33 CL   UNL d   1      11.485   5.165 -15.062  0.00  0.00    -0.082 Cl
ATOM     34  C   UNL d   1      13.454   8.166 -16.846  0.00  0.00     0.001 A 
ATOM     35  C   UNL d   1      13.197   7.977 -18.211  0.00  0.00     0.000 A 
ATOM     36  C   UNL d   1      12.382   6.911 -18.626  0.00  0.00     0.006 A 
ENDBRANCH  28  30
ENDBRANCH  10  27
TORSDOF 5
