REMARK  1 active torsions:
REMARK  status: ('A' for Active; 'I' for Inactive)
REMARK       I    between atoms: C_2  and  N_4 
REMARK    1  A    between atoms: N_4  and  C_5 
ROOT
ATOM      1  C   UNL d   1      11.216   8.522  -6.292  0.00  0.00     0.085 A 
ATOM      2  C   UNL d   1      11.852   9.024  -7.441  0.00  0.00     0.021 A 
ATOM      3  C   UNL d   1      11.269   8.857  -8.711  0.00  0.00     0.029 A 
ATOM      4  C   UNL d   1      10.032   8.210  -8.839  0.00  0.00     0.131 A 
ATOM      5  O   UNL d   1       9.461   8.095 -10.077  0.00  0.00    -0.190 OA
ATOM      6  C   UNL d   1       9.384   7.708  -7.693  0.00  0.00     0.029 A 
ATOM      7  C   UNL d   1       9.979   7.855  -6.424  0.00  0.00     0.021 A 
ENDROOT
BRANCH   1   8
ATOM      8  N   UNL d   1      11.826   8.780  -5.038  0.00  0.00    -0.212 NA
ATOM      9  C   UNL d   1      11.863   7.978  -3.964  0.00  0.00     0.256 C 
ATOM     10  C   UNL d   1      12.491   8.568  -2.713  0.00  0.00     0.100 C 
ATOM     11  O   UNL d   1      11.453   6.816  -3.956  0.00  0.00    -0.270 OA
ENDBRANCH   1   8
TORSDOF 1
