REMARK  7 active torsions:
REMARK  status: ('A' for Active; 'I' for Inactive)
REMARK    1  A    between atoms: S_2  and  C_4 
REMARK    2  A    between atoms: S_2  and  C_23 
REMARK    3  A    between atoms: C_4  and  C_5 
REMARK    4  A    between atoms: N_8  and  C_9 
REMARK    5  A    between atoms: C_9  and  C_10 
REMARK    6  A    between atoms: C_10  and  C_11 
REMARK    7  A    between atoms: C_11  and  C_12 
ROOT
ATOM      1  C   UNL d   1       6.655   4.562 -12.751  0.00  0.00     0.052 C 
ATOM      2  C   UNL d   1       5.438   3.663 -12.518  0.00  0.00     0.038 C 
ATOM      3  C   UNL d   1       5.753   2.367 -13.260  0.00  0.00     0.250 C 
ATOM      4  N   UNL d   1       6.664   2.786 -14.316  0.00  0.00     0.137 N 
ATOM      5  C   UNL d   1       7.565   3.725 -13.659  0.00  0.00     0.251 C 
ENDROOT
BRANCH   4   6
ATOM      6  C   UNL d   1       7.382   1.659 -14.906  0.00  0.00     0.251 C 
BRANCH   6   7
ATOM      7  C   UNL d   1       6.596   1.110 -16.106  0.00  0.00     0.042 C 
BRANCH   7   8
ATOM      8  C   UNL d   1       7.409   0.085 -16.905  0.00  0.00     0.050 C 
BRANCH   8   9
ATOM      9  C   UNL d   1       6.755  -0.275 -18.209  0.00  0.00     0.088 A 
ATOM     10  C   UNL d   1       5.938  -1.371 -18.558  0.00  0.00     0.041 A 
ATOM     11  C   UNL d   1       5.593  -1.269 -19.906  0.00  0.00     0.129 A 
ATOM     12  C   UNL d   1       5.460  -2.458 -17.796  0.00  0.00     0.006 A 
ATOM     13  O   UNL d   1       6.204  -0.106 -20.349  0.00  0.00    -0.211 OA
ATOM     14  C   UNL d   1       4.785  -2.212 -20.557  0.00  0.00     0.057 A 
ATOM     15  N   UNL d   1       6.916   0.504 -19.278  0.00  0.00    -0.131 NA
ATOM     16  C   UNL d   1       4.299  -3.298 -19.798  0.00  0.00     0.142 A 
ATOM     17  F   UNL d   1       3.508  -4.227 -20.384  0.00  0.00    -0.204 F 
ATOM     18  C   UNL d   1       4.638  -3.418 -18.429  0.00  0.00     0.030 A 
ENDBRANCH   8   9
ENDBRANCH   7   8
ENDBRANCH   6   7
ENDBRANCH   4   6
BRANCH   1  19
ATOM     19  C   UNL d   1       7.335   5.012 -11.459  0.00  0.00     0.129 C 
BRANCH  19  20
ATOM     20  S   UNL d   1       8.846   6.032 -11.732  0.00  0.00     0.190 S 
ATOM     21  O   UNL d   1       9.869   5.195 -12.379  0.00  0.00    -0.222 OA
ATOM     22  O   UNL d   1       8.431   7.270 -12.411  0.00  0.00    -0.222 OA
BRANCH  20  23
ATOM     23  C   UNL d   1       9.415   6.433 -10.068  0.00  0.00     0.085 A 
ATOM     24  C   UNL d   1      10.579   7.204  -9.909  0.00  0.00     0.023 A 
ATOM     25  C   UNL d   1      11.051   7.514  -8.613  0.00  0.00     0.069 A 
ATOM     26  C   UNL d   1      10.337   7.082  -7.466  0.00  0.00     0.068 A 
ATOM     27 CL   UNL d   1      12.527   8.387  -8.440  0.00  0.00    -0.082 Cl
ATOM     28  C   UNL d   1       9.155   6.338  -7.637  0.00  0.00     0.013 A 
ATOM     29 CL   UNL d   1      10.881   7.449  -5.864  0.00  0.00    -0.082 Cl
ATOM     30  C   UNL d   1       8.714   5.987  -8.921  0.00  0.00     0.012 A 
ENDBRANCH  20  23
ENDBRANCH  19  20
ENDBRANCH   1  19
TORSDOF 7
