REMARK  5 active torsions:
REMARK  status: ('A' for Active; 'I' for Inactive)
REMARK    1  A    between atoms: C_2  and  C_3 
REMARK    2  A    between atoms: N_13  and  C_14 
REMARK    3  A    between atoms: C_14  and  C_15 
REMARK    4  A    between atoms: C_15  and  C_17 
REMARK    5  A    between atoms: C_17  and  N_18 
ROOT
ATOM      1  C   UNL d   1       8.385   0.320 -14.680  0.00  0.00     0.039 C 
ATOM      2  C   UNL d   1       8.786   1.767 -15.030  0.00  0.00     0.179 A 
ATOM      3  N   UNL d   1      10.231   1.902 -14.953  0.00  0.00    -0.209 NA
ATOM      4  C   UNL d   1      10.785   2.241 -16.123  0.00  0.00     0.348 A 
ATOM      5  O   UNL d   1      11.984   2.443 -16.305  0.00  0.00    -0.245 OA
ATOM      6  N   UNL d   1       9.813   2.324 -17.047  0.00  0.00    -0.247 N 
ATOM      7  C   UNL d   1       8.615   2.036 -16.519  0.00  0.00     0.265 A 
ATOM      8  O   UNL d   1       7.533   1.992 -17.104  0.00  0.00    -0.269 OA
ENDROOT
BRANCH   6   9
ATOM      9  C   UNL d   1      10.041   2.656 -18.458  0.00  0.00     0.148 C 
BRANCH   9  10
ATOM     10  C   UNL d   1      10.197   1.388 -19.338  0.00  0.00     0.208 C 
ATOM     11  O   UNL d   1      11.459   1.410 -19.967  0.00  0.00    -0.219 OA
BRANCH  10  12
ATOM     12  C   UNL d   1       9.128   1.312 -20.449  0.00  0.00     0.285 C 
BRANCH  12  13
ATOM     13  N   UNL d   1       7.771   1.009 -19.995  0.00  0.00     0.144 N 
ATOM     14  C   UNL d   1       7.683  -0.334 -19.407  0.00  0.00     0.277 C 
ATOM     15  C   UNL d   1       6.276  -0.738 -19.005  0.00  0.00     0.007 A 
ATOM     16  C   UNL d   1       5.157  -0.096 -19.580  0.00  0.00    -0.022 A 
ATOM     17  C   UNL d   1       6.092  -1.784 -18.079  0.00  0.00    -0.003 A 
ATOM     18  C   UNL d   1       5.357   1.054 -20.554  0.00  0.00     0.061 C 
ATOM     19  C   UNL d   1       3.859  -0.504 -19.221  0.00  0.00    -0.004 A 
ATOM     20  C   UNL d   1       6.800   1.126 -21.079  0.00  0.00     0.255 C 
ATOM     21  C   UNL d   1       3.679  -1.561 -18.307  0.00  0.00    -0.000 A 
ATOM     22  C   UNL d   1       4.792  -2.197 -17.730  0.00  0.00    -0.000 A 
ENDBRANCH  12  13
ENDBRANCH  10  12
ENDBRANCH   9  10
ENDBRANCH   6   9
BRANCH   2  23
ATOM     23  C   UNL d   1       8.017   2.824 -14.217  0.00  0.00     0.006 A 
ATOM     24  C   UNL d   1       6.618   2.698 -14.038  0.00  0.00     0.000 A 
ATOM     25  C   UNL d   1       5.897   3.645 -13.287  0.00  0.00     0.029 A 
ATOM     26  C   UNL d   1       6.559   4.749 -12.723  0.00  0.00     0.140 A 
ATOM     27  C   UNL d   1       7.947   4.896 -12.897  0.00  0.00     0.029 A 
ATOM     28  F   UNL d   1       5.858   5.678 -12.037  0.00  0.00    -0.204 F 
ATOM     29  C   UNL d   1       8.672   3.943 -13.641  0.00  0.00     0.000 A 
ENDBRANCH   2  23
TORSDOF 5
