REMARK  5 active torsions:
REMARK  status: ('A' for Active; 'I' for Inactive)
REMARK    1  A    between atoms: N_2  and  C_4 
REMARK    2  A    between atoms: C_4  and  C_5 
REMARK    3  A    between atoms: C_5  and  S_6 
REMARK    4  A    between atoms: S_6  and  C_7 
REMARK    5  A    between atoms: C_9  and  C_10 
ROOT
ATOM      1  C   UNL d   1       8.849   2.214 -14.620  0.00  0.00     0.136 A 
ATOM      2  N   UNL d   1       7.666   2.641 -14.186  0.00  0.00    -0.237 NA
ATOM      3  C   UNL d   1       7.734   3.791 -13.395  0.00  0.00     0.066 A 
ATOM      4  C   UNL d   1       9.022   4.264 -13.286  0.00  0.00     0.052 A 
ATOM      5  S   UNL d   1      10.173   3.258 -14.130  0.00  0.00    -0.060 SA
ENDROOT
BRANCH   1   6
ATOM      6  S   UNL d   1       9.132   0.723 -15.522  0.00  0.00    -0.086 SA
BRANCH   6   7
ATOM      7  C   UNL d   1       7.421   0.135 -15.698  0.00  0.00     0.100 C 
BRANCH   7   8
ATOM      8  C   UNL d   1       6.830  -0.384 -14.359  0.00  0.00     0.262 C 
BRANCH   8   9
ATOM      9  N   UNL d   1       5.414  -0.778 -14.421  0.00  0.00     0.142 N 
ATOM     10  C   UNL d   1       5.168  -1.866 -15.351  0.00  0.00     0.285 C 
ATOM     11  C   UNL d   1       4.540   0.343 -14.715  0.00  0.00     0.285 C 
ENDBRANCH   8   9
ENDBRANCH   7   8
ENDBRANCH   6   7
ENDBRANCH   1   6
BRANCH   3  12
ATOM     12  C   UNL d   1       6.483   4.321 -12.711  0.00  0.00     0.036 C 
ATOM     13  C   UNL d   1       6.689   5.787 -12.270  0.00  0.00     0.006 C 
ATOM     14  C   UNL d   1       6.128   3.498 -11.480  0.00  0.00     0.006 C 
ATOM     15  C   UNL d   1       5.271   4.219 -13.647  0.00  0.00     0.006 C 
ENDBRANCH   3  12
TORSDOF 5
