REMARK  7 active torsions:
REMARK  status: ('A' for Active; 'I' for Inactive)
REMARK    1  A    between atoms: C_2  and  C_3 
REMARK       I    between atoms: C_2  and  N_9 
REMARK    2  A    between atoms: N_9  and  C_10 
REMARK    3  A    between atoms: N_9  and  C_25 
REMARK    4  A    between atoms: C_10  and  C_11 
REMARK    5  A    between atoms: C_11  and  C_12 
REMARK    6  A    between atoms: C_12  and  N_13 
REMARK    7  A    between atoms: N_16  and  C_17 
ROOT
ATOM      1  C   UNL d   1       9.043   1.875 -15.856  0.00  0.00     0.107 C 
ENDROOT
BRANCH   1   2
ATOM      2  N   UNL d   1       8.155   0.876 -16.504  0.00  0.00    -0.314 N 
ATOM      3  C   UNL d   1       6.871   0.648 -16.085  0.00  0.00     0.257 C 
ATOM      4  O   UNL d   1       6.431   0.971 -14.984  0.00  0.00    -0.267 OA
BRANCH   3   5
ATOM      5  C   UNL d   1       5.909  -0.051 -17.000  0.00  0.00     0.056 A 
ATOM      6  C   UNL d   1       5.767   0.294 -18.369  0.00  0.00     0.005 A 
ATOM      7  C   UNL d   1       4.841  -0.372 -19.196  0.00  0.00     0.000 A 
ATOM      8  C   UNL d   1       4.002  -1.365 -18.641  0.00  0.00     0.000 A 
ATOM      9  C   UNL d   1       4.094  -1.675 -17.273  0.00  0.00     0.000 A 
ATOM     10  C   UNL d   1       5.038  -1.031 -16.460  0.00  0.00     0.005 A 
ENDBRANCH   3   5
BRANCH   2  11
ATOM     11  C   UNL d   1       8.778   0.136 -17.648  0.00  0.00     0.143 C 
ATOM     12  C   UNL d   1       9.901   0.853 -18.417  0.00  0.00     0.167 C 
ATOM     13  O   UNL d   1      10.895   0.183 -17.602  0.00  0.00    -0.350 OA
ATOM     14  C   UNL d   1       9.904  -0.808 -17.226  0.00  0.00     0.167 C 
ENDBRANCH   2  11
ENDBRANCH   1   2
BRANCH   1  15
ATOM     15  C   UNL d   1       8.563   2.595 -14.578  0.00  0.00     0.060 C 
BRANCH  15  16
ATOM     16  C   UNL d   1       9.203   3.976 -14.401  0.00  0.00     0.252 C 
BRANCH  16  17
ATOM     17  N   UNL d   1       8.735   4.534 -13.143  0.00  0.00     0.141 N 
ATOM     18  C   UNL d   1       9.543   3.994 -12.050  0.00  0.00     0.274 C 
ATOM     19  C   UNL d   1       9.095   4.564 -10.691  0.00  0.00     0.138 C 
ATOM     20  N   UNL d   1       9.133   6.013 -10.738  0.00  0.00    -0.330 N 
ATOM     21  C   UNL d   1       8.394   6.611 -11.838  0.00  0.00     0.138 C 
ATOM     22  C   UNL d   1       8.861   5.990 -13.168  0.00  0.00     0.274 C 
BRANCH  20  23
ATOM     23  C   UNL d   1       9.805   6.790  -9.770  0.00  0.00     0.140 A 
ATOM     24  N   UNL d   1      10.268   7.998 -10.170  0.00  0.00    -0.227 NA
ATOM     25  C   UNL d   1      10.912   8.770  -9.274  0.00  0.00     0.101 A 
ATOM     26  C   UNL d   1      11.136   8.382  -7.939  0.00  0.00     0.021 A 
ATOM     27  C   UNL d   1      10.658   7.128  -7.524  0.00  0.00     0.005 A 
ATOM     28  C   UNL d   1       9.978   6.317  -8.456  0.00  0.00     0.037 A 
ENDBRANCH  20  23
ENDBRANCH  16  17
ENDBRANCH  15  16
ENDBRANCH   1  15
TORSDOF 7
