REMARK  3 active torsions:
REMARK  status: ('A' for Active; 'I' for Inactive)
REMARK    1  A    between atoms: C_5  and  N_6 
REMARK    2  A    between atoms: C_9  and  S_10 
REMARK    3  A    between atoms: S_10  and  C_11 
ROOT
ATOM      1  S   UNL d   1       9.269   5.901 -12.662  0.00  0.00    -0.046 SA
ENDROOT
BRANCH   1   2
ATOM      2  C   UNL d   1       7.907   4.844 -13.030  0.00  0.00     0.134 A 
ATOM      3  N   UNL d   1       6.596   5.175 -12.696  0.00  0.00    -0.301 N 
ATOM      4  C   UNL d   1       6.136   6.388 -12.048  0.00  0.00     0.133 C 
ATOM      5  C   UNL d   1       5.850   4.131 -13.082  0.00  0.00     0.181 A 
ATOM      6  N   UNL d   1       6.529   3.153 -13.668  0.00  0.00    -0.201 NA
ATOM      7  C   UNL d   1       7.853   3.602 -13.636  0.00  0.00     0.231 A 
BRANCH   7   8
ATOM      8  N   UNL d   1       8.933   2.814 -14.164  0.00  0.00    -0.093 N 
ATOM      9  O   UNL d   1       8.654   1.730 -14.668  0.00  0.00    -0.530 OA
ATOM     10  O   UNL d   1      10.072   3.261 -14.091  0.00  0.00    -0.530 OA
ENDBRANCH   7   8
ENDBRANCH   1   2
BRANCH   1  11
ATOM     11  C   UNL d   1       9.253   5.897 -10.893  0.00  0.00     0.135 A 
ATOM     12  C   UNL d   1       9.715   6.987 -10.121  0.00  0.00     0.143 A 
ATOM     13  C   UNL d   1       9.575   6.819  -8.716  0.00  0.00     0.185 A 
ATOM     14  N   UNL d   1      10.262   8.223 -10.435  0.00  0.00    -0.219 NA
ATOM     15  N   UNL d   1       9.071   5.733  -8.072  0.00  0.00    -0.203 NA
ATOM     16  N   UNL d   1      10.087   7.983  -8.177  0.00  0.00    -0.203 NA
ATOM     17  C   UNL d   1       8.689   4.790  -8.942  0.00  0.00     0.201 A 
ATOM     18  N   UNL d   1       8.767   4.797 -10.276  0.00  0.00    -0.216 NA
ATOM     19  C   UNL d   1      10.456   8.745  -9.225  0.00  0.00     0.201 A 
ENDBRANCH   1  11
TORSDOF 3
