REMARK  6 active torsions:
REMARK  status: ('A' for Active; 'I' for Inactive)
REMARK       I    between atoms: C_2  and  N_3 
REMARK    1  A    between atoms: C_2  and  C_22 
REMARK    2  A    between atoms: N_3  and  C_4 
REMARK    3  A    between atoms: C_4  and  C_5 
REMARK    4  A    between atoms: C_5  and  C_6 
REMARK    5  A    between atoms: C_6  and  C_7 
REMARK    6  A    between atoms: C_7  and  N_8 
ROOT
ATOM      1  N   UNL d   1      10.511   3.351 -14.799  0.00  0.00     0.143 N 
ATOM      2  C   UNL d   1      11.566   3.733 -15.743  0.00  0.00     0.282 C 
ATOM      3  C   UNL d   1      12.031   2.555 -16.618  0.00  0.00     0.178 C 
ATOM      4  O   UNL d   1      10.913   1.982 -17.288  0.00  0.00    -0.348 OA
ATOM      5  C   UNL d   1       9.895   1.556 -16.385  0.00  0.00     0.173 C 
ATOM      6  C   UNL d   1       8.748   0.861 -17.099  0.00  0.00     0.029 A 
ATOM      7  C   UNL d   1       9.010  -0.003 -18.182  0.00  0.00     0.000 A 
ATOM      8  C   UNL d   1       7.940  -0.645 -18.843  0.00  0.00    -0.000 A 
ATOM      9  C   UNL d   1       6.614  -0.426 -18.425  0.00  0.00     0.002 A 
ATOM     10  C   UNL d   1       6.354   0.427 -17.339  0.00  0.00     0.024 A 
ATOM     11  C   UNL d   1       7.418   1.062 -16.663  0.00  0.00     0.092 A 
ATOM     12  O   UNL d   1       7.090   1.884 -15.615  0.00  0.00    -0.329 OA
ATOM     13  C   UNL d   1       8.151   2.331 -14.780  0.00  0.00     0.185 C 
ATOM     14  C   UNL d   1       9.399   2.771 -15.572  0.00  0.00     0.280 C 
ENDROOT
BRANCH   1  15
ATOM     15  C   UNL d   1      10.136   4.496 -13.970  0.00  0.00     0.251 C 
BRANCH  15  16
ATOM     16  C   UNL d   1       9.575   4.148 -12.581  0.00  0.00     0.037 C 
BRANCH  16  17
ATOM     17  C   UNL d   1       9.329   5.383 -11.720  0.00  0.00     0.029 C 
BRANCH  17  18
ATOM     18  C   UNL d   1       8.729   4.997 -10.372  0.00  0.00     0.129 C 
BRANCH  18  19
ATOM     19  N   UNL d   1       8.659   6.171  -9.514  0.00  0.00    -0.238 NA
ATOM     20  C   UNL d   1       9.397   6.357  -8.412  0.00  0.00     0.251 C 
ATOM     21  O   UNL d   1      10.246   5.553  -8.036  0.00  0.00    -0.271 OA
BRANCH  20  22
ATOM     22  C   UNL d   1       9.168   7.636  -7.612  0.00  0.00     0.081 C 
ATOM     23  C   UNL d   1       9.925   7.605  -6.272  0.00  0.00     0.009 C 
ATOM     24  C   UNL d   1      11.457   7.681  -6.433  0.00  0.00     0.001 C 
ATOM     25  C   UNL d   1      11.866   8.885  -7.304  0.00  0.00     0.000 C 
ATOM     26  C   UNL d   1      11.111   8.918  -8.651  0.00  0.00     0.001 C 
ATOM     27  C   UNL d   1       9.586   8.861  -8.441  0.00  0.00     0.009 C 
ENDBRANCH  20  22
ENDBRANCH  18  19
ENDBRANCH  17  18
ENDBRANCH  16  17
ENDBRANCH  15  16
ENDBRANCH   1  15
TORSDOF 6
