REMARK  7 active torsions:
REMARK  status: ('A' for Active; 'I' for Inactive)
REMARK    1  A    between atoms: C_2  and  C_4 
REMARK    2  A    between atoms: C_4  and  O_5 
REMARK    3  A    between atoms: O_5  and  C_6 
REMARK    4  A    between atoms: C_6  and  C_8 
REMARK    5  A    between atoms: C_8  and  C_9 
REMARK    6  A    between atoms: C_14  and  N_15 
REMARK    7  A    between atoms: N_15  and  C_16 
ROOT
ATOM      1  C   UNL d   1       8.734   3.671 -13.545  0.00  0.00     0.005 A 
ATOM      2  C   UNL d   1       8.478   4.808 -12.743  0.00  0.00    -0.002 A 
ATOM      3  C   UNL d   1       7.154   5.175 -12.432  0.00  0.00    -0.000 A 
ATOM      4  C   UNL d   1       6.079   4.410 -12.924  0.00  0.00     0.002 A 
ATOM      5  C   UNL d   1       6.328   3.290 -13.735  0.00  0.00     0.019 A 
ATOM      6  C   UNL d   1       7.654   2.899 -14.049  0.00  0.00     0.078 A 
ENDROOT
BRANCH   6   7
ATOM      7  N   UNL d   1       7.916   1.777 -14.856  0.00  0.00    -0.244 NA
BRANCH   7   8
ATOM      8  C   UNL d   1       6.982   1.034 -15.596  0.00  0.00     0.102 A 
ATOM      9  C   UNL d   1       7.057   1.036 -17.012  0.00  0.00     0.076 A 
ATOM     10  C   UNL d   1       6.128   0.308 -17.777  0.00  0.00     0.013 A 
ATOM     11 CL   UNL d   1       8.268   1.947 -17.844  0.00  0.00    -0.081 Cl
ATOM     12  C   UNL d   1       5.121  -0.440 -17.143  0.00  0.00     0.002 A 
ATOM     13  C   UNL d   1       5.046  -0.464 -15.739  0.00  0.00     0.013 A 
ATOM     14  C   UNL d   1       5.984   0.247 -14.966  0.00  0.00     0.076 A 
ATOM     15 CL   UNL d   1       5.881   0.112 -13.247  0.00  0.00    -0.081 Cl
ENDBRANCH   7   8
ENDBRANCH   6   7
BRANCH   1  16
ATOM     16  C   UNL d   1      10.184   3.311 -13.851  0.00  0.00     0.124 C 
BRANCH  16  17
ATOM     17  C   UNL d   1      10.643   3.849 -15.208  0.00  0.00     0.277 C 
ATOM     18  O   UNL d   1       9.848   4.110 -16.112  0.00  0.00    -0.264 OA
BRANCH  17  19
ATOM     19  O   UNL d   1      11.984   3.998 -15.283  0.00  0.00    -0.290 OA
BRANCH  19  20
ATOM     20  C   UNL d   1      12.595   4.494 -16.472  0.00  0.00     0.248 C 
BRANCH  20  21
ATOM     21  C   UNL d   1      12.290   5.988 -16.671  0.00  0.00     0.218 C 
ATOM     22  O   UNL d   1      11.626   6.417 -17.609  0.00  0.00    -0.645 OA
ATOM     23  O   UNL d   1      12.835   6.762 -15.686  0.00  0.00    -0.645 OA
ENDBRANCH  20  21
ENDBRANCH  19  20
ENDBRANCH  17  19
ENDBRANCH  16  17
ENDBRANCH   1  16
TORSDOF 7
