REMARK  8 active torsions:
REMARK  status: ('A' for Active; 'I' for Inactive)
REMARK       I    between atoms: C_2  and  N_4 
REMARK    1  A    between atoms: N_4  and  C_5 
REMARK    2  A    between atoms: C_5  and  C_6 
REMARK    3  A    between atoms: C_9  and  O_10 
REMARK    4  A    between atoms: O_10  and  C_11 
REMARK    5  A    between atoms: C_11  and  C_12 
REMARK    6  A    between atoms: C_12  and  C_13 
REMARK    7  A    between atoms: C_13  and  N_14 
REMARK    8  A    between atoms: C_17  and  C_18 
ROOT
ATOM      1  N   UNL d   1       7.734   4.362 -13.041  0.00  0.00     0.137 N 
ATOM      2  C   UNL d   1       6.503   3.553 -13.066  0.00  0.00     0.251 C 
ATOM      3  C   UNL d   1       6.339   2.829 -14.414  0.00  0.00     0.041 C 
ATOM      4  C   UNL d   1       7.579   2.002 -14.796  0.00  0.00     0.047 C 
ATOM      5  C   UNL d   1       8.847   2.843 -14.630  0.00  0.00     0.041 C 
ATOM      6  C   UNL d   1       8.927   3.528 -13.277  0.00  0.00     0.251 C 
ENDROOT
BRANCH   1   7
ATOM      7  C   UNL d   1       7.801   5.078 -11.758  0.00  0.00     0.253 C 
BRANCH   7   8
ATOM      8  C   UNL d   1       9.189   5.693 -11.485  0.00  0.00     0.068 C 
BRANCH   8   9
ATOM      9  C   UNL d   1       9.306   6.350 -10.121  0.00  0.00     0.151 C 
BRANCH   9  10
ATOM     10  O   UNL d   1      10.639   6.784  -9.966  0.00  0.00    -0.331 OA
BRANCH  10  11
ATOM     11  C   UNL d   1      10.930   7.529  -8.852  0.00  0.00     0.094 A 
ATOM     12  C   UNL d   1      12.242   8.021  -8.754  0.00  0.00     0.024 A 
ATOM     13  C   UNL d   1      12.630   8.791  -7.645  0.00  0.00    -0.000 A 
ATOM     14  C   UNL d   1      11.707   9.063  -6.616  0.00  0.00     0.002 A 
ATOM     15  C   UNL d   1      10.387   8.585  -6.719  0.00  0.00    -0.000 A 
ATOM     16  C   UNL d   1       9.998   7.811  -7.823  0.00  0.00     0.024 A 
BRANCH  14  17
ATOM     17  C   UNL d   1      12.132   9.894  -5.423  0.00  0.00     0.155 C 
BRANCH  17  18
ATOM     18  N   UNL d   1      11.647   9.405  -4.133  0.00  0.00    -0.233 NA
ATOM     19  C   UNL d   1      12.192   8.395  -3.448  0.00  0.00     0.252 C 
ATOM     20  C   UNL d   1      11.733   8.146  -2.035  0.00  0.00     0.100 C 
ATOM     21  O   UNL d   1      13.059   7.647  -3.891  0.00  0.00    -0.271 OA
ENDBRANCH  17  18
ENDBRANCH  14  17
ENDBRANCH  10  11
ENDBRANCH   9  10
ENDBRANCH   8   9
ENDBRANCH   7   8
ENDBRANCH   1   7
BRANCH   4  22
ATOM     22  C   UNL d   1       7.490   1.438 -16.209  0.00  0.00     0.087 A 
ATOM     23  C   UNL d   1       6.743   0.356 -16.712  0.00  0.00     0.041 A 
ATOM     24  C   UNL d   1       6.970   0.248 -18.090  0.00  0.00     0.129 A 
ATOM     25  C   UNL d   1       5.842  -0.528 -16.081  0.00  0.00     0.006 A 
ATOM     26  O   UNL d   1       7.831   1.274 -18.411  0.00  0.00    -0.211 OA
ATOM     27  C   UNL d   1       6.369  -0.728 -18.885  0.00  0.00     0.057 A 
ATOM     28  N   UNL d   1       8.117   2.027 -17.237  0.00  0.00    -0.131 NA
ATOM     29  C   UNL d   1       5.480  -1.621 -18.256  0.00  0.00     0.142 A 
ATOM     30  F   UNL d   1       4.889  -2.588 -18.995  0.00  0.00    -0.204 F 
ATOM     31  C   UNL d   1       5.210  -1.518 -16.868  0.00  0.00     0.030 A 
ENDBRANCH   4  22
TORSDOF 8
