REMARK  6 active torsions:
REMARK  status: ('A' for Active; 'I' for Inactive)
REMARK    1  A    between atoms: O_2  and  C_3 
REMARK    2  A    between atoms: C_15  and  O_16 
REMARK    3  A    between atoms: O_16  and  C_17 
REMARK    4  A    between atoms: C_17  and  C_18 
REMARK    5  A    between atoms: C_18  and  C_19 
REMARK    6  A    between atoms: C_21  and  O_22 
ROOT
ATOM      1  C   UNL d   1      12.134   7.930  -3.595  0.00  0.00     0.119 A 
ATOM      2  C   UNL d   1      12.387   8.877  -4.593  0.00  0.00     0.022 A 
ATOM      3  C   UNL d   1      11.786   8.715  -5.853  0.00  0.00    -0.020 A 
ATOM      4  C   UNL d   1      10.909   7.640  -6.137  0.00  0.00     0.007 A 
ATOM      5  C   UNL d   1      10.620   6.749  -5.104  0.00  0.00     0.027 A 
ATOM      6  C   UNL d   1      11.240   6.900  -3.846  0.00  0.00     0.153 A 
ATOM      7  O   UNL d   1      10.776   6.389  -2.688  0.00  0.00    -0.188 OA
ATOM      8  C   UNL d   1      10.266   7.498  -7.521  0.00  0.00     0.246 C 
ATOM      9  C   UNL d   1      10.265   6.049  -8.019  0.00  0.00     0.064 C 
ATOM     10  C   UNL d   1       9.780   5.917  -9.446  0.00  0.00    -0.020 A 
ATOM     11  C   UNL d   1       9.448   4.659  -9.950  0.00  0.00    -0.002 A 
ATOM     12  C   UNL d   1       9.047   4.529 -11.287  0.00  0.00     0.026 A 
ATOM     13  C   UNL d   1       8.925   5.638 -12.143  0.00  0.00     0.116 A 
ATOM     14  C   UNL d   1       9.249   6.909 -11.620  0.00  0.00     0.114 A 
ATOM     15  C   UNL d   1       9.709   7.038 -10.289  0.00  0.00     0.031 A 
ATOM     16  C   UNL d   1      10.102   8.373  -9.714  0.00  0.00     0.279 C 
ATOM     17  N   UNL d   1      10.984   8.257  -8.557  0.00  0.00     0.144 N 
ATOM     18  C   UNL d   1      11.114   9.595  -8.056  0.00  0.00     0.256 C 
ATOM     19  C   UNL d   1      12.163   9.654  -6.951  0.00  0.00     0.061 C 
ENDROOT
BRANCH  13  20
ATOM     20  O   UNL d   1       8.502   5.536 -13.456  0.00  0.00    -0.329 OA
BRANCH  20  21
ATOM     21  C   UNL d   1       8.289   4.250 -14.068  0.00  0.00     0.152 C 
BRANCH  21  22
ATOM     22  C   UNL d   1       9.310   4.047 -15.202  0.00  0.00     0.068 C 
BRANCH  22  23
ATOM     23  C   UNL d   1       9.367   2.576 -15.663  0.00  0.00     0.185 C 
ATOM     24  O   UNL d   1       8.116   2.163 -16.174  0.00  0.00    -0.221 OA
ENDBRANCH  22  23
ENDBRANCH  21  22
ENDBRANCH  20  21
ENDBRANCH  13  20
BRANCH  14  25
ATOM     25  O   UNL d   1       9.149   7.993 -12.444  0.00  0.00    -0.326 OA
ATOM     26  C   UNL d   1       8.144   8.930 -12.092  0.00  0.00     0.181 C 
ENDBRANCH  14  25
BRANCH   1  27
ATOM     27  O   UNL d   1      12.565   7.981  -2.295  0.00  0.00    -0.326 OA
ATOM     28  C   UNL d   1      13.015   9.193  -1.821  0.00  0.00     0.181 C 
ENDBRANCH   1  27
TORSDOF 6
