REMARK  6 active torsions:
REMARK  status: ('A' for Active; 'I' for Inactive)
REMARK       I    between atoms: C_2  and  N_3 
REMARK    1  A    between atoms: C_2  and  C_30 
REMARK    2  A    between atoms: N_3  and  C_4 
REMARK    3  A    between atoms: C_10  and  C_11 
REMARK    4  A    between atoms: C_11  and  C_12 
REMARK    5  A    between atoms: C_12  and  N_13 
REMARK    6  A    between atoms: N_16  and  C_17 
ROOT
ATOM      1  C   UNL d   1       8.445   4.726 -11.960  0.00  0.00     0.062 C 
ENDROOT
BRANCH   1   2
ATOM      2  C   UNL d   1       8.846   4.239 -13.340  0.00  0.00    -0.020 A 
ATOM      3  C   UNL d   1       8.892   5.162 -14.370  0.00  0.00    -0.005 A 
ATOM      4  C   UNL d   1       9.301   4.814 -15.678  0.00  0.00    -0.005 A 
ATOM      5  C   UNL d   1       9.569   3.449 -15.941  0.00  0.00    -0.024 A 
ATOM      6  C   UNL d   1       9.836   2.802 -17.280  0.00  0.00     0.028 C 
ATOM      7  C   UNL d   1       9.496   2.519 -14.918  0.00  0.00    -0.004 A 
ATOM      8  C   UNL d   1       9.802   1.280 -16.970  0.00  0.00     0.034 C 
ATOM      9  C   UNL d   1       9.721   1.125 -15.423  0.00  0.00     0.129 C 
ATOM     10  C   UNL d   1       9.157   2.885 -13.624  0.00  0.00    -0.007 A 
BRANCH   9  11
ATOM     11  N   UNL d   1       8.684   0.208 -14.960  0.00  0.00    -0.235 NA
ATOM     12  C   UNL d   1       7.357   0.329 -15.140  0.00  0.00     0.251 C 
ATOM     13  O   UNL d   1       6.848   1.202 -15.843  0.00  0.00    -0.271 OA
BRANCH  12  14
ATOM     14  C   UNL d   1       6.540  -0.696 -14.425  0.00  0.00     0.081 A 
ATOM     15  C   UNL d   1       5.064  -0.395 -14.261  0.00  0.00     0.010 A 
ATOM     16  C   UNL d   1       5.512  -1.454 -15.240  0.00  0.00     0.010 A 
ENDBRANCH  12  14
ENDBRANCH   9  11
ENDBRANCH   1   2
BRANCH   1  17
ATOM     17  C   UNL d   1       9.661   4.960 -11.083  0.00  0.00     0.255 C 
BRANCH  17  18
ATOM     18  N   UNL d   1       9.285   5.521  -9.786  0.00  0.00     0.141 N 
ATOM     19  C   UNL d   1      10.392   5.322  -8.877  0.00  0.00     0.274 C 
ATOM     20  C   UNL d   1      10.166   5.847  -7.472  0.00  0.00     0.138 C 
ATOM     21  N   UNL d   1       9.938   7.268  -7.527  0.00  0.00    -0.329 N 
ATOM     22  C   UNL d   1       8.903   7.579  -8.487  0.00  0.00     0.138 C 
ATOM     23  C   UNL d   1       9.234   6.983  -9.885  0.00  0.00     0.274 C 
BRANCH  21  24
ATOM     24  C   UNL d   1      10.557   8.225  -6.706  0.00  0.00     0.148 A 
ATOM     25  C   UNL d   1      11.085   7.941  -5.380  0.00  0.00     0.042 A 
ATOM     26  C   UNL d   1      11.675   9.121  -4.845  0.00  0.00     0.050 A 
ATOM     27  C   UNL d   1      11.128   6.791  -4.546  0.00  0.00     0.004 A 
ATOM     28  S   UNL d   1      11.482  10.392  -6.032  0.00  0.00     0.015 SA
ATOM     29  C   UNL d   1      12.279   9.158  -3.570  0.00  0.00     0.008 A 
ATOM     30  N   UNL d   1      10.688   9.453  -7.159  0.00  0.00    -0.192 NA
ATOM     31  C   UNL d   1      12.328   7.990  -2.790  0.00  0.00     0.001 A 
ATOM     32  C   UNL d   1      11.763   6.806  -3.283  0.00  0.00     0.000 A 
ENDBRANCH  21  24
ENDBRANCH  17  18
ENDBRANCH   1  17
TORSDOF 6
