REMARK  7 active torsions:
REMARK  status: ('A' for Active; 'I' for Inactive)
REMARK       I    between atoms: C_2  and  N_3 
REMARK    1  A    between atoms: C_2  and  C_23 
REMARK    2  A    between atoms: N_3  and  C_4 
REMARK    3  A    between atoms: C_4  and  C_5 
REMARK    4  A    between atoms: C_5  and  C_6 
REMARK    5  A    between atoms: C_6  and  C_7 
REMARK    6  A    between atoms: C_7  and  N_8 
REMARK    7  A    between atoms: C_26  and  C_27 
ROOT
ATOM      1  C   UNL d   1       8.093   4.832 -12.296  0.00  0.00     0.029 C 
ENDROOT
BRANCH   1   2
ATOM      2  C   UNL d   1       9.364   5.667 -12.153  0.00  0.00     0.129 C 
BRANCH   2   3
ATOM      3  N   UNL d   1       9.553   6.136 -10.783  0.00  0.00    -0.234 NA
ATOM      4  C   UNL d   1       9.850   7.392 -10.424  0.00  0.00     0.275 C 
ATOM      5  O   UNL d   1       9.874   8.347 -11.205  0.00  0.00    -0.266 OA
BRANCH   4   6
ATOM      6  C   UNL d   1      10.273   7.563  -8.992  0.00  0.00     0.058 A 
ATOM      7  C   UNL d   1       9.665   6.810  -7.963  0.00  0.00     0.005 A 
ATOM      8  C   UNL d   1      10.061   6.989  -6.627  0.00  0.00     0.000 A 
ATOM      9  C   UNL d   1      11.051   7.931  -6.283  0.00  0.00     0.000 A 
ATOM     10  C   UNL d   1      11.646   8.696  -7.312  0.00  0.00     0.000 A 
ATOM     11  C   UNL d   1      11.257   8.514  -8.657  0.00  0.00     0.005 A 
BRANCH   9  12
ATOM     12  C   UNL d   1      11.463   8.101  -4.882  0.00  0.00     0.000 A 
ATOM     13  C   UNL d   1      11.483   9.385  -4.298  0.00  0.00     0.000 A 
ATOM     14  C   UNL d   1      11.882   9.548  -2.956  0.00  0.00     0.000 A 
ATOM     15  C   UNL d   1      12.268   8.435  -2.191  0.00  0.00     0.000 A 
ATOM     16  C   UNL d   1      12.253   7.151  -2.762  0.00  0.00     0.000 A 
ATOM     17  C   UNL d   1      11.853   6.990  -4.101  0.00  0.00     0.000 A 
ENDBRANCH   9  12
ENDBRANCH   4   6
ENDBRANCH   2   3
ENDBRANCH   1   2
BRANCH   1  18
ATOM     18  C   UNL d   1       7.860   4.380 -13.762  0.00  0.00     0.037 C 
BRANCH  18  19
ATOM     19  C   UNL d   1       8.014   2.859 -13.908  0.00  0.00     0.250 C 
BRANCH  19  20
ATOM     20  N   UNL d   1       7.851   2.382 -15.288  0.00  0.00     0.135 N 
ATOM     21  C   UNL d   1       7.360   1.000 -15.435  0.00  0.00     0.224 C 
ATOM     22  C   UNL d   1       7.137   0.721 -16.962  0.00  0.00     0.053 C 
ATOM     23  C   UNL d   1       6.053   0.698 -14.662  0.00  0.00     0.038 C 
ATOM     24  C   UNL d   1       8.502   0.791 -17.682  0.00  0.00     0.008 C 
ATOM     25  C   UNL d   1       6.358  -0.565 -17.262  0.00  0.00    -0.024 A 
ATOM     26  C   UNL d   1       9.114   2.174 -17.446  0.00  0.00     0.036 C 
ATOM     27  C   UNL d   1       9.168   2.506 -15.943  0.00  0.00     0.250 C 
ATOM     28  C   UNL d   1       5.654  -1.228 -16.230  0.00  0.00    -0.024 A 
ATOM     29  C   UNL d   1       6.309  -1.098 -18.573  0.00  0.00    -0.002 A 
ATOM     30  C   UNL d   1       4.973  -2.426 -16.499  0.00  0.00     0.023 A 
ATOM     31  C   UNL d   1       5.659  -0.754 -14.796  0.00  0.00     0.028 C 
ATOM     32  C   UNL d   1       4.950  -2.964 -17.802  0.00  0.00     0.131 A 
ATOM     33  C   UNL d   1       5.617  -2.297 -18.834  0.00  0.00     0.027 A 
ATOM     34  O   UNL d   1       4.261  -4.130 -18.042  0.00  0.00    -0.190 OA
ENDBRANCH  19  20
ENDBRANCH  18  19
ENDBRANCH   1  18
TORSDOF 7
