REMARK  3 active torsions:
REMARK  status: ('A' for Active; 'I' for Inactive)
REMARK    1  A    between atoms: N_5  and  C_6 
REMARK    2  A    between atoms: N_15  and  N_16 
REMARK       I    between atoms: N_16  and  C_17 
REMARK    3  A    between atoms: C_17  and  C_19 
ROOT
ATOM      1  C   UNL d   1       7.897   2.300 -14.324  0.00  0.00     0.142 C 
ATOM      2  N   UNL d   1       9.071   2.212 -14.863  0.00  0.00    -0.227 NA
ATOM      3  C   UNL d   1       9.937   3.294 -15.036  0.00  0.00     0.101 C 
ATOM      4  C   UNL d   1      10.776   3.250 -16.176  0.00  0.00     0.032 C 
ATOM      5  C   UNL d   1      11.717   4.269 -16.448  0.00  0.00     0.059 C 
ATOM      6 CL   UNL d   1      12.744   4.191 -17.840  0.00  0.00    -0.082 Cl
ATOM      7  C   UNL d   1      11.778   5.392 -15.604  0.00  0.00     0.013 C 
ATOM      8  C   UNL d   1      10.863   5.501 -14.543  0.00  0.00     0.022 C 
ATOM      9  C   UNL d   1      10.043   4.433 -14.164  0.00  0.00     0.101 C 
ATOM     10  N   UNL d   1       9.192   4.660 -13.070  0.00  0.00    -0.225 N 
ATOM     11  C   UNL d   1       7.839   4.697 -13.256  0.00  0.00     0.086 A 
ATOM     12  C   UNL d   1       7.066   5.786 -12.773  0.00  0.00     0.019 A 
ATOM     13  C   UNL d   1       5.680   5.742 -12.832  0.00  0.00     0.002 A 
ATOM     14  C   UNL d   1       5.081   4.664 -13.507  0.00  0.00     0.000 A 
ATOM     15  C   UNL d   1       5.866   3.625 -14.028  0.00  0.00     0.004 A 
ATOM     16  C   UNL d   1       7.231   3.588 -13.884  0.00  0.00     0.051 A 
ENDROOT
BRANCH  10  17
ATOM     17  N   UNL d   1       9.667   5.097 -11.810  0.00  0.00    -0.123 NA
ATOM     18  C   UNL d   1       9.001   5.069 -10.635  0.00  0.00     0.295 C 
ATOM     19  O   UNL d   1       7.989   4.404 -10.389  0.00  0.00    -0.264 OA
BRANCH  18  20
ATOM     20  C   UNL d   1       9.550   5.959  -9.557  0.00  0.00     0.062 A 
ATOM     21  C   UNL d   1      10.295   7.113  -9.878  0.00  0.00     0.035 A 
ATOM     22  C   UNL d   1      10.762   7.952  -8.840  0.00  0.00     0.140 A 
ATOM     23  C   UNL d   1      10.452   7.649  -7.506  0.00  0.00     0.030 A 
ATOM     24  F   UNL d   1      11.500   9.044  -9.146  0.00  0.00    -0.204 F 
ATOM     25  C   UNL d   1       9.657   6.533  -7.194  0.00  0.00     0.003 A 
ATOM     26  C   UNL d   1       9.205   5.688  -8.232  0.00  0.00     0.005 A 
ENDBRANCH  18  20
ENDBRANCH  10  17
BRANCH   1  27
ATOM     27  N   UNL d   1       7.128   1.148 -14.090  0.00  0.00    -0.330 N 
ATOM     28  C   UNL d   1       6.220   0.885 -12.946  0.00  0.00     0.138 C 
ATOM     29  C   UNL d   1       4.889   0.379 -13.373  0.00  0.00     0.274 C 
ATOM     30  N   UNL d   1       5.078  -0.853 -14.096  0.00  0.00     0.143 N 
ATOM     31  C   UNL d   1       3.763  -1.287 -14.513  0.00  0.00     0.286 C 
ATOM     32  C   UNL d   1       5.913  -0.616 -15.272  0.00  0.00     0.274 C 
ATOM     33  C   UNL d   1       7.293  -0.067 -14.848  0.00  0.00     0.138 C 
ENDBRANCH   1  27
TORSDOF 3
