REMARK  7 active torsions:
REMARK  status: ('A' for Active; 'I' for Inactive)
REMARK    1  A    between atoms: O_2  and  C_3 
REMARK    2  A    between atoms: C_3  and  C_4 
REMARK    3  A    between atoms: C_4  and  S_5 
REMARK    4  A    between atoms: S_5  and  N_8 
REMARK    5  A    between atoms: C_12  and  C_13 
REMARK    6  A    between atoms: C_16  and  C_17 
REMARK    7  A    between atoms: C_24  and  N_25 
ROOT
ATOM      1  N   UNL d   1      11.350   0.683 -18.263  0.00  0.00    -0.218 N 
ATOM      2  C   UNL d   1      12.097   1.503 -17.429  0.00  0.00     0.093 A 
ATOM      3  C   UNL d   1      11.287   2.115 -16.512  0.00  0.00     0.023 A 
ATOM      4  C   UNL d   1       9.950   1.661 -16.783  0.00  0.00     0.037 A 
ATOM      5  C   UNL d   1       8.659   1.903 -16.240  0.00  0.00     0.006 A 
ATOM      6  C   UNL d   1       7.563   1.233 -16.835  0.00  0.00     0.037 A 
ATOM      7  C   UNL d   1       7.742   0.317 -17.897  0.00  0.00     0.142 A 
ATOM      8  N   UNL d   1       8.966   0.068 -18.421  0.00  0.00    -0.211 NA
ATOM      9  C   UNL d   1      10.016   0.747 -17.874  0.00  0.00     0.158 A 
ENDROOT
BRANCH   5  10
ATOM     10  C   UNL d   1       8.431   2.834 -15.113  0.00  0.00     0.000 A 
ATOM     11  C   UNL d   1       7.295   2.707 -14.269  0.00  0.00    -0.000 A 
ATOM     12  C   UNL d   1       7.061   3.622 -13.221  0.00  0.00     0.004 A 
ATOM     13  C   UNL d   1       7.987   4.654 -12.969  0.00  0.00     0.071 A 
ATOM     14  C   UNL d   1       9.111   4.795 -13.799  0.00  0.00     0.004 A 
ATOM     15  C   UNL d   1       9.305   3.922 -14.881  0.00  0.00    -0.000 A 
BRANCH  13  16
ATOM     16  C   UNL d   1       7.781   5.621 -11.819  0.00  0.00     0.419 C 
ATOM     17  F   UNL d   1       6.479   5.886 -11.682  0.00  0.00    -0.166 F 
ATOM     18  F   UNL d   1       8.254   5.067 -10.699  0.00  0.00    -0.166 F 
ATOM     19  F   UNL d   1       8.433   6.765 -12.045  0.00  0.00    -0.166 F 
ENDBRANCH  13  16
ENDBRANCH   5  10
BRANCH   7  20
ATOM     20  N   UNL d   1       6.656  -0.348 -18.476  0.00  0.00    -0.330 N 
ATOM     21  C   UNL d   1       6.739  -1.020 -19.779  0.00  0.00     0.138 C 
ATOM     22  C   UNL d   1       6.279  -2.483 -19.657  0.00  0.00     0.274 C 
ATOM     23  N   UNL d   1       4.926  -2.541 -19.098  0.00  0.00     0.143 N 
ATOM     24  C   UNL d   1       4.935  -1.962 -17.753  0.00  0.00     0.274 C 
ATOM     25  C   UNL d   1       4.491  -3.931 -19.008  0.00  0.00     0.286 C 
ATOM     26  C   UNL d   1       5.353  -0.486 -17.817  0.00  0.00     0.138 C 
ENDBRANCH   7  20
BRANCH   1  27
ATOM     27  S   UNL d   1      12.034  -0.285 -19.519  0.00  0.00     0.254 S 
ATOM     28  O   UNL d   1      10.926  -0.808 -20.331  0.00  0.00    -0.204 OA
ATOM     29  O   UNL d   1      12.982  -1.182 -18.840  0.00  0.00    -0.204 OA
BRANCH  27  30
ATOM     30  C   UNL d   1      12.924   1.002 -20.494  0.00  0.00     0.177 C 
BRANCH  30  31
ATOM     31  C   UNL d   1      14.391   1.197 -20.078  0.00  0.00     0.162 C 
BRANCH  31  32
ATOM     32  O   UNL d   1      15.123   0.009 -20.305  0.00  0.00    -0.350 OA
ATOM     33  C   UNL d   1      16.474   0.129 -19.902  0.00  0.00     0.174 C 
ENDBRANCH  31  32
ENDBRANCH  30  31
ENDBRANCH  27  30
ENDBRANCH   1  27
TORSDOF 7
