REMARK  8 active torsions:
REMARK  status: ('A' for Active; 'I' for Inactive)
REMARK    1  A    between atoms: C_2  and  C_3 
REMARK    2  A    between atoms: C_3  and  C_4 
REMARK    3  A    between atoms: C_4  and  C_5 
REMARK       I    between atoms: C_5  and  N_7 
REMARK    4  A    between atoms: N_7  and  C_8 
REMARK    5  A    between atoms: C_11  and  C_12 
REMARK    6  A    between atoms: C_12  and  C_13 
REMARK    7  A    between atoms: C_13  and  N_14 
REMARK    8  A    between atoms: C_17  and  C_18 
ROOT
ATOM      1  N   UNL d   1       8.818   5.750 -12.131  0.00  0.00     0.137 N 
ATOM      2  C   UNL d   1       7.480   5.632 -12.714  0.00  0.00     0.251 C 
ATOM      3  C   UNL d   1       7.550   4.791 -13.997  0.00  0.00     0.040 C 
ATOM      4  C   UNL d   1       8.113   3.406 -13.731  0.00  0.00     0.028 C 
ATOM      5  C   UNL d   1       9.428   3.541 -12.972  0.00  0.00     0.040 C 
ATOM      6  C   UNL d   1       9.261   4.414 -11.729  0.00  0.00     0.251 C 
ENDROOT
BRANCH   1   7
ATOM      7  C   UNL d   1       8.711   6.629 -10.974  0.00  0.00     0.250 C 
BRANCH   7   8
ATOM      8  C   UNL d   1      10.070   6.939 -10.340  0.00  0.00     0.035 C 
BRANCH   8   9
ATOM      9  C   UNL d   1      10.044   7.941  -9.188  0.00  0.00     0.002 C 
ATOM     10  C   UNL d   1       9.278   7.342  -7.999  0.00  0.00     0.002 C 
ATOM     11  C   UNL d   1       9.242   8.314  -6.829  0.00  0.00     0.024 C 
ATOM     12  C   UNL d   1      10.681   8.640  -6.413  0.00  0.00     0.106 C 
ATOM     13  C   UNL d   1      11.489   9.245  -7.564  0.00  0.00     0.024 C 
ATOM     14  C   UNL d   1      11.485   8.315  -8.779  0.00  0.00     0.002 C 
BRANCH  12  15
ATOM     15  N   UNL d   1      10.677   9.573  -5.304  0.00  0.00    -0.240 NA
ATOM     16  C   UNL d   1      11.536   9.561  -4.292  0.00  0.00     0.251 C 
ATOM     17  O   UNL d   1      11.451  10.378  -3.401  0.00  0.00    -0.271 OA
BRANCH  16  18
ATOM     18  C   UNL d   1      12.612   8.487  -4.241  0.00  0.00     0.090 C 
BRANCH  18  19
ATOM     19  C   UNL d   1      13.055   8.110  -2.812  0.00  0.00     0.010 C 
BRANCH  19  20
ATOM     20  C   UNL d   1      11.909   7.803  -1.851  0.00  0.00     0.001 C 
ATOM     21  C   UNL d   1      11.288   6.424  -2.032  0.00  0.00     0.000 C 
ENDBRANCH  19  20
ENDBRANCH  18  19
ENDBRANCH  16  18
ENDBRANCH  12  15
ENDBRANCH   8   9
ENDBRANCH   7   8
ENDBRANCH   1   7
BRANCH   4  22
ATOM     22  C   UNL d   1       8.309   2.627 -15.010  0.00  0.00     0.004 A 
ATOM     23  C   UNL d   1       7.487   1.568 -15.523  0.00  0.00     0.021 A 
ATOM     24  C   UNL d   1       8.069   1.188 -16.756  0.00  0.00     0.100 A 
ATOM     25  C   UNL d   1       6.315   0.883 -15.122  0.00  0.00     0.002 A 
ATOM     26  O   UNL d   1       9.191   1.954 -16.996  0.00  0.00    -0.305 OA
ATOM     27  C   UNL d   1       7.540   0.185 -17.579  0.00  0.00     0.025 A 
ATOM     28  C   UNL d   1       9.314   2.800 -15.934  0.00  0.00     0.118 A 
ATOM     29  C   UNL d   1       6.370  -0.477 -17.160  0.00  0.00     0.002 A 
ATOM     30  C   UNL d   1       5.761  -0.128 -15.937  0.00  0.00     0.000 A 
ENDBRANCH   4  22
TORSDOF 8
