REMARK  2 active torsions:
REMARK  status: ('A' for Active; 'I' for Inactive)
REMARK    1  A    between atoms: N_2  and  C_4 
REMARK    2  A    between atoms: C_4  and  C_5 
ROOT
ATOM      1  C   UNL d   1      10.182   2.687 -16.457  0.00  0.00     0.149 C 
ATOM      2  C   UNL d   1      10.300   2.099 -15.059  0.00  0.00     0.039 C 
ATOM      3  C   UNL d   1       9.017   1.289 -14.954  0.00  0.00     0.057 C 
ATOM      4  C   UNL d   1       7.805   2.028 -14.365  0.00  0.00    -0.014 A 
ATOM      5  C   UNL d   1       7.827   3.405 -14.039  0.00  0.00    -0.004 A 
ATOM      6  C   UNL d   1       6.723   4.008 -13.402  0.00  0.00    -0.000 A 
ATOM      7  C   UNL d   1       5.582   3.250 -13.080  0.00  0.00     0.001 A 
ATOM      8  C   UNL d   1       5.550   1.878 -13.382  0.00  0.00     0.006 A 
ATOM      9  C   UNL d   1       6.644   1.284 -14.040  0.00  0.00     0.025 A 
ATOM     10  S   UNL d   1       6.520  -0.390 -14.524  0.00  0.00    -0.087 SA
ATOM     11  C   UNL d   1       6.390  -0.074 -16.250  0.00  0.00     0.028 A 
ATOM     12  C   UNL d   1       5.158  -0.342 -16.875  0.00  0.00     0.009 A 
ATOM     13  C   UNL d   1       4.965  -0.026 -18.229  0.00  0.00     0.030 A 
ATOM     14  C   UNL d   1       6.008   0.560 -18.964  0.00  0.00     0.140 A 
ATOM     15  F   UNL d   1       5.819   0.890 -20.262  0.00  0.00    -0.204 F 
ATOM     16  C   UNL d   1       7.250   0.808 -18.351  0.00  0.00     0.028 A 
ATOM     17  C   UNL d   1       7.465   0.506 -16.986  0.00  0.00     0.013 A 
ATOM     18  C   UNL d   1       8.866   0.738 -16.397  0.00  0.00     0.142 C 
ATOM     19  O   UNL d   1       9.672   1.597 -17.215  0.00  0.00    -0.352 OA
ENDROOT
BRANCH   1  20
ATOM     20  C   UNL d   1      11.519   3.186 -17.040  0.00  0.00     0.280 C 
BRANCH  20  21
ATOM     21  N   UNL d   1      12.078   4.392 -16.416  0.00  0.00     0.144 N 
ATOM     22  C   UNL d   1      11.217   5.563 -16.586  0.00  0.00     0.286 C 
ATOM     23  C   UNL d   1      13.408   4.673 -16.945  0.00  0.00     0.286 C 
ENDBRANCH  20  21
ENDBRANCH   1  20
TORSDOF 2
