REMARK  6 active torsions:
REMARK  status: ('A' for Active; 'I' for Inactive)
REMARK    1  A    between atoms: C_2  and  C_3 
REMARK    2  A    between atoms: N_13  and  C_14 
REMARK    3  A    between atoms: C_14  and  C_15 
REMARK    4  A    between atoms: C_15  and  C_17 
REMARK    5  A    between atoms: C_17  and  N_18 
REMARK       I    between atoms: N_21  and  C_22 
REMARK    6  A    between atoms: C_22  and  C_24 
ROOT
ATOM      1  C   UNL d   1       8.805   5.706 -11.196  0.00  0.00     0.208 C 
ATOM      2  O   UNL d   1       7.862   5.201 -10.300  0.00  0.00    -0.219 OA
ENDROOT
BRANCH   1   3
ATOM      3  C   UNL d   1      10.090   6.030 -10.422  0.00  0.00     0.148 C 
BRANCH   3   4
ATOM      4  N   UNL d   1       9.997   7.019  -9.366  0.00  0.00    -0.247 N 
ATOM      5  C   UNL d   1      10.341   8.321  -9.497  0.00  0.00     0.348 A 
ATOM      6  N   UNL d   1      10.146   8.916  -8.310  0.00  0.00    -0.209 NA
ATOM      7  O   UNL d   1      10.780   8.869 -10.487  0.00  0.00    -0.245 OA
ATOM      8  C   UNL d   1       9.779   7.979  -7.278  0.00  0.00     0.179 A 
ATOM      9  C   UNL d   1       8.417   8.269  -6.739  0.00  0.00     0.039 C 
ATOM     10  C   UNL d   1       9.703   6.709  -8.120  0.00  0.00     0.265 A 
ATOM     11  O   UNL d   1       9.351   5.592  -7.715  0.00  0.00    -0.269 OA
BRANCH   8  12
ATOM     12  C   UNL d   1      10.740   7.972  -6.119  0.00  0.00     0.006 A 
ATOM     13  C   UNL d   1      11.598   9.063  -5.837  0.00  0.00     0.000 A 
ATOM     14  C   UNL d   1      12.440   8.989  -4.705  0.00  0.00     0.029 A 
ATOM     15  C   UNL d   1      12.441   7.821  -3.903  0.00  0.00     0.140 A 
ATOM     16  C   UNL d   1      11.576   6.764  -4.190  0.00  0.00     0.029 A 
ATOM     17  F   UNL d   1      13.344   7.646  -2.920  0.00  0.00    -0.204 F 
ATOM     18  C   UNL d   1      10.678   6.866  -5.252  0.00  0.00     0.000 A 
ENDBRANCH   8  12
ENDBRANCH   3   4
ENDBRANCH   1   3
BRANCH   1  19
ATOM     19  C   UNL d   1       8.945   4.463 -12.063  0.00  0.00     0.285 C 
BRANCH  19  20
ATOM     20  N   UNL d   1       9.802   4.604 -13.221  0.00  0.00     0.144 N 
ATOM     21  C   UNL d   1       9.095   5.246 -14.299  0.00  0.00     0.274 C 
ATOM     22  C   UNL d   1      10.021   5.454 -15.514  0.00  0.00     0.140 C 
ATOM     23  N   UNL d   1      10.583   4.189 -15.985  0.00  0.00    -0.312 N 
ATOM     24  C   UNL d   1      11.244   3.483 -14.874  0.00  0.00     0.140 C 
ATOM     25  C   UNL d   1      10.598   3.788 -17.272  0.00  0.00     0.257 C 
ATOM     26  C   UNL d   1      10.247   3.311 -13.704  0.00  0.00     0.274 C 
ATOM     27  O   UNL d   1      10.901   2.622 -17.583  0.00  0.00    -0.267 OA
BRANCH  25  28
ATOM     28  C   UNL d   1      10.197   4.755 -18.368  0.00  0.00     0.056 A 
ATOM     29  C   UNL d   1      10.701   6.087 -18.415  0.00  0.00     0.005 A 
ATOM     30  C   UNL d   1      10.274   6.978 -19.411  0.00  0.00     0.000 A 
ATOM     31  C   UNL d   1       9.386   6.546 -20.424  0.00  0.00     0.000 A 
ATOM     32  C   UNL d   1       8.918   5.212 -20.405  0.00  0.00     0.000 A 
ATOM     33  C   UNL d   1       9.320   4.335 -19.386  0.00  0.00     0.005 A 
ENDBRANCH  25  28
ENDBRANCH  19  20
ENDBRANCH   1  19
TORSDOF 6
