REMARK  4 active torsions:
REMARK  status: ('A' for Active; 'I' for Inactive)
REMARK    1  A    between atoms: O_2  and  C_3 
REMARK    2  A    between atoms: C_7  and  C_8 
REMARK       I    between atoms: C_8  and  N_10 
REMARK    3  A    between atoms: N_10  and  N_11 
REMARK    4  A    between atoms: C_20  and  N_21 
ROOT
ATOM      1  N   UNL d   1      10.052   2.323 -17.176  0.00  0.00    -0.225 N 
ATOM      2  C   UNL d   1       9.799   1.437 -18.230  0.00  0.00     0.101 A 
ATOM      3  C   UNL d   1       9.821   0.047 -17.976  0.00  0.00     0.022 A 
ATOM      4  C   UNL d   1       9.669  -0.879 -19.024  0.00  0.00     0.013 A 
ATOM      5  C   UNL d   1       9.491  -0.422 -20.342  0.00  0.00     0.059 A 
ATOM      6 CL   UNL d   1       9.307  -1.551 -21.637  0.00  0.00    -0.082 Cl
ATOM      7  C   UNL d   1       9.451   0.959 -20.602  0.00  0.00     0.032 A 
ATOM      8  C   UNL d   1       9.604   1.904 -19.561  0.00  0.00     0.101 A 
ATOM      9  N   UNL d   1       9.428   3.245 -19.928  0.00  0.00    -0.227 NA
ATOM     10  C   UNL d   1      10.051   4.261 -19.412  0.00  0.00     0.142 C 
ATOM     11  C   UNL d   1      11.137   4.171 -18.362  0.00  0.00     0.051 A 
ATOM     12  C   UNL d   1      12.220   5.081 -18.420  0.00  0.00     0.004 A 
ATOM     13  C   UNL d   1      13.187   5.120 -17.399  0.00  0.00     0.000 A 
ATOM     14  C   UNL d   1      13.084   4.250 -16.301  0.00  0.00     0.002 A 
ATOM     15  C   UNL d   1      12.047   3.308 -16.254  0.00  0.00     0.019 A 
ATOM     16  C   UNL d   1      11.082   3.263 -17.277  0.00  0.00     0.086 A 
ENDROOT
BRANCH   1  17
ATOM     17  N   UNL d   1       9.357   2.161 -15.956  0.00  0.00    -0.123 NA
ATOM     18  C   UNL d   1       8.908   3.196 -15.213  0.00  0.00     0.295 C 
ATOM     19  O   UNL d   1       9.365   4.341 -15.262  0.00  0.00    -0.264 OA
BRANCH  18  20
ATOM     20  C   UNL d   1       7.730   2.922 -14.320  0.00  0.00     0.061 A 
ATOM     21  C   UNL d   1       7.292   3.938 -13.436  0.00  0.00     0.005 A 
ATOM     22  C   UNL d   1       6.159   3.745 -12.632  0.00  0.00     0.002 A 
ATOM     23  C   UNL d   1       5.455   2.532 -12.716  0.00  0.00     0.024 A 
ATOM     24  C   UNL d   1       5.857   1.510 -13.603  0.00  0.00     0.094 A 
ATOM     25  C   UNL d   1       6.990   1.722 -14.425  0.00  0.00     0.029 A 
BRANCH  24  26
ATOM     26  O   UNL d   1       5.101   0.356 -13.613  0.00  0.00    -0.328 OA
ATOM     27  C   UNL d   1       5.522  -0.704 -14.462  0.00  0.00     0.181 C 
ENDBRANCH  24  26
ENDBRANCH  18  20
ENDBRANCH   1  17
BRANCH  10  28
ATOM     28  N   UNL d   1       9.727   5.553 -19.792  0.00  0.00    -0.330 N 
ATOM     29  C   UNL d   1       9.107   6.534 -18.906  0.00  0.00     0.138 C 
ATOM     30  C   UNL d   1       7.830   7.120 -19.546  0.00  0.00     0.274 C 
ATOM     31  N   UNL d   1       8.144   7.709 -20.849  0.00  0.00     0.143 N 
ATOM     32  C   UNL d   1       8.652   6.653 -21.728  0.00  0.00     0.274 C 
ATOM     33  C   UNL d   1       6.938   8.278 -21.426  0.00  0.00     0.286 C 
ATOM     34  C   UNL d   1       9.943   6.055 -21.145  0.00  0.00     0.138 C 
ENDBRANCH  10  28
TORSDOF 4
