REMARK  7 active torsions:
REMARK  status: ('A' for Active; 'I' for Inactive)
REMARK    1  A    between atoms: C_2  and  C_3 
REMARK    2  A    between atoms: C_3  and  N_4 
REMARK    3  A    between atoms: N_4  and  C_5 
REMARK    4  A    between atoms: N_4  and  C_8 
REMARK    5  A    between atoms: C_5  and  C_6 
REMARK    6  A    between atoms: C_11  and  C_12 
REMARK    7  A    between atoms: C_13  and  SI_14 
ROOT
ATOM      1  C   UNL d   1       9.885   6.302 -10.889  0.00  0.00     0.224 C 
ATOM      2  C   UNL d   1       9.515   5.478  -9.622  0.00  0.00     0.059 C 
ATOM      3  C   UNL d   1      10.036   6.101  -8.359  0.00  0.00    -0.020 C 
ATOM      4  C   UNL d   1      10.527   7.341  -8.288  0.00  0.00     0.016 C 
ATOM      5  C   UNL d   1      10.635   8.294  -9.475  0.00  0.00     0.036 C 
ATOM      6  C   UNL d   1       9.817   7.826 -10.687  0.00  0.00     0.039 C 
ENDROOT
BRANCH   1   7
ATOM      7  N   UNL d   1       9.178   5.851 -12.098  0.00  0.00     0.135 N 
BRANCH   7   8
ATOM      8  C   UNL d   1       9.635   4.559 -12.628  0.00  0.00     0.250 C 
BRANCH   8   9
ATOM      9  C   UNL d   1      10.958   4.572 -13.379  0.00  0.00     0.035 C 
ATOM     10  C   UNL d   1      10.947   5.408 -14.619  0.00  0.00     0.002 C 
ENDBRANCH   8   9
ENDBRANCH   7   8
BRANCH   7  11
ATOM     11  C   UNL d   1       7.746   5.844 -11.823  0.00  0.00     0.250 C 
BRANCH  11  12
ATOM     12  C   UNL d   1       6.976   5.934 -13.100  0.00  0.00     0.035 C 
ATOM     13  C   UNL d   1       5.497   5.718 -12.856  0.00  0.00     0.002 C 
ENDBRANCH  11  12
ENDBRANCH   7  11
ENDBRANCH   1   7
BRANCH   4  14
ATOM     14  C   UNL d   1      10.948   7.841  -7.028  0.00  0.00    -0.056 C 
ATOM     15  C   UNL d   1      11.293   8.272  -5.957  0.00  0.00    -0.009 C 
BRANCH  15  16
ATOM     16 SI   UNL d   1      11.831   8.913  -4.360  0.00  0.00     0.000 Si
ATOM     17  C   UNL d   1      10.826  10.403  -3.869  0.00  0.00     0.000 C 
ATOM     18  C   UNL d   1      11.928   7.572  -3.051  0.00  0.00     0.000 C 
ATOM     19  C   UNL d   1      13.464   9.630  -4.582  0.00  0.00     0.000 C 
ENDBRANCH  15  16
ENDBRANCH   4  14
TORSDOF 7
