REMARK  9 active torsions:
REMARK  status: ('A' for Active; 'I' for Inactive)
REMARK    1  A    between atoms: O_2  and  C_3 
REMARK    2  A    between atoms: C_8  and  N_9 
REMARK    3  A    between atoms: N_12  and  C_13 
REMARK    4  A    between atoms: C_13  and  C_14 
REMARK    5  A    between atoms: C_14  and  C_15 
REMARK    6  A    between atoms: C_15  and  C_16 
REMARK    7  A    between atoms: C_16  and  N_17 
REMARK       I    between atoms: N_17  and  C_18 
REMARK    8  A    between atoms: C_18  and  C_20 
REMARK    9  A    between atoms: C_23  and  C_24 
ROOT
ATOM      1  C   UNL d   1       7.116   3.662 -12.652  0.00  0.00     0.029 C 
ENDROOT
BRANCH   1   2
ATOM      2  C   UNL d   1       6.404   2.976 -13.814  0.00  0.00     0.037 C 
BRANCH   2   3
ATOM      3  C   UNL d   1       6.589   1.443 -13.806  0.00  0.00     0.251 C 
BRANCH   3   4
ATOM      4  N   UNL d   1       5.862   0.815 -14.896  0.00  0.00     0.141 N 
ATOM      5  C   UNL d   1       6.501   1.135 -16.180  0.00  0.00     0.274 C 
ATOM      6  C   UNL d   1       5.741   0.448 -17.347  0.00  0.00     0.137 C 
ATOM      7  N   UNL d   1       5.585  -0.979 -17.101  0.00  0.00    -0.343 N 
ATOM      8  C   UNL d   1       5.010  -1.331 -15.807  0.00  0.00     0.137 C 
ATOM      9  C   UNL d   1       5.815  -0.642 -14.685  0.00  0.00     0.274 C 
BRANCH   7  10
ATOM     10  C   UNL d   1       5.956  -1.989 -18.028  0.00  0.00     0.079 A 
ATOM     11  C   UNL d   1       7.104  -1.897 -18.864  0.00  0.00     0.110 A 
ATOM     12  C   UNL d   1       7.390  -2.946 -19.768  0.00  0.00     0.026 A 
ATOM     13  C   UNL d   1       6.567  -4.082 -19.837  0.00  0.00     0.002 A 
ATOM     14  C   UNL d   1       5.437  -4.177 -19.015  0.00  0.00     0.002 A 
ATOM     15  C   UNL d   1       5.134  -3.136 -18.117  0.00  0.00     0.019 A 
BRANCH  11  16
ATOM     16  O   UNL d   1       7.989  -0.847 -18.834  0.00  0.00    -0.327 OA
ATOM     17  C   UNL d   1       8.751  -0.710 -17.645  0.00  0.00     0.181 C 
ENDBRANCH  11  16
ENDBRANCH   7  10
ENDBRANCH   3   4
ENDBRANCH   2   3
ENDBRANCH   1   2
BRANCH   1  18
ATOM     18  C   UNL d   1       7.026   5.191 -12.700  0.00  0.00     0.129 C 
BRANCH  18  19
ATOM     19  N   UNL d   1       7.691   5.786 -11.548  0.00  0.00    -0.234 NA
ATOM     20  C   UNL d   1       9.017   5.897 -11.390  0.00  0.00     0.275 C 
ATOM     21  O   UNL d   1       9.831   5.589 -12.266  0.00  0.00    -0.266 OA
BRANCH  20  22
ATOM     22  C   UNL d   1       9.474   6.455 -10.077  0.00  0.00     0.058 A 
ATOM     23  C   UNL d   1       9.021   5.904  -8.855  0.00  0.00     0.005 A 
ATOM     24  C   UNL d   1       9.479   6.423  -7.630  0.00  0.00     0.002 A 
ATOM     25  C   UNL d   1      10.398   7.494  -7.582  0.00  0.00     0.018 A 
ATOM     26  C   UNL d   1      10.852   8.036  -8.809  0.00  0.00     0.002 A 
ATOM     27  C   UNL d   1      10.397   7.521 -10.034  0.00  0.00     0.005 A 
BRANCH  25  28
ATOM     28  C   UNL d   1      10.873   8.036  -6.296  0.00  0.00     0.081 A 
ATOM     29  N   UNL d   1      10.761   9.376  -6.141  0.00  0.00    -0.244 NA
ATOM     30  C   UNL d   1      11.177   9.930  -4.984  0.00  0.00     0.099 A 
ATOM     31  C   UNL d   1      11.733   9.186  -3.927  0.00  0.00     0.021 A 
ATOM     32  C   UNL d   1      11.850   7.796  -4.084  0.00  0.00     0.003 A 
ATOM     33  C   UNL d   1      11.414   7.208  -5.286  0.00  0.00     0.019 A 
ENDBRANCH  25  28
ENDBRANCH  20  22
ENDBRANCH  18  19
ENDBRANCH   1  18
TORSDOF 9
