REMARK  5 active torsions:
REMARK  status: ('A' for Active; 'I' for Inactive)
REMARK    1  A    between atoms: O_2  and  C_3 
REMARK    2  A    between atoms: C_8  and  O_9 
REMARK    3  A    between atoms: C_14  and  C_15 
REMARK    4  A    between atoms: C_15  and  N_16 
REMARK    5  A    between atoms: C_19  and  C_20 
ROOT
ATOM      1  N   UNL d   1       7.742   3.180 -14.232  0.00  0.00     0.137 N 
ATOM      2  C   UNL d   1       9.087   3.024 -13.670  0.00  0.00     0.251 C 
ATOM      3  C   UNL d   1       9.597   4.319 -13.047  0.00  0.00     0.041 C 
ATOM      4  C   UNL d   1       8.631   4.839 -11.976  0.00  0.00     0.047 C 
ATOM      5  C   UNL d   1       7.203   4.899 -12.541  0.00  0.00     0.041 C 
ATOM      6  C   UNL d   1       6.774   3.579 -13.202  0.00  0.00     0.251 C 
ENDROOT
BRANCH   1   7
ATOM      7  C   UNL d   1       7.295   1.937 -14.864  0.00  0.00     0.251 C 
BRANCH   7   8
ATOM      8  C   UNL d   1       7.926   1.707 -16.256  0.00  0.00     0.045 C 
ATOM      9  C   UNL d   1       6.876   1.152 -17.246  0.00  0.00     0.071 C 
ATOM     10  C   UNL d   1       7.450   0.875 -18.633  0.00  0.00     0.173 C 
ATOM     11  C   UNL d   1       8.876   0.456 -18.703  0.00  0.00     0.033 A 
ATOM     12  O   UNL d   1       6.725   1.021 -19.620  0.00  0.00    -0.291 OA
ATOM     13  C   UNL d   1       9.685   0.394 -17.550  0.00  0.00    -0.017 A 
ATOM     14  C   UNL d   1       9.438   0.126 -19.954  0.00  0.00     0.029 A 
ATOM     15  C   UNL d   1      11.040   0.018 -17.663  0.00  0.00     0.022 A 
ATOM     16  C   UNL d   1       9.135   0.747 -16.186  0.00  0.00     0.029 C 
ATOM     17  C   UNL d   1      11.605  -0.301 -18.911  0.00  0.00     0.116 A 
ATOM     18  C   UNL d   1      10.796  -0.269 -20.075  0.00  0.00     0.116 A 
BRANCH  17  19
ATOM     19  O   UNL d   1      12.918  -0.700 -18.924  0.00  0.00    -0.326 OA
ATOM     20  C   UNL d   1      13.803   0.105 -19.695  0.00  0.00     0.181 C 
ENDBRANCH  17  19
BRANCH  18  21
ATOM     21  O   UNL d   1      11.357  -0.653 -21.275  0.00  0.00    -0.326 OA
ATOM     22  C   UNL d   1      10.551  -0.564 -22.438  0.00  0.00     0.181 C 
ENDBRANCH  18  21
ENDBRANCH   7   8
ENDBRANCH   1   7
BRANCH   4  23
ATOM     23  C   UNL d   1       9.070   6.185 -11.455  0.00  0.00     0.087 A 
ATOM     24  C   UNL d   1       9.562   6.582 -10.192  0.00  0.00     0.041 A 
ATOM     25  C   UNL d   1       9.867   7.943 -10.230  0.00  0.00     0.129 A 
ATOM     26  C   UNL d   1       9.767   5.859  -8.991  0.00  0.00     0.006 A 
ATOM     27  O   UNL d   1       9.544   8.355 -11.511  0.00  0.00    -0.211 OA
ATOM     28  C   UNL d   1      10.355   8.650  -9.127  0.00  0.00     0.057 A 
ATOM     29  N   UNL d   1       9.062   7.249 -12.262  0.00  0.00    -0.131 NA
ATOM     30  C   UNL d   1      10.550   7.937  -7.925  0.00  0.00     0.142 A 
ATOM     31  F   UNL d   1      11.015   8.582  -6.829  0.00  0.00    -0.204 F 
ATOM     32  C   UNL d   1      10.258   6.550  -7.861  0.00  0.00     0.030 A 
ENDBRANCH   4  23
TORSDOF 5
