REMARK  5 active torsions:
REMARK  status: ('A' for Active; 'I' for Inactive)
REMARK    1  A    between atoms: O_2  and  C_3 
REMARK    2  A    between atoms: C_6  and  O_7 
REMARK    3  A    between atoms: O_7  and  C_8 
REMARK    4  A    between atoms: C_8  and  C_9 
REMARK    5  A    between atoms: N_14  and  C_15 
ROOT
ATOM      1  C   UNL d   1       8.753   6.329 -10.870  0.00  0.00     0.064 C 
ATOM      2  C   UNL d   1       7.519   5.449 -11.060  0.00  0.00     0.007 C 
ATOM      3  C   UNL d   1       7.385   5.107 -12.537  0.00  0.00     0.035 C 
ATOM      4  C   UNL d   1       8.650   4.397 -13.058  0.00  0.00     0.242 C 
ATOM      5  C   UNL d   1       8.470   4.086 -14.547  0.00  0.00     0.153 C 
ATOM      6  N   UNL d   1       9.656   3.424 -15.110  0.00  0.00    -0.179 N 
ATOM      7  C   UNL d   1      10.854   4.249 -14.899  0.00  0.00     0.155 C 
ATOM      8  C   UNL d   1      10.984   4.574 -13.402  0.00  0.00     0.275 C 
ATOM      9  N   UNL d   1       9.800   5.291 -12.904  0.00  0.00     0.139 N 
ATOM     10  C   UNL d   1       9.940   5.608 -11.483  0.00  0.00     0.253 C 
ENDROOT
BRANCH   1  11
ATOM     11  C   UNL d   1       9.046   6.541  -9.367  0.00  0.00     0.151 C 
BRANCH  11  12
ATOM     12  O   UNL d   1       9.902   7.654  -9.114  0.00  0.00    -0.331 OA
BRANCH  12  13
ATOM     13  C   UNL d   1      10.326   7.857  -7.811  0.00  0.00     0.094 A 
ATOM     14  C   UNL d   1      10.137   6.882  -6.781  0.00  0.00     0.026 A 
ATOM     15  C   UNL d   1      10.674   7.108  -5.511  0.00  0.00     0.026 A 
ATOM     16  C   UNL d   1      11.355   8.289  -5.192  0.00  0.00     0.094 A 
ATOM     17  C   UNL d   1      11.508   9.288  -6.193  0.00  0.00     0.026 A 
ATOM     18  C   UNL d   1      10.991   9.045  -7.495  0.00  0.00     0.026 A 
BRANCH  16  19
ATOM     19  O   UNL d   1      11.817   8.368  -3.900  0.00  0.00    -0.328 OA
ATOM     20  C   UNL d   1      12.351   9.596  -3.464  0.00  0.00     0.181 C 
ENDBRANCH  16  19
ENDBRANCH  12  13
ENDBRANCH  11  12
ENDBRANCH   1  11
BRANCH   6  21
ATOM     21  C   UNL d   1       9.657   2.186 -15.717  0.00  0.00     0.727 A 
ATOM     22  N   UNL d   1      10.821   1.726 -16.210  0.00  0.00    -0.060 NA
ATOM     23  C   UNL d   1      10.823   0.535 -16.815  0.00  0.00     0.120 A 
ATOM     24  C   UNL d   1       9.655  -0.246 -16.941  0.00  0.00     0.043 A 
ATOM     25  C   UNL d   1       8.485   0.321 -16.391  0.00  0.00     0.120 A 
ATOM     26  N   UNL d   1       8.491   1.518 -15.795  0.00  0.00    -0.060 NA
ENDBRANCH   6  21
TORSDOF 5
