REMARK  5 active torsions:
REMARK  status: ('A' for Active; 'I' for Inactive)
REMARK    1  A    between atoms: C_2  and  C_3 
REMARK    2  A    between atoms: C_3  and  N_4 
REMARK    3  A    between atoms: C_12  and  O_13 
REMARK    4  A    between atoms: O_13  and  S_14 
REMARK    5  A    between atoms: S_14  and  C_17 
ROOT
ATOM      1  N   UNL d   1       7.088   3.695 -13.017  0.00  0.00     0.140 N 
ATOM      2  C   UNL d   1       6.347   2.607 -13.626  0.00  0.00     0.251 C 
ATOM      3  C   UNL d   1       7.347   1.818 -14.501  0.00  0.00     0.042 C 
ATOM      4  C   UNL d   1       8.672   2.491 -14.167  0.00  0.00     0.055 C 
ATOM      5  C   UNL d   1       9.805   2.424 -15.181  0.00  0.00    -0.023 A 
ATOM      6  C   UNL d   1       9.975   1.297 -16.013  0.00  0.00    -0.004 A 
ATOM      7  C   UNL d   1      11.062   1.246 -16.906  0.00  0.00     0.002 A 
ATOM      8  C   UNL d   1      11.980   2.306 -16.971  0.00  0.00     0.025 A 
ATOM      9  C   UNL d   1      11.816   3.435 -16.150  0.00  0.00     0.109 A 
ATOM     10  C   UNL d   1      10.734   3.489 -15.245  0.00  0.00    -0.002 A 
ATOM     11  C   UNL d   1      10.578   4.726 -14.368  0.00  0.00     0.030 C 
ATOM     12  C   UNL d   1       9.460   4.673 -13.319  0.00  0.00     0.038 C 
ATOM     13  C   UNL d   1       8.227   3.916 -13.870  0.00  0.00     0.224 C 
ENDROOT
BRANCH   9  14
ATOM     14  O   UNL d   1      12.708   4.472 -16.207  0.00  0.00    -0.225 OA
BRANCH  14  15
ATOM     15  S   UNL d   1      12.530   5.535 -17.511  0.00  0.00     0.374 S 
ATOM     16  O   UNL d   1      13.128   4.889 -18.688  0.00  0.00    -0.189 OA
ATOM     17  O   UNL d   1      11.137   6.003 -17.520  0.00  0.00    -0.189 OA
BRANCH  15  18
ATOM     18  C   UNL d   1      13.628   6.897 -16.922  0.00  0.00     0.524 C 
ATOM     19  F   UNL d   1      14.896   6.590 -17.185  0.00  0.00    -0.155 F 
ATOM     20  F   UNL d   1      13.291   8.021 -17.558  0.00  0.00    -0.155 F 
ATOM     21  F   UNL d   1      13.451   7.066 -15.616  0.00  0.00    -0.155 F 
ENDBRANCH  15  18
ENDBRANCH  14  15
ENDBRANCH   9  14
BRANCH   1  22
ATOM     22  C   UNL d   1       6.212   4.843 -12.735  0.00  0.00     0.276 C 
BRANCH  22  23
ATOM     23  C   UNL d   1       6.940   6.012 -12.107  0.00  0.00     0.009 C 
ATOM     24  C   UNL d   1       6.826   7.290 -12.512  0.00  0.00    -0.003 C 
ENDBRANCH  22  23
ENDBRANCH   1  22
TORSDOF 5
