REMARK  4 active torsions:
REMARK  status: ('A' for Active; 'I' for Inactive)
REMARK    1  A    between atoms: C_2  and  O_4 
REMARK    2  A    between atoms: O_4  and  C_5 
REMARK    3  A    between atoms: C_12  and  N_13 
REMARK    4  A    between atoms: C_14  and  N_15 
ROOT
ATOM      1  C   UNL d   1       9.976   4.144 -18.461  0.00  0.00     0.146 C 
ATOM      2  C   UNL d   1      10.627   3.226 -19.506  0.00  0.00     0.035 C 
ATOM      3  C   UNL d   1      10.323   1.754 -19.224  0.00  0.00     0.007 C 
ATOM      4  C   UNL d   1      10.864   1.329 -17.854  0.00  0.00     0.026 C 
ATOM      5  C   UNL d   1      10.557   2.322 -16.744  0.00  0.00    -0.024 A 
ATOM      6  C   UNL d   1      10.695   1.910 -15.403  0.00  0.00    -0.003 A 
ATOM      7  C   UNL d   1      10.445   2.808 -14.351  0.00  0.00     0.019 A 
ATOM      8  C   UNL d   1      10.039   4.136 -14.628  0.00  0.00     0.083 A 
ATOM      9  C   UNL d   1       9.906   4.546 -15.968  0.00  0.00     0.017 A 
ATOM     10  C   UNL d   1      10.167   3.656 -17.030  0.00  0.00     0.003 A 
ENDROOT
BRANCH   8  11
ATOM     11  N   UNL d   1       9.821   5.088 -13.631  0.00  0.00    -0.226 NA
ATOM     12  C   UNL d   1       9.108   4.752 -12.609  0.00  0.00     0.175 C 
BRANCH  12  13
ATOM     13  N   UNL d   1       8.829   5.596 -11.546  0.00  0.00    -0.327 N 
ATOM     14  C   UNL d   1       9.406   6.928 -11.394  0.00  0.00     0.129 C 
ATOM     15  C   UNL d   1       9.911   7.240  -9.996  0.00  0.00    -0.004 A 
ATOM     16  C   UNL d   1       9.586   6.402  -8.904  0.00  0.00    -0.022 A 
ATOM     17  C   UNL d   1      10.700   8.389  -9.788  0.00  0.00    -0.003 A 
ATOM     18  C   UNL d   1       8.737   5.159  -9.119  0.00  0.00     0.050 C 
ATOM     19  C   UNL d   1      10.051   6.722  -7.612  0.00  0.00    -0.004 A 
ATOM     20  C   UNL d   1       7.970   5.189 -10.451  0.00  0.00     0.108 C 
ATOM     21  C   UNL d   1      10.839   7.871  -7.409  0.00  0.00    -0.000 A 
ATOM     22  C   UNL d   1      11.163   8.704  -8.497  0.00  0.00    -0.000 A 
ENDBRANCH  12  13
ENDBRANCH   8  11
BRANCH   1  23
ATOM     23  O   UNL d   1      10.521   5.445 -18.657  0.00  0.00    -0.300 OA
BRANCH  23  24
ATOM     24  C   UNL d   1       9.859   6.375 -19.365  0.00  0.00     0.273 C 
ATOM     25  C   UNL d   1      10.720   7.596 -19.643  0.00  0.00     0.106 C 
ATOM     26  O   UNL d   1       8.705   6.291 -19.784  0.00  0.00    -0.264 OA
ENDBRANCH  23  24
ENDBRANCH   1  23
TORSDOF 4
