REMARK  7 active torsions:
REMARK  status: ('A' for Active; 'I' for Inactive)
REMARK    1  A    between atoms: C_2  and  C_3 
REMARK    2  A    between atoms: N_13  and  C_14 
REMARK    3  A    between atoms: C_14  and  C_15 
REMARK    4  A    between atoms: C_15  and  C_17 
REMARK    5  A    between atoms: C_17  and  N_18 
REMARK    6  A    between atoms: C_21  and  O_22 
REMARK    7  A    between atoms: O_22  and  C_23 
ROOT
ATOM      1  C   UNL d   1       9.713   4.035 -12.544  0.00  0.00     0.148 C 
ENDROOT
BRANCH   1   2
ATOM      2  N   UNL d   1      10.209   3.892 -13.917  0.00  0.00    -0.247 N 
ATOM      3  C   UNL d   1      11.455   4.115 -14.353  0.00  0.00     0.348 A 
ATOM      4  N   UNL d   1      11.482   3.963 -15.678  0.00  0.00    -0.209 NA
ATOM      5  O   UNL d   1      12.444   4.403 -13.674  0.00  0.00    -0.245 OA
ATOM      6  C   UNL d   1      10.201   3.532 -16.220  0.00  0.00     0.179 A 
ATOM      7  C   UNL d   1       9.668   4.617 -17.188  0.00  0.00     0.039 C 
ATOM      8  C   UNL d   1       9.421   3.459 -14.910  0.00  0.00     0.265 A 
ATOM      9  O   UNL d   1       8.280   3.010 -14.786  0.00  0.00    -0.269 OA
BRANCH   6  10
ATOM     10  C   UNL d   1      10.229   2.148 -16.864  0.00  0.00     0.006 A 
ATOM     11  C   UNL d   1      11.453   1.479 -17.115  0.00  0.00     0.000 A 
ATOM     12  C   UNL d   1      11.460   0.224 -17.735  0.00  0.00     0.029 A 
ATOM     13  C   UNL d   1      10.254  -0.384 -18.110  0.00  0.00     0.140 A 
ATOM     14  C   UNL d   1       9.032   0.260 -17.877  0.00  0.00     0.029 A 
ATOM     15  F   UNL d   1      10.262  -1.610 -18.693  0.00  0.00    -0.204 F 
ATOM     16  C   UNL d   1       9.021   1.524 -17.271  0.00  0.00     0.000 A 
ENDBRANCH   6  10
ENDBRANCH   1   2
BRANCH   1  17
ATOM     17  C   UNL d   1       8.994   5.385 -12.292  0.00  0.00     0.208 C 
ATOM     18  O   UNL d   1       7.764   5.433 -12.979  0.00  0.00    -0.219 OA
BRANCH  17  19
ATOM     19  C   UNL d   1       8.586   5.570 -10.820  0.00  0.00     0.285 C 
BRANCH  19  20
ATOM     20  N   UNL d   1       9.627   6.056  -9.905  0.00  0.00     0.140 N 
ATOM     21  C   UNL d   1       9.962   7.462 -10.156  0.00  0.00     0.253 C 
ATOM     22  C   UNL d   1      11.085   7.973  -9.238  0.00  0.00     0.066 C 
ATOM     23  C   UNL d   1      10.699   7.788  -7.753  0.00  0.00     0.125 C 
ATOM     24  C   UNL d   1      10.255   6.330  -7.525  0.00  0.00     0.066 C 
ATOM     25  C   UNL d   1       9.183   5.918  -8.530  0.00  0.00     0.253 C 
BRANCH  23  26
ATOM     26  O   UNL d   1      11.834   8.126  -6.976  0.00  0.00    -0.333 OA
BRANCH  26  27
ATOM     27  C   UNL d   1      11.656   8.235  -5.620  0.00  0.00     0.094 A 
ATOM     28  C   UNL d   1      11.697   7.072  -4.803  0.00  0.00     0.024 A 
ATOM     29  C   UNL d   1      11.786   7.180  -3.404  0.00  0.00     0.002 A 
ATOM     30  C   UNL d   1      11.848   8.455  -2.820  0.00  0.00     0.000 A 
ATOM     31  C   UNL d   1      11.829   9.613  -3.617  0.00  0.00     0.002 A 
ATOM     32  C   UNL d   1      11.778   9.501  -5.026  0.00  0.00     0.024 A 
ENDBRANCH  26  27
ENDBRANCH  23  26
ENDBRANCH  19  20
ENDBRANCH  17  19
ENDBRANCH   1  17
TORSDOF 7
