REMARK  4 active torsions:
REMARK  status: ('A' for Active; 'I' for Inactive)
REMARK    1  A    between atoms: C_5  and  C_6 
REMARK    2  A    between atoms: C_6  and  N_7 
REMARK    3  A    between atoms: C_10  and  C_11 
REMARK    4  A    between atoms: C_11  and  C_12 
REMARK       I    between atoms: C_12  and  N_14 
ROOT
ATOM      1  N   UNL d   1       9.095   5.517 -12.481  0.00  0.00     0.141 N 
ATOM      2  C   UNL d   1       8.354   5.575 -13.735  0.00  0.00     0.251 C 
ATOM      3  C   UNL d   1       9.213   4.967 -14.852  0.00  0.00     0.036 C 
ATOM      4  C   UNL d   1       9.557   3.496 -14.556  0.00  0.00     0.013 C 
ATOM      5  C   UNL d   1      10.193   3.435 -13.173  0.00  0.00     0.036 C 
ATOM      6  C   UNL d   1       9.316   4.118 -12.110  0.00  0.00     0.251 C 
ENDROOT
BRANCH   4   7
ATOM      7  C   UNL d   1      10.532   2.933 -15.614  0.00  0.00     0.088 C 
BRANCH   7   8
ATOM      8  C   UNL d   1      10.212   1.486 -16.008  0.00  0.00     0.237 C 
ATOM      9  O   UNL d   1      10.435   0.577 -15.194  0.00  0.00    -0.272 OA
ATOM     10  N   UNL d   1       9.657   1.205 -17.220  0.00  0.00    -0.301 N 
ATOM     11  C   UNL d   1       9.037  -0.117 -17.491  0.00  0.00     0.093 C 
ATOM     12  C   UNL d   1       9.426   2.067 -18.339  0.00  0.00     0.058 A 
ATOM     13  C   UNL d   1       8.184   0.060 -18.787  0.00  0.00     0.051 C 
ATOM     14  C   UNL d   1      10.089  -1.235 -17.675  0.00  0.00     0.025 C 
ATOM     15  C   UNL d   1       8.545   1.450 -19.234  0.00  0.00    -0.004 A 
ATOM     16  C   UNL d   1       8.140   2.061 -20.446  0.00  0.00    -0.003 A 
ATOM     17  C   UNL d   1       8.617   3.368 -20.741  0.00  0.00    -0.000 A 
ATOM     18  C   UNL d   1       9.525   3.983 -19.844  0.00  0.00     0.002 A 
ATOM     19  C   UNL d   1       9.983   3.332 -18.689  0.00  0.00     0.017 A 
ENDBRANCH   7   8
ENDBRANCH   4   7
BRANCH   1  20
ATOM     20  C   UNL d   1       8.310   6.173 -11.444  0.00  0.00     0.277 C 
BRANCH  20  21
ATOM     21  C   UNL d   1       9.100   6.383 -10.163  0.00  0.00     0.011 A 
ATOM     22  C   UNL d   1       8.678   5.786  -8.967  0.00  0.00    -0.003 A 
ATOM     23  C   UNL d   1       9.348   6.042  -7.765  0.00  0.00    -0.005 A 
ATOM     24  C   UNL d   1      10.495   6.857  -7.748  0.00  0.00    -0.026 A 
ATOM     25  C   UNL d   1      11.228   7.060  -6.442  0.00  0.00     0.031 C 
ATOM     26  C   UNL d   1      10.948   7.441  -8.953  0.00  0.00    -0.026 A 
ATOM     27  C   UNL d   1      10.241   7.208 -10.152  0.00  0.00    -0.007 A 
ATOM     28  C   UNL d   1      12.188   8.308  -8.986  0.00  0.00     0.031 C 
ENDBRANCH  20  21
ENDBRANCH   1  20
TORSDOF 4
