REMARK  7 active torsions:
REMARK  status: ('A' for Active; 'I' for Inactive)
REMARK       I    between atoms: C_2  and  N_3 
REMARK    1  A    between atoms: C_2  and  C_22 
REMARK    2  A    between atoms: N_3  and  C_4 
REMARK    3  A    between atoms: C_4  and  C_5 
REMARK    4  A    between atoms: C_5  and  C_6 
REMARK    5  A    between atoms: C_6  and  C_7 
REMARK    6  A    between atoms: C_7  and  N_8 
REMARK    7  A    between atoms: N_11  and  C_12 
ROOT
ATOM      1  C   UNL d   1       9.188   2.397 -14.558  0.00  0.00     0.037 C 
ENDROOT
BRANCH   1   2
ATOM      2  C   UNL d   1      10.212   1.824 -15.506  0.00  0.00     0.029 C 
BRANCH   2   3
ATOM      3  C   UNL d   1      10.392   0.300 -15.401  0.00  0.00     0.129 C 
BRANCH   3   4
ATOM      4  N   UNL d   1       9.539  -0.378 -16.368  0.00  0.00    -0.233 NA
ATOM      5  C   UNL d   1       9.843  -0.644 -17.647  0.00  0.00     0.298 C 
ATOM      6  O   UNL d   1       9.123  -1.403 -18.301  0.00  0.00    -0.263 OA
BRANCH   5   7
ATOM      7  C   UNL d   1      11.062  -0.029 -18.253  0.00  0.00     0.157 A 
ATOM      8  O   UNL d   1      11.834  -0.804 -19.113  0.00  0.00    -0.302 OA
ATOM      9  C   UNL d   1      12.919  -0.040 -19.497  0.00  0.00     0.100 A 
ATOM     10  C   UNL d   1      12.783   1.236 -18.898  0.00  0.00     0.025 A 
ATOM     11  C   UNL d   1      13.988  -0.386 -20.335  0.00  0.00     0.025 A 
ATOM     12  C   UNL d   1      11.590   1.246 -18.154  0.00  0.00     0.032 A 
ATOM     13  C   UNL d   1      13.779   2.197 -19.152  0.00  0.00     0.002 A 
ATOM     14  C   UNL d   1      14.859   1.901 -19.995  0.00  0.00     0.000 A 
ATOM     15  C   UNL d   1      14.959   0.617 -20.581  0.00  0.00     0.002 A 
ENDBRANCH   5   7
ENDBRANCH   3   4
ENDBRANCH   2   3
ENDBRANCH   1   2
BRANCH   1  16
ATOM     16  C   UNL d   1       9.293   3.951 -14.570  0.00  0.00     0.251 C 
BRANCH  16  17
ATOM     17  N   UNL d   1       8.806   4.495 -13.308  0.00  0.00     0.141 N 
ATOM     18  C   UNL d   1       9.738   4.130 -12.230  0.00  0.00     0.274 C 
ATOM     19  C   UNL d   1       9.225   4.677 -10.906  0.00  0.00     0.137 C 
ATOM     20  N   UNL d   1       9.082   6.115 -10.992  0.00  0.00    -0.344 N 
ATOM     21  C   UNL d   1       8.256   6.580 -12.091  0.00  0.00     0.137 C 
ATOM     22  C   UNL d   1       8.785   5.961 -13.392  0.00  0.00     0.274 C 
BRANCH  20  23
ATOM     23  C   UNL d   1       9.620   6.989 -10.037  0.00  0.00     0.068 A 
ATOM     24  C   UNL d   1       9.517   6.759  -8.654  0.00  0.00     0.084 A 
ATOM     25  C   UNL d   1      10.104   7.660  -7.738  0.00  0.00     0.070 A 
ATOM     26 CL   UNL d   1       8.609   5.445  -8.055  0.00  0.00    -0.080 Cl
ATOM     27  C   UNL d   1      10.778   8.796  -8.199  0.00  0.00     0.012 A 
ATOM     28 CL   UNL d   1      10.001   7.385  -6.052  0.00  0.00    -0.081 Cl
ATOM     29  C   UNL d   1      10.870   9.043  -9.567  0.00  0.00     0.002 A 
ATOM     30  C   UNL d   1      10.277   8.151 -10.482  0.00  0.00     0.018 A 
ENDBRANCH  20  23
ENDBRANCH  16  17
ENDBRANCH   1  16
TORSDOF 7
