REMARK  11 active torsions:
REMARK  status: ('A' for Active; 'I' for Inactive)
REMARK    1  A    between atoms: O_2  and  C_3 
REMARK    2  A    between atoms: C_7  and  C_8 
REMARK    3  A    between atoms: C_8  and  C_9 
REMARK    4  A    between atoms: C_9  and  C_10 
REMARK    5  A    between atoms: C_15  and  O_16 
REMARK    6  A    between atoms: O_16  and  C_17 
REMARK    7  A    between atoms: C_17  and  C_18 
REMARK    8  A    between atoms: C_18  and  C_19 
REMARK    9  A    between atoms: C_19  and  N_20 
REMARK   10  A    between atoms: N_23  and  C_24 
REMARK   11  A    between atoms: C_28  and  C_29 
ROOT
ATOM      1  C   UNL d   1       8.018   5.440 -13.037  0.00  0.00     0.151 C 
ENDROOT
BRANCH   1   2
ATOM      2  O   UNL d   1       8.203   4.363 -13.964  0.00  0.00    -0.331 OA
BRANCH   2   3
ATOM      3  C   UNL d   1       7.464   3.198 -13.868  0.00  0.00     0.090 A 
ATOM      4  C   UNL d   1       8.000   2.007 -14.437  0.00  0.00     0.001 A 
ATOM      5  C   UNL d   1       7.263   0.796 -14.391  0.00  0.00    -0.002 A 
ATOM      6  C   UNL d   1       5.990   0.760 -13.801  0.00  0.00    -0.000 A 
ATOM      7  C   UNL d   1       5.462   1.938 -13.230  0.00  0.00     0.002 A 
ATOM      8  C   UNL d   1       6.179   3.147 -13.277  0.00  0.00     0.024 A 
BRANCH   4   9
ATOM      9  C   UNL d   1       9.372   2.000 -15.107  0.00  0.00     0.033 C 
BRANCH   9  10
ATOM     10  C   UNL d   1       9.312   2.211 -16.634  0.00  0.00     0.031 C 
BRANCH  10  11
ATOM     11  C   UNL d   1       8.512   1.139 -17.371  0.00  0.00    -0.020 A 
ATOM     12  C   UNL d   1       9.180  -0.010 -17.835  0.00  0.00    -0.004 A 
ATOM     13  C   UNL d   1       8.458  -1.028 -18.482  0.00  0.00     0.002 A 
ATOM     14  C   UNL d   1       7.077  -0.904 -18.665  0.00  0.00     0.024 A 
ATOM     15  C   UNL d   1       6.377   0.239 -18.213  0.00  0.00     0.094 A 
ATOM     16  C   UNL d   1       7.113   1.270 -17.567  0.00  0.00     0.020 A 
BRANCH  15  17
ATOM     17  O   UNL d   1       5.016   0.423 -18.349  0.00  0.00    -0.328 OA
ATOM     18  C   UNL d   1       4.288  -0.601 -19.035  0.00  0.00     0.181 C 
ENDBRANCH  15  17
ENDBRANCH  10  11
ENDBRANCH   9  10
ENDBRANCH   4   9
ENDBRANCH   2   3
ENDBRANCH   1   2
BRANCH   1  19
ATOM     19  C   UNL d   1       9.027   5.327 -11.882  0.00  0.00     0.068 C 
BRANCH  19  20
ATOM     20  C   UNL d   1       8.752   6.404 -10.824  0.00  0.00     0.253 C 
BRANCH  20  21
ATOM     21  N   UNL d   1       9.821   6.460  -9.827  0.00  0.00     0.141 N 
ATOM     22  C   UNL d   1       9.284   6.086  -8.511  0.00  0.00     0.274 C 
ATOM     23  C   UNL d   1      10.396   6.129  -7.445  0.00  0.00     0.137 C 
ATOM     24  N   UNL d   1      11.022   7.428  -7.429  0.00  0.00    -0.344 N 
ATOM     25  C   UNL d   1      11.466   7.947  -8.707  0.00  0.00     0.137 C 
ATOM     26  C   UNL d   1      10.328   7.839  -9.742  0.00  0.00     0.274 C 
BRANCH  24  27
ATOM     27  C   UNL d   1      11.151   8.152  -6.211  0.00  0.00     0.056 A 
ATOM     28  C   UNL d   1      11.499   7.481  -5.023  0.00  0.00     0.021 A 
ATOM     29  C   UNL d   1      11.701   8.201  -3.818  0.00  0.00     0.073 A 
ATOM     30  C   UNL d   1      11.459   9.586  -3.807  0.00  0.00     0.004 A 
ATOM     31  C   UNL d   1      11.064  10.247  -4.980  0.00  0.00     0.001 A 
ATOM     32  C   UNL d   1      10.941   9.535  -6.194  0.00  0.00     0.017 A 
BRANCH  29  33
ATOM     33  C   UNL d   1      12.100   7.474  -2.542  0.00  0.00     0.419 C 
ATOM     34  F   UNL d   1      13.052   6.576  -2.784  0.00  0.00    -0.166 F 
ATOM     35  F   UNL d   1      12.571   8.320  -1.627  0.00  0.00    -0.166 F 
ATOM     36  F   UNL d   1      11.057   6.821  -2.042  0.00  0.00    -0.166 F 
ENDBRANCH  29  33
ENDBRANCH  24  27
ENDBRANCH  20  21
ENDBRANCH  19  20
ENDBRANCH   1  19
TORSDOF 11
