REMARK  3 active torsions:
REMARK  status: ('A' for Active; 'I' for Inactive)
REMARK    1  A    between atoms: C_2  and  C_3 
REMARK    2  A    between atoms: C_3  and  N_4 
REMARK    3  A    between atoms: N_4  and  C_5 
ROOT
ATOM      1  C   UNL d   1       9.775   6.851 -10.129  0.00  0.00     0.258 C 
ATOM      2  C   UNL d   1      10.095   8.331 -10.488  0.00  0.00     0.038 C 
ATOM      3  C   UNL d   1      11.124   8.989  -9.531  0.00  0.00     0.027 C 
ATOM      4  C   UNL d   1      10.635   8.799  -8.089  0.00  0.00     0.116 C 
ATOM      5  N   UNL d   1      11.449   9.417  -7.053  0.00  0.00    -0.247 NA
ATOM      6  C   UNL d   1      11.276   8.744  -5.973  0.00  0.00     0.206 C 
ATOM      7  N   UNL d   1      11.775   9.058  -4.727  0.00  0.00    -0.120 N 
ATOM      8  S   UNL d   1      10.362   7.203  -6.026  0.00  0.00    -0.073 SA
ATOM      9  C   UNL d   1      10.523   7.301  -7.795  0.00  0.00     0.079 C 
ATOM     10  C   UNL d   1       9.412   6.684  -8.625  0.00  0.00     0.049 C 
ENDROOT
BRANCH   1  11
ATOM     11  N   UNL d   1       8.674   6.387 -10.946  0.00  0.00     0.337 N 
BRANCH  11  12
ATOM     12  C   UNL d   1       8.566   4.928 -10.975  0.00  0.00     0.290 C 
BRANCH  12  13
ATOM     13  C   UNL d   1       9.292   4.373 -12.210  0.00  0.00     0.038 C 
ATOM     14  C   UNL d   1       8.470   4.536 -13.491  0.00  0.00     0.002 C 
ENDBRANCH  12  13
ENDBRANCH  11  12
ENDBRANCH   1  11
TORSDOF 3
