REMARK  6 active torsions:
REMARK  status: ('A' for Active; 'I' for Inactive)
REMARK       I    between atoms: C_2  and  N_3 
REMARK    1  A    between atoms: C_2  and  C_19 
REMARK    2  A    between atoms: N_3  and  C_4 
REMARK    3  A    between atoms: C_4  and  C_5 
REMARK    4  A    between atoms: C_5  and  C_6 
REMARK    5  A    between atoms: C_6  and  N_7 
REMARK    6  A    between atoms: N_10  and  C_11 
ROOT
ATOM      1  O   UNL d   1      11.002   4.327 -13.604  0.00  0.00    -0.266 OA
ATOM      2  C   UNL d   1      10.013   3.744 -14.028  0.00  0.00     0.275 C 
ATOM      3  N   UNL d   1       8.742   4.001 -13.644  0.00  0.00    -0.234 NA
ENDROOT
BRANCH   2   4
ATOM      4  C   UNL d   1      10.165   2.647 -15.032  0.00  0.00     0.058 A 
ATOM      5  C   UNL d   1      11.128   2.694 -16.083  0.00  0.00     0.008 A 
ATOM      6  C   UNL d   1      11.238   1.580 -16.945  0.00  0.00     0.039 A 
ATOM      7  C   UNL d   1      12.138   3.699 -16.515  0.00  0.00     0.003 A 
ATOM      8  C   UNL d   1      10.456   0.413 -16.800  0.00  0.00     0.003 A 
ATOM      9  C   UNL d   1      12.268   1.834 -17.969  0.00  0.00     0.196 A 
ATOM     10  C   UNL d   1       9.521   0.363 -15.743  0.00  0.00     0.000 A 
ATOM     11  C   UNL d   1       9.383   1.470 -14.878  0.00  0.00     0.005 A 
ATOM     12  C   UNL d   1      12.809   3.175 -17.640  0.00  0.00     0.039 A 
ATOM     13  O   UNL d   1      12.602   1.093 -18.898  0.00  0.00    -0.287 OA
ATOM     14  C   UNL d   1      13.834   3.877 -18.314  0.00  0.00     0.003 A 
ATOM     15  C   UNL d   1      14.223   5.143 -17.815  0.00  0.00     0.000 A 
ATOM     16  C   UNL d   1      13.570   5.675 -16.676  0.00  0.00     0.000 A 
ATOM     17  C   UNL d   1      12.522   4.981 -16.031  0.00  0.00     0.000 A 
ENDBRANCH   2   4
BRANCH   3  18
ATOM     18  C   UNL d   1       8.303   4.993 -12.656  0.00  0.00     0.131 C 
BRANCH  18  19
ATOM     19  C   UNL d   1       9.295   5.197 -11.480  0.00  0.00     0.062 C 
BRANCH  19  20
ATOM     20  C   UNL d   1       8.958   6.357 -10.547  0.00  0.00     0.253 C 
BRANCH  20  21
ATOM     21  N   UNL d   1      10.064   6.503  -9.597  0.00  0.00     0.141 N 
ATOM     22  C   UNL d   1       9.652   6.022  -8.276  0.00  0.00     0.274 C 
ATOM     23  C   UNL d   1      10.786   6.168  -7.239  0.00  0.00     0.137 C 
ATOM     24  N   UNL d   1      11.289   7.526  -7.215  0.00  0.00    -0.344 N 
ATOM     25  C   UNL d   1      11.635   8.097  -8.510  0.00  0.00     0.137 C 
ATOM     26  C   UNL d   1      10.468   7.909  -9.501  0.00  0.00     0.274 C 
BRANCH  24  27
ATOM     27  C   UNL d   1      11.335   8.261  -6.024  0.00  0.00     0.056 A 
ATOM     28  C   UNL d   1      10.993   9.626  -6.018  0.00  0.00     0.017 A 
ATOM     29  C   UNL d   1      11.052  10.359  -4.830  0.00  0.00     0.002 A 
ATOM     30  C   UNL d   1      11.466   9.762  -3.630  0.00  0.00     0.000 A 
ATOM     31  C   UNL d   1      11.819   8.398  -3.615  0.00  0.00     0.002 A 
ATOM     32  C   UNL d   1      11.724   7.651  -4.801  0.00  0.00     0.017 A 
ENDBRANCH  24  27
ENDBRANCH  20  21
ENDBRANCH  19  20
ENDBRANCH  18  19
ENDBRANCH   3  18
TORSDOF 6
