REMARK  8 active torsions:
REMARK  status: ('A' for Active; 'I' for Inactive)
REMARK    1  A    between atoms: C_2  and  C_3 
REMARK    2  A    between atoms: N_16  and  C_17 
REMARK    3  A    between atoms: C_17  and  C_18 
REMARK    4  A    between atoms: C_18  and  C_20 
REMARK    5  A    between atoms: C_20  and  N_21 
REMARK    6  A    between atoms: N_24  and  C_25 
REMARK    7  A    between atoms: C_25  and  C_26 
REMARK    8  A    between atoms: C_25  and  C_32 
ROOT
ATOM      1  C   UNL d   1      12.083   3.841 -18.657  0.00  0.00     0.208 C 
ATOM      2  O   UNL d   1      11.752   2.487 -18.392  0.00  0.00    -0.219 OA
ENDROOT
BRANCH   1   3
ATOM      3  C   UNL d   1      13.155   3.813 -19.766  0.00  0.00     0.148 C 
BRANCH   3   4
ATOM      4  N   UNL d   1      13.567   5.128 -20.284  0.00  0.00    -0.247 N 
ATOM      5  C   UNL d   1      12.757   6.067 -20.799  0.00  0.00     0.348 C 
ATOM      6  N   UNL d   1      13.516   7.058 -21.265  0.00  0.00    -0.209 NA
ATOM      7  O   UNL d   1      11.526   6.041 -20.865  0.00  0.00    -0.245 OA
ATOM      8  C   UNL d   1      14.944   6.886 -21.035  0.00  0.00     0.179 C 
ATOM      9  C   UNL d   1      15.646   6.950 -22.421  0.00  0.00     0.039 C 
ATOM     10  C   UNL d   1      14.852   5.468 -20.450  0.00  0.00     0.265 C 
ATOM     11  O   UNL d   1      15.811   4.732 -20.219  0.00  0.00    -0.269 OA
BRANCH   8  12
ATOM     12  C   UNL d   1      15.496   7.922 -20.011  0.00  0.00     0.006 A 
ATOM     13  C   UNL d   1      16.863   7.948 -19.565  0.00  0.00    -0.002 A 
ATOM     14  C   UNL d   1      17.303   8.989 -18.694  0.00  0.00    -0.000 A 
ATOM     15  C   UNL d   1      17.826   6.983 -19.960  0.00  0.00    -0.000 A 
ATOM     16  C   UNL d   1      16.407   9.983 -18.251  0.00  0.00    -0.000 A 
ATOM     17  C   UNL d   1      18.647   9.050 -18.245  0.00  0.00    -0.000 A 
ATOM     18  C   UNL d   1      15.062   9.945 -18.644  0.00  0.00    -0.000 A 
ATOM     19  C   UNL d   1      14.622   8.932 -19.515  0.00  0.00    -0.002 A 
ATOM     20  C   UNL d   1      19.574   8.082 -18.667  0.00  0.00    -0.000 A 
ATOM     21  C   UNL d   1      19.159   7.049 -19.517  0.00  0.00    -0.000 A 
ENDBRANCH   8  12
ENDBRANCH   3   4
ENDBRANCH   1   3
BRANCH   1  22
ATOM     22  C   UNL d   1      12.586   4.546 -17.374  0.00  0.00     0.285 C 
BRANCH  22  23
ATOM     23  N   UNL d   1      11.791   4.255 -16.188  0.00  0.00     0.144 N 
ATOM     24  C   UNL d   1      10.422   4.726 -16.301  0.00  0.00     0.286 C 
ATOM     25  C   UNL d   1       9.617   4.335 -15.069  0.00  0.00     0.286 C 
ATOM     26  N   UNL d   1      10.155   4.891 -13.822  0.00  0.00     0.147 N 
ATOM     27  C   UNL d   1      11.537   4.404 -13.732  0.00  0.00     0.286 C 
ATOM     28  C   UNL d   1      12.377   4.798 -14.971  0.00  0.00     0.286 C 
BRANCH  26  29
ATOM     29  C   UNL d   1       9.348   4.556 -12.609  0.00  0.00     0.264 C 
BRANCH  29  30
ATOM     30  C   UNL d   1       7.842   4.503 -12.860  0.00  0.00     0.013 A 
ATOM     31  C   UNL d   1       7.009   5.608 -12.572  0.00  0.00    -0.002 A 
ATOM     32  C   UNL d   1       5.638   5.529 -12.820  0.00  0.00    -0.000 A 
ATOM     33  C   UNL d   1       5.069   4.363 -13.351  0.00  0.00    -0.000 A 
ATOM     34  C   UNL d   1       5.883   3.252 -13.629  0.00  0.00    -0.000 A 
ATOM     35  C   UNL d   1       7.264   3.334 -13.403  0.00  0.00    -0.002 A 
ENDBRANCH  29  30
BRANCH  29  36
ATOM     36  C   UNL d   1       9.591   5.494 -11.411  0.00  0.00     0.013 A 
ATOM     37  C   UNL d   1       9.558   5.002 -10.089  0.00  0.00    -0.002 A 
ATOM     38  C   UNL d   1       9.806   5.848  -8.992  0.00  0.00    -0.000 A 
ATOM     39  C   UNL d   1      10.004   7.225  -9.191  0.00  0.00    -0.000 A 
ATOM     40  C   UNL d   1       9.960   7.746 -10.498  0.00  0.00    -0.000 A 
ATOM     41  C   UNL d   1       9.741   6.888 -11.596  0.00  0.00    -0.002 A 
ENDBRANCH  29  36
ENDBRANCH  26  29
ENDBRANCH  22  23
ENDBRANCH   1  22
TORSDOF 8
