REMARK  0 active torsions:
REMARK  status: ('A' for Active; 'I' for Inactive)
ROOT
ATOM      1  C   UNL d   1      11.824   0.077 -18.767  0.00  0.00     0.286 C 
ATOM      2  N   UNL d   1      10.583  -0.047 -18.012  0.00  0.00     0.143 N 
ATOM      3  C   UNL d   1       9.453  -0.166 -18.931  0.00  0.00     0.282 C 
ATOM      4  C   UNL d   1       8.112  -0.302 -18.195  0.00  0.00     0.178 C 
ATOM      5  O   UNL d   1       7.945   0.807 -17.320  0.00  0.00    -0.348 OA
ATOM      6  C   UNL d   1       8.991   0.907 -16.355  0.00  0.00     0.169 C 
ATOM      7  C   UNL d   1       8.711   2.005 -15.337  0.00  0.00     0.004 A 
ATOM      8  C   UNL d   1       7.380   2.213 -14.900  0.00  0.00     0.022 A 
ATOM      9  C   UNL d   1       7.125   3.209 -13.946  0.00  0.00     0.090 A 
ATOM     10  C   UNL d   1       8.159   3.969 -13.424  0.00  0.00     0.002 A 
ATOM     11  C   UNL d   1       9.493   3.778 -13.820  0.00  0.00    -0.007 A 
ATOM     12  C   UNL d   1       9.770   2.783 -14.785  0.00  0.00    -0.024 A 
ATOM     13  C   UNL d   1      11.210   2.586 -15.231  0.00  0.00     0.028 C 
ATOM     14  C   UNL d   1      11.449   1.301 -16.038  0.00  0.00     0.041 C 
ATOM     15  C   UNL d   1      10.347   1.077 -17.090  0.00  0.00     0.251 C 
ATOM     16  C   UNL d   1       7.617   4.928 -12.425  0.00  0.00     0.061 C 
ATOM     17  C   UNL d   1       6.095   4.684 -12.562  0.00  0.00     0.154 C 
ATOM     18  O   UNL d   1       5.907   3.548 -13.426  0.00  0.00    -0.331 OA
ENDROOT
TORSDOF 0
