REMARK  8 active torsions:
REMARK  status: ('A' for Active; 'I' for Inactive)
REMARK    1  A    between atoms: S_2  and  N_4 
REMARK    2  A    between atoms: S_2  and  C_24 
REMARK    3  A    between atoms: N_4  and  C_5 
REMARK    4  A    between atoms: C_5  and  C_6 
REMARK    5  A    between atoms: C_6  and  C_7 
REMARK    6  A    between atoms: C_7  and  C_8 
REMARK    7  A    between atoms: C_8  and  N_9 
REMARK    8  A    between atoms: N_12  and  C_13 
ROOT
ATOM      1  C   UNL d   1       9.093   7.900 -11.987  0.00  0.00     0.037 C 
ENDROOT
BRANCH   1   2
ATOM      2  C   UNL d   1       9.661   7.406 -10.637  0.00  0.00     0.029 C 
BRANCH   2   3
ATOM      3  C   UNL d   1      10.248   8.545  -9.785  0.00  0.00     0.139 C 
BRANCH   3   4
ATOM      4  N   UNL d   1      11.154   8.026  -8.757  0.00  0.00    -0.185 NA
BRANCH   4   5
ATOM      5  S   UNL d   1      10.577   7.158  -7.379  0.00  0.00     0.283 S 
ATOM      6  O   UNL d   1       9.120   7.034  -7.469  0.00  0.00    -0.199 OA
ATOM      7  O   UNL d   1      11.437   5.984  -7.240  0.00  0.00    -0.199 OA
BRANCH   5   8
ATOM      8  C   UNL d   1      10.943   8.228  -6.022  0.00  0.00     0.123 A 
ATOM      9  C   UNL d   1      11.459   7.728  -4.793  0.00  0.00     0.100 A 
ATOM     10  C   UNL d   1      11.650   8.664  -3.733  0.00  0.00     0.049 A 
ATOM     11  N   UNL d   1      11.812   6.435  -4.439  0.00  0.00    -0.236 NA
ATOM     12  C   UNL d   1      11.336  10.002  -3.889  0.00  0.00     0.008 A 
ATOM     13  S   UNL d   1      12.262   7.909  -2.281  0.00  0.00    -0.064 SA
ATOM     14  C   UNL d   1      10.857  10.464  -5.113  0.00  0.00     0.001 A 
ATOM     15  C   UNL d   1      10.668   9.596  -6.199  0.00  0.00     0.015 A 
ATOM     16  C   UNL d   1      12.240   6.413  -3.172  0.00  0.00     0.135 A 
ENDBRANCH   5   8
ENDBRANCH   4   5
ENDBRANCH   3   4
ENDBRANCH   2   3
ENDBRANCH   1   2
BRANCH   1  17
ATOM     17  C   UNL d   1       7.804   7.160 -12.406  0.00  0.00     0.251 C 
BRANCH  17  18
ATOM     18  N   UNL d   1       7.969   5.716 -12.457  0.00  0.00     0.141 N 
ATOM     19  C   UNL d   1       8.858   5.319 -13.551  0.00  0.00     0.274 C 
ATOM     20  C   UNL d   1       8.997   3.792 -13.579  0.00  0.00     0.138 C 
ATOM     21  N   UNL d   1       7.677   3.185 -13.691  0.00  0.00    -0.328 N 
ATOM     22  C   UNL d   1       6.702   3.620 -12.692  0.00  0.00     0.138 C 
ATOM     23  C   UNL d   1       6.633   5.139 -12.642  0.00  0.00     0.274 C 
BRANCH  21  24
ATOM     24  C   UNL d   1       7.419   2.203 -14.647  0.00  0.00     0.169 A 
ATOM     25  C   UNL d   1       6.411   1.204 -14.612  0.00  0.00     0.061 A 
ATOM     26  C   UNL d   1       6.472   0.480 -15.813  0.00  0.00     0.128 A 
ATOM     27  C   UNL d   1       5.431   0.853 -13.651  0.00  0.00     0.005 A 
ATOM     28  O   UNL d   1       7.533   1.032 -16.518  0.00  0.00    -0.210 OA
ATOM     29  C   UNL d   1       5.588  -0.569 -16.129  0.00  0.00     0.027 A 
ATOM     30  N   UNL d   1       8.119   2.088 -15.771  0.00  0.00    -0.109 NA
ATOM     31  C   UNL d   1       4.582  -0.887 -15.190  0.00  0.00     0.002 A 
ATOM     32  C   UNL d   1       4.499  -0.165 -13.974  0.00  0.00     0.000 A 
ENDBRANCH  21  24
ENDBRANCH  17  18
ENDBRANCH   1  17
TORSDOF 8
