REMARK  6 active torsions:
REMARK  status: ('A' for Active; 'I' for Inactive)
REMARK    1  A    between atoms: C_2  and  C_3 
REMARK    2  A    between atoms: C_3  and  N_4 
REMARK    3  A    between atoms: N_4  and  C_5 
REMARK    4  A    between atoms: C_13  and  C_14 
REMARK    5  A    between atoms: C_14  and  S_15 
REMARK    6  A    between atoms: S_15  and  C_18 
ROOT
ATOM      1  C   UNL d   1       7.806   4.130 -12.603  0.00  0.00     0.261 C 
ATOM      2  C   UNL d   1       6.554   3.736 -13.435  0.00  0.00     0.041 C 
ATOM      3  C   UNL d   1       6.549   2.287 -13.869  0.00  0.00     0.028 C 
ATOM      4  C   UNL d   1       7.887   1.799 -14.433  0.00  0.00    -0.029 A 
ATOM      5  C   UNL d   1       9.083   2.520 -14.177  0.00  0.00    -0.024 A 
ATOM      6  C   UNL d   1      10.318   2.025 -14.663  0.00  0.00    -0.004 A 
ATOM      7  C   UNL d   1      10.360   0.822 -15.380  0.00  0.00    -0.001 A 
ATOM      8  C   UNL d   1       9.181   0.110 -15.627  0.00  0.00    -0.004 A 
ATOM      9  C   UNL d   1       7.929   0.593 -15.160  0.00  0.00    -0.010 A 
ATOM     10  C   UNL d   1       9.097   3.829 -13.402  0.00  0.00     0.062 C 
ENDROOT
BRANCH   9  11
ATOM     11  C   UNL d   1       6.673  -0.215 -15.448  0.00  0.00     0.157 C 
BRANCH  11  12
ATOM     12  S   UNL d   1       6.348  -0.318 -17.259  0.00  0.00     0.262 S 
ATOM     13  O   UNL d   1       5.836   1.000 -17.675  0.00  0.00    -0.217 OA
ATOM     14  O   UNL d   1       7.512  -0.882 -17.959  0.00  0.00    -0.217 OA
BRANCH  12  15
ATOM     15  C   UNL d   1       4.980  -1.547 -17.319  0.00  0.00     0.499 C 
ATOM     16  F   UNL d   1       4.658  -1.768 -18.593  0.00  0.00    -0.157 F 
ATOM     17  F   UNL d   1       5.398  -2.683 -16.759  0.00  0.00    -0.157 F 
ATOM     18  F   UNL d   1       3.927  -1.075 -16.657  0.00  0.00    -0.157 F 
ENDBRANCH  12  15
ENDBRANCH  11  12
ENDBRANCH   9  11
BRANCH   1  19
ATOM     19  N   UNL d   1       7.822   5.456 -12.041  0.00  0.00     0.337 N 
BRANCH  19  20
ATOM     20  C   UNL d   1       7.277   6.421 -12.974  0.00  0.00     0.290 C 
BRANCH  20  21
ATOM     21  C   UNL d   1       7.174   7.828 -12.434  0.00  0.00     0.038 C 
ATOM     22  C   UNL d   1       5.717   8.177 -12.069  0.00  0.00     0.002 C 
ENDBRANCH  20  21
ENDBRANCH  19  20
ENDBRANCH   1  19
TORSDOF 6
