REMARK  1 active torsions:
REMARK  status: ('A' for Active; 'I' for Inactive)
REMARK    1  A    between atoms: C_4  and  C_5 
ROOT
ATOM      1  C   UNL d   1       9.473   3.111 -13.997  0.00  0.00     0.058 C 
ATOM      2  C   UNL d   1      10.202   3.698 -15.206  0.00  0.00     0.046 C 
ATOM      3  C   UNL d   1      10.599   2.487 -16.081  0.00  0.00     0.259 C 
ATOM      4  C   UNL d   1       9.882   2.463 -17.402  0.00  0.00     0.086 A 
ATOM      5  N   UNL d   1       9.878   3.484 -18.338  0.00  0.00    -0.248 NA
ATOM      6  C   UNL d   1       9.152   3.111 -19.456  0.00  0.00     0.081 A 
ATOM      7  C   UNL d   1       8.857   3.778 -20.660  0.00  0.00     0.019 A 
ATOM      8  C   UNL d   1       8.075   3.132 -21.636  0.00  0.00     0.002 A 
ATOM      9  C   UNL d   1       7.593   1.831 -21.398  0.00  0.00     0.000 A 
ATOM     10  C   UNL d   1       7.892   1.169 -20.188  0.00  0.00     0.001 A 
ATOM     11  C   UNL d   1       8.680   1.790 -19.189  0.00  0.00     0.015 A 
ATOM     12  C   UNL d   1       9.164   1.409 -17.890  0.00  0.00    -0.003 A 
ATOM     13  C   UNL d   1       9.000   0.150 -17.099  0.00  0.00     0.063 C 
ATOM     14  C   UNL d   1      10.080   0.067 -15.986  0.00  0.00     0.255 C 
ATOM     15  N   UNL d   1      10.257   1.323 -15.243  0.00  0.00     0.141 N 
ATOM     16  C   UNL d   1       9.085   1.715 -14.475  0.00  0.00     0.255 C 
ENDROOT
BRANCH   1  17
ATOM     17  C   UNL d   1       8.331   3.971 -13.456  0.00  0.00    -0.021 A 
ATOM     18  C   UNL d   1       6.977   3.603 -13.633  0.00  0.00    -0.004 A 
ATOM     19  C   UNL d   1       5.947   4.400 -13.097  0.00  0.00    -0.000 A 
ATOM     20  C   UNL d   1       6.259   5.578 -12.389  0.00  0.00    -0.000 A 
ATOM     21  C   UNL d   1       7.602   5.952 -12.206  0.00  0.00    -0.000 A 
ATOM     22  C   UNL d   1       8.635   5.151 -12.736  0.00  0.00    -0.004 A 
ENDBRANCH   1  17
TORSDOF 1
