REMARK  5 active torsions:
REMARK  status: ('A' for Active; 'I' for Inactive)
REMARK    1  A    between atoms: N_11  and  C_12 
REMARK    2  A    between atoms: C_12  and  C_13 
REMARK    3  A    between atoms: C_13  and  C_14 
REMARK    4  A    between atoms: C_17  and  N_18 
REMARK       I    between atoms: N_18  and  C_19 
REMARK    5  A    between atoms: C_19  and  C_21 
ROOT
ATOM      1  N   UNL d   1      11.418   7.774 -21.061  0.00  0.00    -0.191 NA
ATOM      2  C   UNL d   1      11.523   7.321 -20.006  0.00  0.00     0.101 C 
ATOM      3  C   UNL d   1      11.641   6.735 -18.683  0.00  0.00     0.068 A 
ATOM      4  C   UNL d   1      12.646   7.170 -17.797  0.00  0.00     0.010 A 
ATOM      5  C   UNL d   1      12.747   6.566 -16.528  0.00  0.00    -0.004 A 
ATOM      6  C   UNL d   1      11.899   5.516 -16.152  0.00  0.00    -0.024 A 
ATOM      7  C   UNL d   1      10.864   5.080 -17.044  0.00  0.00    -0.023 A 
ATOM      8  C   UNL d   1      10.755   5.715 -18.291  0.00  0.00     0.006 A 
ATOM      9  C   UNL d   1       9.901   3.951 -16.712  0.00  0.00     0.061 C 
ATOM     10  C   UNL d   1       9.099   4.144 -15.427  0.00  0.00     0.255 C 
ATOM     11  N   UNL d   1       9.884   3.836 -14.245  0.00  0.00     0.138 N 
ATOM     12  C   UNL d   1      10.871   4.846 -13.922  0.00  0.00     0.255 C 
ATOM     13  C   UNL d   1      12.105   4.864 -14.803  0.00  0.00     0.061 C 
ENDROOT
BRANCH  11  14
ATOM     14  C   UNL d   1       8.995   3.667 -13.098  0.00  0.00     0.250 C 
BRANCH  14  15
ATOM     15  C   UNL d   1       8.007   4.857 -12.812  0.00  0.00     0.035 C 
BRANCH  15  16
ATOM     16  C   UNL d   1       8.271   5.681 -11.537  0.00  0.00     0.002 C 
ATOM     17  C   UNL d   1       9.520   6.577 -11.694  0.00  0.00     0.002 C 
ATOM     18  C   UNL d   1       9.819   7.427 -10.469  0.00  0.00     0.024 C 
ATOM     19  C   UNL d   1       9.940   6.502  -9.259  0.00  0.00     0.107 C 
ATOM     20  C   UNL d   1       8.705   5.620  -9.043  0.00  0.00     0.024 C 
ATOM     21  C   UNL d   1       8.404   4.789 -10.286  0.00  0.00     0.002 C 
BRANCH  19  22
ATOM     22  N   UNL d   1      10.141   7.311  -8.086  0.00  0.00    -0.236 NA
ATOM     23  C   UNL d   1      10.994   7.022  -7.092  0.00  0.00     0.275 C 
ATOM     24  O   UNL d   1      11.672   6.006  -7.066  0.00  0.00    -0.266 OA
BRANCH  23  25
ATOM     25  C   UNL d   1      11.038   8.034  -5.984  0.00  0.00     0.059 A 
ATOM     26  C   UNL d   1      11.473   7.728  -4.654  0.00  0.00     0.022 A 
ATOM     27  C   UNL d   1      11.561   8.755  -3.668  0.00  0.00     0.082 A 
ATOM     28  C   UNL d   1      11.860   6.447  -4.234  0.00  0.00     0.003 A 
ATOM     29  C   UNL d   1      11.138  10.025  -3.988  0.00  0.00     0.019 A 
ATOM     30  N   UNL d   1      11.997   8.573  -2.411  0.00  0.00    -0.244 NA
ATOM     31  C   UNL d   1      10.680  10.312  -5.266  0.00  0.00     0.002 A 
ATOM     32  C   UNL d   1      10.659   9.353  -6.275  0.00  0.00     0.005 A 
ATOM     33  C   UNL d   1      12.345   7.343  -2.041  0.00  0.00     0.099 A 
ATOM     34  C   UNL d   1      12.307   6.273  -2.918  0.00  0.00     0.021 A 
ENDBRANCH  23  25
ENDBRANCH  19  22
ENDBRANCH  15  16
ENDBRANCH  14  15
ENDBRANCH  11  14
TORSDOF 5
