REMARK  8 active torsions:
REMARK  status: ('A' for Active; 'I' for Inactive)
REMARK    1  A    between atoms: C_6  and  C_7 
REMARK    2  A    between atoms: C_10  and  S_11 
REMARK    3  A    between atoms: S_11  and  C_12 
REMARK    4  A    between atoms: C_12  and  C_13 
REMARK    5  A    between atoms: C_13  and  C_14 
REMARK    6  A    between atoms: C_14  and  C_15 
REMARK    7  A    between atoms: C_15  and  N_16 
REMARK    8  A    between atoms: C_23  and  C_24 
ROOT
ATOM      1  C   UNL d   1      10.358   4.497 -22.779  0.00  0.00     0.036 C 
ENDROOT
BRANCH   1   2
ATOM      2  C   UNL d   1       9.383   3.329 -22.705  0.00  0.00     0.014 C 
BRANCH   2   3
ATOM      3  C   UNL d   1       7.904   3.769 -22.790  0.00  0.00     0.065 C 
BRANCH   3   4
ATOM      4  S   UNL d   1       6.732   2.377 -22.860  0.00  0.00    -0.076 SA
BRANCH   4   5
ATOM      5  C   UNL d   1       7.029   1.605 -21.309  0.00  0.00     0.193 A 
ATOM      6  N   UNL d   1       8.031   1.877 -20.497  0.00  0.00    -0.122 NA
ATOM      7  N   UNL d   1       7.983   0.969 -19.488  0.00  0.00    -0.128 NA
ATOM      8  C   UNL d   1       6.834   0.294 -19.681  0.00  0.00     0.167 A 
ATOM      9  N   UNL d   1       6.210   0.635 -20.823  0.00  0.00    -0.289 N 
ATOM     10  C   UNL d   1       4.969   0.150 -21.410  0.00  0.00     0.134 C 
BRANCH   8  11
ATOM     11  C   UNL d   1       6.349  -0.666 -18.709  0.00  0.00     0.037 A 
ATOM     12  C   UNL d   1       6.207  -0.339 -17.326  0.00  0.00     0.021 A 
ATOM     13  C   UNL d   1       6.574   0.928 -16.800  0.00  0.00     0.003 A 
ATOM     14  C   UNL d   1       5.683  -1.304 -16.415  0.00  0.00     0.081 A 
ATOM     15  C   UNL d   1       6.452   1.179 -15.423  0.00  0.00     0.015 A 
ATOM     16  C   UNL d   1       5.921   0.158 -14.617  0.00  0.00     0.059 A 
ATOM     17  C   UNL d   1       5.742   0.369 -13.141  0.00  0.00     0.052 C 
ATOM     18  N   UNL d   1       5.525  -1.042 -15.098  0.00  0.00    -0.250 NA
ATOM     19  C   UNL d   1       5.341  -2.582 -16.918  0.00  0.00     0.019 A 
ATOM     20  C   UNL d   1       5.506  -2.916 -18.275  0.00  0.00     0.002 A 
ATOM     21  C   UNL d   1       6.011  -1.958 -19.166  0.00  0.00     0.003 A 
ENDBRANCH   8  11
ENDBRANCH   4   5
ENDBRANCH   3   4
ENDBRANCH   2   3
ENDBRANCH   1   2
BRANCH   1  22
ATOM     22  C   UNL d   1      11.772   3.999 -22.449  0.00  0.00     0.250 C 
BRANCH  22  23
ATOM     23  N   UNL d   1      12.797   4.956 -22.852  0.00  0.00     0.138 N 
ATOM     24  C   UNL d   1      12.629   6.318 -22.343  0.00  0.00     0.255 C 
ATOM     25  C   UNL d   1      12.799   6.475 -20.820  0.00  0.00     0.061 C 
ATOM     26  C   UNL d   1      14.259   6.575 -20.396  0.00  0.00    -0.026 A 
ATOM     27  C   UNL d   1      15.133   5.479 -20.633  0.00  0.00    -0.023 A 
ATOM     28  C   UNL d   1      14.768   7.756 -19.785  0.00  0.00    -0.002 A 
ATOM     29  C   UNL d   1      14.648   4.201 -21.297  0.00  0.00     0.061 C 
ATOM     30  C   UNL d   1      16.493   5.554 -20.259  0.00  0.00     0.017 A 
ATOM     31  C   UNL d   1      14.149   4.414 -22.739  0.00  0.00     0.255 C 
ATOM     32  C   UNL d   1      17.003   6.703 -19.629  0.00  0.00     0.105 A 
ATOM     33  C   UNL d   1      16.128   7.785 -19.418  0.00  0.00     0.115 A 
ATOM     34  N   UNL d   1      18.259   7.011 -19.146  0.00  0.00    -0.217 NA
ATOM     35  O   UNL d   1      16.853   8.802 -18.824  0.00  0.00    -0.285 OA
ATOM     36  C   UNL d   1      18.110   8.271 -18.703  0.00  0.00     0.256 A 
ATOM     37  C   UNL d   1      13.902   8.978 -19.520  0.00  0.00     0.033 C 
BRANCH  36  38
ATOM     38  C   UNL d   1      19.176   9.119 -18.082  0.00  0.00     0.458 C 
ATOM     39  F   UNL d   1      20.293   9.083 -18.813  0.00  0.00    -0.163 F 
ATOM     40  F   UNL d   1      18.782  10.388 -17.984  0.00  0.00    -0.163 F 
ATOM     41  F   UNL d   1      19.457   8.670 -16.858  0.00  0.00    -0.163 F 
ENDBRANCH  36  38
ENDBRANCH  22  23
ENDBRANCH   1  22
TORSDOF 8
