REMARK  6 active torsions:
REMARK  status: ('A' for Active; 'I' for Inactive)
REMARK    1  A    between atoms: C_2  and  N_4 
REMARK    2  A    between atoms: N_4  and  C_5 
REMARK    3  A    between atoms: C_5  and  C_6 
REMARK    4  A    between atoms: C_6  and  C_8 
REMARK    5  A    between atoms: C_8  and  O_9 
REMARK    6  A    between atoms: O_9  and  C_10 
ROOT
ATOM      1  C   UNL d   1      10.580   7.766  -8.782  0.00  0.00     0.094 A 
ATOM      2  C   UNL d   1      10.627   8.813  -9.744  0.00  0.00     0.024 A 
ATOM      3  C   UNL d   1       9.890   8.685 -10.948  0.00  0.00     0.002 A 
ATOM      4  C   UNL d   1       9.231   7.528 -11.288  0.00  0.00     0.000 A 
ATOM      5  C   UNL d   1       9.185   6.504 -10.368  0.00  0.00     0.002 A 
ATOM      6  C   UNL d   1       8.391   5.428 -10.685  0.00  0.00     0.000 A 
ATOM      7  C   UNL d   1       8.254   4.427  -9.735  0.00  0.00     0.000 A 
ATOM      8  C   UNL d   1       8.916   4.479  -8.503  0.00  0.00     0.000 A 
ATOM      9  C   UNL d   1       9.689   5.591  -8.160  0.00  0.00     0.002 A 
ATOM     10  C   UNL d   1       9.840   6.614  -9.104  0.00  0.00     0.022 A 
ENDROOT
BRANCH   1  11
ATOM     11  O   UNL d   1      11.189   7.791  -7.534  0.00  0.00    -0.328 OA
BRANCH  11  12
ATOM     12  C   UNL d   1      12.071   8.854  -7.199  0.00  0.00     0.184 C 
BRANCH  12  13
ATOM     13  C   UNL d   1      11.870   9.307  -5.761  0.00  0.00     0.218 C 
ATOM     14  O   UNL d   1      10.707  10.105  -5.713  0.00  0.00    -0.218 OA
BRANCH  13  15
ATOM     15  C   UNL d   1      11.726   8.177  -4.752  0.00  0.00     0.325 C 
BRANCH  15  16
ATOM     16  N   UNL d   1      11.970   8.689  -3.427  0.00  0.00     0.340 N 
BRANCH  16  17
ATOM     17  C   UNL d   1      12.529   7.674  -2.560  0.00  0.00     0.257 C 
ATOM     18  C   UNL d   1      11.569   6.494  -2.383  0.00  0.00     0.038 C 
ATOM     19  C   UNL d   1      12.801   8.365  -1.255  0.00  0.00     0.038 C 
ENDBRANCH  16  17
ENDBRANCH  15  16
ENDBRANCH  13  15
ENDBRANCH  12  13
ENDBRANCH  11  12
ENDBRANCH   1  11
TORSDOF 6
