REMARK  0 active torsions:
REMARK  status: ('A' for Active; 'I' for Inactive)
ROOT
ATOM      1  N   UNL d   1      11.044   9.324  -9.518  0.00  0.00     0.616 N 
ATOM      2  C   UNL d   1      11.323   8.509  -8.355  0.00  0.00     0.307 C 
ATOM      3  C   UNL d   1      10.197   7.505  -8.135  0.00  0.00     0.044 C 
ATOM      4  C   UNL d   1      10.535   6.582  -6.959  0.00  0.00     0.028 C 
ATOM      5  C   UNL d   1      11.085   7.304  -5.735  0.00  0.00    -0.024 A 
ATOM      6  C   UNL d   1      11.201   6.610  -4.514  0.00  0.00     0.025 A 
ATOM      7  C   UNL d   1      11.743   7.226  -3.373  0.00  0.00     0.156 A 
ATOM      8  O   UNL d   1      11.787   6.536  -2.195  0.00  0.00    -0.188 OA
ATOM      9  C   UNL d   1      12.178   8.566  -3.441  0.00  0.00     0.156 A 
ATOM     10  O   UNL d   1      12.655   9.178  -2.314  0.00  0.00    -0.188 OA
ATOM     11  C   UNL d   1      12.078   9.256  -4.670  0.00  0.00     0.025 A 
ATOM     12  C   UNL d   1      11.534   8.637  -5.809  0.00  0.00    -0.022 A 
ATOM     13  C   UNL d   1      11.490   9.404  -7.119  0.00  0.00     0.065 C 
ENDROOT
TORSDOF 0
