REMARK  11 active torsions:
REMARK  status: ('A' for Active; 'I' for Inactive)
REMARK    1  A    between atoms: C_2  and  C_3 
REMARK    2  A    between atoms: C_2  and  C_29 
REMARK    3  A    between atoms: C_3  and  N_4 
REMARK    4  A    between atoms: N_4  and  C_5 
REMARK    5  A    between atoms: N_8  and  C_9 
REMARK    6  A    between atoms: C_9  and  C_10 
REMARK    7  A    between atoms: C_10  and  S_11 
REMARK    8  A    between atoms: S_11  and  C_12 
REMARK    9  A    between atoms: C_12  and  C_13 
REMARK   10  A    between atoms: C_12  and  C_20 
REMARK   11  A    between atoms: C_29  and  C_30 
ROOT
ATOM      1  C   UNL d   1       7.940   4.950 -13.584  0.00  0.00     0.262 C 
ENDROOT
BRANCH   1   2
ATOM      2  N   UNL d   1       8.731   5.175 -12.376  0.00  0.00     0.138 N 
ATOM      3  C   UNL d   1       8.001   4.653 -11.220  0.00  0.00     0.252 C 
ATOM      4  C   UNL d   1       8.838   4.803  -9.933  0.00  0.00     0.071 C 
ATOM      5  C   UNL d   1       9.194   6.271  -9.684  0.00  0.00     0.261 C 
ATOM      6  C   UNL d   1       9.808   6.859 -10.961  0.00  0.00     0.071 C 
ATOM      7  C   UNL d   1       8.942   6.608 -12.195  0.00  0.00     0.252 C 
BRANCH   5   8
ATOM      8  N   UNL d   1      10.089   6.403  -8.532  0.00  0.00     0.340 N 
BRANCH   8   9
ATOM      9  C   UNL d   1      10.569   7.767  -8.299  0.00  0.00     0.323 C 
BRANCH   9  10
ATOM     10  C   UNL d   1      11.406   7.862  -7.029  0.00  0.00     0.193 C 
ATOM     11  O   UNL d   1      11.859   9.200  -7.018  0.00  0.00    -0.221 OA
BRANCH  10  12
ATOM     12  C   UNL d   1      10.599   7.534  -5.760  0.00  0.00     0.061 C 
BRANCH  12  13
ATOM     13  C   UNL d   1      11.368   7.833  -4.491  0.00  0.00    -0.020 A 
ATOM     14  C   UNL d   1      11.492   9.162  -4.044  0.00  0.00    -0.004 A 
ATOM     15  C   UNL d   1      12.143   9.434  -2.833  0.00  0.00    -0.000 A 
ATOM     16  C   UNL d   1      12.660   8.391  -2.051  0.00  0.00    -0.000 A 
ATOM     17  C   UNL d   1      12.508   7.058  -2.473  0.00  0.00    -0.000 A 
ATOM     18  C   UNL d   1      11.864   6.784  -3.692  0.00  0.00    -0.004 A 
ENDBRANCH  12  13
ENDBRANCH  10  12
ENDBRANCH   9  10
ENDBRANCH   8   9
ENDBRANCH   5   8
ENDBRANCH   1   2
BRANCH   1  19
ATOM     19  C   UNL d   1       8.277   3.596 -14.218  0.00  0.00     0.093 C 
BRANCH  19  20
ATOM     20  S   UNL d   1       6.811   2.542 -14.476  0.00  0.00    -0.130 SA
BRANCH  20  21
ATOM     21  C   UNL d   1       7.509   1.034 -15.219  0.00  0.00     0.092 C 
BRANCH  21  22
ATOM     22  C   UNL d   1       8.747   1.347 -16.067  0.00  0.00    -0.008 A 
ATOM     23  C   UNL d   1      10.012   0.858 -15.665  0.00  0.00    -0.001 A 
ATOM     24  C   UNL d   1      11.159   1.128 -16.436  0.00  0.00     0.029 A 
ATOM     25  C   UNL d   1      11.060   1.869 -17.628  0.00  0.00     0.140 A 
ATOM     26  C   UNL d   1       9.807   2.381 -18.028  0.00  0.00     0.029 A 
ATOM     27  F   UNL d   1      12.166   2.110 -18.373  0.00  0.00    -0.204 F 
ATOM     28  C   UNL d   1       8.666   2.158 -17.225  0.00  0.00    -0.001 A 
ENDBRANCH  21  22
BRANCH  21  29
ATOM     29  C   UNL d   1       6.405   0.249 -15.942  0.00  0.00    -0.008 A 
ATOM     30  C   UNL d   1       5.731  -0.811 -15.277  0.00  0.00    -0.001 A 
ATOM     31  C   UNL d   1       4.727  -1.554 -15.936  0.00  0.00     0.029 A 
ATOM     32  C   UNL d   1       4.385  -1.254 -17.269  0.00  0.00     0.140 A 
ATOM     33  C   UNL d   1       5.036  -0.199 -17.935  0.00  0.00     0.029 A 
ATOM     34  F   UNL d   1       3.437  -1.965 -17.916  0.00  0.00    -0.204 F 
ATOM     35  C   UNL d   1       6.031   0.561 -17.281  0.00  0.00    -0.001 A 
ENDBRANCH  21  29
ENDBRANCH  20  21
ENDBRANCH  19  20
ENDBRANCH   1  19
TORSDOF 11
