REMARK  6 active torsions:
REMARK  status: ('A' for Active; 'I' for Inactive)
REMARK    1  A    between atoms: O_2  and  C_3 
REMARK    2  A    between atoms: C_8  and  N_9 
REMARK    3  A    between atoms: N_12  and  C_13 
REMARK    4  A    between atoms: C_13  and  C_14 
REMARK    5  A    between atoms: C_14  and  C_15 
REMARK    6  A    between atoms: C_15  and  N_16 
ROOT
ATOM      1  C   UNL d   1      12.102   4.706 -15.440  0.00  0.00     0.252 C 
ENDROOT
BRANCH   1   2
ATOM      2  N   UNL d   1      12.296   5.576 -16.602  0.00  0.00     0.141 N 
ATOM      3  C   UNL d   1      12.625   6.942 -16.170  0.00  0.00     0.274 C 
ATOM      4  C   UNL d   1      12.801   7.885 -17.385  0.00  0.00     0.137 C 
ATOM      5  N   UNL d   1      13.793   7.334 -18.293  0.00  0.00    -0.343 N 
ATOM      6  C   UNL d   1      13.608   5.944 -18.678  0.00  0.00     0.137 C 
ATOM      7  C   UNL d   1      13.400   5.064 -17.429  0.00  0.00     0.274 C 
BRANCH   5   8
ATOM      8  C   UNL d   1      14.919   8.066 -18.705  0.00  0.00     0.079 A 
ATOM      9  C   UNL d   1      16.227   7.586 -18.439  0.00  0.00     0.110 A 
ATOM     10  C   UNL d   1      17.341   8.335 -18.895  0.00  0.00     0.026 A 
ATOM     11  C   UNL d   1      17.157   9.529 -19.610  0.00  0.00     0.002 A 
ATOM     12  C   UNL d   1      15.858   9.999 -19.869  0.00  0.00     0.002 A 
ATOM     13  C   UNL d   1      14.742   9.278 -19.403  0.00  0.00     0.019 A 
BRANCH   9  14
ATOM     14  O   UNL d   1      16.343   6.422 -17.705  0.00  0.00    -0.327 OA
ATOM     15  C   UNL d   1      17.636   5.990 -17.322  0.00  0.00     0.181 C 
ENDBRANCH   9  14
ENDBRANCH   5   8
ENDBRANCH   1   2
BRANCH   1  16
ATOM     16  C   UNL d   1      11.123   3.564 -15.761  0.00  0.00     0.060 C 
BRANCH  16  17
ATOM     17  C   UNL d   1      10.914   2.603 -14.575  0.00  0.00     0.106 C 
BRANCH  17  18
ATOM     18  N   UNL d   1       9.817   1.663 -14.848  0.00  0.00    -0.317 N 
ATOM     19  C   UNL d   1       8.518   2.024 -14.663  0.00  0.00     0.257 C 
ATOM     20  C   UNL d   1       7.439   1.087 -15.151  0.00  0.00     0.052 A 
ATOM     21  O   UNL d   1       8.189   3.083 -14.123  0.00  0.00    -0.267 OA
ATOM     22  C   UNL d   1       7.505   0.466 -16.426  0.00  0.00    -0.018 A 
ATOM     23  C   UNL d   1       6.306   0.858 -14.334  0.00  0.00     0.004 A 
ATOM     24  C   UNL d   1       8.675   0.719 -17.366  0.00  0.00     0.029 C 
ATOM     25  C   UNL d   1       6.470  -0.400 -16.841  0.00  0.00    -0.004 A 
ATOM     26  C   UNL d   1      10.010   0.166 -16.837  0.00  0.00     0.029 C 
ATOM     27  C   UNL d   1      10.217   0.333 -15.322  0.00  0.00     0.105 C 
ATOM     28  C   UNL d   1       5.363  -0.641 -16.006  0.00  0.00    -0.000 A 
ATOM     29  C   UNL d   1       5.278  -0.008 -14.756  0.00  0.00     0.000 A 
ENDBRANCH  17  18
ENDBRANCH  16  17
ENDBRANCH   1  16
TORSDOF 6
