REMARK  4 active torsions:
REMARK  status: ('A' for Active; 'I' for Inactive)
REMARK    1  A    between atoms: C_2  and  C_3 
REMARK    2  A    between atoms: N_8  and  C_9 
REMARK    3  A    between atoms: C_9  and  C_10 
REMARK    4  A    between atoms: C_15  and  C_16 
ROOT
ATOM      1  C   UNL d   1       8.169   3.145 -13.626  0.00  0.00     0.007 C 
ATOM      2  C   UNL d   1       7.317   2.191 -14.053  0.00  0.00     0.087 A 
ATOM      3  S   UNL d   1       5.847   1.671 -13.284  0.00  0.00    -0.054 SA
ATOM      4  C   UNL d   1       5.530   0.445 -14.524  0.00  0.00     0.150 A 
ATOM      5  S   UNL d   1       4.159  -0.505 -14.437  0.00  0.00    -0.052 SA
ATOM      6  N   UNL d   1       6.527   0.494 -15.449  0.00  0.00    -0.271 N 
ATOM      7  C   UNL d   1       7.523   1.395 -15.258  0.00  0.00     0.268 A 
ATOM      8  O   UNL d   1       8.478   1.520 -16.028  0.00  0.00    -0.266 OA
ENDROOT
BRANCH   1   9
ATOM      9  C   UNL d   1       8.031   3.991 -12.438  0.00  0.00    -0.021 C 
ATOM     10  C   UNL d   1       6.661   4.231 -11.812  0.00  0.00     0.031 C 
ATOM     11  C   UNL d   1       9.118   4.615 -11.937  0.00  0.00    -0.004 C 
BRANCH  11  12
ATOM     12  C   UNL d   1       9.214   5.478 -10.738  0.00  0.00    -0.000 A 
ATOM     13  C   UNL d   1       9.857   6.731 -10.845  0.00  0.00    -0.000 A 
ATOM     14  C   UNL d   1       9.989   7.591  -9.739  0.00  0.00    -0.000 A 
ATOM     15  C   UNL d   1       9.476   7.201  -8.488  0.00  0.00    -0.000 A 
ATOM     16  C   UNL d   1       8.838   5.955  -8.360  0.00  0.00    -0.000 A 
ATOM     17  C   UNL d   1       8.704   5.099  -9.473  0.00  0.00    -0.000 A 
ENDBRANCH  11  12
ENDBRANCH   1   9
BRANCH   6  18
ATOM     18  C   UNL d   1       6.537  -0.395 -16.619  0.00  0.00     0.208 C 
BRANCH  18  19
ATOM     19  C   UNL d   1       5.832   0.228 -17.832  0.00  0.00     0.210 C 
ATOM     20  O   UNL d   1       6.272   1.187 -18.465  0.00  0.00    -0.646 OA
ATOM     21  O   UNL d   1       4.639  -0.381 -18.115  0.00  0.00    -0.646 OA
ENDBRANCH  18  19
ENDBRANCH   6  18
TORSDOF 4
