REMARK  7 active torsions:
REMARK  status: ('A' for Active; 'I' for Inactive)
REMARK    1  A    between atoms: O_2  and  C_3 
REMARK    2  A    between atoms: C_8  and  O_9 
REMARK    3  A    between atoms: O_9  and  C_10 
REMARK    4  A    between atoms: C_10  and  C_11 
REMARK    5  A    between atoms: C_11  and  C_13 
REMARK    6  A    between atoms: C_13  and  O_14 
REMARK    7  A    between atoms: O_14  and  C_15 
ROOT
ATOM      1  O   UNL d   1      11.103   7.625  -6.012  0.00  0.00    -0.326 OA
ENDROOT
BRANCH   1   2
ATOM      2  C   UNL d   1      11.471   7.853  -4.716  0.00  0.00     0.116 A 
ATOM      3  C   UNL d   1      11.502   9.184  -4.242  0.00  0.00     0.116 A 
ATOM      4  C   UNL d   1      11.864   9.441  -2.907  0.00  0.00     0.026 A 
ATOM      5  C   UNL d   1      12.263   8.388  -2.059  0.00  0.00     0.002 A 
ATOM      6  C   UNL d   1      12.252   7.063  -2.531  0.00  0.00     0.002 A 
ATOM      7  C   UNL d   1      11.853   6.796  -3.854  0.00  0.00     0.026 A 
BRANCH   3   8
ATOM      8  O   UNL d   1      11.121  10.252  -5.021  0.00  0.00    -0.326 OA
ATOM      9  C   UNL d   1      11.924  10.464  -6.182  0.00  0.00     0.181 C 
ENDBRANCH   3   8
ENDBRANCH   1   2
BRANCH   1  10
ATOM     10  C   UNL d   1      10.266   6.520  -6.272  0.00  0.00     0.184 C 
BRANCH  10  11
ATOM     11  C   UNL d   1       9.492   6.774  -7.573  0.00  0.00     0.212 C 
ATOM     12  O   UNL d   1       8.316   5.987  -7.623  0.00  0.00    -0.218 OA
BRANCH  11  13
ATOM     13  C   UNL d   1       9.094   8.260  -7.749  0.00  0.00     0.189 C 
BRANCH  13  14
ATOM     14  O   UNL d   1      10.192   9.015  -8.262  0.00  0.00    -0.280 OA
BRANCH  14  15
ATOM     15  C   UNL d   1      10.771   8.738  -9.453  0.00  0.00     0.406 C 
ATOM     16  N   UNL d   1       9.851   8.372 -10.405  0.00  0.00    -0.079 N 
ATOM     17  O   UNL d   1      11.983   8.788  -9.640  0.00  0.00    -0.234 OA
ENDBRANCH  14  15
ENDBRANCH  13  14
ENDBRANCH  11  13
ENDBRANCH  10  11
ENDBRANCH   1  10
TORSDOF 7
