REMARK  8 active torsions:
REMARK  status: ('A' for Active; 'I' for Inactive)
REMARK    1  A    between atoms: C_5  and  C_6 
REMARK    2  A    between atoms: N_8  and  C_9 
REMARK    3  A    between atoms: C_9  and  C_10 
REMARK    4  A    between atoms: C_10  and  C_11 
REMARK    5  A    between atoms: C_11  and  S_12 
REMARK    6  A    between atoms: S_12  and  C_13 
REMARK    7  A    between atoms: C_16  and  C_17 
REMARK    8  A    between atoms: C_20  and  C_21 
ROOT
ATOM      1  C   UNL d   1       9.996   2.007 -20.332  0.00  0.00     0.193 A 
ATOM      2  N   UNL d   1       9.318   2.911 -19.623  0.00  0.00    -0.122 NA
ATOM      3  N   UNL d   1      10.272   3.668 -18.990  0.00  0.00    -0.128 NA
ATOM      4  C   UNL d   1      11.452   3.195 -19.405  0.00  0.00     0.167 A 
ATOM      5  N   UNL d   1      11.335   2.141 -20.246  0.00  0.00    -0.289 N 
ATOM      6  C   UNL d   1      12.376   1.354 -20.895  0.00  0.00     0.134 C 
ENDROOT
BRANCH   1   7
ATOM      7  S   UNL d   1       9.239   0.735 -21.294  0.00  0.00    -0.075 SA
BRANCH   7   8
ATOM      8  C   UNL d   1       7.614   0.614 -20.473  0.00  0.00     0.067 C 
BRANCH   8   9
ATOM      9  C   UNL d   1       7.741   0.091 -19.030  0.00  0.00     0.047 C 
BRANCH   9  10
ATOM     10  C   UNL d   1       6.379  -0.255 -18.413  0.00  0.00     0.251 C 
BRANCH  10  11
ATOM     11  N   UNL d   1       6.400  -0.427 -16.963  0.00  0.00     0.143 N 
ATOM     12  C   UNL d   1       6.609   0.843 -16.261  0.00  0.00     0.284 C 
ATOM     13  C   UNL d   1       6.561   0.706 -14.722  0.00  0.00     0.171 C 
ATOM     14  O   UNL d   1       5.340   0.072 -14.331  0.00  0.00    -0.348 OA
ATOM     15  C   UNL d   1       5.136  -1.193 -14.959  0.00  0.00     0.178 C 
ATOM     16  C   UNL d   1       5.158  -1.031 -16.490  0.00  0.00     0.282 C 
BRANCH  13  17
ATOM     17  C   UNL d   1       6.738   2.066 -14.055  0.00  0.00     0.007 A 
ATOM     18  C   UNL d   1       7.924   2.807 -14.249  0.00  0.00    -0.002 A 
ATOM     19  C   UNL d   1       8.088   4.068 -13.640  0.00  0.00    -0.004 A 
ATOM     20  C   UNL d   1       7.062   4.596 -12.825  0.00  0.00    -0.022 A 
ATOM     21  C   UNL d   1       7.223   5.948 -12.167  0.00  0.00     0.031 C 
ATOM     22  C   UNL d   1       5.880   3.857 -12.624  0.00  0.00    -0.004 A 
ATOM     23  C   UNL d   1       5.724   2.599 -13.233  0.00  0.00    -0.002 A 
ENDBRANCH  13  17
ENDBRANCH  10  11
ENDBRANCH   9  10
ENDBRANCH   8   9
ENDBRANCH   7   8
ENDBRANCH   1   7
BRANCH   4  24
ATOM     24  C   UNL d   1      12.702   3.813 -18.978  0.00  0.00     0.036 A 
ATOM     25  C   UNL d   1      12.877   4.169 -17.627  0.00  0.00     0.003 A 
ATOM     26  C   UNL d   1      14.063   4.800 -17.213  0.00  0.00     0.003 A 
ATOM     27  C   UNL d   1      15.097   5.087 -18.133  0.00  0.00     0.038 A 
ATOM     28  C   UNL d   1      14.905   4.728 -19.489  0.00  0.00     0.003 A 
ATOM     29  C   UNL d   1      13.719   4.100 -19.911  0.00  0.00     0.003 A 
BRANCH  27  30
ATOM     30  C   UNL d   1      16.347   5.739 -17.698  0.00  0.00     0.191 A 
ATOM     31  N   UNL d   1      17.161   6.380 -18.577  0.00  0.00    -0.203 NA
ATOM     32  C   UNL d   1      18.131   6.784 -17.760  0.00  0.00     0.185 A 
ATOM     33  O   UNL d   1      17.967   6.388 -16.472  0.00  0.00    -0.195 OA
ATOM     34  C   UNL d   1      19.332   7.586 -18.113  0.00  0.00     0.083 C 
ATOM     35  N   UNL d   1      16.751   5.696 -16.439  0.00  0.00    -0.105 NA
ENDBRANCH  27  30
ENDBRANCH   4  24
TORSDOF 8
