REMARK  4 active torsions:
REMARK  status: ('A' for Active; 'I' for Inactive)
REMARK    1  A    between atoms: C_5  and  N_6 
REMARK    2  A    between atoms: N_9  and  C_10 
REMARK    3  A    between atoms: C_10  and  C_11 
REMARK    4  A    between atoms: C_11  and  C_12 
ROOT
ATOM      1  N   UNL d   1      10.285   8.135  -6.522  0.00  0.00    -0.344 N 
ATOM      2  C   UNL d   1       9.401   7.026  -6.855  0.00  0.00     0.137 C 
ATOM      3  C   UNL d   1       9.829   6.393  -8.188  0.00  0.00     0.274 C 
ATOM      4  N   UNL d   1       9.859   7.412  -9.246  0.00  0.00     0.141 N 
ATOM      5  C   UNL d   1      10.833   8.454  -8.894  0.00  0.00     0.274 C 
ATOM      6  C   UNL d   1      10.436   9.134  -7.570  0.00  0.00     0.137 C 
ENDROOT
BRANCH   4   7
ATOM      7  C   UNL d   1      10.212   6.833 -10.541  0.00  0.00     0.253 C 
BRANCH   7   8
ATOM      8  C   UNL d   1       9.210   5.755 -11.010  0.00  0.00     0.070 C 
BRANCH   8   9
ATOM      9  C   UNL d   1       9.223   5.503 -12.531  0.00  0.00     0.139 C 
ATOM     10  C   UNL d   1       8.177   4.488 -12.998  0.00  0.00     0.001 A 
ATOM     11  C   UNL d   1       8.528   3.525 -13.976  0.00  0.00    -0.021 A 
ATOM     12  C   UNL d   1       6.854   4.527 -12.502  0.00  0.00    -0.002 A 
ATOM     13  C   UNL d   1       9.950   3.468 -14.516  0.00  0.00     0.058 C 
ATOM     14  C   UNL d   1       7.567   2.600 -14.434  0.00  0.00    -0.004 A 
ATOM     15  C   UNL d   1      10.720   4.760 -14.233  0.00  0.00     0.147 C 
ATOM     16  O   UNL d   1      10.546   5.101 -12.871  0.00  0.00    -0.352 OA
ATOM     17  C   UNL d   1       6.262   2.632 -13.917  0.00  0.00    -0.000 A 
ATOM     18  C   UNL d   1       5.901   3.596 -12.955  0.00  0.00    -0.000 A 
ENDBRANCH   8   9
ENDBRANCH   7   8
ENDBRANCH   4   7
BRANCH   1  19
ATOM     19  C   UNL d   1      10.995   8.201  -5.314  0.00  0.00     0.056 A 
ATOM     20  C   UNL d   1      11.208   9.447  -4.678  0.00  0.00     0.019 A 
ATOM     21  C   UNL d   1      11.868   9.504  -3.431  0.00  0.00     0.031 A 
ATOM     22  C   UNL d   1      12.338   8.330  -2.828  0.00  0.00     0.140 A 
ATOM     23  F   UNL d   1      12.983   8.398  -1.639  0.00  0.00    -0.204 F 
ATOM     24  C   UNL d   1      12.140   7.090  -3.453  0.00  0.00     0.031 A 
ATOM     25  C   UNL d   1      11.466   7.023  -4.687  0.00  0.00     0.019 A 
ENDBRANCH   1  19
TORSDOF 4
