REMARK  4 active torsions:
REMARK  status: ('A' for Active; 'I' for Inactive)
REMARK       I    between atoms: N_4  and  C_5 
REMARK    1  A    between atoms: C_5  and  C_7 
REMARK    2  A    between atoms: C_7  and  N_8 
REMARK    3  A    between atoms: N_11  and  C_12 
REMARK    4  A    between atoms: C_12  and  C_13 
ROOT
ATOM      1  N   UNL d   1      10.946   4.345 -14.046  0.00  0.00     0.151 N 
ATOM      2  C   UNL d   1       9.936   5.393 -14.004  0.00  0.00     0.286 C 
ATOM      3  C   UNL d   1       9.334   5.601 -12.678  0.00  0.00     0.286 C 
ATOM      4  N   UNL d   1       8.791   4.446 -11.994  0.00  0.00     0.146 N 
ATOM      5  C   UNL d   1       9.858   3.429 -12.046  0.00  0.00     0.286 C 
ATOM      6  C   UNL d   1      10.368   3.140 -13.466  0.00  0.00     0.286 C 
ENDROOT
BRANCH   1   7
ATOM      7  C   UNL d   1      11.454   4.109 -15.383  0.00  0.00     0.337 C 
BRANCH   7   8
ATOM      8  C   UNL d   1      12.155   5.335 -16.016  0.00  0.00     0.272 C 
ATOM      9  N   UNL d   1      11.807   5.747 -17.242  0.00  0.00    -0.298 N 
ATOM     10  C   UNL d   1      10.611   5.280 -17.970  0.00  0.00     0.113 A 
ATOM     11  C   UNL d   1      12.526   6.638 -18.029  0.00  0.00     0.058 A 
ATOM     12  C   UNL d   1      10.566   6.091 -19.279  0.00  0.00     0.046 A 
ATOM     13  C   UNL d   1       9.344   7.014 -19.338  0.00  0.00     0.007 C 
ATOM     14  C   UNL d   1      11.856   6.865 -19.250  0.00  0.00    -0.005 A 
ATOM     15  C   UNL d   1      12.389   7.708 -20.241  0.00  0.00    -0.003 A 
ATOM     16  C   UNL d   1      13.632   8.324 -19.989  0.00  0.00    -0.000 A 
ATOM     17  C   UNL d   1      14.322   8.104 -18.786  0.00  0.00     0.002 A 
ATOM     18  C   UNL d   1      13.792   7.265 -17.801  0.00  0.00     0.017 A 
ATOM     19  O   UNL d   1      13.001   5.910 -15.330  0.00  0.00    -0.270 OA
ENDBRANCH   7   8
ENDBRANCH   1   7
BRANCH   4  20
ATOM     20  C   UNL d   1       8.240   4.790 -10.657  0.00  0.00     0.277 C 
BRANCH  20  21
ATOM     21  C   UNL d   1       9.105   5.702  -9.784  0.00  0.00     0.011 A 
ATOM     22  C   UNL d   1       9.365   7.020 -10.197  0.00  0.00    -0.002 A 
ATOM     23  C   UNL d   1      10.147   7.888  -9.468  0.00  0.00     0.011 A 
ATOM     24  C   UNL d   1      10.633   7.483  -8.219  0.00  0.00     0.058 A 
ATOM     25  C   UNL d   1      10.361   6.192  -7.735  0.00  0.00     0.011 A 
ATOM     26 CL   UNL d   1      11.567   8.598  -7.286  0.00  0.00    -0.082 Cl
ATOM     27  C   UNL d   1       9.603   5.290  -8.530  0.00  0.00    -0.002 A 
ENDBRANCH  20  21
ENDBRANCH   4  20
TORSDOF 4
