REMARK  6 active torsions:
REMARK  status: ('A' for Active; 'I' for Inactive)
REMARK    1  A    between atoms: O_2  and  C_3 
REMARK    2  A    between atoms: C_7  and  N_8 
REMARK    3  A    between atoms: N_11  and  C_12 
REMARK    4  A    between atoms: C_12  and  C_13 
REMARK    5  A    between atoms: C_13  and  O_14 
REMARK    6  A    between atoms: O_14  and  C_15 
ROOT
ATOM      1  N   UNL d   1       9.887   7.533  -7.586  0.00  0.00    -0.344 N 
ATOM      2  C   UNL d   1       9.955   8.074  -8.945  0.00  0.00     0.137 C 
ATOM      3  C   UNL d   1      10.119   6.933  -9.958  0.00  0.00     0.274 C 
ATOM      4  N   UNL d   1       9.034   5.963  -9.814  0.00  0.00     0.144 N 
ATOM      5  C   UNL d   1       9.044   5.397  -8.460  0.00  0.00     0.274 C 
ATOM      6  C   UNL d   1       8.863   6.506  -7.401  0.00  0.00     0.137 C 
ENDROOT
BRANCH   4   7
ATOM      7  C   UNL d   1       9.138   4.902 -10.808  0.00  0.00     0.283 C 
BRANCH   7   8
ATOM      8  C   UNL d   1       8.786   5.415 -12.220  0.00  0.00     0.184 C 
BRANCH   8   9
ATOM      9  O   UNL d   1       8.256   4.355 -13.013  0.00  0.00    -0.329 OA
BRANCH   9  10
ATOM     10  C   UNL d   1       9.076   3.546 -13.773  0.00  0.00     0.096 A 
ATOM     11  C   UNL d   1       8.454   2.425 -14.388  0.00  0.00     0.045 A 
ATOM     12  C   UNL d   1       9.251   1.591 -15.188  0.00  0.00     0.106 A 
ATOM     13  C   UNL d   1      10.586   1.843 -15.398  0.00  0.00     0.104 A 
ATOM     14  N   UNL d   1       8.949   0.426 -15.905  0.00  0.00    -0.189 NA
ATOM     15  C   UNL d   1      11.239   2.939 -14.818  0.00  0.00     0.023 A 
ATOM     16  N   UNL d   1      11.056   0.834 -16.238  0.00  0.00    -0.189 NA
ATOM     17  C   UNL d   1      10.467   3.787 -13.989  0.00  0.00     0.026 A 
ATOM     18  C   UNL d   1      10.057  -0.015 -16.532  0.00  0.00     0.369 A 
ATOM     19  O   UNL d   1      10.145  -1.020 -17.235  0.00  0.00    -0.242 OA
ENDBRANCH   9  10
ENDBRANCH   8   9
ENDBRANCH   7   8
ENDBRANCH   4   7
BRANCH   1  20
ATOM     20  C   UNL d   1      10.706   8.016  -6.543  0.00  0.00     0.058 A 
ATOM     21  C   UNL d   1      11.232   9.320  -6.632  0.00  0.00     0.017 A 
ATOM     22  C   UNL d   1      12.080   9.819  -5.636  0.00  0.00     0.004 A 
ATOM     23  C   UNL d   1      12.389   9.053  -4.503  0.00  0.00     0.024 A 
ATOM     24  C   UNL d   1      11.852   7.750  -4.370  0.00  0.00     0.096 A 
ATOM     25  C   UNL d   1      11.039   7.228  -5.404  0.00  0.00     0.041 A 
BRANCH  24  26
ATOM     26  O   UNL d   1      12.113   6.947  -3.280  0.00  0.00    -0.328 OA
ATOM     27  C   UNL d   1      12.368   7.594  -2.040  0.00  0.00     0.181 C 
ENDBRANCH  24  26
ENDBRANCH   1  20
TORSDOF 6
