REMARK  4 active torsions:
REMARK  status: ('A' for Active; 'I' for Inactive)
REMARK    1  A    between atoms: C_9  and  C_10 
REMARK    2  A    between atoms: C_10  and  N_11 
REMARK    3  A    between atoms: N_11  and  C_12 
REMARK    4  A    between atoms: C_12  and  C_13 
ROOT
ATOM      1  O   UNL d   1      11.806  10.174  -2.837  0.00  0.00    -0.190 OA
ATOM      2  C   UNL d   1      11.629   9.304  -3.850  0.00  0.00     0.133 A 
ATOM      3  C   UNL d   1      11.799   7.941  -3.571  0.00  0.00     0.027 A 
ATOM      4  C   UNL d   1      11.517   7.000  -4.574  0.00  0.00    -0.000 A 
ATOM      5  C   UNL d   1      11.134   7.433  -5.859  0.00  0.00     0.000 A 
ATOM      6  C   UNL d   1      11.027   8.815  -6.153  0.00  0.00     0.092 A 
ATOM      7  C   UNL d   1      11.254   9.751  -5.129  0.00  0.00     0.051 A 
ATOM      8  O   UNL d   1      10.680   9.286  -7.397  0.00  0.00    -0.331 OA
ATOM      9  C   UNL d   1      10.799   8.373  -8.487  0.00  0.00     0.158 C 
ATOM     10  C   UNL d   1      10.148   7.024  -8.117  0.00  0.00     0.037 C 
ATOM     11  C   UNL d   1      10.862   6.412  -6.930  0.00  0.00     0.031 C 
ENDROOT
BRANCH   9  12
ATOM     12  C   UNL d   1      10.099   9.027  -9.684  0.00  0.00     0.320 C 
BRANCH  12  13
ATOM     13  N   UNL d   1      10.233   8.159 -10.839  0.00  0.00     0.346 N 
BRANCH  13  14
ATOM     14  C   UNL d   1       9.122   8.223 -11.781  0.00  0.00     0.317 C 
BRANCH  14  15
ATOM     15  C   UNL d   1       8.492   6.855 -12.058  0.00  0.00     0.014 A 
ATOM     16  C   UNL d   1       7.134   6.788 -12.438  0.00  0.00    -0.002 A 
ATOM     17  C   UNL d   1       6.515   5.549 -12.701  0.00  0.00    -0.000 A 
ATOM     18  C   UNL d   1       7.265   4.365 -12.624  0.00  0.00    -0.000 A 
ATOM     19  C   UNL d   1       8.621   4.417 -12.248  0.00  0.00    -0.000 A 
ATOM     20  C   UNL d   1       9.227   5.652 -11.959  0.00  0.00    -0.002 A 
ENDBRANCH  14  15
ENDBRANCH  13  14
ENDBRANCH  12  13
ENDBRANCH   9  12
TORSDOF 4
