REMARK  9 active torsions:
REMARK  status: ('A' for Active; 'I' for Inactive)
REMARK       I    between atoms: C_2  and  N_3 
REMARK    1  A    between atoms: C_2  and  C_7 
REMARK    2  A    between atoms: N_3  and  C_4 
REMARK    3  A    between atoms: C_9  and  O_10 
REMARK    4  A    between atoms: O_10  and  C_11 
REMARK    5  A    between atoms: C_11  and  C_12 
REMARK    6  A    between atoms: C_12  and  C_13 
REMARK    7  A    between atoms: C_13  and  C_14 
REMARK    8  A    between atoms: C_14  and  N_15 
REMARK    9  A    between atoms: N_18  and  C_19 
ROOT
ATOM      1  C   UNL d   1       8.706   5.265 -11.780  0.00  0.00     0.038 C 
ENDROOT
BRANCH   1   2
ATOM      2  C   UNL d   1       9.009   4.201 -12.819  0.00  0.00     0.035 C 
BRANCH   2   3
ATOM      3  C   UNL d   1       8.146   4.394 -14.069  0.00  0.00     0.149 C 
BRANCH   3   4
ATOM      4  O   UNL d   1       8.285   3.236 -14.874  0.00  0.00    -0.331 OA
BRANCH   4   5
ATOM      5  C   UNL d   1       9.418   3.127 -15.659  0.00  0.00     0.097 A 
ATOM      6  C   UNL d   1      10.459   4.084 -15.703  0.00  0.00     0.048 A 
ATOM      7  C   UNL d   1      11.605   3.836 -16.500  0.00  0.00     0.141 A 
ATOM      8  N   UNL d   1      11.742   2.712 -17.232  0.00  0.00    -0.239 NA
ATOM      9  C   UNL d   1      10.726   1.821 -17.226  0.00  0.00     0.101 A 
ATOM     10  C   UNL d   1       9.550   1.990 -16.467  0.00  0.00     0.045 A 
BRANCH   7  11
ATOM     11  C   UNL d   1      12.750   4.814 -16.483  0.00  0.00     0.293 C 
ATOM     12  O   UNL d   1      13.897   4.446 -16.742  0.00  0.00    -0.264 OA
ATOM     13  N   UNL d   1      12.444   6.081 -16.194  0.00  0.00    -0.235 NA
BRANCH  13  14
ATOM     14  C   UNL d   1      13.376   7.139 -15.988  0.00  0.00     0.107 A 
ATOM     15  C   UNL d   1      13.138   8.446 -16.699  0.00  0.00     0.026 A 
ATOM     16  C   UNL d   1      12.858   8.340 -15.219  0.00  0.00     0.026 A 
ENDBRANCH  13  14
ENDBRANCH   7  11
ENDBRANCH   4   5
ENDBRANCH   3   4
ENDBRANCH   2   3
ENDBRANCH   1   2
BRANCH   1  17
ATOM     17  C   UNL d   1       9.557   5.070 -10.528  0.00  0.00     0.251 C 
BRANCH  17  18
ATOM     18  N   UNL d   1       9.117   5.919  -9.452  0.00  0.00     0.141 N 
ATOM     19  C   UNL d   1       9.562   7.294  -9.723  0.00  0.00     0.274 C 
ATOM     20  C   UNL d   1       9.233   8.212  -8.539  0.00  0.00     0.138 C 
ATOM     21  N   UNL d   1       9.786   7.660  -7.324  0.00  0.00    -0.329 N 
ATOM     22  C   UNL d   1       9.393   6.288  -7.108  0.00  0.00     0.138 C 
ATOM     23  C   UNL d   1       9.862   5.480  -8.287  0.00  0.00     0.274 C 
BRANCH  21  24
ATOM     24  C   UNL d   1      10.510   8.477  -6.437  0.00  0.00     0.148 A 
ATOM     25  C   UNL d   1      11.079   8.073  -5.179  0.00  0.00     0.042 A 
ATOM     26  C   UNL d   1      11.722   9.216  -4.606  0.00  0.00     0.050 A 
ATOM     27  C   UNL d   1      11.190   6.868  -4.390  0.00  0.00     0.004 A 
ATOM     28  S   UNL d   1      11.521  10.561  -5.704  0.00  0.00     0.015 SA
ATOM     29  C   UNL d   1      12.429   9.159  -3.375  0.00  0.00     0.008 A 
ATOM     30  N   UNL d   1      10.750   9.701  -6.840  0.00  0.00    -0.192 NA
ATOM     31  C   UNL d   1      12.538   7.947  -2.670  0.00  0.00     0.001 A 
ATOM     32  C   UNL d   1      11.898   6.812  -3.207  0.00  0.00     0.000 A 
ENDBRANCH  21  24
ENDBRANCH  17  18
ENDBRANCH   1  17
TORSDOF 9
