REMARK  2 active torsions:
REMARK  status: ('A' for Active; 'I' for Inactive)
REMARK    1  A    between atoms: N_13  and  C_14 
REMARK    2  A    between atoms: C_14  and  C_15 
ROOT
ATOM      1  N   UNL d   1      12.360   9.694  -3.317  0.00  0.00    -0.120 N 
ATOM      2  C   UNL d   1      12.109   9.009  -4.459  0.00  0.00     0.215 A 
ATOM      3  N   UNL d   1      12.180   9.571  -5.678  0.00  0.00    -0.219 NA
ATOM      4  C   UNL d   1      11.689   8.670  -6.621  0.00  0.00     0.089 A 
ATOM      5  C   UNL d   1      11.580   8.788  -8.029  0.00  0.00     0.015 A 
ATOM      6  C   UNL d   1      10.945   7.772  -8.778  0.00  0.00    -0.022 A 
ATOM      7  C   UNL d   1      10.431   6.620  -8.173  0.00  0.00    -0.024 A 
ATOM      8  C   UNL d   1      10.590   6.482  -6.806  0.00  0.00     0.004 A 
ATOM      9  C   UNL d   1      11.224   7.460  -6.055  0.00  0.00     0.050 A 
ATOM     10  S   UNL d   1      11.489   7.365  -4.342  0.00  0.00    -0.045 SA
ATOM     11  C   UNL d   1       9.852   5.438  -8.952  0.00  0.00     0.061 C 
ATOM     12  C   UNL d   1       8.661   5.812  -9.829  0.00  0.00     0.255 C 
ATOM     13  N   UNL d   1       9.055   6.463 -11.088  0.00  0.00     0.142 N 
ATOM     14  C   UNL d   1       9.599   7.822 -10.907  0.00  0.00     0.255 C 
ATOM     15  C   UNL d   1      10.970   7.863 -10.255  0.00  0.00     0.061 C 
ENDROOT
BRANCH  13  16
ATOM     16  C   UNL d   1       7.878   6.534 -11.960  0.00  0.00     0.277 C 
BRANCH  16  17
ATOM     17  C   UNL d   1       7.532   5.247 -12.651  0.00  0.00     0.011 A 
ATOM     18  C   UNL d   1       6.303   4.602 -12.396  0.00  0.00    -0.000 A 
ATOM     19  C   UNL d   1       5.973   3.429 -13.094  0.00  0.00     0.029 A 
ATOM     20  C   UNL d   1       6.878   2.905 -14.045  0.00  0.00     0.140 A 
ATOM     21  C   UNL d   1       8.109   3.549 -14.287  0.00  0.00     0.029 A 
ATOM     22  F   UNL d   1       6.570   1.766 -14.706  0.00  0.00    -0.204 F 
ATOM     23  C   UNL d   1       8.431   4.729 -13.602  0.00  0.00    -0.000 A 
ENDBRANCH  16  17
ENDBRANCH  13  16
TORSDOF 2
