REMARK  8 active torsions:
REMARK  status: ('A' for Active; 'I' for Inactive)
REMARK    1  A    between atoms: C_5  and  C_6 
REMARK    2  A    between atoms: C_6  and  C_7 
REMARK    3  A    between atoms: C_7  and  C_9 
REMARK    4  A    between atoms: C_9  and  N_10 
REMARK       I    between atoms: N_10  and  C_11 
REMARK       I    between atoms: C_11  and  N_13 
REMARK       I    between atoms: C_14  and  N_16 
REMARK    5  A    between atoms: N_16  and  C_17 
REMARK    6  A    between atoms: C_17  and  C_18 
REMARK    7  A    between atoms: C_18  and  C_19 
REMARK    8  A    between atoms: C_19  and  C_20 
ROOT
ATOM      1  N   UNL d   1       9.655   7.174 -10.709  0.00  0.00    -0.217 NA
ATOM      2  C   UNL d   1       8.961   7.292 -11.845  0.00  0.00     0.380 C 
ATOM      3  O   UNL d   1       8.854   8.373 -12.429  0.00  0.00    -0.242 OA
ATOM      4  N   UNL d   1       8.347   6.100 -12.182  0.00  0.00     0.001 NA
ATOM      5  C   UNL d   1       7.067   6.086 -12.447  0.00  0.00     0.768 C 
ATOM      6  N   UNL d   1       6.195   7.154 -12.441  0.00  0.00     0.062 N 
ATOM      7  N   UNL d   1       6.430   4.920 -12.818  0.00  0.00    -0.084 NA
ENDROOT
BRANCH   1   8
ATOM      8  C   UNL d   1      10.385   8.248 -10.047  0.00  0.00     0.131 C 
BRANCH   8   9
ATOM      9  C   UNL d   1      11.015   7.762  -8.720  0.00  0.00     0.029 C 
ATOM     10  C   UNL d   1      12.210   8.661  -8.363  0.00  0.00     0.002 C 
BRANCH   9  11
ATOM     11  C   UNL d   1       9.970   7.639  -7.566  0.00  0.00     0.028 C 
BRANCH  11  12
ATOM     12  C   UNL d   1      10.549   7.875  -6.167  0.00  0.00    -0.022 A 
ATOM     13  C   UNL d   1      11.065   6.804  -5.415  0.00  0.00    -0.005 A 
ATOM     14  C   UNL d   1      11.657   7.022  -4.155  0.00  0.00    -0.005 A 
ATOM     15  C   UNL d   1      11.754   8.332  -3.645  0.00  0.00    -0.022 A 
ATOM     16  C   UNL d   1      12.309   8.564  -2.267  0.00  0.00     0.031 C 
ATOM     17  C   UNL d   1      11.251   9.413  -4.394  0.00  0.00    -0.005 A 
ATOM     18  C   UNL d   1      10.648   9.182  -5.645  0.00  0.00    -0.005 A 
ENDBRANCH  11  12
ENDBRANCH   9  11
ENDBRANCH   8   9
ENDBRANCH   1   8
BRANCH   7  19
ATOM     19  C   UNL d   1       7.125   3.685 -13.116  0.00  0.00     0.145 C 
BRANCH  19  20
ATOM     20  C   UNL d   1       6.241   2.673 -13.855  0.00  0.00     0.032 C 
BRANCH  20  21
ATOM     21  C   UNL d   1       6.975   1.350 -14.164  0.00  0.00     0.036 C 
BRANCH  21  22
ATOM     22  C   UNL d   1       6.323   0.550 -15.245  0.00  0.00     0.023 A 
ATOM     23  C   UNL d   1       6.515   0.653 -16.604  0.00  0.00     0.063 A 
ATOM     24  N   UNL d   1       5.735  -0.247 -17.343  0.00  0.00    -0.230 NA
ATOM     25  C   UNL d   1       7.420   1.618 -17.305  0.00  0.00     0.052 C 
ATOM     26  C   UNL d   1       4.975  -1.027 -16.573  0.00  0.00     0.180 A 
ATOM     27  S   UNL d   1       5.157  -0.692 -14.853  0.00  0.00    -0.057 SA
ATOM     28  N   UNL d   1       4.109  -1.989 -17.060  0.00  0.00    -0.072 NA
ENDBRANCH  21  22
ENDBRANCH  20  21
ENDBRANCH  19  20
ENDBRANCH   7  19
TORSDOF 8
