REMARK  3 active torsions:
REMARK  status: ('A' for Active; 'I' for Inactive)
REMARK    1  A    between atoms: C_2  and  N_3 
REMARK       I    between atoms: N_3  and  C_4 
REMARK    2  A    between atoms: N_3  and  C_7 
REMARK    3  A    between atoms: C_11  and  C_12 
ROOT
ATOM      1  C   UNL d   1       9.714   3.722 -14.595  0.00  0.00     0.086 A 
ATOM      2  C   UNL d   1      10.808   4.361 -15.144  0.00  0.00     0.040 A 
ATOM      3  C   UNL d   1      11.574   3.691 -16.127  0.00  0.00     0.102 A 
ATOM      4  N   UNL d   1      11.311   2.472 -16.581  0.00  0.00    -0.225 NA
ATOM      5  C   UNL d   1      10.247   1.841 -16.047  0.00  0.00     0.175 A 
ATOM      6  C   UNL d   1       9.666   0.619 -16.250  0.00  0.00     0.125 A 
ATOM      7  C   UNL d   1      10.078  -0.382 -17.167  0.00  0.00     0.106 C 
ATOM      8  N   UNL d   1      10.399  -1.218 -17.905  0.00  0.00    -0.191 NA
ATOM      9  C   UNL d   1       8.561   0.539 -15.371  0.00  0.00     0.134 A 
ATOM     10  N   UNL d   1       8.418   1.616 -14.640  0.00  0.00    -0.162 NA
ATOM     11  N   UNL d   1       9.445   2.454 -15.048  0.00  0.00    -0.212 N 
ENDROOT
BRANCH   1  12
ATOM     12  C   UNL d   1       8.861   4.364 -13.572  0.00  0.00     0.019 A 
ATOM     13  C   UNL d   1       7.453   4.278 -13.630  0.00  0.00     0.002 A 
ATOM     14  C   UNL d   1       6.648   4.870 -12.648  0.00  0.00     0.002 A 
ATOM     15  C   UNL d   1       7.251   5.577 -11.588  0.00  0.00     0.017 A 
ATOM     16  C   UNL d   1       8.659   5.655 -11.479  0.00  0.00     0.062 A 
ATOM     17  C   UNL d   1       9.449   5.075 -12.494  0.00  0.00     0.019 A 
BRANCH  16  18
ATOM     18  N   UNL d   1       9.277   6.337 -10.382  0.00  0.00    -0.299 N 
ATOM     19  C   UNL d   1       9.252   5.834  -9.122  0.00  0.00     0.238 C 
ATOM     20  C   UNL d   1       8.518   4.512  -8.808  0.00  0.00     0.098 C 
ATOM     21  O   UNL d   1       9.805   6.381  -8.164  0.00  0.00    -0.272 OA
BRANCH  18  22
ATOM     22  C   UNL d   1       9.875   7.657 -10.700  0.00  0.00     0.109 C 
ATOM     23  C   UNL d   1      11.198   8.047  -9.996  0.00  0.00     0.027 C 
ENDBRANCH  18  22
ENDBRANCH  16  18
ENDBRANCH   1  12
TORSDOF 3
