REMARK  7 active torsions:
REMARK  status: ('A' for Active; 'I' for Inactive)
REMARK       I    between atoms: C_2  and  N_3 
REMARK    1  A    between atoms: C_2  and  C_23 
REMARK    2  A    between atoms: N_3  and  C_4 
REMARK    3  A    between atoms: C_4  and  C_5 
REMARK    4  A    between atoms: C_5  and  C_6 
REMARK    5  A    between atoms: C_6  and  C_8 
REMARK    6  A    between atoms: C_8  and  N_9 
REMARK    7  A    between atoms: N_12  and  C_13 
ROOT
ATOM      1  C   UNL d   1       8.253   5.703 -12.047  0.00  0.00     0.188 C 
ATOM      2  O   UNL d   1       8.305   6.897 -12.786  0.00  0.00    -0.221 OA
ENDROOT
BRANCH   1   3
ATOM      3  C   UNL d   1       8.316   6.050 -10.557  0.00  0.00     0.061 C 
BRANCH   3   4
ATOM      4  C   UNL d   1       9.399   5.287  -9.782  0.00  0.00     0.132 C 
BRANCH   4   5
ATOM      5  N   UNL d   1       9.864   6.020  -8.600  0.00  0.00    -0.234 NA
ATOM      6  C   UNL d   1      10.386   7.265  -8.555  0.00  0.00     0.276 C 
ATOM      7  O   UNL d   1      10.597   7.961  -9.552  0.00  0.00    -0.266 OA
BRANCH   6   8
ATOM      8  C   UNL d   1      10.689   7.795  -7.188  0.00  0.00     0.077 A 
ATOM      9  C   UNL d   1      11.084   6.946  -6.138  0.00  0.00     0.008 A 
ATOM     10  C   UNL d   1      11.463   7.539  -4.929  0.00  0.00     0.020 A 
ATOM     11  C   UNL d   1      11.432   8.952  -4.782  0.00  0.00     0.082 A 
ATOM     12  C   UNL d   1      11.862   6.715  -3.869  0.00  0.00     0.031 A 
ATOM     13  N   UNL d   1      11.046   9.761  -5.787  0.00  0.00    -0.244 NA
ATOM     14  C   UNL d   1      11.818   9.504  -3.549  0.00  0.00     0.021 A 
ATOM     15  C   UNL d   1      10.672   9.182  -6.949  0.00  0.00     0.104 A 
ATOM     16  C   UNL d   1      12.249   8.678  -2.495  0.00  0.00     0.031 A 
ATOM     17  C   UNL d   1      12.259   7.280  -2.655  0.00  0.00     0.140 A 
ATOM     18  F   UNL d   1      12.636   6.470  -1.649  0.00  0.00    -0.204 F 
ENDBRANCH   6   8
ENDBRANCH   4   5
ENDBRANCH   3   4
ENDBRANCH   1   3
BRANCH   1  19
ATOM     19  C   UNL d   1       6.942   5.008 -12.467  0.00  0.00     0.283 C 
BRANCH  19  20
ATOM     20  N   UNL d   1       7.121   3.640 -12.905  0.00  0.00     0.144 N 
ATOM     21  C   UNL d   1       8.078   3.487 -14.015  0.00  0.00     0.274 C 
ATOM     22  C   UNL d   1       8.245   2.046 -14.467  0.00  0.00     0.137 C 
ATOM     23  N   UNL d   1       6.951   1.460 -14.751  0.00  0.00    -0.344 N 
ATOM     24  C   UNL d   1       5.941   1.604 -13.714  0.00  0.00     0.137 C 
ATOM     25  C   UNL d   1       5.825   3.069 -13.282  0.00  0.00     0.274 C 
BRANCH  23  26
ATOM     26  C   UNL d   1       6.701   0.797 -15.977  0.00  0.00     0.068 A 
ATOM     27  C   UNL d   1       6.012  -0.440 -16.063  0.00  0.00     0.084 A 
ATOM     28  C   UNL d   1       5.821  -1.044 -17.308  0.00  0.00     0.070 A 
ATOM     29 CL   UNL d   1       5.461  -1.291 -14.652  0.00  0.00    -0.080 Cl
ATOM     30  C   UNL d   1       6.301  -0.450 -18.486  0.00  0.00     0.012 A 
ATOM     31 CL   UNL d   1       5.042  -2.583 -17.441  0.00  0.00    -0.081 Cl
ATOM     32  C   UNL d   1       6.998   0.768 -18.407  0.00  0.00     0.002 A 
ATOM     33  C   UNL d   1       7.193   1.385 -17.169  0.00  0.00     0.018 A 
ENDBRANCH  23  26
ENDBRANCH  19  20
ENDBRANCH   1  19
TORSDOF 7
