REMARK  9 active torsions:
REMARK  status: ('A' for Active; 'I' for Inactive)
REMARK    1  A    between atoms: O_2  and  C_3 
REMARK    2  A    between atoms: C_9  and  C_10 
REMARK    3  A    between atoms: C_12  and  C_13 
REMARK    4  A    between atoms: C_13  and  N_14 
REMARK    5  A    between atoms: N_14  and  C_15 
REMARK    6  A    between atoms: C_15  and  C_16 
REMARK    7  A    between atoms: C_16  and  C_17 
REMARK    8  A    between atoms: C_17  and  O_18 
REMARK    9  A    between atoms: O_18  and  C_19 
ROOT
ATOM      1  C   UNL d   1       9.350   4.789  -9.879  0.00  0.00     0.293 C 
ENDROOT
BRANCH   1   2
ATOM      2  N   UNL d   1       9.294   5.579 -11.095  0.00  0.00     0.339 N 
BRANCH   2   3
ATOM      3  C   UNL d   1       9.020   4.685 -12.195  0.00  0.00     0.290 C 
BRANCH   3   4
ATOM      4  C   UNL d   1       9.267   5.373 -13.512  0.00  0.00     0.041 A 
ATOM      5  C   UNL d   1       9.129   4.606 -14.808  0.00  0.00     0.026 A 
ATOM      6  C   UNL d   1      10.502   5.033 -14.329  0.00  0.00     0.007 A 
BRANCH   5   7
ATOM      7  C   UNL d   1       8.688   3.172 -14.790  0.00  0.00     0.002 A 
ATOM      8  C   UNL d   1       7.400   2.809 -14.314  0.00  0.00     0.090 A 
ATOM      9  C   UNL d   1       7.054   1.442 -14.221  0.00  0.00     0.026 A 
ATOM     10  C   UNL d   1       7.980   0.447 -14.591  0.00  0.00     0.032 A 
ATOM     11  C   UNL d   1       9.247   0.810 -15.086  0.00  0.00     0.140 A 
ATOM     12  F   UNL d   1      10.143  -0.143 -15.439  0.00  0.00    -0.204 F 
ATOM     13  C   UNL d   1       9.597   2.168 -15.181  0.00  0.00     0.027 A 
BRANCH   8  14
ATOM     14  O   UNL d   1       6.529   3.819 -13.960  0.00  0.00    -0.328 OA
ATOM     15  C   UNL d   1       5.570   3.558 -12.940  0.00  0.00     0.181 C 
ENDBRANCH   8  14
ENDBRANCH   5   7
ENDBRANCH   3   4
ENDBRANCH   2   3
ENDBRANCH   1   2
BRANCH   1  16
ATOM     16  C   UNL d   1      10.059   5.595  -8.795  0.00  0.00     0.071 C 
BRANCH  16  17
ATOM     17  C   UNL d   1       9.145   6.627  -8.123  0.00  0.00     0.151 C 
BRANCH  17  18
ATOM     18  O   UNL d   1       9.814   7.876  -7.982  0.00  0.00    -0.331 OA
BRANCH  18  19
ATOM     19  C   UNL d   1      10.457   8.154  -6.802  0.00  0.00     0.096 A 
ATOM     20  C   UNL d   1      10.877   7.175  -5.871  0.00  0.00     0.043 A 
ATOM     21  C   UNL d   1      11.456   7.588  -4.661  0.00  0.00     0.087 A 
ATOM     22  C   UNL d   1      11.643   8.956  -4.374  0.00  0.00     0.018 A 
ATOM     23  N   UNL d   1      11.838   6.635  -3.693  0.00  0.00    -0.208 NA
ATOM     24  C   UNL d   1      11.259   9.927  -5.310  0.00  0.00     0.004 A 
ATOM     25  C   UNL d   1      12.216   9.295  -3.076  0.00  0.00     0.006 A 
ATOM     26  C   UNL d   1      10.684   9.512  -6.521  0.00  0.00     0.024 A 
ATOM     27  C   UNL d   1      12.563   8.341  -2.192  0.00  0.00     0.063 A 
ATOM     28  C   UNL d   1      12.359   6.916  -2.487  0.00  0.00     0.279 A 
ATOM     29  O   UNL d   1      12.661   6.016  -1.722  0.00  0.00    -0.265 OA
ENDBRANCH  18  19
ENDBRANCH  17  18
ENDBRANCH  16  17
ENDBRANCH   1  16
TORSDOF 9
