REMARK  3 active torsions:
REMARK  status: ('A' for Active; 'I' for Inactive)
REMARK    1  A    between atoms: C_10  and  N_11 
REMARK    2  A    between atoms: N_11  and  C_12 
REMARK    3  A    between atoms: C_12  and  C_13 
ROOT
ATOM      1  F   UNL d   1      11.769  10.819  -6.429  0.00  0.00    -0.205 F 
ATOM      2  C   UNL d   1      11.556   9.543  -6.037  0.00  0.00     0.136 A 
ATOM      3  C   UNL d   1      11.861   9.165  -4.720  0.00  0.00     0.029 A 
ATOM      4  C   UNL d   1      11.648   7.832  -4.314  0.00  0.00     0.002 A 
ATOM      5  C   UNL d   1      11.104   6.894  -5.213  0.00  0.00    -0.004 A 
ATOM      6  C   UNL d   1      10.788   7.268  -6.534  0.00  0.00    -0.022 A 
ATOM      7  C   UNL d   1      11.031   8.599  -6.947  0.00  0.00     0.002 A 
ATOM      8  C   UNL d   1      10.687   9.050  -8.354  0.00  0.00     0.030 C 
ATOM      9  C   UNL d   1      10.548   7.919  -9.363  0.00  0.00     0.041 C 
ATOM     10  C   UNL d   1       9.626   6.825  -8.803  0.00  0.00     0.262 C 
ATOM     11  C   UNL d   1      10.232   6.239  -7.516  0.00  0.00     0.062 C 
ENDROOT
BRANCH  10  12
ATOM     12  N   UNL d   1       9.342   5.738  -9.747  0.00  0.00     0.342 N 
BRANCH  12  13
ATOM     13  C   UNL d   1       9.139   6.229 -11.101  0.00  0.00     0.317 C 
BRANCH  13  14
ATOM     14  C   UNL d   1       8.366   5.273 -11.978  0.00  0.00     0.014 A 
ATOM     15  C   UNL d   1       9.034   4.417 -12.873  0.00  0.00    -0.002 A 
ATOM     16  C   UNL d   1       8.286   3.573 -13.717  0.00  0.00    -0.000 A 
ATOM     17  C   UNL d   1       6.878   3.579 -13.649  0.00  0.00    -0.000 A 
ATOM     18  C   UNL d   1       6.213   4.440 -12.755  0.00  0.00    -0.000 A 
ATOM     19  C   UNL d   1       6.961   5.293 -11.927  0.00  0.00    -0.002 A 
ENDBRANCH  13  14
ENDBRANCH  12  13
ENDBRANCH  10  12
TORSDOF 3
