REMARK  8 active torsions:
REMARK  status: ('A' for Active; 'I' for Inactive)
REMARK    1  A    between atoms: N_2  and  C_3 
REMARK    2  A    between atoms: N_2  and  C_16 
REMARK    3  A    between atoms: C_3  and  C_4 
REMARK    4  A    between atoms: C_4  and  C_5 
REMARK    5  A    between atoms: C_8  and  O_9 
REMARK    6  A    between atoms: O_9  and  C_10 
REMARK    7  A    between atoms: C_16  and  C_17 
REMARK    8  A    between atoms: C_17  and  N_18 
ROOT
ATOM      1  C   UNL d   1       8.505   5.581  -9.691  0.00  0.00     0.062 C 
ENDROOT
BRANCH   1   2
ATOM      2  C   UNL d   1       8.934   5.486 -11.170  0.00  0.00     0.255 C 
BRANCH   2   3
ATOM      3  N   UNL d   1       8.025   4.790 -12.077  0.00  0.00     0.142 N 
ATOM      4  C   UNL d   1       6.795   5.564 -12.223  0.00  0.00     0.285 C 
BRANCH   3   5
ATOM      5  C   UNL d   1       8.645   4.622 -13.394  0.00  0.00     0.285 C 
BRANCH   5   6
ATOM      6  C   UNL d   1       9.780   3.580 -13.470  0.00  0.00     0.285 C 
BRANCH   6   7
ATOM      7  N   UNL d   1       9.703   2.691 -14.640  0.00  0.00     0.139 N 
ATOM      8  C   UNL d   1       8.585   1.747 -14.524  0.00  0.00     0.250 C 
ATOM      9  C   UNL d   1       8.441   0.860 -15.775  0.00  0.00     0.035 C 
ATOM     10  C   UNL d   1       9.742   0.093 -16.047  0.00  0.00     0.004 C 
ATOM     11  C   UNL d   1      10.923   1.075 -16.094  0.00  0.00     0.035 C 
ATOM     12  C   UNL d   1      10.952   1.955 -14.830  0.00  0.00     0.250 C 
ENDBRANCH   6   7
ENDBRANCH   5   6
ENDBRANCH   3   5
ENDBRANCH   2   3
ENDBRANCH   1   2
BRANCH   1  13
ATOM     13  C   UNL d   1       9.414   6.470  -8.851  0.00  0.00    -0.020 A 
ATOM     14  C   UNL d   1       9.098   6.654  -7.485  0.00  0.00    -0.002 A 
ATOM     15  C   UNL d   1       9.870   7.501  -6.669  0.00  0.00     0.024 A 
ATOM     16  C   UNL d   1      10.997   8.162  -7.215  0.00  0.00     0.102 A 
ATOM     17  C   UNL d   1      11.288   8.017  -8.581  0.00  0.00     0.024 A 
ATOM     18  C   UNL d   1      10.509   7.178  -9.401  0.00  0.00    -0.002 A 
BRANCH  16  19
ATOM     19  O   UNL d   1      11.873   8.928  -6.494  0.00  0.00    -0.253 OA
BRANCH  19  20
ATOM     20  C   UNL d   1      11.758   9.097  -5.152  0.00  0.00     0.530 C 
ATOM     21  F   UNL d   1      11.552   7.931  -4.490  0.00  0.00    -0.144 F 
ATOM     22  F   UNL d   1      12.924   9.576  -4.674  0.00  0.00    -0.144 F 
ATOM     23  F   UNL d   1      10.755   9.959  -4.837  0.00  0.00    -0.144 F 
ENDBRANCH  19  20
ENDBRANCH  16  19
ENDBRANCH   1  13
TORSDOF 8
