REMARK  2 active torsions:
REMARK  status: ('A' for Active; 'I' for Inactive)
REMARK    1  A    between atoms: N_2  and  C_4 
REMARK    2  A    between atoms: C_4  and  C_5 
ROOT
ATOM      1  C   UNL d   1      10.711   1.838 -16.407  0.00  0.00     0.149 C 
ATOM      2  C   UNL d   1      10.022   2.469 -17.620  0.00  0.00     0.039 C 
ATOM      3  C   UNL d   1      11.112   3.130 -18.416  0.00  0.00     0.058 C 
ATOM      4  C   UNL d   1      10.538   4.323 -19.175  0.00  0.00     0.003 A 
ATOM      5  C   UNL d   1      10.067   4.127 -20.495  0.00  0.00    -0.002 A 
ATOM      6  C   UNL d   1       9.465   5.184 -21.206  0.00  0.00    -0.000 A 
ATOM      7  C   UNL d   1       9.316   6.442 -20.591  0.00  0.00     0.002 A 
ATOM      8  C   UNL d   1       9.746   6.631 -19.266  0.00  0.00     0.024 A 
ATOM      9  C   UNL d   1      10.355   5.578 -18.557  0.00  0.00     0.096 A 
ATOM     10  O   UNL d   1      10.790   5.785 -17.278  0.00  0.00    -0.308 OA
ATOM     11  C   UNL d   1      12.150   5.813 -17.163  0.00  0.00     0.098 A 
ATOM     12  C   UNL d   1      12.808   7.051 -17.013  0.00  0.00     0.025 A 
ATOM     13  C   UNL d   1      14.210   7.104 -16.973  0.00  0.00     0.009 A 
ATOM     14  C   UNL d   1      14.969   5.921 -17.086  0.00  0.00     0.035 A 
ATOM     15 BR   UNL d   1      16.870   5.979 -16.992  0.00  0.00    -0.049 Br
ATOM     16  C   UNL d   1      14.315   4.691 -17.238  0.00  0.00     0.007 A 
ATOM     17  C   UNL d   1      12.907   4.626 -17.264  0.00  0.00     0.028 A 
ATOM     18  C   UNL d   1      12.248   3.269 -17.382  0.00  0.00     0.143 C 
ATOM     19  O   UNL d   1      11.705   2.823 -16.138  0.00  0.00    -0.352 OA
ENDROOT
BRANCH   1  20
ATOM     20  C   UNL d   1       9.802   1.620 -15.173  0.00  0.00     0.280 C 
BRANCH  20  21
ATOM     21  N   UNL d   1       8.767   0.568 -15.280  0.00  0.00     0.144 N 
ATOM     22  C   UNL d   1       8.053   0.375 -14.043  0.00  0.00     0.286 C 
ATOM     23  C   UNL d   1       7.774   0.802 -16.325  0.00  0.00     0.286 C 
ENDBRANCH  20  21
ENDBRANCH   1  20
TORSDOF 2
