REMARK  7 active torsions:
REMARK  status: ('A' for Active; 'I' for Inactive)
REMARK    1  A    between atoms: C_6  and  C_7 
REMARK    2  A    between atoms: C_10  and  S_11 
REMARK    3  A    between atoms: S_11  and  C_12 
REMARK    4  A    between atoms: C_12  and  C_13 
REMARK    5  A    between atoms: C_13  and  C_14 
REMARK    6  A    between atoms: C_14  and  N_15 
REMARK    7  A    between atoms: C_22  and  C_23 
ROOT
ATOM      1  C   UNL d   1       8.452  -1.432 -22.040  0.00  0.00     0.047 C 
ENDROOT
BRANCH   1   2
ATOM      2  C   UNL d   1       7.308  -1.238 -23.041  0.00  0.00     0.067 C 
BRANCH   2   3
ATOM      3  S   UNL d   1       5.761  -1.954 -22.424  0.00  0.00    -0.075 SA
BRANCH   3   4
ATOM      4  C   UNL d   1       5.523  -0.942 -20.995  0.00  0.00     0.193 A 
ATOM      5  N   UNL d   1       5.258   0.369 -21.024  0.00  0.00    -0.122 NA
ATOM      6  N   UNL d   1       5.138   0.740 -19.699  0.00  0.00    -0.128 NA
ATOM      7  C   UNL d   1       5.358  -0.368 -18.978  0.00  0.00     0.167 A 
ATOM      8  N   UNL d   1       5.625  -1.441 -19.750  0.00  0.00    -0.289 N 
ATOM      9  C   UNL d   1       5.966  -2.793 -19.331  0.00  0.00     0.134 C 
BRANCH   7  10
ATOM     10  C   UNL d   1       5.321  -0.399 -17.513  0.00  0.00     0.037 A 
ATOM     11  C   UNL d   1       6.210   0.360 -16.704  0.00  0.00     0.021 A 
ATOM     12  C   UNL d   1       7.183   1.207 -17.269  0.00  0.00     0.003 A 
ATOM     13  C   UNL d   1       6.123   0.302 -15.284  0.00  0.00     0.081 A 
ATOM     14  C   UNL d   1       7.967   1.975 -16.414  0.00  0.00     0.015 A 
ATOM     15  C   UNL d   1       7.861   1.827 -15.040  0.00  0.00     0.059 A 
ATOM     16  C   UNL d   1       8.781   2.599 -14.117  0.00  0.00     0.052 C 
ATOM     17  N   UNL d   1       6.949   1.010 -14.479  0.00  0.00    -0.250 NA
ATOM     18  C   UNL d   1       5.139  -0.512 -14.700  0.00  0.00     0.019 A 
ATOM     19  C   UNL d   1       4.262  -1.270 -15.492  0.00  0.00     0.002 A 
ATOM     20  C   UNL d   1       4.356  -1.219 -16.894  0.00  0.00     0.003 A 
ENDBRANCH   7  10
ENDBRANCH   3   4
ENDBRANCH   2   3
ENDBRANCH   1   2
BRANCH   1  21
ATOM     21  C   UNL d   1       9.736  -0.721 -22.488  0.00  0.00     0.251 C 
BRANCH  21  22
ATOM     22  N   UNL d   1      10.822  -0.813 -21.503  0.00  0.00     0.138 N 
ATOM     23  C   UNL d   1      10.539  -0.292 -20.161  0.00  0.00     0.255 C 
ATOM     24  C   UNL d   1      10.231   1.216 -20.100  0.00  0.00     0.061 C 
ATOM     25  C   UNL d   1      11.490   2.086 -20.071  0.00  0.00    -0.026 A 
ATOM     26  C   UNL d   1      12.411   2.048 -21.156  0.00  0.00    -0.023 A 
ATOM     27  C   UNL d   1      11.770   2.951 -18.985  0.00  0.00    -0.002 A 
ATOM     28  C   UNL d   1      12.172   1.161 -22.368  0.00  0.00     0.061 C 
ATOM     29  C   UNL d   1      13.575   2.857 -21.139  0.00  0.00     0.017 A 
ATOM     30  C   UNL d   1      12.099  -0.347 -22.047  0.00  0.00     0.255 C 
ATOM     31  C   UNL d   1      13.845   3.714 -20.057  0.00  0.00     0.105 A 
ATOM     32  C   UNL d   1      12.918   3.742 -19.004  0.00  0.00     0.115 A 
ATOM     33  N   UNL d   1      14.869   4.600 -19.784  0.00  0.00    -0.224 NA
ATOM     34  O   UNL d   1      13.337   4.676 -18.081  0.00  0.00    -0.292 OA
ATOM     35  C   UNL d   1      14.534   5.108 -18.588  0.00  0.00     0.158 A 
ATOM     36  C   UNL d   1      10.837   3.083 -17.796  0.00  0.00     0.033 C 
BRANCH  35  37
ATOM     37  C   UNL d   1      15.218   6.238 -17.873  0.00  0.00     0.057 C 
ATOM     38  C   UNL d   1      14.684   7.591 -18.379  0.00  0.00     0.008 C 
ATOM     39  C   UNL d   1      16.739   6.176 -18.120  0.00  0.00     0.008 C 
ATOM     40  C   UNL d   1      14.964   6.123 -16.367  0.00  0.00     0.008 C 
ENDBRANCH  35  37
ENDBRANCH  21  22
ENDBRANCH   1  21
TORSDOF 7
