REMARK  4 active torsions:
REMARK  status: ('A' for Active; 'I' for Inactive)
REMARK    1  A    between atoms: O_2  and  C_3 
REMARK    2  A    between atoms: C_9  and  C_10 
REMARK    3  A    between atoms: C_10  and  N_11 
REMARK    4  A    between atoms: C_14  and  N_15 
ROOT
ATOM      1  N   UNL d   1       9.078   5.970  -9.242  0.00  0.00     0.142 N 
ATOM      2  C   UNL d   1      10.523   6.108  -9.304  0.00  0.00     0.253 C 
ATOM      3  C   UNL d   1      11.022   7.197  -8.371  0.00  0.00     0.058 C 
ATOM      4  C   UNL d   1      10.615   6.913  -6.895  0.00  0.00     0.094 C 
ATOM      5  C   UNL d   1       9.097   6.625  -6.855  0.00  0.00     0.058 C 
ATOM      6  C   UNL d   1       8.701   5.568  -7.900  0.00  0.00     0.253 C 
ENDROOT
BRANCH   1   7
ATOM      7  C   UNL d   1       8.673   4.920 -10.158  0.00  0.00     0.278 C 
BRANCH   7   8
ATOM      8  C   UNL d   1       8.665   5.234 -11.604  0.00  0.00     0.032 A 
ATOM      9  C   UNL d   1       8.088   6.346 -12.120  0.00  0.00     0.097 A 
ATOM     10  N   UNL d   1       8.257   6.319 -13.470  0.00  0.00    -0.244 NA
ATOM     11  C   UNL d   1       8.893   5.192 -13.905  0.00  0.00     0.081 A 
ATOM     12  C   UNL d   1       9.280   4.788 -15.194  0.00  0.00     0.021 A 
ATOM     13  C   UNL d   1       9.187   4.478 -12.721  0.00  0.00     0.019 A 
ATOM     14  C   UNL d   1       9.941   3.593 -15.369  0.00  0.00     0.026 A 
ATOM     15  C   UNL d   1      10.256   2.812 -14.225  0.00  0.00     0.094 A 
ATOM     16  C   UNL d   1       9.884   3.277 -12.924  0.00  0.00     0.025 A 
BRANCH  15  17
ATOM     17  O   UNL d   1      10.938   1.615 -14.245  0.00  0.00    -0.328 OA
ATOM     18  C   UNL d   1      11.081   0.981 -15.517  0.00  0.00     0.181 C 
ENDBRANCH  15  17
ENDBRANCH   7   8
ENDBRANCH   1   7
BRANCH   4  19
ATOM     19  N   UNL d   1      10.995   7.981  -5.933  0.00  0.00    -0.281 N 
ATOM     20  C   UNL d   1      11.504   7.779  -4.647  0.00  0.00     0.082 A 
ATOM     21  C   UNL d   1      11.697   9.025  -4.080  0.00  0.00     0.102 A 
ATOM     22  C   UNL d   1      11.768   6.602  -3.933  0.00  0.00     0.019 A 
ATOM     23  N   UNL d   1      11.299   9.955  -5.022  0.00  0.00    -0.191 NA
ATOM     24  C   UNL d   1      12.173   9.209  -2.782  0.00  0.00     0.021 A 
ATOM     25  C   UNL d   1      10.923   9.320  -6.133  0.00  0.00     0.350 A 
ATOM     26  O   UNL d   1      10.627   9.869  -7.162  0.00  0.00    -0.244 OA
ATOM     27  C   UNL d   1      12.482   8.041  -2.043  0.00  0.00     0.002 A 
ATOM     28  C   UNL d   1      12.270   6.754  -2.619  0.00  0.00     0.002 A 
ENDBRANCH   4  19
TORSDOF 4
