REMARK  12 active torsions:
REMARK  status: ('A' for Active; 'I' for Inactive)
REMARK    1  A    between atoms: S_2  and  C_3 
REMARK    2  A    between atoms: C_8  and  N_9 
REMARK    3  A    between atoms: N_12  and  C_13 
REMARK    4  A    between atoms: C_13  and  C_14 
REMARK    5  A    between atoms: C_14  and  C_15 
REMARK    6  A    between atoms: C_15  and  C_16 
REMARK    7  A    between atoms: C_16  and  C_17 
REMARK    8  A    between atoms: C_17  and  C_18 
REMARK       I    between atoms: C_18  and  N_20 
REMARK    9  A    between atoms: N_20  and  C_21 
REMARK   10  A    between atoms: C_21  and  C_22 
REMARK   11  A    between atoms: C_25  and  O_26 
REMARK   12  A    between atoms: O_26  and  S_27 
ROOT
ATOM      1  C   UNL d   1       5.032   1.605 -12.933  0.00  0.00     0.003 C 
ENDROOT
BRANCH   1   2
ATOM      2  C   UNL d   1       6.051   2.712 -13.351  0.00  0.00     0.035 C 
BRANCH   2   3
ATOM      3  C   UNL d   1       5.828   4.005 -12.542  0.00  0.00     0.250 C 
BRANCH   3   4
ATOM      4  N   UNL d   1       6.987   4.897 -12.641  0.00  0.00     0.141 N 
ATOM      5  C   UNL d   1       6.647   6.185 -12.016  0.00  0.00     0.274 C 
ATOM      6  C   UNL d   1       7.838   7.179 -12.144  0.00  0.00     0.137 C 
ATOM      7  N   UNL d   1       9.041   6.615 -11.568  0.00  0.00    -0.344 N 
ATOM      8  C   UNL d   1       9.369   5.314 -12.082  0.00  0.00     0.137 C 
ATOM      9  C   UNL d   1       8.160   4.369 -11.924  0.00  0.00     0.274 C 
BRANCH   7  10
ATOM     10  C   UNL d   1       9.714   7.218 -10.476  0.00  0.00     0.062 A 
ATOM     11  C   UNL d   1       9.750   6.735  -9.157  0.00  0.00     0.041 A 
ATOM     12  C   UNL d   1      10.497   7.425  -8.164  0.00  0.00     0.008 A 
ATOM     13  C   UNL d   1      11.256   8.572  -8.491  0.00  0.00     0.001 A 
ATOM     14  C   UNL d   1      11.233   9.047  -9.803  0.00  0.00     0.002 A 
ATOM     15  C   UNL d   1      10.422   8.393 -10.757  0.00  0.00     0.017 A 
BRANCH  11  16
ATOM     16  S   UNL d   1       8.821   5.319  -8.663  0.00  0.00    -0.111 SA
ATOM     17  C   UNL d   1       9.862   3.890  -9.049  0.00  0.00     0.074 C 
ENDBRANCH  11  16
ENDBRANCH   7  10
ENDBRANCH   3   4
ENDBRANCH   2   3
ENDBRANCH   1   2
BRANCH   1  18
ATOM     18  C   UNL d   1       5.351   0.215 -13.577  0.00  0.00     0.010 C 
BRANCH  18  19
ATOM     19  C   UNL d   1       4.092  -0.520 -14.132  0.00  0.00     0.090 C 
BRANCH  19  20
ATOM     20  C   UNL d   1       4.386  -1.338 -15.395  0.00  0.00     0.252 C 
ATOM     21  O   UNL d   1       5.455  -1.950 -15.490  0.00  0.00    -0.271 OA
ATOM     22  N   UNL d   1       3.469  -1.363 -16.353  0.00  0.00    -0.233 NA
BRANCH  22  23
ATOM     23  C   UNL d   1       3.616  -2.079 -17.622  0.00  0.00     0.155 C 
BRANCH  23  24
ATOM     24  C   UNL d   1       4.606  -1.437 -18.571  0.00  0.00     0.002 A 
ATOM     25  C   UNL d   1       5.688  -2.188 -19.065  0.00  0.00    -0.000 A 
ATOM     26  C   UNL d   1       6.615  -1.593 -19.942  0.00  0.00     0.025 A 
ATOM     27  C   UNL d   1       6.461  -0.246 -20.330  0.00  0.00     0.113 A 
ATOM     28  C   UNL d   1       5.364   0.498 -19.849  0.00  0.00     0.025 A 
ATOM     29  C   UNL d   1       4.437  -0.101 -18.975  0.00  0.00    -0.000 A 
BRANCH  27  30
ATOM     30  O   UNL d   1       7.348   0.334 -21.197  0.00  0.00    -0.230 OA
BRANCH  30  31
ATOM     31  S   UNL d   1       8.699   1.073 -20.509  0.00  0.00     0.285 S 
ATOM     32  C   UNL d   1       9.356   1.928 -21.995  0.00  0.00     0.172 C 
ATOM     33  O   UNL d   1       8.219   2.085 -19.548  0.00  0.00    -0.197 OA
ATOM     34  O   UNL d   1       9.636   0.018 -20.108  0.00  0.00    -0.197 OA
ENDBRANCH  30  31
ENDBRANCH  27  30
ENDBRANCH  23  24
ENDBRANCH  22  23
ENDBRANCH  19  20
ENDBRANCH  18  19
ENDBRANCH   1  18
TORSDOF 12
