REMARK  2 active torsions:
REMARK  status: ('A' for Active; 'I' for Inactive)
REMARK    1  A    between atoms: O_2  and  C_3 
REMARK    2  A    between atoms: C_8  and  O_9 
ROOT
ATOM      1  C   UNL d   1      13.212   4.661 -18.017  0.00  0.00     0.116 A 
ATOM      2  C   UNL d   1      12.599   3.733 -18.896  0.00  0.00     0.026 A 
ATOM      3  C   UNL d   1      11.441   3.035 -18.506  0.00  0.00    -0.002 A 
ATOM      4  C   UNL d   1      10.872   3.260 -17.239  0.00  0.00    -0.020 A 
ATOM      5  C   UNL d   1      11.464   4.189 -16.360  0.00  0.00     0.031 A 
ATOM      6  C   UNL d   1      12.628   4.887 -16.748  0.00  0.00     0.114 A 
ATOM      7  C   UNL d   1      10.861   4.403 -14.981  0.00  0.00     0.279 C 
ATOM      8  N   UNL d   1       9.461   3.990 -14.879  0.00  0.00     0.144 N 
ATOM      9  C   UNL d   1       9.012   4.172 -13.501  0.00  0.00     0.256 C 
ATOM     10  C   UNL d   1       7.495   3.953 -13.449  0.00  0.00     0.061 C 
ATOM     11  C   UNL d   1       7.096   2.611 -14.039  0.00  0.00    -0.020 A 
ATOM     12  C   UNL d   1       5.874   2.017 -13.644  0.00  0.00     0.022 A 
ATOM     13  C   UNL d   1       5.556   0.761 -14.182  0.00  0.00     0.119 A 
ATOM     14  C   UNL d   1       6.403   0.124 -15.068  0.00  0.00     0.119 A 
ATOM     15  C   UNL d   1       7.629   0.683 -15.454  0.00  0.00     0.024 A 
ATOM     16  C   UNL d   1       7.979   1.952 -14.940  0.00  0.00     0.007 A 
ATOM     17  C   UNL d   1       9.332   2.586 -15.296  0.00  0.00     0.246 C 
ATOM     18  C   UNL d   1       9.603   2.537 -16.822  0.00  0.00     0.064 C 
ATOM     19  O   UNL d   1       5.839  -1.033 -15.486  0.00  0.00    -0.300 OA
ATOM     20  C   UNL d   1       4.615  -1.131 -14.816  0.00  0.00     0.304 A 
ATOM     21  O   UNL d   1       4.443   0.001 -14.002  0.00  0.00    -0.300 OA
ENDROOT
BRANCH   1  22
ATOM     22  O   UNL d   1      14.365   5.356 -18.324  0.00  0.00    -0.326 OA
ATOM     23  C   UNL d   1      14.928   5.189 -19.617  0.00  0.00     0.181 C 
ENDBRANCH   1  22
BRANCH   6  24
ATOM     24  O   UNL d   1      13.203   5.765 -15.866  0.00  0.00    -0.326 OA
ATOM     25  C   UNL d   1      12.934   7.127 -16.156  0.00  0.00     0.181 C 
ENDBRANCH   6  24
TORSDOF 2
