REMARK  5 active torsions:
REMARK  status: ('A' for Active; 'I' for Inactive)
REMARK    1  A    between atoms: C_5  and  S_6 
REMARK    2  A    between atoms: S_6  and  N_9 
REMARK    3  A    between atoms: N_9  and  C_10 
REMARK    4  A    between atoms: N_18  and  C_19 
REMARK    5  A    between atoms: C_19  and  C_20 
ROOT
ATOM      1  C   UNL d   1       8.631   5.218 -12.672  0.00  0.00     0.093 A 
ATOM      2  C   UNL d   1       7.850   4.403 -11.880  0.00  0.00     0.020 A 
ATOM      3  C   UNL d   1       7.968   4.481 -10.488  0.00  0.00    -0.003 A 
ATOM      4  C   UNL d   1       8.854   5.381  -9.852  0.00  0.00    -0.024 A 
ATOM      5  C   UNL d   1       9.629   6.226 -10.674  0.00  0.00    -0.022 A 
ATOM      6  C   UNL d   1       9.480   6.160 -12.073  0.00  0.00     0.015 A 
ATOM      7  C   UNL d   1      10.634   7.223 -10.130  0.00  0.00     0.061 C 
ATOM      8  C   UNL d   1      10.060   8.198  -9.139  0.00  0.00     0.255 C 
ATOM      9  N   UNL d   1       9.947   7.644  -7.795  0.00  0.00     0.144 N 
ATOM     10  C   UNL d   1       8.797   6.750  -7.652  0.00  0.00     0.255 C 
ATOM     11  C   UNL d   1       8.970   5.386  -8.326  0.00  0.00     0.061 C 
ENDROOT
BRANCH   1  12
ATOM     12  N   UNL d   1       8.617   5.149 -14.055  0.00  0.00    -0.158 NA
BRANCH  12  13
ATOM     13  S   UNL d   1       9.740   4.351 -15.107  0.00  0.00     0.285 S 
ATOM     14  O   UNL d   1      10.909   3.982 -14.290  0.00  0.00    -0.198 OA
ATOM     15  O   UNL d   1       9.889   5.179 -16.306  0.00  0.00    -0.198 OA
BRANCH  13  16
ATOM     16  C   UNL d   1       8.858   2.871 -15.577  0.00  0.00     0.106 A 
ATOM     17  C   UNL d   1       8.279   2.069 -14.583  0.00  0.00     0.013 A 
ATOM     18  C   UNL d   1       7.518   0.944 -14.946  0.00  0.00    -0.003 A 
ATOM     19  C   UNL d   1       7.350   0.618 -16.309  0.00  0.00    -0.011 A 
ATOM     20  C   UNL d   1       6.564  -0.617 -16.691  0.00  0.00     0.032 C 
ATOM     21  C   UNL d   1       7.930   1.436 -17.308  0.00  0.00     0.054 A 
ATOM     22  C   UNL d   1       8.678   2.569 -16.941  0.00  0.00     0.024 A 
ATOM     23 CL   UNL d   1       7.744   1.080 -18.986  0.00  0.00    -0.083 Cl
ENDBRANCH  13  16
ENDBRANCH  12  13
ENDBRANCH   1  12
BRANCH   9  24
ATOM     24  C   UNL d   1       9.796   8.763  -6.865  0.00  0.00     0.297 C 
BRANCH  24  25
ATOM     25  C   UNL d   1      10.826   8.728  -5.786  0.00  0.00     0.116 A 
ATOM     26  N   UNL d   1      11.691   9.778  -5.587  0.00  0.00    -0.150 NA
ATOM     27  N   UNL d   1      12.519   9.580  -4.544  0.00  0.00    -0.147 NA
ATOM     28  C   UNL d   1      12.190   8.369  -4.103  0.00  0.00     0.123 A 
ATOM     29  C   UNL d   1      11.142   7.772  -4.861  0.00  0.00     0.041 A 
ENDBRANCH  24  25
ENDBRANCH   9  24
TORSDOF 5
