REMARK  1 active torsions:
REMARK  status: ('A' for Active; 'I' for Inactive)
REMARK    1  A    between atoms: C_6  and  C_7 
ROOT
ATOM      1  C   UNL d   1      11.401   8.628  -5.493  0.00  0.00     0.040 A 
ATOM      2  C   UNL d   1      11.467   9.989  -5.615  0.00  0.00     0.101 A 
ATOM      3  N   UNL d   1      11.069  10.376  -6.852  0.00  0.00    -0.244 NA
ATOM      4  C   UNL d   1      10.694   9.310  -7.633  0.00  0.00     0.084 A 
ATOM      5  C   UNL d   1      10.216   9.184  -8.965  0.00  0.00     0.020 A 
ATOM      6  C   UNL d   1       9.856   7.929  -9.497  0.00  0.00     0.011 A 
ATOM      7  C   UNL d   1      10.004   6.813  -8.665  0.00  0.00     0.062 A 
ATOM      8 BR   UNL d   1       9.417   5.095  -9.253  0.00  0.00    -0.047 Br
ATOM      9  C   UNL d   1      10.566   6.993  -7.394  0.00  0.00     0.148 A 
ATOM     10  F   UNL d   1      10.840   5.960  -6.677  0.00  0.00    -0.204 F 
ATOM     11  C   UNL d   1      10.899   8.204  -6.792  0.00  0.00     0.049 A 
ENDROOT
BRANCH   1  12
ATOM     12  C   UNL d   1      11.750   7.835  -4.299  0.00  0.00     0.082 A 
ATOM     13  N   UNL d   1      12.041   8.378  -3.040  0.00  0.00    -0.307 N 
ATOM     14  C   UNL d   1      12.107   9.717  -2.555  0.00  0.00     0.132 C 
ATOM     15  C   UNL d   1      12.313   7.356  -2.243  0.00  0.00     0.179 A 
ATOM     16  N   UNL d   1      12.273   6.189  -2.819  0.00  0.00    -0.223 NA
ATOM     17  C   UNL d   1      11.887   6.471  -4.116  0.00  0.00     0.118 A 
ENDBRANCH   1  12
TORSDOF 1
