REMARK  4 active torsions:
REMARK  status: ('A' for Active; 'I' for Inactive)
REMARK    1  A    between atoms: O_2  and  C_3 
REMARK    2  A    between atoms: C_7  and  C_8 
REMARK    3  A    between atoms: C_14  and  C_15 
REMARK    4  A    between atoms: C_15  and  N_16 
ROOT
ATOM      1  C   UNL d   1      11.399   8.652  -7.237  0.00  0.00     0.147 C 
ATOM      2  O   UNL d   1      11.360  10.034  -7.261  0.00  0.00    -0.222 OA
ATOM      3  C   UNL d   1      12.613   8.274  -8.120  0.00  0.00     0.035 C 
ATOM      4  C   UNL d   1      12.409   8.610  -9.613  0.00  0.00     0.003 C 
ATOM      5  C   UNL d   1      11.123   8.088 -10.211  0.00  0.00     0.000 C 
ATOM      6  C   UNL d   1       9.937   8.563  -9.358  0.00  0.00     0.005 C 
ATOM      7  C   UNL d   1      10.077   8.124  -7.877  0.00  0.00     0.065 C 
ENDROOT
BRANCH   1   8
ATOM      8  C   UNL d   1      11.577   8.210  -5.796  0.00  0.00     0.007 C 
ATOM      9  C   UNL d   1      11.814   6.852  -5.496  0.00  0.00    -0.002 C 
ATOM     10  C   UNL d   1      11.883   6.410  -4.199  0.00  0.00     0.002 C 
ATOM     11  C   UNL d   1      11.910   7.308  -3.136  0.00  0.00     0.024 C 
ATOM     12  C   UNL d   1      11.822   8.684  -3.412  0.00  0.00     0.094 C 
ATOM     13  C   UNL d   1      11.623   9.140  -4.713  0.00  0.00     0.022 C 
BRANCH  12  14
ATOM     14  O   UNL d   1      11.894   9.609  -2.412  0.00  0.00    -0.328 OA
ATOM     15  C   UNL d   1      12.720   9.208  -1.340  0.00  0.00     0.181 C 
ENDBRANCH  12  14
ENDBRANCH   1   8
BRANCH   7  16
ATOM     16  C   UNL d   1      10.005   6.590  -7.825  0.00  0.00     0.253 C 
BRANCH  16  17
ATOM     17  N   UNL d   1       8.768   6.020  -8.261  0.00  0.00     0.141 N 
ATOM     18  C   UNL d   1       7.860   6.108  -7.114  0.00  0.00     0.285 C 
ATOM     19  C   UNL d   1       9.017   4.617  -8.553  0.00  0.00     0.285 C 
ENDBRANCH  16  17
ENDBRANCH   7  16
TORSDOF 4
