REMARK  9 active torsions:
REMARK  status: ('A' for Active; 'I' for Inactive)
REMARK    1  A    between atoms: O_2  and  C_3 
REMARK    2  A    between atoms: C_8  and  N_9 
REMARK    3  A    between atoms: N_12  and  C_13 
REMARK    4  A    between atoms: C_13  and  C_14 
REMARK    5  A    between atoms: C_14  and  C_15 
REMARK    6  A    between atoms: C_15  and  C_16 
REMARK    7  A    between atoms: C_16  and  C_17 
REMARK    8  A    between atoms: C_17  and  N_18 
REMARK       I    between atoms: N_18  and  C_19 
REMARK    9  A    between atoms: C_19  and  C_21 
ROOT
ATOM      1  C   UNL d   1       7.641   5.132 -11.461  0.00  0.00     0.035 C 
ENDROOT
BRANCH   1   2
ATOM      2  C   UNL d   1       7.303   4.754 -12.913  0.00  0.00     0.250 C 
BRANCH   2   3
ATOM      3  N   UNL d   1       8.117   3.622 -13.352  0.00  0.00     0.141 N 
ATOM      4  C   UNL d   1       9.246   4.068 -14.180  0.00  0.00     0.274 C 
ATOM      5  C   UNL d   1      10.149   2.875 -14.523  0.00  0.00     0.137 C 
ATOM      6  N   UNL d   1       9.371   1.840 -15.195  0.00  0.00    -0.343 N 
ATOM      7  C   UNL d   1       8.159   1.425 -14.494  0.00  0.00     0.137 C 
ATOM      8  C   UNL d   1       7.306   2.658 -14.111  0.00  0.00     0.274 C 
BRANCH   6   9
ATOM      9  C   UNL d   1       9.708   1.388 -16.472  0.00  0.00     0.079 A 
ATOM     10  C   UNL d   1       8.737   1.241 -17.505  0.00  0.00     0.110 A 
ATOM     11  C   UNL d   1       9.141   0.727 -18.761  0.00  0.00     0.026 A 
ATOM     12  C   UNL d   1      10.485   0.397 -19.010  0.00  0.00     0.002 A 
ATOM     13  C   UNL d   1      11.447   0.571 -18.004  0.00  0.00     0.002 A 
ATOM     14  C   UNL d   1      11.061   1.062 -16.745  0.00  0.00     0.019 A 
BRANCH  10  15
ATOM     15  O   UNL d   1       7.447   1.658 -17.249  0.00  0.00    -0.327 OA
ATOM     16  C   UNL d   1       6.405   1.171 -18.077  0.00  0.00     0.181 C 
ENDBRANCH  10  15
ENDBRANCH   6   9
ENDBRANCH   2   3
ENDBRANCH   1   2
BRANCH   1  17
ATOM     17  C   UNL d   1       8.928   5.955 -11.324  0.00  0.00     0.004 C 
BRANCH  17  18
ATOM     18  C   UNL d   1       9.290   6.253  -9.872  0.00  0.00     0.026 C 
BRANCH  18  19
ATOM     19  C   UNL d   1      10.415   7.300  -9.784  0.00  0.00     0.129 C 
BRANCH  19  20
ATOM     20  N   UNL d   1      10.458   7.948  -8.485  0.00  0.00    -0.234 NA
ATOM     21  C   UNL d   1      10.851   7.371  -7.339  0.00  0.00     0.278 C 
ATOM     22  O   UNL d   1      11.095   6.173  -7.241  0.00  0.00    -0.265 OA
BRANCH  21  23
ATOM     23  C   UNL d   1      11.000   8.318  -6.206  0.00  0.00     0.096 A 
ATOM     24  C   UNL d   1      11.443   7.974  -4.957  0.00  0.00     0.089 A 
ATOM     25  N   UNL d   1      11.477   9.175  -4.222  0.00  0.00    -0.228 N 
ATOM     26  C   UNL d   1      11.854   6.784  -4.287  0.00  0.00     0.019 A 
ATOM     27  N   UNL d   1      11.059  10.243  -4.969  0.00  0.00    -0.163 NA
ATOM     28  C   UNL d   1      11.872   9.244  -2.921  0.00  0.00     0.101 A 
ATOM     29  C   UNL d   1      10.794   9.715  -6.141  0.00  0.00     0.127 A 
ATOM     30  C   UNL d   1      12.261   8.092  -2.285  0.00  0.00     0.021 A 
ATOM     31  C   UNL d   1      12.253   6.855  -2.972  0.00  0.00     0.003 A 
ENDBRANCH  21  23
ENDBRANCH  19  20
ENDBRANCH  18  19
ENDBRANCH  17  18
ENDBRANCH   1  17
TORSDOF 9
