REMARK  3 active torsions:
REMARK  status: ('A' for Active; 'I' for Inactive)
REMARK    1  A    between atoms: N_5  and  C_6 
REMARK    2  A    between atoms: N_16  and  S_17 
REMARK    3  A    between atoms: S_17  and  C_20 
ROOT
ATOM      1  C   UNL d   1       8.926   1.999 -15.775  0.00  0.00     0.060 A 
ATOM      2  C   UNL d   1       7.600   1.536 -15.792  0.00  0.00     0.017 A 
ATOM      3  C   UNL d   1       6.668   2.061 -14.896  0.00  0.00     0.003 A 
ATOM      4  C   UNL d   1       7.027   3.092 -14.036  0.00  0.00     0.018 A 
ATOM      5  C   UNL d   1       8.380   3.539 -13.957  0.00  0.00     0.074 A 
ATOM      6  C   UNL d   1       9.349   2.996 -14.852  0.00  0.00     0.067 A 
ATOM      7  C   UNL d   1      10.786   3.464 -14.754  0.00  0.00     0.178 C 
ATOM      8  O   UNL d   1      11.795   2.976 -15.277  0.00  0.00    -0.291 OA
ATOM      9  C   UNL d   1      10.994   4.660 -13.877  0.00  0.00     0.095 C 
ATOM     10  C   UNL d   1      10.137   4.581 -12.657  0.00  0.00     0.127 C 
ATOM     11  N   UNL d   1       8.706   4.470 -12.928  0.00  0.00    -0.253 N 
ENDROOT
BRANCH  11  12
ATOM     12  S   UNL d   1       7.531   5.093 -11.776  0.00  0.00     0.268 S 
ATOM     13  O   UNL d   1       6.747   6.131 -12.437  0.00  0.00    -0.200 OA
ATOM     14  O   UNL d   1       6.843   3.894 -11.252  0.00  0.00    -0.200 OA
BRANCH  12  15
ATOM     15  C   UNL d   1       8.459   5.798 -10.435  0.00  0.00     0.104 A 
ATOM     16  C   UNL d   1       9.350   6.852 -10.694  0.00  0.00     0.013 A 
ATOM     17  C   UNL d   1      10.162   7.331  -9.690  0.00  0.00     0.001 A 
ATOM     18  C   UNL d   1       9.979   6.888  -8.354  0.00  0.00     0.000 A 
ATOM     19  C   UNL d   1      11.149   8.259  -9.999  0.00  0.00     0.000 A 
ATOM     20  C   UNL d   1       9.040   5.885  -8.062  0.00  0.00     0.001 A 
ATOM     21  C   UNL d   1      10.744   7.454  -7.306  0.00  0.00     0.000 A 
ATOM     22  C   UNL d   1       8.313   5.309  -9.122  0.00  0.00     0.013 A 
ATOM     23  C   UNL d   1      11.706   8.421  -7.635  0.00  0.00     0.000 A 
ATOM     24  C   UNL d   1      11.928   8.781  -8.977  0.00  0.00     0.000 A 
ENDBRANCH  12  15
ENDBRANCH  11  12
BRANCH   1  25
ATOM     25  N   UNL d   1       9.797   1.403 -16.699  0.00  0.00    -0.344 N 
ATOM     26  C   UNL d   1      10.073  -0.008 -16.621  0.00  0.00     0.137 C 
ATOM     27  C   UNL d   1       9.884  -0.620 -18.020  0.00  0.00     0.274 C 
ATOM     28  N   UNL d   1      10.703   0.107 -19.003  0.00  0.00     0.143 N 
ATOM     29  C   UNL d   1      10.507  -0.480 -20.315  0.00  0.00     0.286 C 
ATOM     30  C   UNL d   1      10.283   1.512 -19.073  0.00  0.00     0.274 C 
ATOM     31  C   UNL d   1      10.488   2.172 -17.714  0.00  0.00     0.137 C 
ENDBRANCH   1  25
TORSDOF 3
