REMARK  6 active torsions:
REMARK  status: ('A' for Active; 'I' for Inactive)
REMARK    1  A    between atoms: C_8  and  O_9 
REMARK    2  A    between atoms: O_9  and  C_10 
REMARK    3  A    between atoms: C_10  and  C_11 
REMARK    4  A    between atoms: C_11  and  C_12 
REMARK    5  A    between atoms: C_12  and  N_13 
REMARK    6  A    between atoms: C_16  and  C_17 
ROOT
ATOM      1  N   UNL d   1       9.006   2.248 -15.696  0.00  0.00     0.137 N 
ATOM      2  C   UNL d   1      10.196   1.647 -15.082  0.00  0.00     0.251 C 
ATOM      3  C   UNL d   1      10.958   0.820 -16.109  0.00  0.00     0.041 C 
ATOM      4  C   UNL d   1      11.350   1.651 -17.344  0.00  0.00     0.047 C 
ATOM      5  C   UNL d   1      10.099   2.337 -17.913  0.00  0.00     0.041 C 
ATOM      6  C   UNL d   1       9.364   3.112 -16.828  0.00  0.00     0.251 C 
ENDROOT
BRANCH   1   7
ATOM      7  C   UNL d   1       8.246   2.985 -14.687  0.00  0.00     0.253 C 
BRANCH   7   8
ATOM      8  C   UNL d   1       8.927   4.324 -14.264  0.00  0.00     0.068 C 
BRANCH   8   9
ATOM      9  C   UNL d   1       8.222   4.931 -13.072  0.00  0.00     0.151 C 
BRANCH   9  10
ATOM     10  O   UNL d   1       9.065   5.955 -12.524  0.00  0.00    -0.331 OA
BRANCH  10  11
ATOM     11  C   UNL d   1       9.144   6.078 -11.152  0.00  0.00     0.094 A 
ATOM     12  C   UNL d   1       8.560   5.133 -10.276  0.00  0.00     0.024 A 
ATOM     13  C   UNL d   1       8.685   5.264  -8.898  0.00  0.00    -0.002 A 
ATOM     14  C   UNL d   1       9.371   6.353  -8.348  0.00  0.00    -0.015 A 
ATOM     15  C   UNL d   1       9.451   6.495  -6.855  0.00  0.00     0.051 C 
ATOM     16  C   UNL d   1       9.955   7.323  -9.191  0.00  0.00     0.054 A 
ATOM     17  C   UNL d   1       9.574   7.961  -6.430  0.00  0.00     0.109 C 
ATOM     18  N   UNL d   1      10.511   8.720  -7.273  0.00  0.00    -0.314 N 
ATOM     19  C   UNL d   1      11.224   9.801  -6.599  0.00  0.00     0.129 C 
ATOM     20  C   UNL d   1      10.710   8.481  -8.600  0.00  0.00     0.257 C 
ATOM     21  O   UNL d   1      11.457   9.155  -9.311  0.00  0.00    -0.267 OA
ATOM     22  C   UNL d   1       9.854   7.178 -10.602  0.00  0.00     0.029 A 
ENDBRANCH  10  11
ENDBRANCH   9  10
ENDBRANCH   8   9
ENDBRANCH   7   8
ENDBRANCH   1   7
BRANCH   4  23
ATOM     23  C   UNL d   1      12.028   0.805 -18.385  0.00  0.00     0.087 A 
ATOM     24  C   UNL d   1      13.179   1.033 -19.174  0.00  0.00     0.041 A 
ATOM     25  C   UNL d   1      13.373  -0.065 -20.017  0.00  0.00     0.129 A 
ATOM     26  C   UNL d   1      14.078   2.120 -19.239  0.00  0.00     0.006 A 
ATOM     27  O   UNL d   1      12.334  -0.927 -19.736  0.00  0.00    -0.211 OA
ATOM     28  C   UNL d   1      14.433  -0.160 -20.925  0.00  0.00     0.057 A 
ATOM     29  N   UNL d   1      11.496  -0.365 -18.743  0.00  0.00    -0.131 NA
ATOM     30  C   UNL d   1      15.336   0.919 -20.986  0.00  0.00     0.142 A 
ATOM     31  F   UNL d   1      16.378   0.871 -21.847  0.00  0.00    -0.204 F 
ATOM     32  C   UNL d   1      15.154   2.051 -20.154  0.00  0.00     0.030 A 
ENDBRANCH   4  23
TORSDOF 6
