REMARK  9 active torsions:
REMARK  status: ('A' for Active; 'I' for Inactive)
REMARK    1  A    between atoms: O_2  and  C_3 
REMARK    2  A    between atoms: C_7  and  N_8 
REMARK    3  A    between atoms: N_11  and  C_12 
REMARK    4  A    between atoms: C_12  and  C_13 
REMARK    5  A    between atoms: C_13  and  C_14 
REMARK    6  A    between atoms: C_14  and  C_15 
REMARK    7  A    between atoms: C_15  and  N_16 
REMARK       I    between atoms: N_16  and  C_17 
REMARK    8  A    between atoms: C_17  and  C_19 
REMARK    9  A    between atoms: C_22  and  C_23 
ROOT
ATOM      1  C   UNL d   1       6.320   3.025 -13.664  0.00  0.00     0.037 C 
ENDROOT
BRANCH   1   2
ATOM      2  C   UNL d   1       6.504   1.492 -13.687  0.00  0.00     0.251 C 
BRANCH   2   3
ATOM      3  N   UNL d   1       5.873   0.880 -14.857  0.00  0.00     0.141 N 
ATOM      4  C   UNL d   1       5.840  -0.570 -14.672  0.00  0.00     0.274 C 
ATOM      5  C   UNL d   1       5.129  -1.229 -15.858  0.00  0.00     0.137 C 
ATOM      6  N   UNL d   1       5.785  -0.848 -17.113  0.00  0.00    -0.344 N 
ATOM      7  C   UNL d   1       5.932   0.579 -17.310  0.00  0.00     0.137 C 
ATOM      8  C   UNL d   1       6.630   1.181 -16.082  0.00  0.00     0.274 C 
BRANCH   6   9
ATOM      9  C   UNL d   1       6.219  -1.784 -18.059  0.00  0.00     0.058 A 
ATOM     10  C   UNL d   1       7.270  -1.535 -18.974  0.00  0.00     0.017 A 
ATOM     11  C   UNL d   1       7.650  -2.541 -19.899  0.00  0.00     0.004 A 
ATOM     12  C   UNL d   1       7.007  -3.793 -19.893  0.00  0.00     0.024 A 
ATOM     13  C   UNL d   1       5.964  -4.066 -18.996  0.00  0.00     0.096 A 
ATOM     14  C   UNL d   1       5.569  -3.036 -18.096  0.00  0.00     0.041 A 
BRANCH  13  15
ATOM     15  O   UNL d   1       5.365  -5.309 -19.034  0.00  0.00    -0.328 OA
ATOM     16  C   UNL d   1       4.302  -5.549 -18.106  0.00  0.00     0.181 C 
ENDBRANCH  13  15
ENDBRANCH   6   9
ENDBRANCH   2   3
ENDBRANCH   1   2
BRANCH   1  17
ATOM     17  C   UNL d   1       7.056   3.686 -12.498  0.00  0.00     0.029 C 
BRANCH  17  18
ATOM     18  C   UNL d   1       6.993   5.216 -12.512  0.00  0.00     0.129 C 
BRANCH  18  19
ATOM     19  N   UNL d   1       7.694   5.771 -11.361  0.00  0.00    -0.234 NA
ATOM     20  C   UNL d   1       9.027   5.876 -11.249  0.00  0.00     0.275 C 
ATOM     21  O   UNL d   1       9.807   5.582 -12.155  0.00  0.00    -0.266 OA
BRANCH  20  22
ATOM     22  C   UNL d   1       9.530   6.404  -9.936  0.00  0.00     0.058 A 
ATOM     23  C   UNL d   1      10.533   7.400  -9.912  0.00  0.00     0.005 A 
ATOM     24  C   UNL d   1      11.020   7.894  -8.688  0.00  0.00     0.000 A 
ATOM     25  C   UNL d   1      10.523   7.397  -7.467  0.00  0.00     0.001 A 
ATOM     26  C   UNL d   1       9.523   6.402  -7.490  0.00  0.00     0.000 A 
ATOM     27  C   UNL d   1       9.032   5.905  -8.712  0.00  0.00     0.005 A 
BRANCH  25  28
ATOM     28  C   UNL d   1      11.025   7.921  -6.193  0.00  0.00     0.007 A 
ATOM     29  C   UNL d   1      11.231   9.242  -5.876  0.00  0.00     0.035 A 
ATOM     30  S   UNL d   1      11.848   9.443  -4.260  0.00  0.00    -0.086 SA
ATOM     31  C   UNL d   1      11.856   7.723  -4.011  0.00  0.00     0.035 A 
ATOM     32  C   UNL d   1      11.384   7.058  -5.112  0.00  0.00     0.007 A 
ENDBRANCH  25  28
ENDBRANCH  20  22
ENDBRANCH  18  19
ENDBRANCH  17  18
ENDBRANCH   1  17
TORSDOF 9
