REMARK  3 active torsions:
REMARK  status: ('A' for Active; 'I' for Inactive)
REMARK    1  A    between atoms: C_4  and  C_5 
REMARK    2  A    between atoms: C_5  and  C_6 
REMARK    3  A    between atoms: C_6  and  N_7 
ROOT
ATOM      1  N   UNL d   1       9.199   5.852 -10.642  0.00  0.00     0.138 N 
ATOM      2  C   UNL d   1       8.322   6.541 -11.586  0.00  0.00     0.253 C 
ATOM      3  C   UNL d   1       8.732   6.221 -13.020  0.00  0.00     0.063 C 
ATOM      4  C   UNL d   1       8.693   4.710 -13.331  0.00  0.00     0.103 C 
ATOM      5  C   UNL d   1       9.267   4.401 -14.723  0.00  0.00     0.033 C 
ATOM      6  C   UNL d   1       9.208   2.893 -15.007  0.00  0.00     0.031 C 
ATOM      7  C   UNL d   1       7.886   2.299 -14.543  0.00  0.00     0.000 A 
ATOM      8  C   UNL d   1       7.551   0.976 -14.891  0.00  0.00    -0.002 A 
ATOM      9  C   UNL d   1       6.345   0.406 -14.442  0.00  0.00    -0.000 A 
ATOM     10  C   UNL d   1       5.482   1.160 -13.630  0.00  0.00     0.002 A 
ATOM     11  C   UNL d   1       5.810   2.480 -13.265  0.00  0.00     0.024 A 
ATOM     12  C   UNL d   1       7.014   3.043 -13.736  0.00  0.00     0.090 A 
ATOM     13  O   UNL d   1       7.312   4.346 -13.302  0.00  0.00    -0.336 OA
ATOM     14  C   UNL d   1       9.497   4.005 -12.216  0.00  0.00     0.063 C 
ATOM     15  C   UNL d   1       9.029   4.419 -10.828  0.00  0.00     0.253 C 
ENDROOT
BRANCH   1  16
ATOM     16  C   UNL d   1       8.798   6.205  -9.286  0.00  0.00     0.255 C 
BRANCH  16  17
ATOM     17  C   UNL d   1       9.844   5.784  -8.243  0.00  0.00     0.062 C 
BRANCH  17  18
ATOM     18  C   UNL d   1      10.566   6.981  -7.670  0.00  0.00    -0.020 A 
ATOM     19  C   UNL d   1      10.243   7.467  -6.386  0.00  0.00    -0.004 A 
ATOM     20  C   UNL d   1      10.928   8.583  -5.865  0.00  0.00    -0.000 A 
ATOM     21  C   UNL d   1      11.929   9.209  -6.629  0.00  0.00    -0.000 A 
ATOM     22  C   UNL d   1      12.253   8.720  -7.909  0.00  0.00    -0.000 A 
ATOM     23  C   UNL d   1      11.559   7.618  -8.435  0.00  0.00    -0.004 A 
ENDBRANCH  17  18
ENDBRANCH  16  17
ENDBRANCH   1  16
TORSDOF 3
