REMARK  7 active torsions:
REMARK  status: ('A' for Active; 'I' for Inactive)
REMARK    1  A    between atoms: S_2  and  N_4 
REMARK    2  A    between atoms: S_2  and  C_24 
REMARK    3  A    between atoms: N_4  and  C_5 
REMARK    4  A    between atoms: C_5  and  C_6 
REMARK    5  A    between atoms: C_6  and  C_7 
REMARK    6  A    between atoms: C_7  and  N_8 
REMARK    7  A    between atoms: C_11  and  C_12 
ROOT
ATOM      1  C   UNL d   1       7.336   5.735 -11.219  0.00  0.00     0.253 C 
ENDROOT
BRANCH   1   2
ATOM      2  C   UNL d   1       8.322   5.714 -10.030  0.00  0.00     0.062 C 
BRANCH   2   3
ATOM      3  C   UNL d   1       9.471   6.712 -10.225  0.00  0.00     0.141 C 
BRANCH   3   4
ATOM      4  N   UNL d   1      10.138   6.990  -8.961  0.00  0.00    -0.185 NA
BRANCH   4   5
ATOM      5  S   UNL d   1      11.171   8.366  -8.877  0.00  0.00     0.281 S 
ATOM      6  O   UNL d   1      12.485   7.986  -9.411  0.00  0.00    -0.199 OA
ATOM      7  O   UNL d   1      10.446   9.508  -9.451  0.00  0.00    -0.199 OA
BRANCH   5   8
ATOM      8  C   UNL d   1      11.325   8.607  -7.116  0.00  0.00     0.105 A 
ATOM      9  C   UNL d   1      11.438   7.496  -6.259  0.00  0.00     0.013 A 
ATOM     10  C   UNL d   1      11.589   7.698  -4.873  0.00  0.00     0.001 A 
ATOM     11  C   UNL d   1      11.605   9.010  -4.345  0.00  0.00     0.000 A 
ATOM     12  C   UNL d   1      11.752   6.599  -4.012  0.00  0.00     0.000 A 
ATOM     13  C   UNL d   1      11.434  10.106  -5.210  0.00  0.00     0.001 A 
ATOM     14  C   UNL d   1      11.795   9.208  -2.964  0.00  0.00     0.000 A 
ATOM     15  C   UNL d   1      11.323   9.910  -6.592  0.00  0.00     0.013 A 
ATOM     16  C   UNL d   1      11.939   8.102  -2.108  0.00  0.00     0.000 A 
ATOM     17  C   UNL d   1      11.913   6.796  -2.628  0.00  0.00     0.000 A 
ENDBRANCH   5   8
ENDBRANCH   4   5
ENDBRANCH   3   4
ENDBRANCH   2   3
ENDBRANCH   1   2
BRANCH   1  18
ATOM     18  N   UNL d   1       7.494   4.535 -12.024  0.00  0.00     0.142 N 
ATOM     19  C   UNL d   1       8.511   4.776 -13.028  0.00  0.00     0.255 C 
ATOM     20  C   UNL d   1       8.823   3.492 -13.781  0.00  0.00     0.061 C 
ATOM     21  C   UNL d   1       7.576   2.777 -14.280  0.00  0.00    -0.021 C 
ATOM     22  C   UNL d   1       6.388   3.099 -13.725  0.00  0.00     0.005 C 
ATOM     23  C   UNL d   1       6.224   4.158 -12.647  0.00  0.00     0.276 C 
BRANCH  21  24
ATOM     24  C   UNL d   1       7.693   1.720 -15.308  0.00  0.00     0.017 A 
ATOM     25  C   UNL d   1       8.810   1.484 -16.202  0.00  0.00     0.020 A 
ATOM     26  C   UNL d   1       8.444   0.367 -17.021  0.00  0.00     0.082 A 
ATOM     27  C   UNL d   1      10.094   2.052 -16.454  0.00  0.00     0.013 A 
ATOM     28  N   UNL d   1       7.170  -0.012 -16.618  0.00  0.00    -0.244 NA
ATOM     29  C   UNL d   1       9.299  -0.158 -18.014  0.00  0.00     0.020 A 
ATOM     30  C   UNL d   1       6.718   0.794 -15.586  0.00  0.00     0.099 A 
ATOM     31  C   UNL d   1      10.560   0.440 -18.234  0.00  0.00     0.013 A 
ATOM     32  C   UNL d   1      10.945   1.547 -17.452  0.00  0.00     0.058 A 
ATOM     33 CL   UNL d   1      12.467   2.313 -17.716  0.00  0.00    -0.082 Cl
ENDBRANCH  21  24
ENDBRANCH   1  18
TORSDOF 7
