REMARK  4 active torsions:
REMARK  status: ('A' for Active; 'I' for Inactive)
REMARK    1  A    between atoms: O_2  and  C_3 
REMARK    2  A    between atoms: C_6  and  C_7 
REMARK    3  A    between atoms: C_7  and  N_8 
REMARK    4  A    between atoms: C_11  and  C_12 
ROOT
ATOM      1  N   UNL d   1       8.790   5.989  -9.600  0.00  0.00     0.146 N 
ATOM      2  C   UNL d   1       8.496   5.734  -8.179  0.00  0.00     0.277 C 
ATOM      3  C   UNL d   1       9.269   6.626  -7.236  0.00  0.00     0.005 C 
ATOM      4  C   UNL d   1      10.302   7.387  -7.626  0.00  0.00    -0.021 C 
ATOM      5  C   UNL d   1      10.765   7.302  -9.068  0.00  0.00     0.061 C 
ATOM      6  C   UNL d   1      10.229   6.078  -9.780  0.00  0.00     0.256 C 
ENDROOT
BRANCH   1   7
ATOM      7  C   UNL d   1       8.114   4.962 -10.387  0.00  0.00     0.277 C 
BRANCH   7   8
ATOM      8  C   UNL d   1       8.623   4.779 -11.810  0.00  0.00     0.011 A 
ATOM      9  C   UNL d   1       9.718   3.930 -12.045  0.00  0.00    -0.000 A 
ATOM     10  C   UNL d   1      10.312   3.828 -13.316  0.00  0.00     0.024 A 
ATOM     11  C   UNL d   1       9.796   4.546 -14.403  0.00  0.00     0.094 A 
ATOM     12  C   UNL d   1       8.637   5.322 -14.171  0.00  0.00     0.024 A 
ATOM     13  C   UNL d   1       8.071   5.480 -12.891  0.00  0.00    -0.000 A 
BRANCH  11  14
ATOM     14  O   UNL d   1      10.494   4.473 -15.593  0.00  0.00    -0.328 OA
ATOM     15  C   UNL d   1      10.063   5.255 -16.700  0.00  0.00     0.181 C 
ENDBRANCH  11  14
ENDBRANCH   7   8
ENDBRANCH   1   7
BRANCH   4  16
ATOM     16  C   UNL d   1      11.033   8.227  -6.691  0.00  0.00     0.016 A 
ATOM     17  C   UNL d   1      11.393   7.935  -5.336  0.00  0.00     0.019 A 
ATOM     18  C   UNL d   1      12.106   9.079  -4.867  0.00  0.00     0.081 A 
ATOM     19  C   UNL d   1      11.246   6.848  -4.447  0.00  0.00     0.002 A 
ATOM     20  N   UNL d   1      12.158   9.967  -5.927  0.00  0.00    -0.244 NA
ATOM     21  C   UNL d   1      12.622   9.129  -3.563  0.00  0.00     0.019 A 
ATOM     22  C   UNL d   1      11.509   9.453  -7.032  0.00  0.00     0.099 A 
ATOM     23  C   UNL d   1      12.436   8.046  -2.689  0.00  0.00     0.002 A 
ATOM     24  C   UNL d   1      11.747   6.899  -3.128  0.00  0.00     0.000 A 
ENDBRANCH   4  16
TORSDOF 4
