REMARK  4 active torsions:
REMARK  status: ('A' for Active; 'I' for Inactive)
REMARK    1  A    between atoms: C_9  and  C_10 
REMARK    2  A    between atoms: C_10  and  N_11 
REMARK    3  A    between atoms: N_11  and  C_12 
REMARK    4  A    between atoms: C_12  and  C_13 
ROOT
ATOM      1  O   UNL d   1       8.916   1.454 -14.716  0.00  0.00    -0.190 OA
ATOM      2  C   UNL d   1       8.239   2.525 -14.205  0.00  0.00     0.133 A 
ATOM      3  C   UNL d   1       6.838   2.476 -14.065  0.00  0.00     0.027 A 
ATOM      4  C   UNL d   1       6.143   3.581 -13.540  0.00  0.00    -0.000 A 
ATOM      5  C   UNL d   1       6.839   4.738 -13.152  0.00  0.00     0.000 A 
ATOM      6  C   UNL d   1       8.251   4.787 -13.276  0.00  0.00     0.092 A 
ATOM      7  C   UNL d   1       8.944   3.679 -13.802  0.00  0.00     0.051 A 
ATOM      8  O   UNL d   1       8.967   5.912 -12.943  0.00  0.00    -0.331 OA
ATOM      9  C   UNL d   1       8.309   6.862 -12.102  0.00  0.00     0.158 C 
ATOM     10  C   UNL d   1       6.922   7.205 -12.637  0.00  0.00     0.037 C 
ATOM     11  C   UNL d   1       6.062   5.942 -12.643  0.00  0.00     0.031 C 
ENDROOT
BRANCH   9  12
ATOM     12  C   UNL d   1       9.228   8.104 -12.025  0.00  0.00     0.320 C 
BRANCH  12  13
ATOM     13  N   UNL d   1       9.462   8.455 -10.633  0.00  0.00     0.346 N 
BRANCH  13  14
ATOM     14  C   UNL d   1      10.298   7.477  -9.976  0.00  0.00     0.317 C 
BRANCH  14  15
ATOM     15  C   UNL d   1      10.573   7.840  -8.540  0.00  0.00     0.014 A 
ATOM     16  C   UNL d   1       9.821   7.246  -7.507  0.00  0.00    -0.002 A 
ATOM     17  C   UNL d   1      10.097   7.556  -6.167  0.00  0.00    -0.000 A 
ATOM     18  C   UNL d   1      11.116   8.484  -5.855  0.00  0.00    -0.000 A 
ATOM     19  C   UNL d   1      11.859   9.088  -6.888  0.00  0.00    -0.000 A 
ATOM     20  C   UNL d   1      11.595   8.762  -8.231  0.00  0.00    -0.002 A 
ENDBRANCH  14  15
ENDBRANCH  13  14
ENDBRANCH  12  13
ENDBRANCH   9  12
TORSDOF 4
