REMARK  7 active torsions:
REMARK  status: ('A' for Active; 'I' for Inactive)
REMARK    1  A    between atoms: N_9  and  C_10 
REMARK    2  A    between atoms: C_10  and  C_11 
REMARK    3  A    between atoms: C_11  and  C_12 
REMARK    4  A    between atoms: C_12  and  C_13 
REMARK    5  A    between atoms: C_13  and  C_14 
REMARK    6  A    between atoms: C_14  and  N_15 
REMARK    7  A    between atoms: N_18  and  C_19 
ROOT
ATOM      1  C   UNL d   1       9.602   2.442 -15.243  0.00  0.00     0.125 C 
ENDROOT
BRANCH   1   2
ATOM      2  N   UNL d   1       9.575   3.073 -16.552  0.00  0.00    -0.160 N 
ATOM      3  C   UNL d   1      10.389   4.122 -16.822  0.00  0.00     0.718 A 
ATOM      4  N   UNL d   1      11.287   4.812 -16.164  0.00  0.00    -0.043 NA
ATOM      5  N   UNL d   1      10.185   4.515 -18.115  0.00  0.00    -0.131 N 
ATOM      6  C   UNL d   1      11.691   5.727 -17.141  0.00  0.00     0.187 A 
ATOM      7  C   UNL d   1      11.050   5.572 -18.315  0.00  0.00     0.172 A 
ATOM      8  N   UNL d   1      12.671   6.750 -17.071  0.00  0.00    -0.263 N 
ATOM      9  C   UNL d   1      11.291   6.368 -19.505  0.00  0.00     0.284 A 
ATOM     10  N   UNL d   1      12.274   7.304 -19.337  0.00  0.00    -0.246 N 
ATOM     11  O   UNL d   1      10.658   6.161 -20.540  0.00  0.00    -0.265 OA
ATOM     12  C   UNL d   1      12.619   8.161 -20.485  0.00  0.00     0.139 C 
ATOM     13  C   UNL d   1      12.979   7.517 -18.167  0.00  0.00     0.335 A 
ATOM     14  O   UNL d   1      13.878   8.362 -18.098  0.00  0.00    -0.246 OA
ATOM     15  C   UNL d   1      13.400   6.948 -15.822  0.00  0.00     0.137 C 
ATOM     16  C   UNL d   1       9.242   3.711 -18.655  0.00  0.00     0.117 A 
ATOM     17  C   UNL d   1       8.832   2.784 -17.715  0.00  0.00     0.113 A 
ENDBRANCH   1   2
BRANCH   1  18
ATOM     18  C   UNL d   1       8.494   2.967 -14.315  0.00  0.00     0.025 C 
BRANCH  18  19
ATOM     19  C   UNL d   1       8.927   4.190 -13.490  0.00  0.00     0.004 C 
BRANCH  19  20
ATOM     20  C   UNL d   1       7.790   4.798 -12.651  0.00  0.00     0.035 C 
BRANCH  20  21
ATOM     21  C   UNL d   1       8.142   6.181 -12.070  0.00  0.00     0.250 C 
BRANCH  21  22
ATOM     22  N   UNL d   1       9.263   6.125 -11.127  0.00  0.00     0.141 N 
ATOM     23  C   UNL d   1       9.826   7.474 -10.976  0.00  0.00     0.274 C 
ATOM     24  C   UNL d   1      11.033   7.457 -10.018  0.00  0.00     0.137 C 
ATOM     25  N   UNL d   1      10.629   6.908  -8.728  0.00  0.00    -0.344 N 
ATOM     26  C   UNL d   1       9.944   5.618  -8.804  0.00  0.00     0.137 C 
ATOM     27  C   UNL d   1       8.782   5.689  -9.807  0.00  0.00     0.274 C 
BRANCH  25  28
ATOM     28  C   UNL d   1      10.883   7.553  -7.507  0.00  0.00     0.056 A 
ATOM     29  C   UNL d   1      11.068   6.799  -6.323  0.00  0.00     0.018 A 
ATOM     30  C   UNL d   1      11.297   7.426  -5.089  0.00  0.00     0.013 A 
ATOM     31  C   UNL d   1      11.365   8.828  -5.017  0.00  0.00     0.058 A 
ATOM     32  C   UNL d   1      11.194   9.597  -6.183  0.00  0.00     0.013 A 
ATOM     33 CL   UNL d   1      11.654   9.584  -3.505  0.00  0.00    -0.082 Cl
ATOM     34  C   UNL d   1      10.957   8.967  -7.418  0.00  0.00     0.018 A 
ENDBRANCH  25  28
ENDBRANCH  21  22
ENDBRANCH  20  21
ENDBRANCH  19  20
ENDBRANCH  18  19
ENDBRANCH   1  18
TORSDOF 7
