REMARK  1 active torsions:
REMARK  status: ('A' for Active; 'I' for Inactive)
REMARK    1  A    between atoms: O_2  and  C_3 
ROOT
ATOM      1  C   UNL d   1       6.591   0.510 -14.271  0.00  0.00     0.116 A 
ATOM      2  C   UNL d   1       5.606   1.320 -13.642  0.00  0.00     0.026 A 
ATOM      3  C   UNL d   1       5.862   2.674 -13.340  0.00  0.00    -0.001 A 
ATOM      4  C   UNL d   1       7.115   3.248 -13.641  0.00  0.00     0.009 A 
ATOM      5  C   UNL d   1       8.067   2.403 -14.251  0.00  0.00     0.005 A 
ATOM      6  C   UNL d   1       7.862   1.061 -14.555  0.00  0.00     0.112 A 
ATOM      7  O   UNL d   1       8.940   0.425 -15.101  0.00  0.00    -0.331 OA
ATOM      8  C   UNL d   1      10.058   1.302 -14.932  0.00  0.00     0.132 C 
ATOM      9  C   UNL d   1      11.037   1.185 -16.114  0.00  0.00     0.068 C 
ATOM     10  C   UNL d   1      10.494   1.807 -17.407  0.00  0.00     0.176 C 
ATOM     11  O   UNL d   1       9.523   0.960 -17.982  0.00  0.00    -0.218 OA
ATOM     12  C   UNL d   1       9.892   3.170 -17.155  0.00  0.00     0.002 C 
ATOM     13  C   UNL d   1       9.477   3.588 -15.948  0.00  0.00    -0.022 C 
ATOM     14  C   UNL d   1       9.481   2.739 -14.675  0.00  0.00     0.066 C 
ATOM     15  C   UNL d   1      10.278   3.412 -13.540  0.00  0.00     0.046 C 
ATOM     16  C   UNL d   1       9.880   4.847 -13.175  0.00  0.00     0.252 C 
ATOM     17  N   UNL d   1       8.602   4.924 -12.477  0.00  0.00     0.143 N 
ATOM     18  C   UNL d   1       8.477   6.277 -11.946  0.00  0.00     0.286 C 
ATOM     19  C   UNL d   1       7.492   4.695 -13.397  0.00  0.00     0.277 C 
ENDROOT
BRANCH   1  20
ATOM     20  O   UNL d   1       6.386  -0.810 -14.605  0.00  0.00    -0.326 OA
ATOM     21  C   UNL d   1       5.051  -1.284 -14.676  0.00  0.00     0.181 C 
ENDBRANCH   1  20
TORSDOF 1
