REMARK  9 active torsions:
REMARK  status: ('A' for Active; 'I' for Inactive)
REMARK    1  A    between atoms: C_7  and  O_8 
REMARK    2  A    between atoms: O_8  and  C_9 
REMARK    3  A    between atoms: C_9  and  C_10 
REMARK    4  A    between atoms: C_10  and  N_11 
REMARK    5  A    between atoms: N_11  and  C_12 
REMARK    6  A    between atoms: C_12  and  C_13 
REMARK    7  A    between atoms: C_13  and  C_14 
REMARK    8  A    between atoms: C_14  and  O_15 
REMARK    9  A    between atoms: O_15  and  C_16 
ROOT
ATOM      1  N   UNL d   1       9.723   6.751 -10.713  0.00  0.00     0.342 N 
ENDROOT
BRANCH   1   2
ATOM      2  C   UNL d   1       9.173   5.629 -11.442  0.00  0.00     0.323 C 
BRANCH   2   3
ATOM      3  C   UNL d   1       9.005   6.008 -12.925  0.00  0.00     0.187 C 
BRANCH   3   4
ATOM      4  O   UNL d   1       9.007   4.854 -13.756  0.00  0.00    -0.329 OA
BRANCH   4   5
ATOM      5  C   UNL d   1       7.948   3.975 -13.695  0.00  0.00     0.090 A 
ATOM      6  C   UNL d   1       8.046   2.784 -14.454  0.00  0.00     0.001 A 
ATOM      7  C   UNL d   1       9.277   2.520 -15.307  0.00  0.00     0.033 C 
ATOM      8  C   UNL d   1       6.996   1.839 -14.439  0.00  0.00    -0.002 A 
ATOM      9  C   UNL d   1       5.859   2.061 -13.639  0.00  0.00    -0.000 A 
ATOM     10  C   UNL d   1       5.755   3.245 -12.885  0.00  0.00     0.002 A 
ATOM     11  C   UNL d   1       6.777   4.209 -12.929  0.00  0.00     0.024 A 
ENDBRANCH   4   5
ENDBRANCH   3   4
ENDBRANCH   2   3
ENDBRANCH   1   2
BRANCH   1  12
ATOM     12  C   UNL d   1       9.854   6.381  -9.321  0.00  0.00     0.293 C 
BRANCH  12  13
ATOM     13  C   UNL d   1      10.224   7.633  -8.516  0.00  0.00     0.071 C 
BRANCH  13  14
ATOM     14  C   UNL d   1      10.505   7.277  -7.053  0.00  0.00     0.151 C 
BRANCH  14  15
ATOM     15  O   UNL d   1      10.834   8.430  -6.287  0.00  0.00    -0.331 OA
BRANCH  15  16
ATOM     16  C   UNL d   1      11.288   8.216  -5.004  0.00  0.00     0.094 A 
ATOM     17  C   UNL d   1      11.564   9.345  -4.202  0.00  0.00     0.024 A 
ATOM     18  C   UNL d   1      12.050   9.192  -2.889  0.00  0.00     0.002 A 
ATOM     19  C   UNL d   1      12.264   7.905  -2.356  0.00  0.00     0.000 A 
ATOM     20  C   UNL d   1      11.985   6.780  -3.143  0.00  0.00     0.002 A 
ATOM     21  C   UNL d   1      11.484   6.923  -4.457  0.00  0.00     0.024 A 
ENDBRANCH  15  16
ENDBRANCH  14  15
ENDBRANCH  13  14
ENDBRANCH  12  13
ENDBRANCH   1  12
TORSDOF 9
