REMARK  7 active torsions:
REMARK  status: ('A' for Active; 'I' for Inactive)
REMARK    1  A    between atoms: C_2  and  C_3 
REMARK    2  A    between atoms: C_3  and  C_4 
REMARK    3  A    between atoms: C_4  and  C_5 
REMARK    4  A    between atoms: C_5  and  O_6 
REMARK    5  A    between atoms: C_5  and  C_15 
REMARK    6  A    between atoms: O_6  and  C_7 
REMARK    7  A    between atoms: C_20  and  N_21 
ROOT
ATOM      1  C   UNL d   1       7.586   0.327 -16.219  0.00  0.00     0.203 A 
ATOM      2  N   UNL d   1       8.847  -0.072 -16.399  0.00  0.00    -0.039 NA
ATOM      3  C   UNL d   1       9.736   0.759 -15.867  0.00  0.00     0.785 A 
ATOM      4  N   UNL d   1      11.041   0.424 -16.014  0.00  0.00     0.063 N 
ATOM      5  N   UNL d   1       9.508   1.897 -15.199  0.00  0.00     0.134 NA
ATOM      6  C   UNL d   1       8.190   2.176 -15.107  0.00  0.00     0.744 A 
ATOM      7  N   UNL d   1       7.196   1.463 -15.617  0.00  0.00    -0.043 NA
ENDROOT
BRANCH   1   8
ATOM      8  C   UNL d   1       6.489  -0.620 -16.723  0.00  0.00     0.180 C 
BRANCH   8   9
ATOM      9  C   UNL d   1       5.574  -1.210 -15.609  0.00  0.00     0.038 C 
BRANCH   9  10
ATOM     10  C   UNL d   1       4.470  -0.222 -15.158  0.00  0.00     0.003 C 
BRANCH  10  11
ATOM     11  C   UNL d   1       4.305  -0.047 -13.638  0.00  0.00     0.000 C 
ATOM     12  C   UNL d   1       5.632   0.291 -12.860  0.00  0.00     0.000 C 
ENDBRANCH  10  11
ENDBRANCH   9  10
ENDBRANCH   8   9
BRANCH   8  13
ATOM     13  O   UNL d   1       5.673   0.011 -17.707  0.00  0.00    -0.326 OA
BRANCH  13  14
ATOM     14  C   UNL d   1       5.758  -0.396 -19.017  0.00  0.00     0.096 A 
ATOM     15  C   UNL d   1       5.955  -1.737 -19.430  0.00  0.00     0.036 A 
ATOM     16  C   UNL d   1       6.018  -2.044 -20.803  0.00  0.00     0.061 A 
ATOM     17  C   UNL d   1       5.869  -1.024 -21.763  0.00  0.00     0.023 A 
ATOM     18 CL   UNL d   1       6.276  -3.672 -21.312  0.00  0.00    -0.082 Cl
ATOM     19  C   UNL d   1       5.649   0.305 -21.353  0.00  0.00     0.061 A 
ATOM     20  C   UNL d   1       5.587   0.608 -19.984  0.00  0.00     0.036 A 
ATOM     21 CL   UNL d   1       5.475   1.564 -22.518  0.00  0.00    -0.082 Cl
ENDBRANCH  13  14
ENDBRANCH   8  13
ENDBRANCH   1   8
BRANCH   6  22
ATOM     22  N   UNL d   1       7.857   3.341 -14.424  0.00  0.00    -0.178 N 
ATOM     23  C   UNL d   1       6.491   3.616 -13.896  0.00  0.00     0.155 C 
ATOM     24  C   UNL d   1       6.641   4.051 -12.413  0.00  0.00     0.275 C 
ATOM     25  N   UNL d   1       7.516   5.225 -12.313  0.00  0.00     0.143 N 
ATOM     26  C   UNL d   1       8.857   4.921 -12.830  0.00  0.00     0.275 C 
ATOM     27  C   UNL d   1       7.649   5.648 -10.921  0.00  0.00     0.286 C 
ATOM     28  C   UNL d   1       8.758   4.470 -14.293  0.00  0.00     0.155 C 
ENDBRANCH   6  22
TORSDOF 7
