REMARK  8 active torsions:
REMARK  status: ('A' for Active; 'I' for Inactive)
REMARK    1  A    between atoms: O_2  and  C_3 
REMARK    2  A    between atoms: C_3  and  C_4 
REMARK    3  A    between atoms: C_4  and  C_5 
REMARK       I    between atoms: C_5  and  N_7 
REMARK    4  A    between atoms: N_7  and  C_8 
REMARK    5  A    between atoms: C_11  and  C_12 
REMARK    6  A    between atoms: C_12  and  C_13 
REMARK    7  A    between atoms: C_13  and  N_14 
REMARK    8  A    between atoms: N_17  and  C_18 
ROOT
ATOM      1  N   UNL d   1       9.510   3.822 -13.898  0.00  0.00     0.141 N 
ATOM      2  C   UNL d   1       9.901   4.473 -15.147  0.00  0.00     0.274 C 
ATOM      3  C   UNL d   1      11.244   3.948 -15.641  0.00  0.00     0.138 C 
ATOM      4  N   UNL d   1      11.209   2.504 -15.768  0.00  0.00    -0.330 N 
ATOM      5  C   UNL d   1      10.709   1.776 -14.614  0.00  0.00     0.138 C 
ATOM      6  C   UNL d   1       9.364   2.387 -14.153  0.00  0.00     0.274 C 
ENDROOT
BRANCH   1   7
ATOM      7  C   UNL d   1       8.234   4.352 -13.425  0.00  0.00     0.250 C 
BRANCH   7   8
ATOM      8  C   UNL d   1       8.415   5.748 -12.796  0.00  0.00     0.035 C 
BRANCH   8   9
ATOM      9  C   UNL d   1       9.206   5.739 -11.476  0.00  0.00     0.002 C 
ATOM     10  C   UNL d   1       9.609   7.170 -11.071  0.00  0.00     0.002 C 
ATOM     11  C   UNL d   1      10.352   7.195  -9.733  0.00  0.00     0.024 C 
ATOM     12  C   UNL d   1       9.523   6.530  -8.622  0.00  0.00     0.106 C 
ATOM     13  C   UNL d   1       9.127   5.098  -9.011  0.00  0.00     0.024 C 
ATOM     14  C   UNL d   1       8.388   5.087 -10.350  0.00  0.00     0.002 C 
BRANCH  12  15
ATOM     15  N   UNL d   1      10.290   6.489  -7.392  0.00  0.00    -0.240 NA
ATOM     16  C   UNL d   1      10.417   7.501  -6.531  0.00  0.00     0.254 C 
ATOM     17  O   UNL d   1       9.914   8.613  -6.691  0.00  0.00    -0.271 OA
BRANCH  16  18
ATOM     18  C   UNL d   1      11.229   7.169  -5.288  0.00  0.00     0.122 C 
BRANCH  18  19
ATOM     19  C   UNL d   1      11.799   8.400  -4.553  0.00  0.00     0.152 C 
BRANCH  19  20
ATOM     20  O   UNL d   1      12.652   7.997  -3.489  0.00  0.00    -0.351 OA
ATOM     21  C   UNL d   1      11.985   7.340  -2.421  0.00  0.00     0.174 C 
ENDBRANCH  19  20
ENDBRANCH  18  19
ENDBRANCH  16  18
ENDBRANCH  12  15
ENDBRANCH   8   9
ENDBRANCH   7   8
ENDBRANCH   1   7
BRANCH   4  22
ATOM     22  C   UNL d   1      11.597   1.847 -16.972  0.00  0.00     0.138 A 
ATOM     23  C   UNL d   1      12.591   2.360 -17.823  0.00  0.00     0.036 A 
ATOM     24  C   UNL d   1      12.951   1.675 -18.971  0.00  0.00     0.095 A 
ATOM     25  C   UNL d   1      13.471   3.569 -17.707  0.00  0.00     0.064 C 
ATOM     26  C   UNL d   1      12.290   0.483 -19.310  0.00  0.00     0.045 A 
ATOM     27  O   UNL d   1      13.985   2.259 -19.648  0.00  0.00    -0.331 OA
ATOM     28  C   UNL d   1      11.298   0.034 -18.414  0.00  0.00     0.103 A 
ATOM     29  N   UNL d   1      10.969   0.685 -17.268  0.00  0.00    -0.228 NA
ATOM     30  C   UNL d   1      14.473   3.350 -18.848  0.00  0.00     0.154 C 
ENDBRANCH   4  22
TORSDOF 8
