REMARK  3 active torsions:
REMARK  status: ('A' for Active; 'I' for Inactive)
REMARK    1  A    between atoms: C_3  and  C_4 
REMARK    2  A    between atoms: C_4  and  N_5 
REMARK    3  A    between atoms: C_8  and  C_9 
ROOT
ATOM      1  N   UNL d   1       9.153   5.881 -11.804  0.00  0.00     0.145 N 
ATOM      2  C   UNL d   1       8.438   5.196 -10.726  0.00  0.00     0.251 C 
ATOM      3  C   UNL d   1       9.198   5.384  -9.422  0.00  0.00     0.040 C 
ATOM      4  C   UNL d   1       9.310   6.878  -9.038  0.00  0.00     0.026 C 
ATOM      5  C   UNL d   1       9.857   7.667 -10.250  0.00  0.00     0.040 C 
ATOM      6  C   UNL d   1       9.138   7.322 -11.576  0.00  0.00     0.251 C 
ENDROOT
BRANCH   1   7
ATOM      7  C   UNL d   1       8.483   5.599 -13.059  0.00  0.00     0.313 C 
BRANCH   7   8
ATOM      8  C   UNL d   1       8.851   4.287 -13.658  0.00  0.00     0.154 A 
ATOM      9  N   UNL d   1      10.100   4.053 -14.135  0.00  0.00    -0.312 N 
ATOM     10  C   UNL d   1      11.241   4.941 -14.134  0.00  0.00     0.132 C 
ATOM     11  C   UNL d   1      10.082   2.760 -14.623  0.00  0.00     0.079 A 
ATOM     12  C   UNL d   1       8.748   2.314 -14.401  0.00  0.00     0.099 A 
ATOM     13  C   UNL d   1      11.051   1.946 -15.229  0.00  0.00     0.019 A 
ATOM     14  N   UNL d   1       7.982   3.294 -13.799  0.00  0.00    -0.229 NA
ATOM     15  C   UNL d   1       8.408   1.010 -14.800  0.00  0.00     0.021 A 
ATOM     16  C   UNL d   1       9.373   0.186 -15.417  0.00  0.00     0.002 A 
ATOM     17  C   UNL d   1      10.686   0.651 -15.634  0.00  0.00     0.002 A 
ENDBRANCH   7   8
ENDBRANCH   1   7
BRANCH   4  18
ATOM     18  C   UNL d   1      10.103   7.185  -7.765  0.00  0.00    -0.021 A 
ATOM     19  C   UNL d   1       9.971   8.437  -7.105  0.00  0.00     0.007 A 
ATOM     20  C   UNL d   1      10.686   8.687  -5.907  0.00  0.00     0.057 A 
ATOM     21  C   UNL d   1      11.467   7.672  -5.338  0.00  0.00     0.011 A 
ATOM     22 CL   UNL d   1      10.666  10.229  -5.129  0.00  0.00    -0.082 Cl
ATOM     23  C   UNL d   1      11.617   6.447  -6.005  0.00  0.00     0.001 A 
ATOM     24  C   UNL d   1      10.956   6.216  -7.219  0.00  0.00    -0.004 A 
ENDBRANCH   4  18
TORSDOF 3
