REMARK  1 active torsions:
REMARK  status: ('A' for Active; 'I' for Inactive)
REMARK    1  A    between atoms: C_6  and  C_7 
ROOT
ATOM      1  C   UNL d   1      10.450   8.118  -6.875  0.00  0.00    -0.020 A 
ATOM      2  C   UNL d   1      11.008   9.354  -7.248  0.00  0.00    -0.004 A 
ATOM      3  C   UNL d   1      11.879  10.043  -6.385  0.00  0.00     0.000 A 
ATOM      4  C   UNL d   1      12.230   9.489  -5.139  0.00  0.00     0.010 A 
ATOM      5  C   UNL d   1      11.675   8.263  -4.745  0.00  0.00     0.068 A 
ATOM      6  C   UNL d   1      12.006   7.670  -3.457  0.00  0.00     0.101 C 
ATOM      7  N   UNL d   1      12.264   7.197  -2.433  0.00  0.00    -0.191 NA
ATOM      8  C   UNL d   1      10.790   7.580  -5.604  0.00  0.00     0.006 A 
ENDROOT
BRANCH   1   9
ATOM      9  C   UNL d   1       9.505   7.393  -7.851  0.00  0.00     0.056 C 
ATOM     10  C   UNL d   1       9.230   5.963  -7.382  0.00  0.00     0.008 C 
ATOM     11  C   UNL d   1       8.435   5.154  -8.385  0.00  0.00     0.036 C 
ATOM     12  C   UNL d   1       9.035   5.207  -9.786  0.00  0.00     0.250 C 
ATOM     13  N   UNL d   1       9.180   6.593 -10.191  0.00  0.00     0.139 N 
ATOM     14  C   UNL d   1       9.662   6.674 -11.549  0.00  0.00     0.285 C 
ATOM     15  C   UNL d   1      10.070   7.337  -9.299  0.00  0.00     0.255 C 
ENDBRANCH   1   9
TORSDOF 1
