REMARK  6 active torsions:
REMARK  status: ('A' for Active; 'I' for Inactive)
REMARK    1  A    between atoms: O_2  and  C_3 
REMARK    2  A    between atoms: C_8  and  N_9 
REMARK    3  A    between atoms: N_12  and  C_13 
REMARK    4  A    between atoms: C_13  and  C_14 
REMARK    5  A    between atoms: C_14  and  O_15 
REMARK    6  A    between atoms: O_15  and  C_16 
ROOT
ATOM      1  N   UNL d   1       8.878   2.625 -16.580  0.00  0.00    -0.343 N 
ATOM      2  C   UNL d   1       7.761   2.140 -15.736  0.00  0.00     0.137 C 
ATOM      3  C   UNL d   1       8.134   2.209 -14.245  0.00  0.00     0.274 C 
ATOM      4  N   UNL d   1       8.593   3.561 -13.901  0.00  0.00     0.144 N 
ATOM      5  C   UNL d   1       9.798   3.863 -14.662  0.00  0.00     0.274 C 
ATOM      6  C   UNL d   1       9.445   3.909 -16.149  0.00  0.00     0.137 C 
ENDROOT
BRANCH   4   7
ATOM      7  C   UNL d   1       8.867   3.577 -12.439  0.00  0.00     0.283 C 
BRANCH   7   8
ATOM      8  C   UNL d   1       9.282   4.938 -11.861  0.00  0.00     0.184 C 
BRANCH   8   9
ATOM      9  O   UNL d   1       9.386   4.890 -10.459  0.00  0.00    -0.329 OA
BRANCH   9  10
ATOM     10  C   UNL d   1       9.761   6.063  -9.847  0.00  0.00     0.096 A 
ATOM     11  C   UNL d   1       9.828   6.114  -8.442  0.00  0.00     0.045 A 
ATOM     12  C   UNL d   1      10.241   7.323  -7.861  0.00  0.00     0.103 A 
ATOM     13  C   UNL d   1      10.604   8.412  -8.625  0.00  0.00     0.102 A 
ATOM     14  N   UNL d   1      10.393   7.727  -6.527  0.00  0.00    -0.216 NA
ATOM     15  C   UNL d   1      10.555   8.419 -10.012  0.00  0.00     0.023 A 
ATOM     16  N   UNL d   1      10.989   9.413  -7.763  0.00  0.00    -0.216 NA
ATOM     17  C   UNL d   1      10.106   7.225 -10.629  0.00  0.00     0.026 A 
ATOM     18  C   UNL d   1      10.815   9.028  -6.478  0.00  0.00     0.221 A 
ATOM     19  S   UNL d   1      11.057   9.976  -5.135  0.00  0.00    -0.037 SA
ENDBRANCH   9  10
ENDBRANCH   8   9
ENDBRANCH   7   8
ENDBRANCH   4   7
BRANCH   1  20
ATOM     20  C   UNL d   1       9.429   1.838 -17.569  0.00  0.00     0.079 A 
ATOM     21  C   UNL d   1      10.839   1.780 -17.803  0.00  0.00     0.110 A 
ATOM     22  C   UNL d   1      11.338   1.012 -18.902  0.00  0.00     0.026 A 
ATOM     23  C   UNL d   1      10.465   0.298 -19.734  0.00  0.00     0.002 A 
ATOM     24  C   UNL d   1       9.083   0.331 -19.494  0.00  0.00     0.002 A 
ATOM     25  C   UNL d   1       8.578   1.104 -18.422  0.00  0.00     0.019 A 
BRANCH  21  26
ATOM     26  O   UNL d   1      11.668   2.451 -16.929  0.00  0.00    -0.327 OA
ATOM     27  C   UNL d   1      12.967   2.807 -17.392  0.00  0.00     0.181 C 
ENDBRANCH  21  26
ENDBRANCH   1  20
TORSDOF 6
