REMARK  8 active torsions:
REMARK  status: ('A' for Active; 'I' for Inactive)
REMARK    1  A    between atoms: C_6  and  C_7 
REMARK    2  A    between atoms: C_10  and  S_11 
REMARK    3  A    between atoms: S_11  and  C_12 
REMARK    4  A    between atoms: C_12  and  C_13 
REMARK    5  A    between atoms: C_13  and  C_14 
REMARK    6  A    between atoms: C_14  and  N_15 
REMARK    7  A    between atoms: C_20  and  C_21 
REMARK    8  A    between atoms: C_26  and  C_27 
ROOT
ATOM      1  N   UNL d   1       9.659   2.057 -15.877  0.00  0.00     0.137 N 
ATOM      2  C   UNL d   1       9.509   0.796 -15.178  0.00  0.00     0.250 C 
ATOM      3  C   UNL d   1      10.450  -0.122 -15.913  0.00  0.00     0.038 C 
ATOM      4  C   UNL d   1      10.505   0.413 -17.309  0.00  0.00     0.037 A 
ATOM      5  C   UNL d   1      11.813   0.354 -18.087  0.00  0.00     0.007 A 
ATOM      6  C   UNL d   1      10.644  -0.516 -18.513  0.00  0.00     0.024 A 
ATOM      7  C   UNL d   1       9.677   1.704 -17.296  0.00  0.00     0.251 C 
ENDROOT
BRANCH   1   8
ATOM      8  C   UNL d   1       8.599   2.997 -15.570  0.00  0.00     0.251 C 
BRANCH   8   9
ATOM      9  C   UNL d   1       8.567   3.367 -14.060  0.00  0.00     0.047 C 
BRANCH   9  10
ATOM     10  C   UNL d   1       7.422   4.311 -13.693  0.00  0.00     0.067 C 
BRANCH  10  11
ATOM     11  S   UNL d   1       7.152   4.410 -11.907  0.00  0.00    -0.075 SA
BRANCH  11  12
ATOM     12  C   UNL d   1       8.285   5.694 -11.460  0.00  0.00     0.193 A 
ATOM     13  N   UNL d   1       8.624   6.707 -12.254  0.00  0.00    -0.122 NA
ATOM     14  N   UNL d   1       9.466   7.501 -11.500  0.00  0.00    -0.126 NA
ATOM     15  C   UNL d   1       9.566   6.902 -10.306  0.00  0.00     0.191 A 
ATOM     16  N   UNL d   1       8.843   5.761 -10.222  0.00  0.00    -0.287 N 
ATOM     17  C   UNL d   1       8.671   4.846  -9.108  0.00  0.00     0.134 C 
BRANCH  15  18
ATOM     18  C   UNL d   1      10.426   7.476  -9.258  0.00  0.00     0.151 A 
ATOM     19  C   UNL d   1      10.291   7.702  -7.905  0.00  0.00     0.087 A 
ATOM     20  C   UNL d   1       9.158   7.457  -6.963  0.00  0.00     0.054 C 
ATOM     21  N   UNL d   1      11.467   8.281  -7.439  0.00  0.00    -0.221 NA
ATOM     22  C   UNL d   1      12.246   8.388  -8.509  0.00  0.00     0.225 A 
ATOM     23  O   UNL d   1      11.678   7.904  -9.643  0.00  0.00    -0.282 OA
ENDBRANCH  15  18
ENDBRANCH  11  12
ENDBRANCH  10  11
ENDBRANCH   9  10
ENDBRANCH   8   9
ENDBRANCH   1   8
BRANCH   6  24
ATOM     24  C   UNL d   1       9.903  -0.230 -19.774  0.00  0.00    -0.018 A 
ATOM     25  C   UNL d   1       8.503  -0.439 -19.890  0.00  0.00     0.068 A 
ATOM     26  C   UNL d   1       7.882  -0.092 -21.118  0.00  0.00     0.004 A 
ATOM     27  C   UNL d   1       8.622   0.430 -22.196  0.00  0.00    -0.000 A 
ATOM     28  C   UNL d   1      10.011   0.601 -22.086  0.00  0.00    -0.000 A 
ATOM     29  C   UNL d   1      10.645   0.261 -20.876  0.00  0.00    -0.004 A 
BRANCH  25  30
ATOM     30  C   UNL d   1       7.654  -1.081 -18.781  0.00  0.00     0.418 C 
ATOM     31  F   UNL d   1       8.100  -2.317 -18.569  0.00  0.00    -0.166 F 
ATOM     32  F   UNL d   1       7.670  -0.410 -17.639  0.00  0.00    -0.166 F 
ATOM     33  F   UNL d   1       6.384  -1.198 -19.162  0.00  0.00    -0.166 F 
ENDBRANCH  25  30
ENDBRANCH   6  24
TORSDOF 8
