REMARK  6 active torsions:
REMARK  status: ('A' for Active; 'I' for Inactive)
REMARK    1  A    between atoms: S_2  and  N_4 
REMARK    2  A    between atoms: S_2  and  C_23 
REMARK    3  A    between atoms: N_4  and  C_5 
REMARK    4  A    between atoms: C_5  and  C_6 
REMARK    5  A    between atoms: C_6  and  N_7 
REMARK    6  A    between atoms: C_10  and  C_11 
ROOT
ATOM      1  N   UNL d   1       9.637   5.525  -9.704  0.00  0.00     0.144 N 
ATOM      2  C   UNL d   1       9.438   6.937  -9.990  0.00  0.00     0.276 C 
ATOM      3  C   UNL d   1      10.021   7.903  -8.988  0.00  0.00     0.005 C 
ATOM      4  C   UNL d   1      10.470   7.509  -7.784  0.00  0.00    -0.021 C 
ATOM      5  C   UNL d   1      10.376   6.042  -7.439  0.00  0.00     0.061 C 
ATOM      6  C   UNL d   1       9.357   5.284  -8.291  0.00  0.00     0.255 C 
ENDROOT
BRANCH   1   7
ATOM      7  C   UNL d   1       8.720   4.751 -10.543  0.00  0.00     0.278 C 
BRANCH   7   8
ATOM      8  C   UNL d   1       9.528   3.903 -11.528  0.00  0.00     0.174 C 
BRANCH   8   9
ATOM      9  N   UNL d   1      10.256   4.699 -12.501  0.00  0.00    -0.183 NA
BRANCH   9  10
ATOM     10  S   UNL d   1       9.697   4.766 -14.114  0.00  0.00     0.281 S 
ATOM     11  O   UNL d   1       8.282   5.177 -14.050  0.00  0.00    -0.199 OA
ATOM     12  O   UNL d   1      10.700   5.530 -14.863  0.00  0.00    -0.199 OA
BRANCH  10  13
ATOM     13  C   UNL d   1       9.776   3.069 -14.666  0.00  0.00     0.105 A 
ATOM     14  C   UNL d   1      10.957   2.601 -15.277  0.00  0.00     0.015 A 
ATOM     15  C   UNL d   1      11.013   1.276 -15.742  0.00  0.00     0.030 A 
ATOM     16  C   UNL d   1       9.900   0.430 -15.591  0.00  0.00     0.140 A 
ATOM     17  C   UNL d   1       8.724   0.894 -14.970  0.00  0.00     0.030 A 
ATOM     18  F   UNL d   1       9.964  -0.829 -16.064  0.00  0.00    -0.204 F 
ATOM     19  C   UNL d   1       8.657   2.225 -14.517  0.00  0.00     0.015 A 
ENDBRANCH  10  13
ENDBRANCH   9  10
ENDBRANCH   8   9
ENDBRANCH   7   8
ENDBRANCH   1   7
BRANCH   4  20
ATOM     20  C   UNL d   1      11.074   8.469  -6.858  0.00  0.00     0.017 A 
ATOM     21  C   UNL d   1      11.454   8.231  -5.486  0.00  0.00     0.020 A 
ATOM     22  C   UNL d   1      12.077   9.449  -5.027  0.00  0.00     0.082 A 
ATOM     23  C   UNL d   1      11.420   7.164  -4.553  0.00  0.00     0.013 A 
ATOM     24  N   UNL d   1      12.028  10.331  -6.083  0.00  0.00    -0.244 NA
ATOM     25  C   UNL d   1      12.624   9.589  -3.740  0.00  0.00     0.020 A 
ATOM     26  C   UNL d   1      11.462   9.728  -7.190  0.00  0.00     0.099 A 
ATOM     27  C   UNL d   1      12.514   8.562  -2.845  0.00  0.00     0.013 A 
ATOM     28  C   UNL d   1      11.945   7.377  -3.265  0.00  0.00     0.058 A 
ATOM     29 CL   UNL d   1      11.995   6.245  -2.035  0.00  0.00    -0.082 Cl
ENDBRANCH   4  20
TORSDOF 6
