REMARK  6 active torsions:
REMARK  status: ('A' for Active; 'I' for Inactive)
REMARK    1  A    between atoms: C_2  and  C_3 
REMARK       I    between atoms: C_2  and  N_12 
REMARK    2  A    between atoms: N_15  and  C_16 
REMARK    3  A    between atoms: C_16  and  C_17 
REMARK    4  A    between atoms: C_17  and  O_18 
REMARK    5  A    between atoms: O_18  and  C_19 
REMARK    6  A    between atoms: C_22  and  N_23 
ROOT
ATOM      1  O   UNL d   1      11.837   9.071  -9.210  0.00  0.00    -0.266 OA
ATOM      2  C   UNL d   1      11.123   8.257  -8.637  0.00  0.00     0.275 C 
ATOM      3  N   UNL d   1      10.099   7.660  -9.264  0.00  0.00    -0.311 N 
ATOM      4  C   UNL d   1       9.694   8.077 -10.614  0.00  0.00     0.140 C 
ATOM      5  C   UNL d   1       9.542   6.854 -11.511  0.00  0.00     0.274 C 
ATOM      6  N   UNL d   1       8.594   5.884 -10.964  0.00  0.00     0.144 N 
ATOM      7  C   UNL d   1       9.065   5.455  -9.642  0.00  0.00     0.274 C 
ATOM      8  C   UNL d   1       9.195   6.651  -8.682  0.00  0.00     0.140 C 
ENDROOT
BRANCH   6   9
ATOM      9  C   UNL d   1       8.462   4.712 -11.817  0.00  0.00     0.283 C 
BRANCH   9  10
ATOM     10  C   UNL d   1       7.832   5.029 -13.194  0.00  0.00     0.184 C 
BRANCH  10  11
ATOM     11  O   UNL d   1       8.121   3.979 -14.093  0.00  0.00    -0.329 OA
BRANCH  11  12
ATOM     12  C   UNL d   1       7.315   2.873 -14.124  0.00  0.00     0.094 A 
ATOM     13  C   UNL d   1       6.202   2.679 -13.272  0.00  0.00     0.026 A 
ATOM     14  C   UNL d   1       5.460   1.490 -13.353  0.00  0.00     0.025 A 
ATOM     15  C   UNL d   1       5.770   0.515 -14.326  0.00  0.00     0.127 A 
ATOM     16  C   UNL d   1       6.866   0.722 -15.195  0.00  0.00     0.025 A 
ATOM     17  C   UNL d   1       7.635   1.897 -15.089  0.00  0.00     0.026 A 
BRANCH  15  18
ATOM     18  N   UNL d   1       4.947  -0.689 -14.446  0.00  0.00    -0.114 N 
ATOM     19  O   UNL d   1       3.835  -0.668 -13.932  0.00  0.00    -0.532 OA
ATOM     20  O   UNL d   1       5.418  -1.647 -15.035  0.00  0.00    -0.532 OA
ENDBRANCH  15  18
ENDBRANCH  11  12
ENDBRANCH  10  11
ENDBRANCH   9  10
ENDBRANCH   6   9
BRANCH   2  21
ATOM     21  C   UNL d   1      11.293   8.045  -7.185  0.00  0.00     0.137 A 
ATOM     22  N   UNL d   1      11.422   9.165  -6.368  0.00  0.00    -0.241 NA
ATOM     23  C   UNL d   1      11.563   8.783  -5.045  0.00  0.00     0.082 A 
ATOM     24  C   UNL d   1      11.553   7.361  -5.060  0.00  0.00     0.019 A 
ATOM     25  C   UNL d   1      11.704   9.492  -3.839  0.00  0.00     0.019 A 
ATOM     26  C   UNL d   1      11.448   6.921  -6.417  0.00  0.00     0.025 A 
ATOM     27  C   UNL d   1      11.714   6.692  -3.835  0.00  0.00     0.002 A 
ATOM     28  C   UNL d   1      11.875   7.386  -2.625  0.00  0.00     0.000 A 
ATOM     29  C   UNL d   1      11.885   8.793  -2.630  0.00  0.00     0.002 A 
ENDBRANCH   2  21
TORSDOF 6
