REMARK  2 active torsions:
REMARK  status: ('A' for Active; 'I' for Inactive)
REMARK    1  A    between atoms: N_2  and  C_4 
REMARK    2  A    between atoms: C_4  and  C_5 
ROOT
ATOM      1  C   UNL d   1       8.488   0.091 -17.706  0.00  0.00     0.180 C 
ATOM      2  C   UNL d   1       7.313   1.014 -18.020  0.00  0.00     0.064 C 
ATOM      3  C   UNL d   1       6.162   0.025 -18.075  0.00  0.00     0.134 C 
ATOM      4  C   UNL d   1       5.436  -0.225 -16.747  0.00  0.00    -0.003 A 
ATOM      5  C   UNL d   1       5.823   0.368 -15.514  0.00  0.00    -0.003 A 
ATOM      6  C   UNL d   1       5.064   0.148 -14.346  0.00  0.00    -0.000 A 
ATOM      7  C   UNL d   1       3.906  -0.650 -14.399  0.00  0.00    -0.000 A 
ATOM      8  C   UNL d   1       3.532  -1.256 -15.606  0.00  0.00    -0.004 A 
ATOM      9  C   UNL d   1       4.298  -1.059 -16.772  0.00  0.00    -0.020 A 
ATOM     10  C   UNL d   1       3.912  -1.765 -18.056  0.00  0.00     0.054 C 
ATOM     11  C   UNL d   1       4.953  -2.812 -18.409  0.00  0.00     0.000 A 
ATOM     12  C   UNL d   1       4.539  -4.163 -18.456  0.00  0.00    -0.000 A 
ATOM     13  C   UNL d   1       5.456  -5.182 -18.750  0.00  0.00     0.029 A 
ATOM     14  C   UNL d   1       6.801  -4.860 -18.996  0.00  0.00     0.142 A 
ATOM     15  F   UNL d   1       7.694  -5.838 -19.285  0.00  0.00    -0.204 F 
ATOM     16  C   UNL d   1       7.220  -3.517 -18.949  0.00  0.00     0.049 A 
ATOM     17  C   UNL d   1       6.313  -2.471 -18.657  0.00  0.00     0.081 A 
ATOM     18  N   UNL d   1       6.798  -1.142 -18.683  0.00  0.00    -0.237 N 
ATOM     19  O   UNL d   1       8.222  -1.000 -18.577  0.00  0.00    -0.258 OA
ENDROOT
BRANCH   1  20
ATOM     20  C   UNL d   1       9.859   0.727 -18.008  0.00  0.00     0.282 C 
BRANCH  20  21
ATOM     21  N   UNL d   1      10.845   0.576 -16.938  0.00  0.00     0.144 N 
ATOM     22  C   UNL d   1      10.409   1.135 -15.662  0.00  0.00     0.286 C 
ATOM     23  C   UNL d   1      12.049   1.291 -17.341  0.00  0.00     0.286 C 
ENDBRANCH  20  21
ENDBRANCH   1  20
TORSDOF 2
