REMARK  6 active torsions:
REMARK  status: ('A' for Active; 'I' for Inactive)
REMARK    1  A    between atoms: S_2  and  N_4 
REMARK    2  A    between atoms: S_2  and  C_22 
REMARK    3  A    between atoms: N_4  and  C_5 
REMARK    4  A    between atoms: C_5  and  C_6 
REMARK    5  A    between atoms: C_6  and  N_7 
REMARK    6  A    between atoms: N_10  and  C_11 
ROOT
ATOM      1  C   UNL d   1       8.519   4.788 -14.155  0.00  0.00     0.277 C 
ENDROOT
BRANCH   1   2
ATOM      2  C   UNL d   1       9.910   5.018 -13.540  0.00  0.00     0.174 C 
BRANCH   2   3
ATOM      3  N   UNL d   1       9.854   5.269 -12.099  0.00  0.00    -0.183 NA
BRANCH   3   4
ATOM      4  S   UNL d   1       8.701   6.340 -11.433  0.00  0.00     0.281 S 
ATOM      5  O   UNL d   1       8.408   7.366 -12.447  0.00  0.00    -0.199 OA
ATOM      6  O   UNL d   1       7.642   5.490 -10.877  0.00  0.00    -0.199 OA
BRANCH   4   7
ATOM      7  C   UNL d   1       9.587   7.122 -10.112  0.00  0.00     0.105 A 
ATOM      8  C   UNL d   1       9.467   6.650  -8.795  0.00  0.00     0.013 A 
ATOM      9  C   UNL d   1      10.156   7.328  -7.768  0.00  0.00     0.001 A 
ATOM     10  C   UNL d   1      10.951   8.470  -8.057  0.00  0.00     0.000 A 
ATOM     11  C   UNL d   1      10.055   6.865  -6.446  0.00  0.00     0.000 A 
ATOM     12  C   UNL d   1      11.053   8.931  -9.386  0.00  0.00     0.001 A 
ATOM     13  C   UNL d   1      11.627   9.135  -7.014  0.00  0.00     0.000 A 
ATOM     14  C   UNL d   1      10.357   8.258 -10.405  0.00  0.00     0.013 A 
ATOM     15  C   UNL d   1      11.521   8.665  -5.693  0.00  0.00     0.000 A 
ATOM     16  C   UNL d   1      10.752   7.518  -5.414  0.00  0.00     0.000 A 
ENDBRANCH   4   7
ENDBRANCH   3   4
ENDBRANCH   2   3
ENDBRANCH   1   2
BRANCH   1  17
ATOM     17  N   UNL d   1       7.960   3.510 -13.724  0.00  0.00     0.143 N 
ATOM     18  C   UNL d   1       8.376   2.457 -14.659  0.00  0.00     0.274 C 
ATOM     19  C   UNL d   1       7.821   1.089 -14.209  0.00  0.00     0.138 C 
ATOM     20  N   UNL d   1       6.364   1.159 -14.084  0.00  0.00    -0.329 N 
ATOM     21  C   UNL d   1       5.868   2.249 -13.239  0.00  0.00     0.138 C 
ATOM     22  C   UNL d   1       6.490   3.589 -13.683  0.00  0.00     0.274 C 
BRANCH  20  23
ATOM     23  C   UNL d   1       5.502   0.276 -14.763  0.00  0.00     0.148 A 
ATOM     24  C   UNL d   1       5.737  -0.162 -16.135  0.00  0.00     0.042 A 
ATOM     25  C   UNL d   1       4.687  -1.051 -16.526  0.00  0.00     0.050 A 
ATOM     26  C   UNL d   1       6.723   0.121 -17.118  0.00  0.00     0.004 A 
ATOM     27  S   UNL d   1       3.585  -1.210 -15.175  0.00  0.00     0.015 SA
ATOM     28  C   UNL d   1       4.630  -1.630 -17.805  0.00  0.00     0.008 A 
ATOM     29  N   UNL d   1       4.417  -0.163 -14.160  0.00  0.00    -0.192 NA
ATOM     30  C   UNL d   1       5.641  -1.341 -18.745  0.00  0.00     0.001 A 
ATOM     31  C   UNL d   1       6.690  -0.469 -18.392  0.00  0.00     0.000 A 
ENDBRANCH  20  23
ENDBRANCH   1  17
TORSDOF 6
