REMARK  12 active torsions:
REMARK  status: ('A' for Active; 'I' for Inactive)
REMARK    1  A    between atoms: C_2  and  C_3 
REMARK    2  A    between atoms: C_3  and  N_4 
REMARK    3  A    between atoms: N_4  and  C_5 
REMARK    4  A    between atoms: N_4  and  C_26 
REMARK    5  A    between atoms: C_5  and  C_6 
REMARK    6  A    between atoms: C_6  and  C_7 
REMARK    7  A    between atoms: C_7  and  C_8 
REMARK    8  A    between atoms: C_8  and  N_9 
REMARK    9  A    between atoms: C_11  and  C_12 
REMARK   10  A    between atoms: C_15  and  C_16 
REMARK   11  A    between atoms: C_29  and  C_30 
REMARK   12  A    between atoms: C_31  and  C_32 
ROOT
ATOM      1  C   UNL d   1      10.240   3.623 -15.945  0.00  0.00     0.037 C 
ENDROOT
BRANCH   1   2
ATOM      2  C   UNL d   1      11.622   3.311 -16.497  0.00  0.00     0.250 C 
BRANCH   2   3
ATOM      3  N   UNL d   1      11.607   2.609 -17.798  0.00  0.00     0.135 N 
BRANCH   3   4
ATOM      4  C   UNL d   1      12.976   2.583 -18.366  0.00  0.00     0.250 C 
BRANCH   4   5
ATOM      5  C   UNL d   1      13.526   3.986 -18.704  0.00  0.00     0.035 C 
ATOM      6  C   UNL d   1      12.734   4.685 -19.819  0.00  0.00     0.002 C 
ENDBRANCH   4   5
ENDBRANCH   3   4
BRANCH   3   7
ATOM      7  C   UNL d   1      10.966   1.280 -17.666  0.00  0.00     0.224 C 
ATOM      8  C   UNL d   1       9.405   1.439 -17.562  0.00  0.00     0.039 C 
ATOM      9  C   UNL d   1       8.737   0.060 -17.370  0.00  0.00     0.036 C 
ATOM     10  C   UNL d   1       9.255  -1.002 -18.314  0.00  0.00     0.015 C 
ATOM     11  C   UNL d   1      10.393  -0.837 -19.001  0.00  0.00    -0.020 C 
ATOM     12  C   UNL d   1      11.309   0.363 -18.893  0.00  0.00     0.059 C 
BRANCH  10  13
ATOM     13  C   UNL d   1       8.434  -2.149 -18.465  0.00  0.00    -0.064 C 
ATOM     14  C   UNL d   1       7.771  -3.137 -18.535  0.00  0.00    -0.060 C 
BRANCH  14  15
ATOM     15  C   UNL d   1       6.994  -4.351 -18.607  0.00  0.00     0.042 A 
ATOM     16  C   UNL d   1       5.814  -4.462 -17.854  0.00  0.00     0.008 A 
ATOM     17  C   UNL d   1       5.056  -5.643 -17.936  0.00  0.00     0.001 A 
ATOM     18  C   UNL d   1       5.482  -6.698 -18.766  0.00  0.00     0.000 A 
ATOM     19  C   UNL d   1       6.669  -6.576 -19.515  0.00  0.00     0.001 A 
ATOM     20  C   UNL d   1       7.431  -5.397 -19.435  0.00  0.00     0.008 A 
ENDBRANCH  14  15
ENDBRANCH  10  13
ENDBRANCH   3   7
ENDBRANCH   2   3
ENDBRANCH   1   2
BRANCH   1  21
ATOM     21  C   UNL d   1      10.155   4.692 -14.906  0.00  0.00     0.029 C 
BRANCH  21  22
ATOM     22  C   UNL d   1       8.699   4.842 -14.398  0.00  0.00     0.129 C 
BRANCH  22  23
ATOM     23  N   UNL d   1       8.648   5.044 -12.970  0.00  0.00    -0.231 N 
ATOM     24  N   UNL d   1       7.727   4.414 -12.223  0.00  0.00    -0.064 NA
ATOM     25  N   UNL d   1       7.925   4.790 -11.001  0.00  0.00    -0.129 NA
ATOM     26  C   UNL d   1       8.998   5.676 -10.928  0.00  0.00     0.123 A 
ATOM     27  C   UNL d   1       9.462   5.856 -12.205  0.00  0.00     0.118 A 
BRANCH  26  28
ATOM     28  C   UNL d   1       9.477   6.258  -9.670  0.00  0.00     0.021 A 
ATOM     29  C   UNL d   1       8.867   5.906  -8.439  0.00  0.00     0.002 A 
ATOM     30  C   UNL d   1       9.309   6.493  -7.242  0.00  0.00     0.000 A 
ATOM     31  C   UNL d   1      10.368   7.422  -7.227  0.00  0.00     0.000 A 
ATOM     32  C   UNL d   1      10.969   7.773  -8.455  0.00  0.00     0.000 A 
ATOM     33  C   UNL d   1      10.523   7.194  -9.659  0.00  0.00     0.002 A 
BRANCH  31  34
ATOM     34  C   UNL d   1      10.839   8.024  -5.963  0.00  0.00     0.000 A 
ATOM     35  C   UNL d   1      11.417   7.214  -4.952  0.00  0.00     0.000 A 
ATOM     36  C   UNL d   1      11.867   7.801  -3.747  0.00  0.00     0.000 A 
ATOM     37  C   UNL d   1      11.744   9.176  -3.537  0.00  0.00     0.000 A 
ATOM     38  C   UNL d   1      11.157   9.998  -4.535  0.00  0.00     0.000 A 
ATOM     39  C   UNL d   1      10.717   9.402  -5.741  0.00  0.00     0.000 A 
ENDBRANCH  31  34
ENDBRANCH  26  28
ENDBRANCH  22  23
ENDBRANCH  21  22
ENDBRANCH   1  21
TORSDOF 12
