REMARK  4 active torsions:
REMARK  status: ('A' for Active; 'I' for Inactive)
REMARK    1  A    between atoms: C_2  and  C_3 
REMARK    2  A    between atoms: C_3  and  C_5 
REMARK    3  A    between atoms: C_5  and  C_6 
REMARK    4  A    between atoms: C_17  and  O_18 
ROOT
ATOM      1  C   UNL d   1       9.029   5.546 -12.292  0.00  0.00     0.007 A 
ATOM      2  C   UNL d   1       7.877   4.791 -12.368  0.00  0.00    -0.000 A 
ATOM      3  C   UNL d   1       7.922   3.808 -13.399  0.00  0.00     0.013 A 
ATOM      4  C   UNL d   1       9.093   3.823 -14.101  0.00  0.00     0.007 A 
ATOM      5  S   UNL d   1      10.180   5.033 -13.506  0.00  0.00    -0.096 SA
ATOM      6  C   UNL d   1       9.421   2.882 -15.209  0.00  0.00     0.070 C 
ATOM      7  C   UNL d   1       8.145   2.139 -15.714  0.00  0.00     0.246 C 
ATOM      8  C   UNL d   1       8.459   1.137 -16.809  0.00  0.00     0.007 A 
ATOM      9  C   UNL d   1       9.350   1.460 -17.862  0.00  0.00     0.027 A 
ATOM     10  C   UNL d   1       9.576   0.546 -18.897  0.00  0.00     0.153 A 
ATOM     11  O   UNL d   1      10.488   0.819 -19.880  0.00  0.00    -0.188 OA
ATOM     12  C   UNL d   1       8.867  -0.673 -18.947  0.00  0.00     0.119 A 
ATOM     13  C   UNL d   1       7.914  -0.941 -17.930  0.00  0.00     0.022 A 
ATOM     14  C   UNL d   1       7.705  -0.055 -16.866  0.00  0.00    -0.020 A 
ATOM     15  C   UNL d   1       6.694  -0.365 -15.759  0.00  0.00     0.061 C 
ATOM     16  C   UNL d   1       6.226   0.867 -15.008  0.00  0.00     0.256 C 
ATOM     17  N   UNL d   1       7.378   1.632 -14.545  0.00  0.00     0.144 N 
ATOM     18  C   UNL d   1       6.889   2.790 -13.770  0.00  0.00     0.277 C 
ENDROOT
BRANCH   1  19
ATOM     19  C   UNL d   1       9.331   6.624 -11.284  0.00  0.00     0.033 C 
BRANCH  19  20
ATOM     20  C   UNL d   1       9.888   6.139  -9.908  0.00  0.00     0.005 C 
ATOM     21  C   UNL d   1       9.335   4.768  -9.445  0.00  0.00     0.000 C 
BRANCH  20  22
ATOM     22  C   UNL d   1       9.717   7.208  -8.808  0.00  0.00     0.000 C 
ATOM     23  C   UNL d   1      10.440   6.881  -7.488  0.00  0.00     0.000 C 
ENDBRANCH  20  22
ENDBRANCH  19  20
ENDBRANCH   1  19
BRANCH  12  24
ATOM     24  O   UNL d   1       9.174  -1.551 -19.959  0.00  0.00    -0.326 OA
ATOM     25  C   UNL d   1       8.172  -2.491 -20.330  0.00  0.00     0.181 C 
ENDBRANCH  12  24
TORSDOF 4
