REMARK  4 active torsions:
REMARK  status: ('A' for Active; 'I' for Inactive)
REMARK       I    between atoms: N_8  and  C_9 
REMARK    1  A    between atoms: C_9  and  C_11 
REMARK    2  A    between atoms: C_11  and  N_12 
REMARK    3  A    between atoms: N_15  and  C_16 
REMARK    4  A    between atoms: C_16  and  C_17 
ROOT
ATOM      1  N   UNL d   1       9.106   5.415 -12.200  0.00  0.00     0.151 N 
ATOM      2  C   UNL d   1       8.906   4.402 -11.166  0.00  0.00     0.286 C 
ATOM      3  C   UNL d   1       8.375   5.038  -9.875  0.00  0.00     0.286 C 
ATOM      4  N   UNL d   1       9.321   6.012  -9.324  0.00  0.00     0.146 N 
ATOM      5  C   UNL d   1       9.518   7.053 -10.350  0.00  0.00     0.286 C 
ATOM      6  C   UNL d   1       9.946   6.444 -11.660  0.00  0.00     0.286 C 
ENDROOT
BRANCH   1   7
ATOM      7  C   UNL d   1       9.715   4.845 -13.415  0.00  0.00     0.337 C 
BRANCH   7   8
ATOM      8  C   UNL d   1       8.848   3.774 -14.086  0.00  0.00     0.272 C 
ATOM      9  N   UNL d   1       9.438   2.717 -14.693  0.00  0.00    -0.298 N 
ATOM     10  C   UNL d   1       8.815   1.815 -15.601  0.00  0.00     0.058 A 
ATOM     11  C   UNL d   1      10.849   2.350 -14.540  0.00  0.00     0.114 A 
ATOM     12  C   UNL d   1       9.719   0.853 -15.996  0.00  0.00    -0.004 A 
ATOM     13  C   UNL d   1       7.517   1.867 -16.125  0.00  0.00     0.013 A 
ATOM     14  C   UNL d   1       9.361  -0.133 -16.942  0.00  0.00    -0.003 A 
ATOM     15  C   UNL d   1      11.054   1.039 -15.334  0.00  0.00     0.052 A 
ATOM     16  C   UNL d   1       8.053  -0.110 -17.481  0.00  0.00    -0.004 A 
ATOM     17  C   UNL d   1       7.142   0.897 -17.077  0.00  0.00    -0.020 A 
ATOM     18  C   UNL d   1       5.740   0.947 -17.642  0.00  0.00     0.031 C 
ATOM     19  O   UNL d   1       7.630   3.918 -14.016  0.00  0.00    -0.270 OA
ENDBRANCH   7   8
ENDBRANCH   1   7
BRANCH   4  20
ATOM     20  C   UNL d   1       8.789   6.594  -8.090  0.00  0.00     0.277 C 
BRANCH  20  21
ATOM     21  C   UNL d   1       9.791   7.403  -7.301  0.00  0.00     0.011 A 
ATOM     22  C   UNL d   1      10.511   6.760  -6.293  0.00  0.00    -0.002 A 
ATOM     23  C   UNL d   1      11.453   7.429  -5.502  0.00  0.00     0.011 A 
ATOM     24  C   UNL d   1      11.683   8.779  -5.750  0.00  0.00     0.058 A 
ATOM     25  C   UNL d   1      10.992   9.453  -6.763  0.00  0.00     0.011 A 
ATOM     26 CL   UNL d   1      12.843   9.589  -4.803  0.00  0.00    -0.082 Cl
ATOM     27  C   UNL d   1      10.028   8.774  -7.538  0.00  0.00    -0.002 A 
ENDBRANCH  20  21
ENDBRANCH   4  20
TORSDOF 4
