REMARK  7 active torsions:
REMARK  status: ('A' for Active; 'I' for Inactive)
REMARK    1  A    between atoms: S_2  and  N_4 
REMARK    2  A    between atoms: S_2  and  C_20 
REMARK    3  A    between atoms: N_4  and  C_5 
REMARK    4  A    between atoms: N_8  and  C_9 
REMARK    5  A    between atoms: C_9  and  C_10 
REMARK    6  A    between atoms: C_10  and  O_11 
REMARK    7  A    between atoms: O_11  and  C_12 
ROOT
ATOM      1  C   UNL d   1       9.953   6.846  -8.765  0.00  0.00     0.151 C 
ATOM      2  C   UNL d   1      10.206   5.455  -8.389  0.00  0.00     0.063 C 
ATOM      3  C   UNL d   1       9.345   4.499  -9.209  0.00  0.00     0.253 C 
ATOM      4  N   UNL d   1       9.027   5.375 -10.339  0.00  0.00     0.142 N 
ATOM      5  C   UNL d   1       8.777   6.635  -9.641  0.00  0.00     0.275 C 
ENDROOT
BRANCH   4   6
ATOM      6  C   UNL d   1       7.793   4.909 -10.898  0.00  0.00     0.283 C 
BRANCH   6   7
ATOM      7  C   UNL d   1       7.330   5.607 -12.183  0.00  0.00     0.184 C 
BRANCH   7   8
ATOM      8  O   UNL d   1       6.162   4.912 -12.651  0.00  0.00    -0.329 OA
BRANCH   8   9
ATOM      9  C   UNL d   1       6.367   3.672 -13.209  0.00  0.00     0.096 A 
ATOM     10  C   UNL d   1       5.521   2.599 -12.890  0.00  0.00     0.054 A 
ATOM     11  C   UNL d   1       5.763   1.310 -13.405  0.00  0.00     0.142 A 
ATOM     12  C   UNL d   1       6.854   1.092 -14.289  0.00  0.00     0.030 A 
ATOM     13  F   UNL d   1       4.989   0.266 -13.051  0.00  0.00    -0.204 F 
ATOM     14  C   UNL d   1       7.689   2.159 -14.625  0.00  0.00     0.004 A 
ATOM     15  C   UNL d   1       7.464   3.435 -14.093  0.00  0.00     0.024 A 
ENDBRANCH   8   9
ENDBRANCH   7   8
ENDBRANCH   6   7
ENDBRANCH   4   6
BRANCH   1  16
ATOM     16  N   UNL d   1       9.767   7.582  -7.532  0.00  0.00    -0.184 NA
BRANCH  16  17
ATOM     17  S   UNL d   1      11.000   8.624  -6.953  0.00  0.00     0.287 S 
ATOM     18  O   UNL d   1      12.232   8.447  -7.758  0.00  0.00    -0.198 OA
ATOM     19  O   UNL d   1      10.385   9.923  -6.804  0.00  0.00    -0.198 OA
BRANCH  17  20
ATOM     20  C   UNL d   1      11.412   8.105  -5.310  0.00  0.00     0.134 A 
ATOM     21  S   UNL d   1      11.758   9.291  -4.081  0.00  0.00    -0.073 SA
ATOM     22  C   UNL d   1      12.039   8.037  -2.911  0.00  0.00     0.036 A 
ATOM     23  C   UNL d   1      11.859   6.791  -3.456  0.00  0.00     0.008 A 
ATOM     24  C   UNL d   1      11.479   6.833  -4.827  0.00  0.00     0.020 A 
ENDBRANCH  17  20
ENDBRANCH  16  17
ENDBRANCH   1  16
TORSDOF 7
