REMARK  8 active torsions:
REMARK  status: ('A' for Active; 'I' for Inactive)
REMARK    1  A    between atoms: O_2  and  C_3 
REMARK    2  A    between atoms: C_6  and  C_7 
REMARK    3  A    between atoms: C_7  and  C_8 
REMARK       I    between atoms: C_8  and  N_10 
REMARK    4  A    between atoms: N_10  and  C_11 
REMARK    5  A    between atoms: C_14  and  C_15 
REMARK    6  A    between atoms: C_15  and  C_16 
REMARK    7  A    between atoms: C_16  and  N_17 
REMARK    8  A    between atoms: C_20  and  C_21 
ROOT
ATOM      1  C   UNL d   1       9.260   6.931  -9.706  0.00  0.00     0.106 C 
ATOM      2  C   UNL d   1       9.206   7.366 -11.180  0.00  0.00     0.024 C 
ATOM      3  C   UNL d   1       8.539   6.299 -12.044  0.00  0.00     0.002 C 
ATOM      4  C   UNL d   1       9.262   4.947 -11.912  0.00  0.00     0.002 C 
ATOM      5  C   UNL d   1       9.331   4.537 -10.429  0.00  0.00     0.002 C 
ATOM      6  C   UNL d   1       9.985   5.602  -9.538  0.00  0.00     0.024 C 
ENDROOT
BRANCH   4   7
ATOM      7  C   UNL d   1       8.608   3.843 -12.765  0.00  0.00     0.035 C 
BRANCH   7   8
ATOM      8  C   UNL d   1       8.512   4.174 -14.264  0.00  0.00     0.250 C 
BRANCH   8   9
ATOM      9  N   UNL d   1       9.804   4.475 -14.872  0.00  0.00     0.137 N 
ATOM     10  C   UNL d   1      10.642   3.274 -14.938  0.00  0.00     0.251 C 
ATOM     11  C   UNL d   1      12.019   3.627 -15.492  0.00  0.00     0.040 C 
ATOM     12  C   UNL d   1      11.917   4.277 -16.880  0.00  0.00     0.028 C 
ATOM     13  C   UNL d   1      10.920   5.446 -16.838  0.00  0.00     0.040 C 
ATOM     14  C   UNL d   1       9.586   5.006 -16.223  0.00  0.00     0.251 C 
BRANCH  12  15
ATOM     15  C   UNL d   1      13.275   4.724 -17.377  0.00  0.00     0.002 A 
ATOM     16  C   UNL d   1      13.831   4.230 -18.572  0.00  0.00     0.115 A 
ATOM     17  C   UNL d   1      15.062   4.646 -19.020  0.00  0.00     0.119 A 
ATOM     18  O   UNL d   1      13.308   3.323 -19.442  0.00  0.00    -0.300 OA
ATOM     19  C   UNL d   1      15.842   5.578 -18.309  0.00  0.00     0.026 A 
ATOM     20  O   UNL d   1      15.359   4.012 -20.186  0.00  0.00    -0.300 OA
ATOM     21  C   UNL d   1      15.317   6.078 -17.098  0.00  0.00     0.002 A 
ATOM     22  C   UNL d   1      14.046   5.668 -16.642  0.00  0.00    -0.002 A 
ATOM     23  C   UNL d   1      14.257   3.186 -20.466  0.00  0.00     0.304 A 
ENDBRANCH  12  15
ENDBRANCH   8   9
ENDBRANCH   7   8
ENDBRANCH   4   7
BRANCH   1  24
ATOM     24  N   UNL d   1       9.947   7.964  -8.946  0.00  0.00    -0.240 NA
ATOM     25  C   UNL d   1       9.913   8.030  -7.620  0.00  0.00     0.251 C 
ATOM     26  O   UNL d   1       9.304   7.234  -6.912  0.00  0.00    -0.271 OA
BRANCH  25  27
ATOM     27  C   UNL d   1      10.686   9.189  -7.005  0.00  0.00     0.090 C 
BRANCH  27  28
ATOM     28  C   UNL d   1      10.869   9.086  -5.487  0.00  0.00     0.012 C 
ATOM     29  C   UNL d   1      11.806  10.139  -4.941  0.00  0.00     0.003 C 
ATOM     30  C   UNL d   1      12.208   9.638  -3.558  0.00  0.00     0.030 C 
ATOM     31  C   UNL d   1      12.210   8.118  -3.657  0.00  0.00     0.116 C 
ATOM     32  C   UNL d   1      11.452   7.768  -4.944  0.00  0.00     0.030 C 
BRANCH  31  33
ATOM     33  O   UNL d   1      11.525   7.617  -2.518  0.00  0.00    -0.354 OA
ATOM     34  C   UNL d   1      12.045   6.385  -2.070  0.00  0.00     0.174 C 
ENDBRANCH  31  33
ENDBRANCH  27  28
ENDBRANCH  25  27
ENDBRANCH   1  24
TORSDOF 8
