REMARK  4 active torsions:
REMARK  status: ('A' for Active; 'I' for Inactive)
REMARK    1  A    between atoms: N_3  and  C_4 
REMARK    2  A    between atoms: C_4  and  C_5 
REMARK    3  A    between atoms: C_5  and  N_6 
REMARK    4  A    between atoms: N_15  and  C_16 
ROOT
ATOM      1  O   UNL d   1      10.235   5.433 -13.426  0.00  0.00    -0.247 OA
ATOM      2  C   UNL d   1       9.062   5.323 -13.050  0.00  0.00     0.328 A 
ATOM      3  N   UNL d   1       8.386   6.236 -12.343  0.00  0.00    -0.298 N 
ATOM      4  C   UNL d   1       7.020   5.826 -12.045  0.00  0.00     0.131 A 
ATOM      5  C   UNL d   1       6.915   4.472 -12.741  0.00  0.00     0.135 A 
ATOM      6  N   UNL d   1       8.256   4.276 -13.291  0.00  0.00    -0.280 N 
ENDROOT
BRANCH   3   7
ATOM      7  C   UNL d   1       8.938   7.499 -11.870  0.00  0.00     0.141 C 
BRANCH   7   8
ATOM      8  C   UNL d   1       9.445   7.293 -10.442  0.00  0.00     0.274 C 
BRANCH   8   9
ATOM      9  N   UNL d   1       9.854   8.533  -9.787  0.00  0.00     0.139 N 
ATOM     10  C   UNL d   1       9.610   8.509  -8.347  0.00  0.00     0.250 C 
ATOM     11  C   UNL d   1      10.166   7.242  -7.661  0.00  0.00     0.035 C 
ATOM     12  C   UNL d   1      11.626   7.386  -7.226  0.00  0.00     0.002 C 
ATOM     13  C   UNL d   1      12.561   8.137  -8.200  0.00  0.00     0.002 C 
ATOM     14  C   UNL d   1      12.296   8.008  -9.705  0.00  0.00     0.035 C 
ATOM     15  C   UNL d   1      11.203   8.976 -10.156  0.00  0.00     0.250 C 
ENDBRANCH   8   9
ENDBRANCH   7   8
ENDBRANCH   3   7
BRANCH   6  16
ATOM     16  C   UNL d   1       8.629   3.130 -14.049  0.00  0.00     0.065 A 
ATOM     17  C   UNL d   1       7.684   2.421 -14.826  0.00  0.00     0.031 A 
ATOM     18  C   UNL d   1       8.070   1.306 -15.605  0.00  0.00     0.087 A 
ATOM     19  C   UNL d   1       9.416   0.870 -15.599  0.00  0.00     0.151 A 
ATOM     20 CL   UNL d   1       6.894   0.485 -16.576  0.00  0.00    -0.080 Cl
ATOM     21  C   UNL d   1      10.362   1.562 -14.824  0.00  0.00     0.032 A 
ATOM     22  F   UNL d   1       9.802  -0.208 -16.335  0.00  0.00    -0.203 F 
ATOM     23  C   UNL d   1       9.973   2.674 -14.049  0.00  0.00     0.020 A 
ENDBRANCH   6  16
TORSDOF 4
