REMARK  7 active torsions:
REMARK  status: ('A' for Active; 'I' for Inactive)
REMARK    1  A    between atoms: C_8  and  O_9 
REMARK    2  A    between atoms: O_9  and  C_10 
REMARK    3  A    between atoms: C_10  and  C_11 
REMARK    4  A    between atoms: C_11  and  C_12 
REMARK    5  A    between atoms: C_12  and  C_13 
REMARK    6  A    between atoms: C_13  and  N_14 
REMARK    7  A    between atoms: N_18  and  C_19 
ROOT
ATOM      1  N   UNL d   1       9.470   5.706  -9.084  0.00  0.00     0.139 N 
ATOM      2  C   UNL d   1       9.632   7.020  -9.702  0.00  0.00     0.252 C 
ATOM      3  C   UNL d   1      11.096   7.372  -9.901  0.00  0.00     0.059 C 
ATOM      4  C   UNL d   1      11.725   8.145  -8.747  0.00  0.00     0.104 C 
ATOM      5  N   UNL d   1      11.449   7.528  -7.436  0.00  0.00    -0.345 N 
ATOM      6  C   UNL d   1      11.048   6.114  -7.314  0.00  0.00     0.137 C 
ATOM      7  C   UNL d   1       9.627   5.866  -7.654  0.00  0.00     0.274 C 
ENDROOT
BRANCH   1   8
ATOM      8  C   UNL d   1       8.120   5.197  -9.252  0.00  0.00     0.250 C 
BRANCH   8   9
ATOM      9  C   UNL d   1       7.826   4.654 -10.649  0.00  0.00     0.038 C 
BRANCH   9  10
ATOM     10  C   UNL d   1       7.288   5.712 -11.649  0.00  0.00     0.035 C 
BRANCH  10  11
ATOM     11  C   UNL d   1       7.282   5.120 -13.044  0.00  0.00     0.149 C 
BRANCH  11  12
ATOM     12  O   UNL d   1       8.498   5.557 -13.681  0.00  0.00    -0.331 OA
BRANCH  12  13
ATOM     13  C   UNL d   1       9.264   4.652 -14.379  0.00  0.00     0.096 A 
ATOM     14  C   UNL d   1      10.615   4.968 -14.660  0.00  0.00     0.024 A 
ATOM     15  C   UNL d   1      11.448   4.035 -15.307  0.00  0.00    -0.001 A 
ATOM     16  C   UNL d   1      10.913   2.799 -15.710  0.00  0.00    -0.004 A 
ATOM     17  C   UNL d   1      11.764   1.759 -16.399  0.00  0.00     0.038 C 
ATOM     18  C   UNL d   1       9.560   2.497 -15.466  0.00  0.00     0.082 A 
ATOM     19  C   UNL d   1      10.933   0.860 -17.326  0.00  0.00     0.095 C 
ATOM     20  C   UNL d   1       9.609   0.412 -16.703  0.00  0.00     0.256 C 
ATOM     21  O   UNL d   1       9.123  -0.662 -17.027  0.00  0.00    -0.270 OA
ATOM     22  N   UNL d   1       9.005   1.260 -15.855  0.00  0.00    -0.212 NA
ATOM     23  C   UNL d   1       8.736   3.423 -14.826  0.00  0.00     0.043 A 
ENDBRANCH  12  13
ENDBRANCH  11  12
ENDBRANCH  10  11
ENDBRANCH   9  10
ENDBRANCH   8   9
ENDBRANCH   1   8
BRANCH   5  24
ATOM     24  C   UNL d   1      11.418   8.344  -6.308  0.00  0.00     0.080 A 
ATOM     25  C   UNL d   1      11.777   7.818  -5.049  0.00  0.00     0.131 A 
ATOM     26  C   UNL d   1      11.868   8.606  -3.900  0.00  0.00     0.147 A 
ATOM     27  O   UNL d   1      12.213   6.537  -4.939  0.00  0.00    -0.318 OA
ATOM     28  C   UNL d   1      11.460   9.893  -3.967  0.00  0.00     0.215 A 
ATOM     29  N   UNL d   1      12.333   8.111  -2.651  0.00  0.00    -0.204 NA
ATOM     30  C   UNL d   1      11.055  10.464  -5.178  0.00  0.00     0.045 A 
ATOM     31  O   UNL d   1      11.461  10.472  -2.820  0.00  0.00    -0.285 OA
ATOM     32  C   UNL d   1      11.033   9.702  -6.357  0.00  0.00     0.022 A 
ATOM     33  C   UNL d   1      12.519   6.820  -2.524  0.00  0.00     0.287 C 
ATOM     34  C   UNL d   1      12.087   5.978  -3.664  0.00  0.00     0.238 C 
ATOM     35  O   UNL d   1      13.031   6.243  -1.585  0.00  0.00    -0.267 OA
ENDBRANCH   5  24
TORSDOF 7
