REMARK  6 active torsions:
REMARK  status: ('A' for Active; 'I' for Inactive)
REMARK       I    between atoms: C_2  and  N_3 
REMARK    1  A    between atoms: C_2  and  C_26 
REMARK    2  A    between atoms: N_3  and  C_4 
REMARK    3  A    between atoms: C_7  and  C_8 
REMARK    4  A    between atoms: C_8  and  C_9 
REMARK    5  A    between atoms: C_9  and  N_10 
REMARK    6  A    between atoms: N_13  and  C_14 
ROOT
ATOM      1  C   UNL d   1       8.903   6.476 -12.263  0.00  0.00     0.035 C 
ENDROOT
BRANCH   1   2
ATOM      2  C   UNL d   1       9.650   6.510 -10.911  0.00  0.00     0.002 C 
ATOM      3  C   UNL d   1       9.978   7.965 -10.518  0.00  0.00     0.002 C 
ATOM      4  C   UNL d   1      10.717   8.048  -9.181  0.00  0.00     0.024 C 
ATOM      5  C   UNL d   1       9.912   7.367  -8.061  0.00  0.00     0.107 C 
ATOM      6  C   UNL d   1       9.605   5.910  -8.428  0.00  0.00     0.024 C 
ATOM      7  C   UNL d   1       8.872   5.815  -9.767  0.00  0.00     0.002 C 
BRANCH   5   8
ATOM      8  N   UNL d   1      10.642   7.387  -6.804  0.00  0.00    -0.236 NA
ATOM      9  C   UNL d   1      10.897   8.472  -6.053  0.00  0.00     0.275 C 
ATOM     10  O   UNL d   1      10.645   9.622  -6.404  0.00  0.00    -0.266 OA
BRANCH   9  11
ATOM     11  C   UNL d   1      11.486   8.165  -4.725  0.00  0.00     0.065 A 
ATOM     12  C   UNL d   1      11.777   9.156  -3.821  0.00  0.00     0.040 A 
ATOM     13  S   UNL d   1      12.370   8.503  -2.321  0.00  0.00    -0.086 SA
ATOM     14  C   UNL d   1      12.264   6.879  -2.939  0.00  0.00     0.036 A 
ATOM     15  C   UNL d   1      11.779   6.861  -4.217  0.00  0.00     0.012 A 
ENDBRANCH   9  11
ENDBRANCH   5   8
ENDBRANCH   1   2
BRANCH   1  16
ATOM     16  C   UNL d   1       8.589   5.063 -12.785  0.00  0.00     0.250 C 
BRANCH  16  17
ATOM     17  N   UNL d   1       9.693   4.570 -13.599  0.00  0.00     0.141 N 
ATOM     18  C   UNL d   1       9.283   4.575 -15.010  0.00  0.00     0.274 C 
ATOM     19  C   UNL d   1      10.424   4.070 -15.912  0.00  0.00     0.137 C 
ATOM     20  N   UNL d   1      10.853   2.754 -15.469  0.00  0.00    -0.344 N 
ATOM     21  C   UNL d   1      11.158   2.628 -14.044  0.00  0.00     0.137 C 
ATOM     22  C   UNL d   1       9.998   3.187 -13.212  0.00  0.00     0.274 C 
BRANCH  20  23
ATOM     23  C   UNL d   1      10.967   1.679 -16.353  0.00  0.00     0.068 A 
ATOM     24  C   UNL d   1      11.809   1.751 -17.491  0.00  0.00     0.084 A 
ATOM     25  C   UNL d   1      11.870   0.648 -18.389  0.00  0.00     0.070 A 
ATOM     26 CL   UNL d   1      12.807   3.135 -17.795  0.00  0.00    -0.080 Cl
ATOM     27  C   UNL d   1      11.093  -0.490 -18.155  0.00  0.00     0.012 A 
ATOM     28 CL   UNL d   1      12.904   0.693 -19.769  0.00  0.00    -0.081 Cl
ATOM     29  C   UNL d   1      10.256  -0.565 -17.029  0.00  0.00     0.002 A 
ATOM     30  C   UNL d   1      10.209   0.521 -16.118  0.00  0.00     0.018 A 
ENDBRANCH  20  23
ENDBRANCH  16  17
ENDBRANCH   1  16
TORSDOF 6
