REMARK  2 active torsions:
REMARK  status: ('A' for Active; 'I' for Inactive)
REMARK    1  A    between atoms: N_2  and  C_4 
REMARK    2  A    between atoms: C_4  and  C_5 
ROOT
ATOM      1  C   UNL d   1       5.645   0.925 -14.297  0.00  0.00     0.173 C 
ATOM      2  C   UNL d   1       5.872   2.230 -13.529  0.00  0.00     0.057 C 
ATOM      3  C   UNL d   1       7.135   2.686 -14.237  0.00  0.00     0.113 C 
ATOM      4  C   UNL d   1       7.881   3.843 -13.595  0.00  0.00    -0.009 A 
ATOM      5  C   UNL d   1       7.106   4.910 -13.083  0.00  0.00    -0.003 A 
ATOM      6  C   UNL d   1       7.712   6.031 -12.494  0.00  0.00    -0.000 A 
ATOM      7  C   UNL d   1       9.111   6.095 -12.411  0.00  0.00    -0.000 A 
ATOM      8  C   UNL d   1       9.891   5.039 -12.919  0.00  0.00    -0.004 A 
ATOM      9  C   UNL d   1       9.300   3.914 -13.521  0.00  0.00    -0.020 A 
ATOM     10  C   UNL d   1      10.252   2.820 -14.006  0.00  0.00     0.053 C 
ATOM     11  C   UNL d   1       9.940   2.225 -15.363  0.00  0.00    -0.005 A 
ATOM     12  C   UNL d   1      10.856   2.339 -16.427  0.00  0.00    -0.001 A 
ATOM     13  C   UNL d   1      10.572   1.729 -17.662  0.00  0.00     0.029 A 
ATOM     14  C   UNL d   1       9.380   0.994 -17.836  0.00  0.00     0.141 A 
ATOM     15  F   UNL d   1       9.112   0.414 -19.025  0.00  0.00    -0.204 F 
ATOM     16  C   UNL d   1       8.467   0.871 -16.769  0.00  0.00     0.043 A 
ATOM     17  C   UNL d   1       8.748   1.492 -15.529  0.00  0.00     0.061 A 
ATOM     18  N   UNL d   1       7.873   1.465 -14.436  0.00  0.00    -0.142 NA
ATOM     19  O   UNL d   1       6.942   0.369 -14.426  0.00  0.00    -0.279 OA
ENDROOT
BRANCH   1  20
ATOM     20  C   UNL d   1       4.700  -0.068 -13.621  0.00  0.00     0.282 C 
BRANCH  20  21
ATOM     21  N   UNL d   1       4.311  -1.212 -14.460  0.00  0.00     0.144 N 
ATOM     22  C   UNL d   1       5.421  -2.033 -14.877  0.00  0.00     0.286 C 
ATOM     23  C   UNL d   1       3.525  -0.832 -15.632  0.00  0.00     0.286 C 
ENDBRANCH  20  21
ENDBRANCH   1  20
TORSDOF 2
