REMARK  7 active torsions:
REMARK  status: ('A' for Active; 'I' for Inactive)
REMARK    1  A    between atoms: C_2  and  C_3 
REMARK    2  A    between atoms: C_2  and  C_15 
REMARK    3  A    between atoms: C_3  and  O_4 
REMARK    4  A    between atoms: O_4  and  C_5 
REMARK    5  A    between atoms: C_15  and  N_16 
REMARK    6  A    between atoms: C_19  and  O_20 
REMARK    7  A    between atoms: O_20  and  C_21 
ROOT
ATOM      1  O   UNL d   1       8.164   6.787 -12.037  0.00  0.00    -0.219 OA
ATOM      2  C   UNL d   1       9.298   6.064 -11.599  0.00  0.00     0.215 C 
ENDROOT
BRANCH   2   3
ATOM      3  C   UNL d   1       9.455   4.830 -12.515  0.00  0.00     0.184 C 
BRANCH   3   4
ATOM      4  O   UNL d   1      10.277   5.189 -13.618  0.00  0.00    -0.328 OA
BRANCH   4   5
ATOM      5  C   UNL d   1      10.682   4.209 -14.503  0.00  0.00     0.094 A 
ATOM      6  C   UNL d   1      11.578   4.586 -15.535  0.00  0.00     0.022 A 
ATOM      7  C   UNL d   1      12.034   3.621 -16.471  0.00  0.00     0.002 A 
ATOM      8  C   UNL d   1      12.031   5.920 -15.651  0.00  0.00     0.002 A 
ATOM      9  C   UNL d   1      11.595   2.287 -16.381  0.00  0.00     0.000 A 
ATOM     10  C   UNL d   1      12.931   3.995 -17.495  0.00  0.00     0.000 A 
ATOM     11  C   UNL d   1      10.706   1.909 -15.359  0.00  0.00     0.002 A 
ATOM     12  C   UNL d   1      10.252   2.861 -14.427  0.00  0.00     0.024 A 
ATOM     13  C   UNL d   1      13.375   5.326 -17.596  0.00  0.00     0.000 A 
ATOM     14  C   UNL d   1      12.925   6.289 -16.675  0.00  0.00     0.000 A 
ENDBRANCH   4   5
ENDBRANCH   3   4
ENDBRANCH   2   3
BRANCH   2  15
ATOM     15  C   UNL d   1       9.096   5.678 -10.115  0.00  0.00     0.285 C 
BRANCH  15  16
ATOM     16  N   UNL d   1       9.897   6.493  -9.197  0.00  0.00     0.140 N 
ATOM     17  C   UNL d   1       9.266   7.775  -8.882  0.00  0.00     0.253 C 
ATOM     18  C   UNL d   1      10.093   8.648  -7.912  0.00  0.00     0.066 C 
ATOM     19  C   UNL d   1      10.397   7.891  -6.598  0.00  0.00     0.125 C 
ATOM     20  C   UNL d   1      10.972   6.532  -6.992  0.00  0.00     0.066 C 
ATOM     21  C   UNL d   1      10.089   5.783  -7.960  0.00  0.00     0.253 C 
BRANCH  19  22
ATOM     22  O   UNL d   1      11.316   8.660  -5.821  0.00  0.00    -0.333 OA
BRANCH  22  23
ATOM     23  C   UNL d   1      11.648   8.321  -4.528  0.00  0.00     0.094 A 
ATOM     24  C   UNL d   1      11.867   7.006  -4.026  0.00  0.00     0.024 A 
ATOM     25  C   UNL d   1      12.255   6.798  -2.702  0.00  0.00     0.002 A 
ATOM     26  C   UNL d   1      12.457   7.876  -1.845  0.00  0.00     0.000 A 
ATOM     27  C   UNL d   1      12.251   9.185  -2.311  0.00  0.00     0.002 A 
ATOM     28  C   UNL d   1      11.851   9.394  -3.642  0.00  0.00     0.024 A 
ENDBRANCH  22  23
ENDBRANCH  19  22
ENDBRANCH  15  16
ENDBRANCH   2  15
TORSDOF 7
