REMARK  2 active torsions:
REMARK  status: ('A' for Active; 'I' for Inactive)
REMARK    1  A    between atoms: O_2  and  C_3 
REMARK    2  A    between atoms: C_4  and  C_5 
ROOT
ATOM      1  C   UNL d   1       9.018   5.089 -13.034  0.00  0.00     0.096 A 
ATOM      2  C   UNL d   1       8.529   5.880 -11.974  0.00  0.00     0.045 A 
ATOM      3  C   UNL d   1       7.182   5.742 -11.586  0.00  0.00     0.004 A 
ATOM      4  C   UNL d   1       6.349   4.795 -12.189  0.00  0.00    -0.004 A 
ATOM      5  C   UNL d   1       6.860   3.993 -13.219  0.00  0.00    -0.018 A 
ATOM      6  C   UNL d   1       8.177   4.163 -13.701  0.00  0.00     0.018 A 
ATOM      7  C   UNL d   1       8.599   3.382 -14.878  0.00  0.00    -0.001 C 
ATOM      8  C   UNL d   1       9.572   3.828 -15.780  0.00  0.00    -0.000 C 
ATOM      9  C   UNL d   1      10.014   3.051 -16.883  0.00  0.00    -0.000 C 
ATOM     10  C   UNL d   1       9.391   1.816 -17.159  0.00  0.00    -0.004 C 
ATOM     11  C   UNL d   1       8.321   1.384 -16.362  0.00  0.00    -0.022 C 
ATOM     12  C   UNL d   1       7.941   2.177 -15.255  0.00  0.00     0.005 C 
ATOM     13  C   UNL d   1       6.749   1.740 -14.379  0.00  0.00     0.246 C 
ATOM     14  C   UNL d   1       5.959   2.989 -13.873  0.00  0.00     0.064 C 
ATOM     15  N   UNL d   1       5.856   0.733 -14.956  0.00  0.00     0.142 N 
ATOM     16  C   UNL d   1       4.932   0.178 -13.961  0.00  0.00     0.286 C 
ATOM     17  C   UNL d   1       6.699  -0.362 -15.414  0.00  0.00     0.255 C 
ATOM     18  C   UNL d   1       7.499   0.136 -16.614  0.00  0.00     0.061 C 
ENDROOT
BRANCH   2  19
ATOM     19  C   UNL d   1       9.360   6.832 -11.226  0.00  0.00     0.102 A 
ATOM     20  O   UNL d   1      10.168   6.350 -10.241  0.00  0.00    -0.305 OA
ATOM     21  C   UNL d   1      10.803   7.418  -9.687  0.00  0.00     0.123 A 
ATOM     22  C   UNL d   1      10.417   8.579 -10.287  0.00  0.00     0.029 A 
ATOM     23  C   UNL d   1       9.456   8.201 -11.279  0.00  0.00     0.027 A 
ENDBRANCH   2  19
BRANCH   1  24
ATOM     24  O   UNL d   1      10.334   5.193 -13.403  0.00  0.00    -0.328 OA
ATOM     25  C   UNL d   1      11.037   3.993 -13.121  0.00  0.00     0.181 C 
ENDBRANCH   1  24
TORSDOF 2
