REMARK  7 active torsions:
REMARK  status: ('A' for Active; 'I' for Inactive)
REMARK    1  A    between atoms: S_2  and  N_4 
REMARK    2  A    between atoms: S_2  and  C_28 
REMARK    3  A    between atoms: N_4  and  C_5 
REMARK    4  A    between atoms: C_8  and  C_9 
REMARK    5  A    between atoms: C_9  and  C_10 
REMARK    6  A    between atoms: C_10  and  N_11 
REMARK    7  A    between atoms: C_14  and  C_15 
ROOT
ATOM      1  C   UNL d   1      10.194   3.086 -15.114  0.00  0.00     0.116 C 
ATOM      2  C   UNL d   1       9.036   4.092 -15.255  0.00  0.00     0.025 C 
ATOM      3  C   UNL d   1       9.094   5.174 -14.183  0.00  0.00     0.002 C 
ATOM      4  C   UNL d   1       9.049   4.558 -12.785  0.00  0.00     0.002 C 
ATOM      5  C   UNL d   1      10.210   3.561 -12.673  0.00  0.00     0.002 C 
ATOM      6  C   UNL d   1      10.145   2.441 -13.724  0.00  0.00     0.025 C 
ENDROOT
BRANCH   4   7
ATOM      7  C   UNL d   1       9.114   5.673 -11.725  0.00  0.00     0.035 C 
BRANCH   7   8
ATOM      8  C   UNL d   1       8.780   5.173 -10.305  0.00  0.00     0.250 C 
BRANCH   8   9
ATOM      9  N   UNL d   1       9.188   6.122  -9.275  0.00  0.00     0.137 N 
ATOM     10  C   UNL d   1       8.640   5.676  -7.992  0.00  0.00     0.251 C 
ATOM     11  C   UNL d   1       8.996   6.676  -6.880  0.00  0.00     0.040 C 
ATOM     12  C   UNL d   1      10.514   6.870  -6.758  0.00  0.00     0.028 C 
ATOM     13  C   UNL d   1      11.086   7.203  -8.135  0.00  0.00     0.040 C 
ATOM     14  C   UNL d   1      10.643   6.172  -9.163  0.00  0.00     0.251 C 
BRANCH  12  15
ATOM     15  C   UNL d   1      10.874   7.929  -5.737  0.00  0.00     0.002 A 
ATOM     16  C   UNL d   1      11.497   7.604  -4.516  0.00  0.00     0.115 A 
ATOM     17  C   UNL d   1      11.818   8.571  -3.580  0.00  0.00     0.119 A 
ATOM     18  O   UNL d   1      11.858   6.390  -4.042  0.00  0.00    -0.300 OA
ATOM     19  C   UNL d   1      11.505   9.914  -3.791  0.00  0.00     0.026 A 
ATOM     20  O   UNL d   1      12.390   7.989  -2.498  0.00  0.00    -0.300 OA
ATOM     21  C   UNL d   1      10.903  10.268  -5.019  0.00  0.00     0.002 A 
ATOM     22  C   UNL d   1      10.586   9.287  -5.979  0.00  0.00    -0.002 A 
ATOM     23  C   UNL d   1      12.420   6.616  -2.775  0.00  0.00     0.304 A 
ENDBRANCH  12  15
ENDBRANCH   8   9
ENDBRANCH   7   8
ENDBRANCH   4   7
BRANCH   1  24
ATOM     24  N   UNL d   1      10.111   2.050 -16.150  0.00  0.00    -0.187 NA
BRANCH  24  25
ATOM     25  S   UNL d   1      10.387   2.420 -17.820  0.00  0.00     0.281 S 
ATOM     26  O   UNL d   1      10.627   1.139 -18.496  0.00  0.00    -0.199 OA
ATOM     27  O   UNL d   1       9.312   3.311 -18.295  0.00  0.00    -0.199 OA
BRANCH  25  28
ATOM     28  C   UNL d   1      11.925   3.357 -17.781  0.00  0.00     0.105 A 
ATOM     29  C   UNL d   1      11.998   4.614 -17.130  0.00  0.00     0.015 A 
ATOM     30  C   UNL d   1      13.198   5.295 -17.019  0.00  0.00     0.030 A 
ATOM     31  C   UNL d   1      14.362   4.792 -17.658  0.00  0.00     0.140 A 
ATOM     32  C   UNL d   1      14.287   3.578 -18.367  0.00  0.00     0.030 A 
ATOM     33  F   UNL d   1      15.535   5.464 -17.571  0.00  0.00    -0.204 F 
ATOM     34  C   UNL d   1      13.076   2.853 -18.421  0.00  0.00     0.015 A 
ENDBRANCH  25  28
ENDBRANCH  24  25
ENDBRANCH   1  24
TORSDOF 7
