REMARK  7 active torsions:
REMARK  status: ('A' for Active; 'I' for Inactive)
REMARK    1  A    between atoms: C_2  and  C_3 
REMARK    2  A    between atoms: N_14  and  C_15 
REMARK    3  A    between atoms: C_15  and  C_16 
REMARK    4  A    between atoms: C_16  and  C_17 
REMARK    5  A    between atoms: C_17  and  S_18 
REMARK    6  A    between atoms: S_18  and  C_19 
REMARK    7  A    between atoms: C_22  and  C_23 
ROOT
ATOM      1  C   UNL d   1       8.477   0.767 -16.912  0.00  0.00     0.251 C 
ENDROOT
BRANCH   1   2
ATOM      2  N   UNL d   1       8.986   1.511 -18.076  0.00  0.00     0.138 N 
ATOM      3  C   UNL d   1       8.956   2.980 -18.028  0.00  0.00     0.255 C 
ATOM      4  C   UNL d   1       9.867   3.607 -16.957  0.00  0.00     0.061 C 
ATOM      5  C   UNL d   1      11.302   3.750 -17.390  0.00  0.00    -0.022 A 
ATOM      6  C   UNL d   1      12.071   2.607 -17.725  0.00  0.00    -0.022 A 
ATOM      7  C   UNL d   1      11.877   5.038 -17.421  0.00  0.00     0.022 A 
ATOM      8  C   UNL d   1      13.414   2.764 -18.134  0.00  0.00     0.017 A 
ATOM      9  C   UNL d   1      11.485   1.201 -17.647  0.00  0.00     0.061 C 
ATOM     10  C   UNL d   1      13.996   4.046 -18.198  0.00  0.00     0.106 A 
ATOM     11  N   UNL d   1      15.244   4.482 -18.588  0.00  0.00    -0.224 NA
ATOM     12  C   UNL d   1      13.211   5.156 -17.823  0.00  0.00     0.119 A 
ATOM     13  C   UNL d   1      15.171   5.808 -18.415  0.00  0.00     0.159 A 
ATOM     14  O   UNL d   1      13.979   6.295 -17.952  0.00  0.00    -0.292 OA
ATOM     15  C   UNL d   1      10.261   0.981 -18.568  0.00  0.00     0.255 C 
BRANCH  13  16
ATOM     16  C   UNL d   1      16.255   6.784 -18.725  0.00  0.00     0.072 C 
ATOM     17  C   UNL d   1      17.474   6.627 -17.810  0.00  0.00     0.009 C 
ENDBRANCH  13  16
ENDBRANCH   1   2
BRANCH   1  18
ATOM     18  C   UNL d   1       7.135   1.308 -16.346  0.00  0.00     0.047 C 
BRANCH  18  19
ATOM     19  C   UNL d   1       6.779   0.648 -14.994  0.00  0.00     0.067 C 
BRANCH  19  20
ATOM     20  S   UNL d   1       5.923   1.791 -13.855  0.00  0.00    -0.075 SA
BRANCH  20  21
ATOM     21  C   UNL d   1       7.162   3.037 -13.656  0.00  0.00     0.193 A 
ATOM     22  N   UNL d   1       7.086   3.988 -12.688  0.00  0.00    -0.289 N 
ATOM     23  C   UNL d   1       8.274   4.605 -12.805  0.00  0.00     0.167 A 
ATOM     24  C   UNL d   1       6.086   4.156 -11.663  0.00  0.00     0.134 C 
ATOM     25  N   UNL d   1       9.044   4.098 -13.778  0.00  0.00    -0.128 NA
ATOM     26  N   UNL d   1       8.315   3.061 -14.314  0.00  0.00    -0.122 NA
BRANCH  23  27
ATOM     27  C   UNL d   1       8.764   5.662 -11.956  0.00  0.00     0.038 A 
ATOM     28  C   UNL d   1       9.387   5.371 -10.732  0.00  0.00     0.035 A 
ATOM     29  C   UNL d   1       9.905   6.416  -9.937  0.00  0.00     0.168 A 
ATOM     30  C   UNL d   1       9.813   7.748 -10.395  0.00  0.00     0.167 A 
ATOM     31  F   UNL d   1      10.484   6.137  -8.738  0.00  0.00    -0.202 F 
ATOM     32  C   UNL d   1       9.207   8.032 -11.635  0.00  0.00     0.032 A 
ATOM     33  F   UNL d   1      10.269   8.766  -9.620  0.00  0.00    -0.202 F 
ATOM     34  C   UNL d   1       8.678   6.984 -12.419  0.00  0.00     0.005 A 
ENDBRANCH  23  27
ENDBRANCH  20  21
ENDBRANCH  19  20
ENDBRANCH  18  19
ENDBRANCH   1  18
TORSDOF 7
