REMARK  5 active torsions:
REMARK  status: ('A' for Active; 'I' for Inactive)
REMARK    1  A    between atoms: C_2  and  C_3 
REMARK    2  A    between atoms: C_3  and  N_4 
REMARK    3  A    between atoms: C_17  and  O_18 
REMARK    4  A    between atoms: O_18  and  C_19 
REMARK    5  A    between atoms: C_19  and  C_20 
ROOT
ATOM      1  C   UNL d   1       9.645   6.792 -11.355  0.00  0.00    -0.002 C 
ATOM      2  C   UNL d   1       9.340   5.483 -11.349  0.00  0.00     0.019 C 
ATOM      3  C   UNL d   1       9.371   4.673 -10.045  0.00  0.00     0.173 C 
ATOM      4  O   UNL d   1       9.510   5.433  -8.843  0.00  0.00    -0.324 OA
ATOM      5  C   UNL d   1      10.017   6.707  -8.936  0.00  0.00     0.117 A 
ATOM      6  C   UNL d   1      10.088   7.407 -10.142  0.00  0.00     0.024 A 
ATOM      7  C   UNL d   1      10.638   8.689 -10.184  0.00  0.00     0.002 A 
ATOM      8  C   UNL d   1      11.065   9.308  -9.002  0.00  0.00     0.002 A 
ATOM      9  C   UNL d   1      10.964   8.635  -7.781  0.00  0.00     0.026 A 
ATOM     10  C   UNL d   1      10.450   7.326  -7.754  0.00  0.00     0.116 A 
ENDROOT
BRANCH  10  11
ATOM     11  O   UNL d   1      10.361   6.577  -6.630  0.00  0.00    -0.326 OA
BRANCH  11  12
ATOM     12  C   UNL d   1      10.042   7.272  -5.456  0.00  0.00     0.180 C 
BRANCH  12  13
ATOM     13  C   UNL d   1      11.276   7.739  -4.654  0.00  0.00     0.181 C 
ATOM     14  O   UNL d   1      11.460   6.881  -3.523  0.00  0.00    -0.350 OA
ATOM     15  C   UNL d   1      12.611   7.224  -2.761  0.00  0.00     0.181 C 
ATOM     16  C   UNL d   1      12.558   8.685  -2.295  0.00  0.00     0.322 C 
ATOM     17  N   UNL d   1      12.343   9.583  -3.424  0.00  0.00     0.345 N 
ATOM     18  C   UNL d   1      11.159   9.220  -4.178  0.00  0.00     0.322 C 
ENDBRANCH  12  13
ENDBRANCH  11  12
ENDBRANCH  10  11
BRANCH   2  19
ATOM     19  C   UNL d   1       8.960   4.771 -12.630  0.00  0.00     0.275 C 
BRANCH  19  20
ATOM     20  N   UNL d   1       7.687   4.093 -12.476  0.00  0.00     0.146 N 
ATOM     21  C   UNL d   1       7.206   3.511 -13.713  0.00  0.00     0.283 C 
ATOM     22  C   UNL d   1       5.877   2.764 -13.507  0.00  0.00     0.178 C 
ATOM     23  O   UNL d   1       4.929   3.672 -12.963  0.00  0.00    -0.350 OA
ATOM     24  C   UNL d   1       5.381   4.157 -11.721  0.00  0.00     0.178 C 
ATOM     25  C   UNL d   1       6.658   4.934 -11.880  0.00  0.00     0.283 C 
ENDBRANCH  19  20
ENDBRANCH   2  19
TORSDOF 5
