REMARK  6 active torsions:
REMARK  status: ('A' for Active; 'I' for Inactive)
REMARK    1  A    between atoms: O_2  and  C_3 
REMARK    2  A    between atoms: C_8  and  N_9 
REMARK    3  A    between atoms: N_12  and  C_13 
REMARK    4  A    between atoms: C_13  and  C_14 
REMARK    5  A    between atoms: C_14  and  C_16 
REMARK    6  A    between atoms: C_16  and  N_17 
ROOT
ATOM      1  N   UNL d   1       8.207   4.050 -13.725  0.00  0.00    -0.343 N 
ATOM      2  C   UNL d   1       9.457   4.577 -13.200  0.00  0.00     0.137 C 
ATOM      3  C   UNL d   1       9.383   4.604 -11.681  0.00  0.00     0.274 C 
ATOM      4  N   UNL d   1       8.239   5.332 -11.155  0.00  0.00     0.144 N 
ATOM      5  C   UNL d   1       7.014   4.707 -11.673  0.00  0.00     0.274 C 
ATOM      6  C   UNL d   1       7.004   4.716 -13.215  0.00  0.00     0.137 C 
ENDROOT
BRANCH   4   7
ATOM      7  C   UNL d   1       8.223   5.393  -9.699  0.00  0.00     0.285 C 
BRANCH   7   8
ATOM      8  C   UNL d   1       9.459   5.991  -8.978  0.00  0.00     0.208 C 
ATOM      9  O   UNL d   1       9.342   5.608  -7.642  0.00  0.00    -0.219 OA
BRANCH   8  10
ATOM     10  C   UNL d   1       9.482   7.526  -9.076  0.00  0.00     0.148 C 
BRANCH  10  11
ATOM     11  N   UNL d   1      10.478   8.127  -8.213  0.00  0.00    -0.247 N 
ATOM     12  C   UNL d   1      10.182   8.545  -6.976  0.00  0.00     0.261 A 
ATOM     13  C   UNL d   1      11.454   9.042  -6.320  0.00  0.00     0.160 A 
ATOM     14  O   UNL d   1       9.076   8.530  -6.436  0.00  0.00    -0.270 OA
ATOM     15  N   UNL d   1      12.355   8.824  -7.440  0.00  0.00    -0.213 NA
ATOM     16  C   UNL d   1      11.835   8.198  -5.085  0.00  0.00     0.034 C 
ATOM     17  C   UNL d   1      11.400  10.532  -5.987  0.00  0.00     0.034 C 
ATOM     18  C   UNL d   1      11.764   8.300  -8.516  0.00  0.00     0.348 A 
ATOM     19  O   UNL d   1      12.312   8.011  -9.579  0.00  0.00    -0.245 OA
ENDBRANCH  10  11
ENDBRANCH   8  10
ENDBRANCH   7   8
ENDBRANCH   4   7
BRANCH   1  20
ATOM     20  C   UNL d   1       8.195   2.940 -14.592  0.00  0.00     0.079 A 
ATOM     21  C   UNL d   1       7.186   1.940 -14.511  0.00  0.00     0.110 A 
ATOM     22  C   UNL d   1       7.172   0.895 -15.455  0.00  0.00     0.026 A 
ATOM     23  C   UNL d   1       8.144   0.824 -16.472  0.00  0.00     0.002 A 
ATOM     24  C   UNL d   1       9.157   1.801 -16.535  0.00  0.00     0.002 A 
ATOM     25  C   UNL d   1       9.184   2.844 -15.600  0.00  0.00     0.019 A 
BRANCH  21  26
ATOM     26  O   UNL d   1       6.239   2.056 -13.510  0.00  0.00    -0.327 OA
ATOM     27  C   UNL d   1       5.359   0.991 -13.270  0.00  0.00     0.181 C 
ENDBRANCH  21  26
ENDBRANCH   1  20
TORSDOF 6
