REMARK  1 active torsions:
REMARK  status: ('A' for Active; 'I' for Inactive)
REMARK    1  A    between atoms: C_5  and  C_6 
ROOT
ATOM      1  C   UNL d   1       8.567   1.120 -16.406  0.00  0.00    -0.002 C 
ATOM      2  C   UNL d   1       8.714   2.002 -15.390  0.00  0.00     0.002 C 
ATOM      3  C   UNL d   1       7.705   2.483 -14.442  0.00  0.00     0.023 A 
ATOM      4  C   UNL d   1       7.849   3.787 -13.921  0.00  0.00     0.002 A 
ATOM      5  C   UNL d   1       6.893   4.306 -13.027  0.00  0.00     0.000 A 
ATOM      6  C   UNL d   1       5.786   3.524 -12.656  0.00  0.00     0.002 A 
ATOM      7  C   UNL d   1       5.636   2.224 -13.177  0.00  0.00     0.025 A 
ATOM      8  C   UNL d   1       6.588   1.704 -14.074  0.00  0.00     0.100 A 
ATOM      9  O   UNL d   1       6.461   0.409 -14.495  0.00  0.00    -0.307 OA
ATOM     10  C   UNL d   1       6.264   0.195 -15.832  0.00  0.00     0.100 A 
ATOM     11  C   UNL d   1       5.058  -0.413 -16.233  0.00  0.00     0.025 A 
ATOM     12  C   UNL d   1       4.824  -0.717 -17.586  0.00  0.00     0.002 A 
ATOM     13  C   UNL d   1       5.807  -0.414 -18.544  0.00  0.00     0.000 A 
ATOM     14  C   UNL d   1       7.014   0.184 -18.144  0.00  0.00     0.002 A 
ATOM     15  C   UNL d   1       7.267   0.503 -16.784  0.00  0.00     0.022 A 
ENDROOT
BRANCH   1  16
ATOM     16  C   UNL d   1       9.744   0.839 -17.218  0.00  0.00    -0.022 C 
ATOM     17  C   UNL d   1      10.037  -0.431 -17.561  0.00  0.00     0.005 C 
ATOM     18  C   UNL d   1      11.209  -0.825 -18.436  0.00  0.00     0.276 C 
ATOM     19  N   UNL d   1      11.792   0.310 -19.149  0.00  0.00     0.144 N 
ATOM     20  C   UNL d   1      13.068  -0.080 -19.728  0.00  0.00     0.286 C 
ATOM     21  C   UNL d   1      11.974   1.458 -18.261  0.00  0.00     0.255 C 
ATOM     22  C   UNL d   1      10.611   1.966 -17.769  0.00  0.00     0.061 C 
ENDBRANCH   1  16
TORSDOF 1
