REMARK  4 active torsions:
REMARK  status: ('A' for Active; 'I' for Inactive)
REMARK    1  A    between atoms: C_5  and  N_6 
REMARK    2  A    between atoms: N_9  and  C_10 
REMARK    3  A    between atoms: C_10  and  C_12 
REMARK    4  A    between atoms: C_14  and  C_16 
ROOT
ATOM      1  N   UNL d   1       9.142   3.934 -13.464  0.00  0.00    -0.344 N 
ATOM      2  C   UNL d   1       9.901   3.779 -12.237  0.00  0.00     0.137 C 
ATOM      3  C   UNL d   1       9.460   4.807 -11.169  0.00  0.00     0.274 C 
ATOM      4  N   UNL d   1       9.556   6.169 -11.720  0.00  0.00     0.139 N 
ATOM      5  C   UNL d   1       8.650   6.215 -12.869  0.00  0.00     0.274 C 
ATOM      6  C   UNL d   1       9.063   5.270 -13.992  0.00  0.00     0.137 C 
ENDROOT
BRANCH   4   7
ATOM      7  C   UNL d   1       9.177   7.202 -10.734  0.00  0.00     0.220 C 
ATOM      8  C   UNL d   1       8.951   8.571 -11.486  0.00  0.00     0.035 C 
BRANCH   7   9
ATOM      9  C   UNL d   1      10.276   7.341  -9.666  0.00  0.00     0.035 A 
ATOM     10  C   UNL d   1      10.170   8.274  -8.450  0.00  0.00     0.021 A 
ATOM     11  C   UNL d   1      11.162   8.569  -9.562  0.00  0.00     0.006 A 
ATOM     12  C   UNL d   1       8.926   9.131  -8.214  0.00  0.00     0.004 C 
BRANCH  10  13
ATOM     13  C   UNL d   1      10.753   7.862  -7.098  0.00  0.00    -0.023 A 
ATOM     14  C   UNL d   1      10.780   8.763  -5.999  0.00  0.00    -0.004 A 
ATOM     15  C   UNL d   1      11.321   8.381  -4.759  0.00  0.00    -0.000 A 
ATOM     16  C   UNL d   1      11.845   7.102  -4.586  0.00  0.00    -0.000 A 
ATOM     17  C   UNL d   1      11.867   6.239  -5.675  0.00  0.00    -0.000 A 
ATOM     18  C   UNL d   1      11.287   6.585  -6.904  0.00  0.00    -0.004 A 
ENDBRANCH  10  13
ENDBRANCH   7   9
ENDBRANCH   4   7
BRANCH   1  19
ATOM     19  C   UNL d   1       8.401   2.900 -14.045  0.00  0.00     0.052 A 
ATOM     20  C   UNL d   1       9.071   1.952 -14.842  0.00  0.00     0.016 A 
ATOM     21  C   UNL d   1       8.358   0.896 -15.445  0.00  0.00    -0.003 A 
ATOM     22  C   UNL d   1       6.971   0.776 -15.236  0.00  0.00    -0.022 A 
ATOM     23  C   UNL d   1       6.181  -0.345 -15.884  0.00  0.00     0.031 C 
ATOM     24  C   UNL d   1       6.306   1.715 -14.428  0.00  0.00    -0.007 A 
ATOM     25  C   UNL d   1       7.004   2.792 -13.847  0.00  0.00    -0.007 A 
ATOM     26  C   UNL d   1       6.250   3.757 -12.951  0.00  0.00     0.033 C 
ENDBRANCH   1  19
TORSDOF 4
