REMARK  4 active torsions:
REMARK  status: ('A' for Active; 'I' for Inactive)
REMARK    1  A    between atoms: C_8  and  C_9 
REMARK    2  A    between atoms: C_9  and  C_10 
REMARK    3  A    between atoms: C_10  and  N_11 
REMARK    4  A    between atoms: N_14  and  C_15 
ROOT
ATOM      1  N   UNL d   1       9.095   5.684 -10.115  0.00  0.00     0.141 N 
ATOM      2  C   UNL d   1       8.691   5.650  -8.702  0.00  0.00     0.274 C 
ATOM      3  C   UNL d   1       9.894   5.947  -7.823  0.00  0.00     0.138 C 
ATOM      4  N   UNL d   1      10.535   7.202  -8.139  0.00  0.00    -0.329 N 
ATOM      5  C   UNL d   1      10.823   7.350  -9.560  0.00  0.00     0.138 C 
ATOM      6  C   UNL d   1       9.592   7.049 -10.396  0.00  0.00     0.274 C 
ENDROOT
BRANCH   1   7
ATOM      7  C   UNL d   1       7.907   5.332 -10.870  0.00  0.00     0.255 C 
BRANCH   7   8
ATOM      8  C   UNL d   1       8.140   5.430 -12.394  0.00  0.00     0.063 C 
BRANCH   8   9
ATOM      9  C   UNL d   1       7.811   4.167 -13.161  0.00  0.00    -0.001 A 
ATOM     10  C   UNL d   1       8.788   3.526 -13.967  0.00  0.00     0.076 A 
ATOM     11  N   UNL d   1      10.092   4.086 -14.133  0.00  0.00    -0.212 NA
ATOM     12  C   UNL d   1       8.465   2.318 -14.633  0.00  0.00    -0.002 A 
ATOM     13  C   UNL d   1      11.152   3.472 -14.661  0.00  0.00     0.256 C 
ATOM     14  C   UNL d   1      10.976   2.007 -15.062  0.00  0.00     0.094 C 
ATOM     15  O   UNL d   1      12.252   4.035 -14.783  0.00  0.00    -0.270 OA
ATOM     16  C   UNL d   1       9.531   1.664 -15.526  0.00  0.00     0.033 C 
ATOM     17  C   UNL d   1       9.380   0.138 -15.662  0.00  0.00     0.005 C 
ATOM     18  C   UNL d   1       7.162   1.773 -14.460  0.00  0.00     0.027 A 
ATOM     19  C   UNL d   1       6.218   2.385 -13.623  0.00  0.00     0.140 A 
ATOM     20  C   UNL d   1       6.529   3.606 -12.993  0.00  0.00     0.027 A 
ATOM     21  F   UNL d   1       5.059   1.743 -13.310  0.00  0.00    -0.204 F 
ENDBRANCH   8   9
ENDBRANCH   7   8
ENDBRANCH   1   7
BRANCH   4  22
ATOM     22  C   UNL d   1      10.823   8.191  -7.199  0.00  0.00     0.151 A 
ATOM     23  C   UNL d   1      11.238   7.849  -5.818  0.00  0.00     0.044 A 
ATOM     24  C   UNL d   1      11.431   9.003  -5.082  0.00  0.00     0.081 A 
ATOM     25  C   UNL d   1      11.513   6.615  -5.220  0.00  0.00     0.004 A 
ATOM     26  S   UNL d   1      11.059  10.383  -6.100  0.00  0.00     0.176 S 
ATOM     27  C   UNL d   1      11.833   9.034  -3.740  0.00  0.00     0.011 A 
ATOM     28  N   UNL d   1      10.743   9.447  -7.421  0.00  0.00    -0.164 NA
ATOM     29  O   UNL d   1      12.331  11.138  -6.423  0.00  0.00    -0.228 OA
ATOM     30  C   UNL d   1      12.053   7.787  -3.125  0.00  0.00     0.001 A 
ATOM     31  C   UNL d   1      11.876   6.595  -3.862  0.00  0.00     0.000 A 
ENDBRANCH   4  22
TORSDOF 4
