REMARK  5 active torsions:
REMARK  status: ('A' for Active; 'I' for Inactive)
REMARK    1  A    between atoms: C_2  and  C_3 
REMARK    2  A    between atoms: C_4  and  C_5 
REMARK    3  A    between atoms: N_8  and  C_9 
REMARK    4  A    between atoms: C_9  and  C_10 
REMARK    5  A    between atoms: C_20  and  C_21 
ROOT
ATOM      1  C   UNL d   1       9.460   5.517 -10.236  0.00  0.00     0.013 A 
ATOM      2  C   UNL d   1       9.126   5.474 -11.634  0.00  0.00     0.078 A 
ATOM      3  N   UNL d   1       9.161   6.671 -12.201  0.00  0.00    -0.153 NA
ATOM      4  N   UNL d   1       9.493   7.496 -11.202  0.00  0.00    -0.149 NA
ATOM      5  C   UNL d   1       9.682   6.841 -10.013  0.00  0.00     0.100 A 
ENDROOT
BRANCH   2   6
ATOM      6  C   UNL d   1       8.822   4.300 -12.516  0.00  0.00     0.046 C 
ATOM      7  C   UNL d   1       7.516   4.514 -13.294  0.00  0.00     0.041 C 
ATOM      8  C   UNL d   1       7.240   3.318 -14.209  0.00  0.00     0.251 C 
ATOM      9  N   UNL d   1       8.408   2.988 -15.060  0.00  0.00     0.141 N 
ATOM     10  C   UNL d   1       9.659   2.748 -14.330  0.00  0.00     0.251 C 
ATOM     11  C   UNL d   1       9.991   3.963 -13.443  0.00  0.00     0.041 C 
BRANCH   9  12
ATOM     12  C   UNL d   1       8.104   1.944 -16.047  0.00  0.00     0.277 C 
BRANCH  12  13
ATOM     13  C   UNL d   1       7.243   0.800 -15.517  0.00  0.00     0.011 A 
ATOM     14  C   UNL d   1       6.153   0.318 -16.282  0.00  0.00    -0.002 A 
ATOM     15  C   UNL d   1       5.288  -0.681 -15.772  0.00  0.00    -0.000 A 
ATOM     16  C   UNL d   1       5.521  -1.194 -14.480  0.00  0.00    -0.000 A 
ATOM     17  C   UNL d   1       6.610  -0.710 -13.716  0.00  0.00    -0.000 A 
ATOM     18  C   UNL d   1       7.487   0.264 -14.231  0.00  0.00    -0.002 A 
ENDBRANCH  12  13
ENDBRANCH   9  12
ENDBRANCH   2   6
BRANCH   1  19
ATOM     19  C   UNL d   1       9.600   4.376  -9.261  0.00  0.00     0.029 C 
ATOM     20  C   UNL d   1       8.278   3.993  -8.624  0.00  0.00     0.005 C 
ENDBRANCH   1  19
BRANCH   5  21
ATOM     21  C   UNL d   1      10.056   7.572  -8.818  0.00  0.00     0.019 A 
ATOM     22  C   UNL d   1      11.256   8.301  -8.777  0.00  0.00     0.002 A 
ATOM     23  C   UNL d   1      11.606   9.019  -7.614  0.00  0.00     0.011 A 
ATOM     24  C   UNL d   1      10.745   9.021  -6.503  0.00  0.00     0.058 A 
ATOM     25  C   UNL d   1       9.554   8.282  -6.545  0.00  0.00     0.011 A 
ATOM     26 CL   UNL d   1      11.137   9.933  -5.094  0.00  0.00    -0.082 Cl
ATOM     27  C   UNL d   1       9.209   7.561  -7.698  0.00  0.00     0.002 A 
ENDBRANCH   5  21
TORSDOF 5
