REMARK  4 active torsions:
REMARK  status: ('A' for Active; 'I' for Inactive)
REMARK    1  A    between atoms: C_11  and  S_12 
REMARK    2  A    between atoms: S_12  and  N_15 
REMARK    3  A    between atoms: N_15  and  C_16 
REMARK    4  A    between atoms: C_23  and  N_24 
ROOT
ATOM      1  C   UNL d   1       8.654   1.775 -16.220  0.00  0.00     0.094 C 
ATOM      2  C   UNL d   1       8.373   0.390 -16.260  0.00  0.00     0.021 C 
ATOM      3  C   UNL d   1       7.391  -0.097 -15.364  0.00  0.00     0.021 C 
ATOM      4  C   UNL d   1       6.796   0.691 -14.390  0.00  0.00     0.083 A 
ATOM      5  N   UNL d   1       5.995   0.084 -13.511  0.00  0.00    -0.244 NA
ATOM      6  C   UNL d   1       5.369   0.838 -12.620  0.00  0.00     0.100 A 
ATOM      7  C   UNL d   1       5.469   2.235 -12.551  0.00  0.00     0.038 A 
ATOM      8  C   UNL d   1       6.385   2.888 -13.414  0.00  0.00     0.059 A 
ATOM      9  C   UNL d   1       7.056   2.080 -14.376  0.00  0.00     0.035 A 
ATOM     10  C   UNL d   1       7.982   2.583 -15.298  0.00  0.00     0.023 C 
ENDROOT
BRANCH   1  11
ATOM     11  N   UNL d   1       9.574   2.357 -17.103  0.00  0.00    -0.158 NA
BRANCH  11  12
ATOM     12  S   UNL d   1      10.014   4.023 -17.366  0.00  0.00     0.285 S 
ATOM     13  O   UNL d   1      10.007   4.723 -16.078  0.00  0.00    -0.198 OA
ATOM     14  O   UNL d   1       9.226   4.501 -18.516  0.00  0.00    -0.198 OA
BRANCH  12  15
ATOM     15  C   UNL d   1      11.694   3.919 -17.895  0.00  0.00     0.108 A 
ATOM     16  C   UNL d   1      12.335   2.867 -18.517  0.00  0.00     0.020 A 
ATOM     17  C   UNL d   1      11.786   1.537 -18.925  0.00  0.00     0.039 C 
ATOM     18  S   UNL d   1      14.013   3.196 -18.835  0.00  0.00    -0.090 SA
ATOM     19  C   UNL d   1      13.894   4.787 -18.093  0.00  0.00     0.030 A 
ATOM     20  C   UNL d   1      12.564   5.050 -17.631  0.00  0.00     0.019 A 
ATOM     21  C   UNL d   1      14.926   5.731 -17.953  0.00  0.00     0.007 A 
ATOM     22  C   UNL d   1      12.349   6.314 -17.018  0.00  0.00     0.013 A 
ATOM     23  C   UNL d   1      13.382   7.249 -16.869  0.00  0.00     0.058 A 
ATOM     24  C   UNL d   1      14.667   6.968 -17.348  0.00  0.00     0.012 A 
ATOM     25 CL   UNL d   1      13.068   8.742 -16.078  0.00  0.00    -0.082 Cl
ENDBRANCH  12  15
ENDBRANCH  11  12
ENDBRANCH   1  11
BRANCH   8  26
ATOM     26  N   UNL d   1       6.660   4.255 -13.214  0.00  0.00    -0.344 N 
ATOM     27  C   UNL d   1       7.990   4.873 -13.358  0.00  0.00     0.140 C 
ATOM     28  C   UNL d   1       8.336   5.795 -12.203  0.00  0.00     0.314 C 
ATOM     29  N   UNL d   1       7.278   6.783 -12.072  0.00  0.00     0.343 N 
ATOM     30  C   UNL d   1       6.034   6.113 -11.754  0.00  0.00     0.314 C 
ATOM     31  C   UNL d   1       5.571   5.140 -12.839  0.00  0.00     0.140 C 
ENDBRANCH   8  26
TORSDOF 4
