REMARK  3 active torsions:
REMARK  status: ('A' for Active; 'I' for Inactive)
REMARK    1  A    between atoms: N_2  and  C_4 
REMARK    2  A    between atoms: C_6  and  N_7 
REMARK    3  A    between atoms: C_11  and  N_12 
ROOT
ATOM      1  C   UNL d   1      10.834   4.394 -14.867  0.00  0.00     0.758 A 
ATOM      2  N   UNL d   1      10.269   3.263 -15.302  0.00  0.00     0.131 NA
ATOM      3  C   UNL d   1       9.166   2.943 -14.627  0.00  0.00     0.758 A 
ATOM      4  N   UNL d   1       8.621   3.622 -13.616  0.00  0.00     0.131 NA
ATOM      5  C   UNL d   1       9.309   4.717 -13.277  0.00  0.00     0.758 A 
ATOM      6  N   UNL d   1      10.425   5.171 -13.860  0.00  0.00     0.131 NA
ENDROOT
BRANCH   1   7
ATOM      7  N   UNL d   1      11.963   4.819 -15.554  0.00  0.00    -0.178 N 
ATOM      8  C   UNL d   1      12.261   6.246 -15.715  0.00  0.00     0.144 C 
ATOM      9  C   UNL d   1      12.890   3.870 -16.153  0.00  0.00     0.144 C 
ENDBRANCH   1   7
BRANCH   5  10
ATOM     10  N   UNL d   1       8.805   5.471 -12.222  0.00  0.00    -0.178 N 
ATOM     11  C   UNL d   1       9.153   6.889 -12.040  0.00  0.00     0.144 C 
ATOM     12  C   UNL d   1       7.881   4.918 -11.230  0.00  0.00     0.144 C 
ENDBRANCH   5  10
BRANCH   3  13
ATOM     13  N   UNL d   1       8.530   1.758 -14.998  0.00  0.00    -0.178 N 
ATOM     14  C   UNL d   1       9.279   0.605 -15.495  0.00  0.00     0.144 C 
ATOM     15  C   UNL d   1       7.076   1.609 -14.879  0.00  0.00     0.144 C 
ENDBRANCH   3  13
TORSDOF 3
