REMARK  6 active torsions:
REMARK  status: ('A' for Active; 'I' for Inactive)
REMARK    1  A    between atoms: C_6  and  N_7 
REMARK    2  A    between atoms: N_10  and  C_11 
REMARK    3  A    between atoms: C_11  and  C_12 
REMARK    4  A    between atoms: C_12  and  C_13 
REMARK    5  A    between atoms: C_17  and  N_18 
REMARK    6  A    between atoms: N_18  and  S_19 
ROOT
ATOM      1  N   UNL d   1       6.851   3.205 -13.720  0.00  0.00    -0.344 N 
ATOM      2  C   UNL d   1       5.931   4.116 -13.058  0.00  0.00     0.137 C 
ATOM      3  C   UNL d   1       6.494   4.522 -11.683  0.00  0.00     0.274 C 
ATOM      4  N   UNL d   1       7.857   5.066 -11.808  0.00  0.00     0.141 N 
ATOM      5  C   UNL d   1       8.723   4.044 -12.398  0.00  0.00     0.274 C 
ATOM      6  C   UNL d   1       8.229   3.660 -13.754  0.00  0.00     0.137 C 
ENDROOT
BRANCH   4   7
ATOM      7  C   UNL d   1       8.310   5.475 -10.480  0.00  0.00     0.255 C 
BRANCH   7   8
ATOM      8  C   UNL d   1       9.824   5.674 -10.428  0.00  0.00     0.062 C 
BRANCH   8   9
ATOM      9  C   UNL d   1      10.234   6.847  -9.613  0.00  0.00    -0.019 C 
ATOM     10  C   UNL d   1      10.283   6.772  -8.202  0.00  0.00     0.016 C 
ATOM     11  C   UNL d   1      10.655   7.928  -7.470  0.00  0.00     0.093 C 
ATOM     12  C   UNL d   1      10.929   9.108  -8.176  0.00  0.00     0.020 C 
ATOM     13  C   UNL d   1      10.995   9.158  -9.547  0.00  0.00     0.001 C 
ATOM     14  C   UNL d   1      10.612   8.035 -10.291  0.00  0.00    -0.004 C 
BRANCH  11  15
ATOM     15  N   UNL d   1      10.657   7.847  -6.066  0.00  0.00    -0.162 NA
BRANCH  15  16
ATOM     16  S   UNL d   1      11.607   8.747  -4.893  0.00  0.00     0.266 S 
ATOM     17  C   UNL d   1      12.733   9.842  -5.862  0.00  0.00     0.165 C 
ATOM     18  O   UNL d   1      10.670   9.640  -4.189  0.00  0.00    -0.203 OA
ATOM     19  O   UNL d   1      12.381   7.756  -4.133  0.00  0.00    -0.203 OA
ENDBRANCH  15  16
ENDBRANCH  11  15
ENDBRANCH   8   9
ENDBRANCH   7   8
ENDBRANCH   4   7
BRANCH   1  20
ATOM     20  C   UNL d   1       6.464   1.957 -14.248  0.00  0.00     0.058 A 
ATOM     21  C   UNL d   1       6.987   1.447 -15.479  0.00  0.00     0.033 A 
ATOM     22  C   UNL d   1       7.902   2.166 -16.291  0.00  0.00     0.004 A 
ATOM     23  C   UNL d   1       6.555   0.190 -15.978  0.00  0.00     0.082 A 
ATOM     24  C   UNL d   1       8.405   1.629 -17.472  0.00  0.00     0.015 A 
ATOM     25  C   UNL d   1       7.932   0.373 -17.857  0.00  0.00     0.059 A 
ATOM     26  C   UNL d   1       8.433  -0.251 -19.130  0.00  0.00     0.052 C 
ATOM     27  N   UNL d   1       7.018  -0.320 -17.150  0.00  0.00    -0.250 NA
ATOM     28  C   UNL d   1       5.600  -0.541 -15.246  0.00  0.00     0.019 A 
ATOM     29  C   UNL d   1       5.072  -0.041 -14.043  0.00  0.00     0.003 A 
ATOM     30  C   UNL d   1       5.507   1.192 -13.545  0.00  0.00     0.017 A 
ENDBRANCH   1  20
TORSDOF 6
