REMARK  6 active torsions:
REMARK  status: ('A' for Active; 'I' for Inactive)
REMARK       I    between atoms: C_2  and  N_3 
REMARK    1  A    between atoms: C_2  and  C_27 
REMARK    2  A    between atoms: N_3  and  C_4 
REMARK    3  A    between atoms: C_7  and  C_8 
REMARK    4  A    between atoms: C_8  and  C_9 
REMARK    5  A    between atoms: C_9  and  N_10 
REMARK    6  A    between atoms: C_13  and  C_14 
ROOT
ATOM      1  C   UNL d   1       9.387   5.862 -11.104  0.00  0.00     0.250 C 
ENDROOT
BRANCH   1   2
ATOM      2  C   UNL d   1       7.915   5.478 -11.293  0.00  0.00     0.035 C 
BRANCH   2   3
ATOM      3  C   UNL d   1       7.622   4.767 -12.635  0.00  0.00     0.002 C 
ATOM      4  C   UNL d   1       8.792   3.890 -13.146  0.00  0.00     0.002 C 
ATOM      5  C   UNL d   1       8.470   3.174 -14.457  0.00  0.00     0.024 C 
ATOM      6  C   UNL d   1       7.206   2.319 -14.329  0.00  0.00     0.106 C 
ATOM      7  C   UNL d   1       6.011   3.159 -13.802  0.00  0.00     0.024 C 
ATOM      8  C   UNL d   1       6.334   3.917 -12.503  0.00  0.00     0.002 C 
BRANCH   6   9
ATOM      9  N   UNL d   1       6.913   1.704 -15.619  0.00  0.00    -0.240 NA
ATOM     10  C   UNL d   1       6.225   0.572 -15.788  0.00  0.00     0.256 C 
ATOM     11  O   UNL d   1       5.726  -0.040 -14.844  0.00  0.00    -0.270 OA
BRANCH  10  12
ATOM     12  C   UNL d   1       6.055   0.162 -17.211  0.00  0.00     0.147 A 
ATOM     13  C   UNL d   1       5.857  -1.307 -17.555  0.00  0.00     0.273 A 
ATOM     14  C   UNL d   1       4.697  -0.357 -17.651  0.00  0.00     0.082 A 
ATOM     15  F   UNL d   1       6.447  -1.756 -18.723  0.00  0.00    -0.204 F 
ATOM     16  F   UNL d   1       5.801  -2.248 -16.544  0.00  0.00    -0.204 F 
ENDBRANCH  10  12
ENDBRANCH   6   9
ENDBRANCH   2   3
ENDBRANCH   1   2
BRANCH   1  17
ATOM     17  N   UNL d   1       9.625   6.630  -9.888  0.00  0.00     0.137 N 
ATOM     18  C   UNL d   1       9.528   5.782  -8.699  0.00  0.00     0.251 C 
ATOM     19  C   UNL d   1       9.698   6.637  -7.436  0.00  0.00     0.040 C 
ATOM     20  C   UNL d   1      11.037   7.381  -7.435  0.00  0.00     0.028 C 
ATOM     21  C   UNL d   1      11.207   8.133  -8.766  0.00  0.00     0.040 C 
ATOM     22  C   UNL d   1      10.955   7.224  -9.962  0.00  0.00     0.251 C 
BRANCH  20  23
ATOM     23  C   UNL d   1      11.130   8.304  -6.246  0.00  0.00     0.004 A 
ATOM     24  C   UNL d   1      11.501   7.967  -4.905  0.00  0.00     0.021 A 
ATOM     25  C   UNL d   1      11.500   9.187  -4.183  0.00  0.00     0.100 A 
ATOM     26  C   UNL d   1      11.875   6.804  -4.199  0.00  0.00     0.002 A 
ATOM     27  O   UNL d   1      11.070  10.202  -5.002  0.00  0.00    -0.305 OA
ATOM     28  C   UNL d   1      11.869   9.286  -2.838  0.00  0.00     0.025 A 
ATOM     29  C   UNL d   1      10.887   9.655  -6.231  0.00  0.00     0.118 A 
ATOM     30  C   UNL d   1      12.246   8.111  -2.155  0.00  0.00     0.002 A 
ATOM     31  C   UNL d   1      12.251   6.871  -2.837  0.00  0.00     0.000 A 
ENDBRANCH  20  23
ENDBRANCH   1  17
TORSDOF 6
