REMARK  1 active torsions:
REMARK  status: ('A' for Active; 'I' for Inactive)
REMARK    1  A    between atoms: N_2  and  C_3 
ROOT
ATOM      1  C   UNL d   1      11.613   7.281  -4.414  0.00  0.00     0.283 C 
ATOM      2  C   UNL d   1      10.482   6.490  -5.099  0.00  0.00     0.066 C 
ATOM      3  C   UNL d   1      10.300   6.706  -6.609  0.00  0.00    -0.003 A 
ATOM      4  C   UNL d   1       9.768   5.926  -7.670  0.00  0.00    -0.003 A 
ATOM      5  C   UNL d   1       9.665   6.436  -8.974  0.00  0.00     0.001 A 
ATOM      6  C   UNL d   1      10.100   7.733  -9.226  0.00  0.00     0.021 A 
ATOM      7  C   UNL d   1      10.640   8.463  -8.200  0.00  0.00     0.101 A 
ATOM      8  N   UNL d   1      11.162   9.672  -8.249  0.00  0.00    -0.203 NA
ATOM      9  C   UNL d   1      11.442   9.929  -6.953  0.00  0.00     0.282 A 
ATOM     10  O   UNL d   1      11.856  11.082  -6.401  0.00  0.00    -0.149 OA
ATOM     11  N   UNL d   1      11.251   8.916  -6.136  0.00  0.00    -0.288 N 
ATOM     12  C   UNL d   1      10.714   7.986  -6.929  0.00  0.00     0.077 A 
ATOM     13  C   UNL d   1      11.476   8.754  -4.717  0.00  0.00     0.146 C 
ENDROOT
BRANCH   1  14
ATOM     14  N   UNL d   1      11.595   6.999  -2.993  0.00  0.00     0.342 N 
ATOM     15  C   UNL d   1      12.855   7.370  -2.405  0.00  0.00     0.328 C 
ENDBRANCH   1  14
TORSDOF 1
