REMARK  4 active torsions:
REMARK  status: ('A' for Active; 'I' for Inactive)
REMARK    1  A    between atoms: C_5  and  N_6 
REMARK    2  A    between atoms: C_7  and  N_8 
REMARK    3  A    between atoms: N_8  and  C_10 
REMARK    4  A    between atoms: N_11  and  C_12 
ROOT
ATOM      1  N   UNL d   1       8.462   5.165 -11.478  0.00  0.00    -0.291 N 
ATOM      2  C   UNL d   1       7.026   4.910 -11.629  0.00  0.00     0.134 C 
ENDROOT
BRANCH   1   3
ATOM      3  C   UNL d   1       8.795   5.811 -10.287  0.00  0.00     0.180 C 
ATOM      4  N   UNL d   1       9.931   6.397 -10.058  0.00  0.00    -0.226 NA
BRANCH   4   5
ATOM      5  C   UNL d   1      10.216   7.061  -8.846  0.00  0.00     0.079 A 
ATOM      6  C   UNL d   1       9.464   6.903  -7.650  0.00  0.00     0.018 A 
ATOM      7  C   UNL d   1       9.842   7.569  -6.467  0.00  0.00    -0.003 A 
ATOM      8  C   UNL d   1      10.975   8.404  -6.439  0.00  0.00    -0.022 A 
ATOM      9  C   UNL d   1      11.387   9.124  -5.169  0.00  0.00     0.031 C 
ATOM     10  C   UNL d   1      11.731   8.562  -7.613  0.00  0.00    -0.007 A 
ATOM     11  C   UNL d   1      11.357   7.907  -8.803  0.00  0.00    -0.004 A 
ATOM     12  C   UNL d   1      12.214   8.124 -10.033  0.00  0.00     0.033 C 
ENDBRANCH   4   5
ENDBRANCH   1   3
BRANCH   1  13
ATOM     13  C   UNL d   1       9.308   4.759 -12.508  0.00  0.00     0.180 C 
ATOM     14  N   UNL d   1       8.972   3.939 -13.447  0.00  0.00    -0.226 NA
BRANCH  14  15
ATOM     15  C   UNL d   1       9.873   3.526 -14.443  0.00  0.00     0.079 A 
ATOM     16  C   UNL d   1       9.606   2.296 -15.098  0.00  0.00    -0.004 A 
ATOM     17  C   UNL d   1      10.443   1.845 -16.140  0.00  0.00    -0.007 A 
ATOM     18  C   UNL d   1       8.420   1.438 -14.691  0.00  0.00     0.033 C 
ATOM     19  C   UNL d   1      11.545   2.618 -16.553  0.00  0.00    -0.022 A 
ATOM     20  C   UNL d   1      11.817   3.845 -15.916  0.00  0.00    -0.003 A 
ATOM     21  C   UNL d   1      12.433   2.138 -17.682  0.00  0.00     0.031 C 
ATOM     22  C   UNL d   1      10.980   4.300 -14.879  0.00  0.00     0.018 A 
ENDBRANCH  14  15
ENDBRANCH   1  13
TORSDOF 4
