REMARK  6 active torsions:
REMARK  status: ('A' for Active; 'I' for Inactive)
REMARK    1  A    between atoms: C_3  and  C_4 
REMARK    2  A    between atoms: C_4  and  C_5 
REMARK    3  A    between atoms: C_5  and  C_6 
REMARK    4  A    between atoms: C_6  and  C_7 
REMARK    5  A    between atoms: C_7  and  N_8 
REMARK    6  A    between atoms: N_11  and  C_12 
ROOT
ATOM      1  N   UNL d   1       8.002   4.977 -11.754  0.00  0.00     0.141 N 
ATOM      2  C   UNL d   1       6.697   4.294 -11.778  0.00  0.00     0.274 C 
ATOM      3  C   UNL d   1       6.208   4.097 -13.219  0.00  0.00     0.138 C 
ATOM      4  N   UNL d   1       7.223   3.407 -14.013  0.00  0.00    -0.330 N 
ATOM      5  C   UNL d   1       8.555   3.990 -13.956  0.00  0.00     0.138 C 
ATOM      6  C   UNL d   1       8.982   4.171 -12.498  0.00  0.00     0.274 C 
ENDROOT
BRANCH   1   7
ATOM      7  C   UNL d   1       8.410   5.167 -10.367  0.00  0.00     0.250 C 
BRANCH   7   8
ATOM      8  C   UNL d   1       9.547   6.193 -10.227  0.00  0.00     0.036 C 
BRANCH   8   9
ATOM      9  C   UNL d   1      10.279   6.096  -8.887  0.00  0.00     0.010 C 
BRANCH   9  10
ATOM     10  C   UNL d   1       9.431   6.492  -7.670  0.00  0.00     0.066 C 
BRANCH  10  11
ATOM     11  C   UNL d   1      10.233   7.218  -6.584  0.00  0.00     0.145 A 
ATOM     12  N   UNL d   1      10.439   8.592  -6.780  0.00  0.00    -0.162 N 
ATOM     13  N   UNL d   1       9.966   9.181  -7.942  0.00  0.00    -0.037 N 
ATOM     14  C   UNL d   1      11.106   9.366  -5.884  0.00  0.00     0.280 A 
ATOM     15  C   UNL d   1      11.600   8.659  -4.690  0.00  0.00     0.049 A 
ATOM     16  O   UNL d   1      11.266  10.575  -6.066  0.00  0.00    -0.265 OA
ATOM     17  C   UNL d   1      11.400   7.321  -4.576  0.00  0.00     0.061 A 
ATOM     18  C   UNL d   1      12.303   9.470  -3.608  0.00  0.00     0.033 C 
ATOM     19  N   UNL d   1      10.714   6.610  -5.553  0.00  0.00    -0.235 NA
ATOM     20  C   UNL d   1      11.833   6.524  -3.358  0.00  0.00     0.046 C 
ATOM     21  C   UNL d   1      12.838   7.270  -2.504  0.00  0.00     0.007 C 
ATOM     22  C   UNL d   1      12.429   8.715  -2.269  0.00  0.00     0.005 C 
ENDBRANCH  10  11
ENDBRANCH   9  10
ENDBRANCH   8   9
ENDBRANCH   7   8
ENDBRANCH   1   7
BRANCH   4  23
ATOM     23  C   UNL d   1       6.965   2.219 -14.733  0.00  0.00     0.140 A 
ATOM     24  N   UNL d   1       5.942   1.444 -14.306  0.00  0.00    -0.229 NA
ATOM     25  C   UNL d   1       5.585   0.359 -15.024  0.00  0.00     0.083 A 
ATOM     26  C   UNL d   1       6.292  -0.030 -16.193  0.00  0.00     0.018 A 
ATOM     27  C   UNL d   1       4.467  -0.412 -14.636  0.00  0.00     0.019 A 
ATOM     28  C   UNL d   1       7.386   0.743 -16.615  0.00  0.00     0.005 A 
ATOM     29  C   UNL d   1       5.921  -1.179 -16.917  0.00  0.00     0.002 A 
ATOM     30  C   UNL d   1       7.720   1.894 -15.883  0.00  0.00     0.037 A 
ATOM     31  C   UNL d   1       4.832  -1.957 -16.485  0.00  0.00     0.000 A 
ATOM     32  C   UNL d   1       4.087  -1.548 -15.364  0.00  0.00     0.002 A 
ENDBRANCH   4  23
TORSDOF 6
