REMARK  6 active torsions:
REMARK  status: ('A' for Active; 'I' for Inactive)
REMARK    1  A    between atoms: C_8  and  N_9 
REMARK    2  A    between atoms: N_12  and  C_13 
REMARK    3  A    between atoms: C_13  and  C_14 
REMARK    4  A    between atoms: C_14  and  C_15 
REMARK    5  A    between atoms: C_15  and  O_16 
REMARK    6  A    between atoms: O_16  and  C_17 
ROOT
ATOM      1  N   UNL d   1       8.457   2.459 -17.726  0.00  0.00    -0.191 NA
ATOM      2  C   UNL d   1       7.818   1.879 -16.959  0.00  0.00     0.104 C 
ATOM      3  C   UNL d   1       7.004   1.136 -16.002  0.00  0.00     0.102 A 
ATOM      4  C   UNL d   1       6.471  -0.089 -16.447  0.00  0.00     0.015 A 
ATOM      5  C   UNL d   1       5.632  -0.830 -15.596  0.00  0.00     0.021 A 
ATOM      6  C   UNL d   1       5.353  -0.311 -14.325  0.00  0.00     0.101 A 
ATOM      7  N   UNL d   1       5.859   0.852 -13.878  0.00  0.00    -0.227 NA
ATOM      8  C   UNL d   1       6.663   1.574 -14.688  0.00  0.00     0.150 A 
ENDROOT
BRANCH   8   9
ATOM      9  N   UNL d   1       7.103   2.798 -14.128  0.00  0.00    -0.329 N 
ATOM     10  C   UNL d   1       8.458   3.301 -14.331  0.00  0.00     0.138 C 
ATOM     11  C   UNL d   1       9.087   3.729 -12.998  0.00  0.00     0.274 C 
ATOM     12  N   UNL d   1       8.226   4.720 -12.344  0.00  0.00     0.141 N 
ATOM     13  C   UNL d   1       6.898   4.126 -12.064  0.00  0.00     0.274 C 
ATOM     14  C   UNL d   1       6.179   3.625 -13.354  0.00  0.00     0.138 C 
BRANCH  12  15
ATOM     15  C   UNL d   1       8.126   5.949 -13.141  0.00  0.00     0.253 C 
BRANCH  15  16
ATOM     16  C   UNL d   1       8.031   7.200 -12.286  0.00  0.00     0.068 C 
BRANCH  16  17
ATOM     17  C   UNL d   1       9.390   7.925 -12.286  0.00  0.00     0.151 C 
BRANCH  17  18
ATOM     18  O   UNL d   1       9.593   8.762 -11.155  0.00  0.00    -0.331 OA
BRANCH  18  19
ATOM     19  C   UNL d   1      10.003   8.141  -9.995  0.00  0.00     0.096 A 
ATOM     20  C   UNL d   1      10.604   8.983  -9.036  0.00  0.00     0.043 A 
ATOM     21  C   UNL d   1      10.994   8.461  -7.794  0.00  0.00     0.082 A 
ATOM     22  C   UNL d   1      10.799   7.089  -7.532  0.00  0.00    -0.004 A 
ATOM     23  N   UNL d   1      11.629   9.287  -6.835  0.00  0.00    -0.212 NA
ATOM     24  C   UNL d   1      10.192   6.253  -8.480  0.00  0.00    -0.001 A 
ATOM     25  C   UNL d   1      11.317   6.511  -6.247  0.00  0.00     0.038 C 
ATOM     26  C   UNL d   1       9.819   6.762  -9.723  0.00  0.00     0.024 A 
ATOM     27  C   UNL d   1      11.296   7.548  -5.122  0.00  0.00     0.095 C 
ATOM     28  C   UNL d   1      11.852   8.910  -5.560  0.00  0.00     0.256 C 
ATOM     29  O   UNL d   1      12.462   9.583  -4.762  0.00  0.00    -0.270 OA
ENDBRANCH  18  19
ENDBRANCH  17  18
ENDBRANCH  16  17
ENDBRANCH  15  16
ENDBRANCH  12  15
ENDBRANCH   8   9
TORSDOF 6
