REMARK  10 active torsions:
REMARK  status: ('A' for Active; 'I' for Inactive)
REMARK    1  A    between atoms: C_2  and  C_3 
REMARK    2  A    between atoms: C_3  and  N_4 
REMARK    3  A    between atoms: N_4  and  C_5 
REMARK    4  A    between atoms: N_4  and  C_24 
REMARK    5  A    between atoms: C_5  and  C_6 
REMARK    6  A    between atoms: C_6  and  C_7 
REMARK    7  A    between atoms: C_7  and  C_8 
REMARK    8  A    between atoms: C_8  and  N_9 
REMARK       I    between atoms: N_9  and  C_10 
REMARK    9  A    between atoms: C_10  and  C_12 
REMARK   10  A    between atoms: C_15  and  C_16 
ROOT
ATOM      1  C   UNL d   1       9.584   4.270 -12.443  0.00  0.00     0.029 C 
ENDROOT
BRANCH   1   2
ATOM      2  C   UNL d   1       9.126   3.778 -13.816  0.00  0.00     0.037 C 
BRANCH   2   3
ATOM      3  C   UNL d   1       9.816   2.446 -14.272  0.00  0.00     0.250 C 
BRANCH   3   4
ATOM      4  N   UNL d   1       9.491   2.136 -15.671  0.00  0.00     0.135 N 
BRANCH   4   5
ATOM      5  C   UNL d   1       9.845   3.229 -16.622  0.00  0.00     0.250 C 
BRANCH   5   6
ATOM      6  C   UNL d   1      11.373   3.540 -16.681  0.00  0.00     0.035 C 
ATOM      7  C   UNL d   1      12.017   4.317 -15.495  0.00  0.00     0.002 C 
ENDBRANCH   5   6
ENDBRANCH   4   5
BRANCH   4   8
ATOM      8  C   UNL d   1       8.120   1.610 -15.802  0.00  0.00     0.224 C 
ATOM      9  C   UNL d   1       7.736   1.370 -17.290  0.00  0.00     0.062 C 
ATOM     10  C   UNL d   1       6.499   0.531 -17.390  0.00  0.00     0.016 A 
ATOM     11  C   UNL d   1       5.959  -0.179 -16.359  0.00  0.00     0.078 A 
ATOM     12  C   UNL d   1       5.640   0.256 -18.478  0.00  0.00     0.119 A 
ATOM     13  C   UNL d   1       6.506  -0.236 -14.975  0.00  0.00     0.049 C 
ATOM     14  N   UNL d   1       4.852  -0.809 -16.840  0.00  0.00    -0.153 NA
ATOM     15  C   UNL d   1       7.921   0.313 -14.953  0.00  0.00     0.040 C 
ATOM     16  N   UNL d   1       4.635  -0.556 -18.163  0.00  0.00    -0.147 NA
ENDBRANCH   4   8
ENDBRANCH   3   4
ENDBRANCH   2   3
ENDBRANCH   1   2
BRANCH   1  17
ATOM     17  C   UNL d   1       8.810   5.535 -12.021  0.00  0.00     0.129 C 
BRANCH  17  18
ATOM     18  N   UNL d   1       9.261   5.998 -10.720  0.00  0.00    -0.234 NA
ATOM     19  C   UNL d   1       9.758   7.216 -10.443  0.00  0.00     0.275 C 
ATOM     20  O   UNL d   1       9.867   8.117 -11.274  0.00  0.00    -0.266 OA
BRANCH  19  21
ATOM     21  C   UNL d   1      10.205   7.428  -9.030  0.00  0.00     0.058 A 
ATOM     22  C   UNL d   1       9.598   6.722  -7.967  0.00  0.00     0.005 A 
ATOM     23  C   UNL d   1      10.011   6.940  -6.641  0.00  0.00     0.000 A 
ATOM     24  C   UNL d   1      11.030   7.869  -6.344  0.00  0.00     0.000 A 
ATOM     25  C   UNL d   1      11.624   8.585  -7.405  0.00  0.00     0.000 A 
ATOM     26  C   UNL d   1      11.220   8.364  -8.739  0.00  0.00     0.005 A 
BRANCH  24  27
ATOM     27  C   UNL d   1      11.460   8.084  -4.950  0.00  0.00     0.000 A 
ATOM     28  C   UNL d   1      11.470   9.381  -4.397  0.00  0.00     0.000 A 
ATOM     29  C   UNL d   1      11.865   9.580  -3.059  0.00  0.00     0.000 A 
ATOM     30  C   UNL d   1      12.265   8.492  -2.267  0.00  0.00     0.000 A 
ATOM     31  C   UNL d   1      12.256   7.191  -2.805  0.00  0.00     0.000 A 
ATOM     32  C   UNL d   1      11.852   6.994  -4.142  0.00  0.00     0.000 A 
ENDBRANCH  24  27
ENDBRANCH  19  21
ENDBRANCH  17  18
ENDBRANCH   1  17
TORSDOF 10
