REMARK  6 active torsions:
REMARK  status: ('A' for Active; 'I' for Inactive)
REMARK    1  A    between atoms: O_2  and  C_3 
REMARK    2  A    between atoms: C_9  and  O_10 
REMARK    3  A    between atoms: O_10  and  C_11 
REMARK    4  A    between atoms: C_11  and  C_12 
REMARK    5  A    between atoms: N_14  and  C_15 
REMARK    6  A    between atoms: C_15  and  C_16 
ROOT
ATOM      1  C   UNL d   1       9.911   7.401 -10.413  0.00  0.00     0.179 C 
ATOM      2  C   UNL d   1       9.295   7.834  -9.086  0.00  0.00     0.283 C 
ATOM      3  N   UNL d   1      10.273   8.010  -8.036  0.00  0.00     0.147 N 
ATOM      4  C   UNL d   1      11.293   8.953  -8.476  0.00  0.00     0.283 C 
ATOM      5  C   UNL d   1      11.883   8.499  -9.800  0.00  0.00     0.178 C 
ATOM      6  O   UNL d   1      10.821   8.430 -10.738  0.00  0.00    -0.350 OA
ENDROOT
BRANCH   1   7
ATOM      7  C   UNL d   1       8.895   7.224 -11.551  0.00  0.00     0.180 C 
BRANCH   7   8
ATOM      8  O   UNL d   1       9.429   6.407 -12.590  0.00  0.00    -0.326 OA
BRANCH   8   9
ATOM      9  C   UNL d   1       8.745   5.298 -13.059  0.00  0.00     0.117 A 
ATOM     10  C   UNL d   1       9.470   4.384 -13.860  0.00  0.00     0.116 A 
ATOM     11  C   UNL d   1       8.842   3.211 -14.356  0.00  0.00     0.027 A 
ATOM     12  C   UNL d   1       7.485   2.952 -14.044  0.00  0.00     0.014 A 
ATOM     13  C   UNL d   1       6.768   3.863 -13.245  0.00  0.00     0.060 A 
ATOM     14 CL   UNL d   1       5.124   3.532 -12.839  0.00  0.00    -0.082 Cl
ATOM     15  C   UNL d   1       7.376   5.038 -12.778  0.00  0.00     0.038 A 
BRANCH  10  16
ATOM     16  O   UNL d   1      10.801   4.690 -14.121  0.00  0.00    -0.326 OA
ATOM     17  C   UNL d   1      11.576   3.772 -14.888  0.00  0.00     0.181 C 
ENDBRANCH  10  16
ENDBRANCH   8   9
ENDBRANCH   7   8
ENDBRANCH   1   7
BRANCH   3  18
ATOM     18  C   UNL d   1       9.568   8.516  -6.878  0.00  0.00     0.277 C 
BRANCH  18  19
ATOM     19  C   UNL d   1      10.473   8.510  -5.678  0.00  0.00     0.011 A 
ATOM     20  C   UNL d   1      10.725   9.706  -4.988  0.00  0.00    -0.002 A 
ATOM     21  C   UNL d   1      11.487   9.650  -3.813  0.00  0.00     0.011 A 
ATOM     22  C   UNL d   1      12.002   8.427  -3.359  0.00  0.00     0.058 A 
ATOM     23  C   UNL d   1      11.815   7.240  -4.089  0.00  0.00     0.011 A 
ATOM     24 CL   UNL d   1      12.736   8.400  -1.806  0.00  0.00    -0.082 Cl
ATOM     25  C   UNL d   1      11.021   7.281  -5.252  0.00  0.00    -0.002 A 
ENDBRANCH  18  19
ENDBRANCH   3  18
TORSDOF 6
