REMARK  4 active torsions:
REMARK  status: ('A' for Active; 'I' for Inactive)
REMARK    1  A    between atoms: C_8  and  N_9 
REMARK    2  A    between atoms: N_12  and  C_13 
REMARK    3  A    between atoms: C_13  and  C_14 
REMARK    4  A    between atoms: C_19  and  C_20 
ROOT
ATOM      1  N   UNL d   1       8.803   2.623 -15.328  0.00  0.00    -0.343 N 
ATOM      2  C   UNL d   1       9.773   3.396 -14.558  0.00  0.00     0.137 C 
ATOM      3  C   UNL d   1       9.037   4.492 -13.786  0.00  0.00     0.275 C 
ATOM      4  N   UNL d   1       8.049   3.908 -12.865  0.00  0.00     0.145 N 
ATOM      5  C   UNL d   1       7.042   3.185 -13.643  0.00  0.00     0.275 C 
ATOM      6  C   UNL d   1       7.705   2.089 -14.505  0.00  0.00     0.137 C 
ENDROOT
BRANCH   4   7
ATOM      7  C   UNL d   1       7.340   4.864 -12.009  0.00  0.00     0.277 C 
BRANCH   7   8
ATOM      8  C   UNL d   1       8.225   5.976 -11.492  0.00  0.00     0.011 A 
ATOM      9  C   UNL d   1       8.685   6.032 -10.152  0.00  0.00    -0.000 A 
ATOM     10  C   UNL d   1       9.481   7.135  -9.738  0.00  0.00     0.025 A 
ATOM     11  C   UNL d   1       9.888   8.113 -10.671  0.00  0.00     0.131 A 
ATOM     12  C   UNL d   1       9.375   8.056 -11.985  0.00  0.00     0.027 A 
ATOM     13  O   UNL d   1      10.763   9.105 -10.300  0.00  0.00    -0.190 OA
ATOM     14  C   UNL d   1       8.519   7.014 -12.394  0.00  0.00    -0.000 A 
BRANCH  10  15
ATOM     15  C   UNL d   1       9.877   7.285  -8.341  0.00  0.00     0.002 A 
ATOM     16  C   UNL d   1      10.659   6.285  -7.747  0.00  0.00     0.000 A 
ATOM     17  C   UNL d   1      11.105   6.397  -6.419  0.00  0.00     0.000 A 
ATOM     18  C   UNL d   1      10.681   7.526  -5.663  0.00  0.00     0.000 A 
ATOM     19  C   UNL d   1       9.888   8.525  -6.252  0.00  0.00     0.000 A 
ATOM     20  C   UNL d   1       9.471   8.405  -7.589  0.00  0.00     0.000 A 
ENDBRANCH  10  15
ENDBRANCH   7   8
ENDBRANCH   4   7
BRANCH   1  21
ATOM     21  C   UNL d   1       8.867   2.501 -16.717  0.00  0.00     0.081 A 
ATOM     22  C   UNL d   1       9.456   3.502 -17.536  0.00  0.00     0.019 A 
ATOM     23  C   UNL d   1       9.551   3.338 -18.937  0.00  0.00     0.003 A 
ATOM     24  C   UNL d   1       9.004   2.199 -19.561  0.00  0.00     0.021 A 
ATOM     25  C   UNL d   1       8.378   1.198 -18.791  0.00  0.00     0.110 A 
ATOM     26  N   UNL d   1       7.739   0.026 -19.121  0.00  0.00    -0.196 NA
ATOM     27  C   UNL d   1       8.348   1.363 -17.382  0.00  0.00     0.137 A 
ATOM     28  C   UNL d   1       7.391  -0.480 -17.927  0.00  0.00     0.323 A 
ATOM     29  O   UNL d   1       6.710  -1.619 -17.684  0.00  0.00    -0.141 OA
ATOM     30  O   UNL d   1       7.739   0.254 -16.838  0.00  0.00    -0.266 OA
ENDBRANCH   1  21
TORSDOF 4
