REMARK  5 active torsions:
REMARK  status: ('A' for Active; 'I' for Inactive)
REMARK    1  A    between atoms: C_2  and  C_3 
REMARK    2  A    between atoms: C_3  and  N_4 
REMARK    3  A    between atoms: N_4  and  C_5 
REMARK    4  A    between atoms: C_5  and  C_7 
REMARK       I    between atoms: C_7  and  N_9 
REMARK    5  A    between atoms: N_9  and  C_10 
ROOT
ATOM      1  C   UNL d   1      11.020   8.403  -7.035  0.00  0.00     0.278 C 
ATOM      2  O   UNL d   1      12.070   8.170  -7.635  0.00  0.00    -0.268 OA
ATOM      3  N   UNL d   1       9.835   7.959  -7.460  0.00  0.00    -0.210 NA
ENDROOT
BRANCH   1   4
ATOM      4  C   UNL d   1      11.025   9.207  -5.729  0.00  0.00     0.178 C 
ATOM      5  C   UNL d   1      11.547  10.634  -5.965  0.00  0.00     0.036 C 
BRANCH   4   6
ATOM      6  N   UNL d   1      11.838   8.531  -4.715  0.00  0.00    -0.288 NA
BRANCH   6   7
ATOM      7  C   UNL d   1      11.716   9.074  -3.374  0.00  0.00     0.120 C 
BRANCH   7   8
ATOM      8  C   UNL d   1      12.399   8.143  -2.367  0.00  0.00     0.026 C 
ATOM      9  C   UNL d   1      11.765   6.745  -2.320  0.00  0.00     0.002 C 
ENDBRANCH   7   8
ENDBRANCH   6   7
ENDBRANCH   4   6
ENDBRANCH   1   4
BRANCH   3  10
ATOM     10  C   UNL d   1       9.613   7.069  -8.538  0.00  0.00     0.080 A 
ATOM     11  C   UNL d   1       9.992   7.386  -9.869  0.00  0.00    -0.004 A 
ATOM     12  C   UNL d   1       9.695   6.474 -10.906  0.00  0.00    -0.003 A 
ATOM     13  C   UNL d   1      10.640   8.707 -10.223  0.00  0.00     0.033 C 
ATOM     14  C   UNL d   1       9.056   5.252 -10.625  0.00  0.00    -0.000 A 
ATOM     15  C   UNL d   1       8.668   4.952  -9.305  0.00  0.00     0.002 A 
ATOM     16  C   UNL d   1       8.945   5.863  -8.275  0.00  0.00     0.019 A 
ENDBRANCH   3  10
TORSDOF 5
