REMARK  4 active torsions:
REMARK  status: ('A' for Active; 'I' for Inactive)
REMARK    1  A    between atoms: C_5  and  C_6 
REMARK    2  A    between atoms: C_6  and  N_7 
REMARK    3  A    between atoms: C_10  and  C_11 
REMARK    4  A    between atoms: C_11  and  C_12 
REMARK       I    between atoms: C_12  and  N_14 
ROOT
ATOM      1  N   UNL d   1       8.210   2.749 -15.414  0.00  0.00     0.141 N 
ATOM      2  C   UNL d   1       9.388   3.545 -15.077  0.00  0.00     0.251 C 
ATOM      3  C   UNL d   1       8.965   4.792 -14.285  0.00  0.00     0.036 C 
ATOM      4  C   UNL d   1       8.198   4.433 -13.006  0.00  0.00     0.013 C 
ATOM      5  C   UNL d   1       7.058   3.487 -13.357  0.00  0.00     0.036 C 
ATOM      6  C   UNL d   1       7.545   2.298 -14.191  0.00  0.00     0.251 C 
ENDROOT
BRANCH   4   7
ATOM      7  C   UNL d   1       7.631   5.680 -12.254  0.00  0.00     0.088 C 
BRANCH   7   8
ATOM      8  C   UNL d   1       8.775   6.534 -11.634  0.00  0.00     0.237 C 
ATOM      9  O   UNL d   1       9.409   7.227 -12.426  0.00  0.00    -0.272 OA
ATOM     10  N   UNL d   1       9.053   6.488 -10.295  0.00  0.00    -0.301 N 
ATOM     11  C   UNL d   1       8.322   5.723  -9.300  0.00  0.00     0.093 A 
ATOM     12  C   UNL d   1       9.913   7.374  -9.626  0.00  0.00     0.058 A 
ATOM     13  C   UNL d   1       8.842   6.115  -7.921  0.00  0.00     0.051 A 
ATOM     14  C   UNL d   1       8.441   4.232  -9.490  0.00  0.00     0.025 C 
ATOM     15  C   UNL d   1       9.821   7.197  -8.233  0.00  0.00    -0.004 A 
ATOM     16  C   UNL d   1      10.541   7.956  -7.327  0.00  0.00    -0.003 A 
ATOM     17  C   UNL d   1      11.386   8.967  -7.837  0.00  0.00    -0.000 A 
ATOM     18  C   UNL d   1      11.456   9.202  -9.242  0.00  0.00     0.002 A 
ATOM     19  C   UNL d   1      10.729   8.405 -10.143  0.00  0.00     0.017 A 
ENDBRANCH   7   8
ENDBRANCH   4   7
BRANCH   1  20
ATOM     20  C   UNL d   1       8.598   1.626 -16.264  0.00  0.00     0.277 C 
BRANCH  20  21
ATOM     21  C   UNL d   1       7.424   0.885 -16.894  0.00  0.00     0.011 A 
ATOM     22  C   UNL d   1       7.081   1.114 -18.244  0.00  0.00    -0.003 A 
ATOM     23  C   UNL d   1       5.997   0.426 -18.831  0.00  0.00    -0.004 A 
ATOM     24  C   UNL d   1       5.242  -0.489 -18.068  0.00  0.00    -0.022 A 
ATOM     25  C   UNL d   1       4.082  -1.243 -18.685  0.00  0.00     0.031 C 
ATOM     26  C   UNL d   1       5.579  -0.715 -16.718  0.00  0.00    -0.004 A 
ATOM     27  C   UNL d   1       6.672  -0.047 -16.143  0.00  0.00    -0.003 A 
ENDBRANCH  20  21
ENDBRANCH   1  20
TORSDOF 4
