REMARK  7 active torsions:
REMARK  status: ('A' for Active; 'I' for Inactive)
REMARK    1  A    between atoms: O_2  and  C_3 
REMARK    2  A    between atoms: C_7  and  C_8 
REMARK    3  A    between atoms: C_8  and  N_9 
REMARK    4  A    between atoms: N_9  and  C_10 
REMARK    5  A    between atoms: C_10  and  C_11 
REMARK    6  A    between atoms: C_11  and  N_12 
REMARK    7  A    between atoms: N_15  and  C_16 
ROOT
ATOM      1  N   UNL d   1       9.439   6.681  -9.350  0.00  0.00     0.143 N 
ATOM      2  C   UNL d   1      10.673   7.439  -9.157  0.00  0.00     0.274 C 
ATOM      3  C   UNL d   1      10.537   8.523  -8.081  0.00  0.00     0.137 C 
ATOM      4  N   UNL d   1      10.041   7.917  -6.858  0.00  0.00    -0.344 N 
ATOM      5  C   UNL d   1       8.839   7.106  -6.967  0.00  0.00     0.137 C 
ATOM      6  C   UNL d   1       9.021   6.070  -8.077  0.00  0.00     0.274 C 
ENDROOT
BRANCH   1   7
ATOM      7  C   UNL d   1       9.568   5.697 -10.413  0.00  0.00     0.288 C 
BRANCH   7   8
ATOM      8  C   UNL d   1       8.251   5.043 -10.842  0.00  0.00     0.326 C 
BRANCH   8   9
ATOM      9  N   UNL d   1       7.459   5.960 -11.665  0.00  0.00     0.346 N 
BRANCH   9  10
ATOM     10  C   UNL d   1       6.249   5.362 -12.246  0.00  0.00     0.317 C 
BRANCH  10  11
ATOM     11  C   UNL d   1       6.507   4.081 -13.036  0.00  0.00     0.015 A 
ATOM     12  C   UNL d   1       5.600   3.004 -12.951  0.00  0.00    -0.002 A 
ATOM     13  C   UNL d   1       5.858   1.805 -13.644  0.00  0.00     0.002 A 
ATOM     14  C   UNL d   1       7.018   1.685 -14.441  0.00  0.00     0.024 A 
ATOM     15  C   UNL d   1       7.940   2.745 -14.530  0.00  0.00     0.094 A 
ATOM     16  C   UNL d   1       7.667   3.948 -13.832  0.00  0.00     0.022 A 
BRANCH  15  17
ATOM     17  O   UNL d   1       9.063   2.540 -15.303  0.00  0.00    -0.328 OA
ATOM     18  C   UNL d   1      10.037   3.575 -15.363  0.00  0.00     0.181 C 
ENDBRANCH  15  17
ENDBRANCH  10  11
ENDBRANCH   9  10
ENDBRANCH   8   9
ENDBRANCH   7   8
ENDBRANCH   1   7
BRANCH   4  19
ATOM     19  C   UNL d   1      10.702   8.101  -5.649  0.00  0.00     0.056 A 
ATOM     20  C   UNL d   1      10.848   9.408  -5.143  0.00  0.00     0.018 A 
ATOM     21  C   UNL d   1      11.460   9.599  -3.894  0.00  0.00     0.013 A 
ATOM     22  C   UNL d   1      11.963   8.504  -3.178  0.00  0.00     0.058 A 
ATOM     23  C   UNL d   1      11.861   7.201  -3.694  0.00  0.00     0.013 A 
ATOM     24 CL   UNL d   1      12.642   8.765  -1.638  0.00  0.00    -0.082 Cl
ATOM     25  C   UNL d   1      11.203   6.996  -4.926  0.00  0.00     0.018 A 
ENDBRANCH   4  19
TORSDOF 7
