REMARK  2 active torsions:
REMARK  status: ('A' for Active; 'I' for Inactive)
REMARK    1  A    between atoms: C_2  and  CA_5 
REMARK    2  A    between atoms: CA_5  and  C_7 
ROOT
ATOM      1  CA  UNL d   1       9.651   7.849  -8.171  0.00  0.00     0.397 C 
ATOM      2  N   UNL d   1       9.460   8.935  -9.145  0.00  0.00     0.629 N 
ENDROOT
BRANCH   1   3
ATOM      3  C   UNL d   1      10.941   8.065  -7.295  0.00  0.00     0.094 C 
ATOM      4  C   UNL d   1      12.181   8.389  -8.155  0.00  0.00     0.014 C 
ATOM      5  C   UNL d   1      11.239   6.969  -6.236  0.00  0.00     0.014 C 
ATOM      6  S   UNL d   1      10.690   9.519  -6.236  0.00  0.00    -0.081 SA
ENDBRANCH   1   3
BRANCH   1   7
ATOM      7  C   UNL d   1       9.550   6.484  -8.921  0.00  0.00     0.225 C 
ATOM      8  O   UNL d   1      10.251   5.534  -8.595  0.00  0.00    -0.646 OA
ATOM      9  OXT UNL d   1       8.670   6.391  -9.980  0.00  0.00    -0.646 OA
ENDBRANCH   1   7
TORSDOF 2
