REMARK  4 active torsions:
REMARK  status: ('A' for Active; 'I' for Inactive)
REMARK       I    between atoms: C_2  and  N_4 
REMARK    1  A    between atoms: N_4  and  C_5 
REMARK    2  A    between atoms: C_8  and  C_9 
REMARK    3  A    between atoms: C_9  and  C_10 
REMARK    4  A    between atoms: C_10  and  N_11 
ROOT
ATOM      1  N   UNL d   1       7.423   5.958 -12.325  0.00  0.00     0.138 N 
ATOM      2  C   UNL d   1       8.140   5.147 -13.301  0.00  0.00     0.255 C 
ATOM      3  C   UNL d   1       7.436   3.845 -13.087  0.00  0.00     0.062 C 
ATOM      4  C   UNL d   1       7.671   2.675 -14.044  0.00  0.00     0.003 A 
ATOM      5  C   UNL d   1       8.919   2.444 -14.640  0.00  0.00     0.008 A 
ATOM      6  C   UNL d   1       9.067   1.333 -15.506  0.00  0.00     0.068 A 
ATOM      7  C   UNL d   1      10.343   1.084 -16.135  0.00  0.00     0.101 C 
ATOM      8  N   UNL d   1      11.366   0.885 -16.646  0.00  0.00    -0.191 NA
ATOM      9  C   UNL d   1       7.975   0.481 -15.782  0.00  0.00     0.012 A 
ATOM     10  C   UNL d   1       6.739   0.715 -15.155  0.00  0.00     0.025 A 
ATOM     11  C   UNL d   1       6.597   1.766 -14.241  0.00  0.00     0.090 A 
ATOM     12  O   UNL d   1       5.425   1.831 -13.510  0.00  0.00    -0.331 OA
ATOM     13  C   UNL d   1       5.198   2.970 -12.665  0.00  0.00     0.151 C 
ATOM     14  C   UNL d   1       5.997   4.213 -13.112  0.00  0.00     0.070 C 
ATOM     15  C   UNL d   1       6.034   5.487 -12.259  0.00  0.00     0.253 C 
ENDROOT
BRANCH   1  16
ATOM     16  C   UNL d   1       7.515   7.365 -12.621  0.00  0.00     0.255 C 
BRANCH  16  17
ATOM     17  C   UNL d   1       8.975   7.841 -12.393  0.00  0.00     0.062 C 
BRANCH  17  18
ATOM     18  C   UNL d   1       9.624   7.619 -11.009  0.00  0.00    -0.020 A 
ATOM     19  C   UNL d   1      10.469   8.629 -10.466  0.00  0.00    -0.003 A 
ATOM     20  C   UNL d   1      11.130   8.518  -9.239  0.00  0.00     0.019 A 
ATOM     21  C   UNL d   1      10.933   7.320  -8.539  0.00  0.00     0.084 A 
ATOM     22  C   UNL d   1      10.106   6.276  -9.038  0.00  0.00     0.019 A 
ATOM     23  C   UNL d   1       9.459   6.403 -10.288  0.00  0.00    -0.003 A 
BRANCH  21  24
ATOM     24  N   UNL d   1      11.566   7.182  -7.310  0.00  0.00    -0.212 NA
ATOM     25  C   UNL d   1      10.937   7.084  -6.146  0.00  0.00     0.256 C 
ATOM     26  C   UNL d   1       9.381   7.068  -6.122  0.00  0.00     0.100 C 
ATOM     27  O   UNL d   1      11.540   7.073  -5.083  0.00  0.00    -0.270 OA
ENDBRANCH  21  24
ENDBRANCH  17  18
ENDBRANCH  16  17
ENDBRANCH   1  16
TORSDOF 4
