REMARK  3 active torsions:
REMARK  status: ('A' for Active; 'I' for Inactive)
REMARK    1  A    between atoms: C_5  and  S_6 
REMARK    2  A    between atoms: S_6  and  N_9 
REMARK       I    between atoms: N_9  and  C_10 
REMARK    3  A    between atoms: C_10  and  C_12 
ROOT
ATOM      1  S   UNL d   1      10.564   8.106  -9.255  0.00  0.00     0.288 S 
ATOM      2  O   UNL d   1      10.073   9.441  -9.613  0.00  0.00    -0.198 OA
ATOM      3  O   UNL d   1      11.720   7.553  -9.968  0.00  0.00    -0.198 OA
ENDROOT
BRANCH   1   4
ATOM      4  C   UNL d   1      10.936   8.093  -7.508  0.00  0.00     0.105 A 
ATOM      5  C   UNL d   1      10.809   6.885  -6.794  0.00  0.00     0.014 A 
ATOM      6  C   UNL d   1      11.089   6.839  -5.433  0.00  0.00     0.015 A 
ATOM      7  C   UNL d   1      11.534   7.992  -4.761  0.00  0.00     0.070 A 
ATOM      8  N   UNL d   1      11.901   7.870  -3.424  0.00  0.00    -0.101 NA
ATOM      9  C   UNL d   1      11.643   9.223  -5.458  0.00  0.00     0.015 A 
ATOM     10  C   UNL d   1      11.345   9.276  -6.843  0.00  0.00     0.014 A 
ENDBRANCH   1   4
BRANCH   1  11
ATOM     11  N   UNL d   1       9.213   7.037  -9.430  0.00  0.00    -0.118 NA
ATOM     12  C   UNL d   1       9.270   5.685  -9.757  0.00  0.00     0.289 C 
ATOM     13  O   UNL d   1       9.884   4.850  -9.121  0.00  0.00    -0.265 OA
BRANCH  12  14
ATOM     14  C   UNL d   1       8.601   5.269 -11.017  0.00  0.00     0.059 A 
ATOM     15  C   UNL d   1       9.276   4.388 -11.874  0.00  0.00     0.005 A 
ATOM     16  C   UNL d   1       8.654   3.906 -13.037  0.00  0.00     0.000 A 
ATOM     17  C   UNL d   1       7.324   4.295 -13.326  0.00  0.00     0.000 A 
ATOM     18  C   UNL d   1       6.637   5.179 -12.466  0.00  0.00     0.000 A 
ATOM     19  C   UNL d   1       7.285   5.664 -11.320  0.00  0.00     0.005 A 
ENDBRANCH  12  14
ENDBRANCH   1  11
TORSDOF 3
