REMARK  8 active torsions:
REMARK  status: ('A' for Active; 'I' for Inactive)
REMARK    1  A    between atoms: O_2  and  C_3 
REMARK    2  A    between atoms: C_7  and  N_8 
REMARK    3  A    between atoms: N_11  and  C_12 
REMARK    4  A    between atoms: C_12  and  C_13 
REMARK    5  A    between atoms: C_13  and  C_14 
REMARK    6  A    between atoms: C_14  and  C_15 
REMARK    7  A    between atoms: C_15  and  N_16 
REMARK       I    between atoms: N_16  and  C_17 
REMARK    8  A    between atoms: C_17  and  C_19 
ROOT
ATOM      1  N   UNL d   1       7.288   3.452 -13.808  0.00  0.00    -0.344 N 
ATOM      2  C   UNL d   1       6.339   4.289 -13.079  0.00  0.00     0.137 C 
ATOM      3  C   UNL d   1       6.895   4.663 -11.699  0.00  0.00     0.274 C 
ATOM      4  N   UNL d   1       8.212   5.299 -11.823  0.00  0.00     0.141 N 
ATOM      5  C   UNL d   1       9.141   4.354 -12.456  0.00  0.00     0.274 C 
ATOM      6  C   UNL d   1       8.652   3.972 -13.868  0.00  0.00     0.137 C 
ENDROOT
BRANCH   4   7
ATOM      7  C   UNL d   1       8.673   5.656 -10.482  0.00  0.00     0.251 C 
BRANCH   7   8
ATOM      8  C   UNL d   1       9.772   6.735 -10.513  0.00  0.00     0.037 C 
BRANCH   8   9
ATOM      9  C   UNL d   1      10.373   7.024  -9.129  0.00  0.00     0.029 C 
BRANCH   9  10
ATOM     10  C   UNL d   1       9.384   7.648  -8.125  0.00  0.00     0.129 C 
BRANCH  10  11
ATOM     11  N   UNL d   1       9.948   7.686  -6.783  0.00  0.00    -0.233 NA
ATOM     12  C   UNL d   1      10.820   8.594  -6.317  0.00  0.00     0.293 C 
ATOM     13  O   UNL d   1      11.171   9.589  -6.946  0.00  0.00    -0.264 OA
BRANCH  12  14
ATOM     14  C   UNL d   1      11.316   8.327  -4.919  0.00  0.00     0.139 A 
ATOM     15  N   UNL d   1      11.576   9.401  -4.136  0.00  0.00    -0.239 NA
ATOM     16  C   UNL d   1      12.042   9.188  -2.886  0.00  0.00     0.099 A 
ATOM     17  C   UNL d   1      12.260   7.908  -2.350  0.00  0.00     0.021 A 
ATOM     18  C   UNL d   1      11.990   6.790  -3.157  0.00  0.00     0.003 A 
ATOM     19  C   UNL d   1      11.512   7.001  -4.465  0.00  0.00     0.024 A 
ENDBRANCH  12  14
ENDBRANCH  10  11
ENDBRANCH   9  10
ENDBRANCH   8   9
ENDBRANCH   7   8
ENDBRANCH   4   7
BRANCH   1  20
ATOM     20  C   UNL d   1       6.922   2.195 -14.333  0.00  0.00     0.058 A 
ATOM     21  C   UNL d   1       7.589   1.648 -15.453  0.00  0.00     0.017 A 
ATOM     22  C   UNL d   1       7.186   0.408 -15.989  0.00  0.00     0.004 A 
ATOM     23  C   UNL d   1       6.111  -0.298 -15.419  0.00  0.00     0.024 A 
ATOM     24  C   UNL d   1       5.437   0.234 -14.295  0.00  0.00     0.096 A 
ATOM     25  C   UNL d   1       5.864   1.455 -13.750  0.00  0.00     0.041 A 
BRANCH  24  26
ATOM     26  O   UNL d   1       4.379  -0.371 -13.662  0.00  0.00    -0.328 OA
ATOM     27  C   UNL d   1       3.522  -1.178 -14.450  0.00  0.00     0.181 C 
ENDBRANCH  24  26
ENDBRANCH   1  20
TORSDOF 8
