REMARK  8 active torsions:
REMARK  status: ('A' for Active; 'I' for Inactive)
REMARK    1  A    between atoms: C_3  and  S_4 
REMARK    2  A    between atoms: S_4  and  C_5 
REMARK    3  A    between atoms: C_5  and  C_6 
REMARK    4  A    between atoms: C_6  and  C_7 
REMARK    5  A    between atoms: C_7  and  N_8 
REMARK    6  A    between atoms: N_13  and  C_14 
REMARK    7  A    between atoms: C_17  and  C_18 
REMARK    8  A    between atoms: C_28  and  C_29 
ROOT
ATOM      1  N   UNL d   1      10.844   3.908 -15.491  0.00  0.00     0.139 N 
ATOM      2  C   UNL d   1      12.242   3.698 -15.857  0.00  0.00     0.252 C 
ATOM      3  C   UNL d   1      12.273   3.988 -17.363  0.00  0.00     0.058 C 
ATOM      4  C   UNL d   1      13.411   4.890 -17.849  0.00  0.00     0.028 C 
ATOM      5  C   UNL d   1      12.738   5.785 -18.890  0.00  0.00     0.102 C 
ATOM      6  N   UNL d   1      11.373   5.955 -18.416  0.00  0.00    -0.348 N 
ATOM      7  C   UNL d   1      11.001   4.778 -17.636  0.00  0.00     0.117 C 
ATOM      8  C   UNL d   1      10.465   5.099 -16.242  0.00  0.00     0.272 C 
ENDROOT
BRANCH   1   9
ATOM      9  C   UNL d   1      10.692   4.082 -14.053  0.00  0.00     0.251 C 
BRANCH   9  10
ATOM     10  C   UNL d   1       9.216   3.991 -13.623  0.00  0.00     0.047 C 
BRANCH  10  11
ATOM     11  C   UNL d   1       9.021   4.388 -12.159  0.00  0.00     0.067 C 
BRANCH  11  12
ATOM     12  S   UNL d   1       9.055   6.191 -11.947  0.00  0.00    -0.075 SA
BRANCH  12  13
ATOM     13  C   UNL d   1       9.426   6.273 -10.220  0.00  0.00     0.193 A 
ATOM     14  N   UNL d   1       9.882   7.396  -9.626  0.00  0.00    -0.289 N 
ATOM     15  C   UNL d   1      10.053   8.700 -10.244  0.00  0.00     0.134 C 
ATOM     16  C   UNL d   1      10.127   6.955  -8.361  0.00  0.00     0.167 A 
ATOM     17  N   UNL d   1       9.809   5.667  -8.197  0.00  0.00    -0.128 NA
ATOM     18  N   UNL d   1       9.340   5.226  -9.406  0.00  0.00    -0.122 NA
BRANCH  16  19
ATOM     19  C   UNL d   1      10.695   7.708  -7.215  0.00  0.00     0.042 A 
ATOM     20  C   UNL d   1      10.931   7.079  -6.027  0.00  0.00     0.066 A 
ATOM     21  C   UNL d   1      11.458   7.755  -4.840  0.00  0.00     0.279 A 
ATOM     22  N   UNL d   1      11.666   9.080  -4.986  0.00  0.00    -0.206 NA
ATOM     23  O   UNL d   1      11.719   7.186  -3.781  0.00  0.00    -0.265 OA
ATOM     24  C   UNL d   1      11.481   9.762  -6.190  0.00  0.00     0.102 A 
ATOM     25  C   UNL d   1      11.032   9.126  -7.285  0.00  0.00     0.024 A 
ENDBRANCH  16  19
ENDBRANCH  12  13
ENDBRANCH  11  12
ENDBRANCH  10  11
ENDBRANCH   9  10
ENDBRANCH   1   9
BRANCH   6  26
ATOM     26  C   UNL d   1      10.429   6.631 -19.221  0.00  0.00     0.056 A 
ATOM     27  C   UNL d   1       9.044   6.362 -19.111  0.00  0.00     0.017 A 
ATOM     28  C   UNL d   1       8.105   7.034 -19.915  0.00  0.00     0.005 A 
ATOM     29  C   UNL d   1       8.527   7.998 -20.852  0.00  0.00     0.072 A 
ATOM     30  C   UNL d   1       9.902   8.289 -20.960  0.00  0.00     0.005 A 
ATOM     31  C   UNL d   1      10.842   7.613 -20.157  0.00  0.00     0.017 A 
BRANCH  29  32
ATOM     32  C   UNL d   1       7.517   8.744 -21.713  0.00  0.00     0.419 C 
ATOM     33  F   UNL d   1       7.431  10.008 -21.300  0.00  0.00    -0.166 F 
ATOM     34  F   UNL d   1       7.913   8.732 -22.986  0.00  0.00    -0.166 F 
ATOM     35  F   UNL d   1       6.304   8.193 -21.645  0.00  0.00    -0.166 F 
ENDBRANCH  29  32
ENDBRANCH   6  26
TORSDOF 8
