REMARK  0 active torsions:
REMARK  status: ('A' for Active; 'I' for Inactive)
ROOT
ATOM      1  C   UNL d   1       9.953   8.747 -10.818  0.00  0.00     0.043 C 
ATOM      2  C   UNL d   1      10.199   7.417 -10.116  0.00  0.00     0.279 C 
ATOM      3  N   UNL d   1       9.063   6.564 -10.423  0.00  0.00     0.342 N 
ATOM      4  C   UNL d   1       9.171   5.315  -9.707  0.00  0.00     0.295 C 
ATOM      5  C   UNL d   1       9.001   5.586  -8.207  0.00  0.00     0.064 C 
ATOM      6  C   UNL d   1       9.896   6.701  -7.695  0.00  0.00    -0.020 A 
ATOM      7  C   UNL d   1      10.150   6.854  -6.313  0.00  0.00     0.025 A 
ATOM      8  C   UNL d   1      10.969   7.901  -5.853  0.00  0.00     0.156 A 
ATOM      9  O   UNL d   1      11.273   8.011  -4.528  0.00  0.00    -0.188 OA
ATOM     10  C   UNL d   1      11.511   8.822  -6.770  0.00  0.00     0.156 A 
ATOM     11  O   UNL d   1      12.265   9.864  -6.320  0.00  0.00    -0.188 OA
ATOM     12  C   UNL d   1      11.305   8.644  -8.150  0.00  0.00     0.027 A 
ATOM     13  C   UNL d   1      10.477   7.599  -8.621  0.00  0.00     0.009 A 
ENDROOT
TORSDOF 0
