REMARK  6 active torsions:
REMARK  status: ('A' for Active; 'I' for Inactive)
REMARK    1  A    between atoms: C_2  and  C_3 
REMARK       I    between atoms: C_3  and  N_5 
REMARK    2  A    between atoms: N_5  and  C_6 
REMARK    3  A    between atoms: C_10  and  C_11 
REMARK    4  A    between atoms: N_13  and  S_14 
REMARK    5  A    between atoms: S_14  and  C_17 
REMARK    6  A    between atoms: C_27  and  O_28 
ROOT
ATOM      1  C   UNL d   1       7.341   0.035 -18.021  0.00  0.00     0.039 A 
ATOM      2  C   UNL d   1       8.053   0.134 -16.850  0.00  0.00     0.093 A 
ATOM      3  N   UNL d   1       8.963   1.185 -16.895  0.00  0.00    -0.231 N 
ATOM      4  C   UNL d   1       8.853   1.813 -18.124  0.00  0.00     0.075 A 
ATOM      5  C   UNL d   1       9.546   2.944 -18.640  0.00  0.00     0.020 A 
ATOM      6  C   UNL d   1       9.256   3.373 -19.947  0.00  0.00     0.026 A 
ATOM      7  C   UNL d   1       8.292   2.678 -20.721  0.00  0.00     0.094 A 
ATOM      8  C   UNL d   1       7.617   1.537 -20.205  0.00  0.00     0.026 A 
ATOM      9  C   UNL d   1       7.862   1.095 -18.874  0.00  0.00     0.022 A 
ENDROOT
BRANCH   1  10
ATOM     10  C   UNL d   1       6.295  -0.955 -18.305  0.00  0.00     0.115 A 
ATOM     11  C   UNL d   1       5.191  -0.989 -19.152  0.00  0.00     0.096 A 
ATOM     12  N   UNL d   1       4.521  -2.209 -19.006  0.00  0.00    -0.062 NA
ATOM     13  C   UNL d   1       4.687   0.024 -20.127  0.00  0.00     0.054 C 
ATOM     14  C   UNL d   1       5.246  -2.879 -18.120  0.00  0.00     0.752 A 
ATOM     15  N   UNL d   1       6.282  -2.184 -17.654  0.00  0.00    -0.058 NA
BRANCH  14  16
ATOM     16  N   UNL d   1       4.923  -4.176 -17.648  0.00  0.00    -0.023 NA
ATOM     17  C   UNL d   1       5.781  -5.176 -17.405  0.00  0.00     0.272 C 
ATOM     18  O   UNL d   1       6.993  -5.106 -17.640  0.00  0.00    -0.270 OA
BRANCH  17  19
ATOM     19  C   UNL d   1       5.177  -6.452 -16.821  0.00  0.00     0.091 C 
ATOM     20  C   UNL d   1       6.131  -7.188 -15.868  0.00  0.00     0.010 C 
ENDBRANCH  17  19
ENDBRANCH  14  16
ENDBRANCH   1  10
BRANCH   3  21
ATOM     21  S   UNL d   1      10.005   1.627 -15.584  0.00  0.00     0.271 S 
ATOM     22  O   UNL d   1      10.230   0.379 -14.822  0.00  0.00    -0.200 OA
ATOM     23  O   UNL d   1      11.131   2.358 -16.171  0.00  0.00    -0.200 OA
BRANCH  21  24
ATOM     24  C   UNL d   1       8.996   2.753 -14.626  0.00  0.00     0.106 A 
ATOM     25  C   UNL d   1       7.636   2.454 -14.406  0.00  0.00     0.043 A 
ATOM     26  C   UNL d   1       6.846   3.326 -13.639  0.00  0.00     0.141 A 
ATOM     27  C   UNL d   1       7.409   4.501 -13.104  0.00  0.00     0.030 A 
ATOM     28  F   UNL d   1       5.550   3.026 -13.395  0.00  0.00    -0.204 F 
ATOM     29  C   UNL d   1       8.763   4.808 -13.342  0.00  0.00     0.003 A 
ATOM     30  C   UNL d   1       9.564   3.934 -14.109  0.00  0.00     0.013 A 
ENDBRANCH  21  24
ENDBRANCH   3  21
BRANCH   7  31
ATOM     31  O   UNL d   1       7.964   3.075 -22.008  0.00  0.00    -0.328 OA
ATOM     32  C   UNL d   1       8.601   4.221 -22.529  0.00  0.00     0.181 C 
ENDBRANCH   7  31
TORSDOF 6
