REMARK  8 active torsions:
REMARK  status: ('A' for Active; 'I' for Inactive)
REMARK    1  A    between atoms: C_2  and  C_3 
REMARK    2  A    between atoms: C_7  and  N_8 
REMARK    3  A    between atoms: N_11  and  C_12 
REMARK    4  A    between atoms: C_12  and  C_13 
REMARK    5  A    between atoms: C_13  and  C_14 
REMARK    6  A    between atoms: C_14  and  C_16 
REMARK    7  A    between atoms: C_16  and  N_17 
REMARK       I    between atoms: N_17  and  C_18 
REMARK    8  A    between atoms: C_18  and  C_20 
ROOT
ATOM      1  C   UNL d   1       9.566   6.284 -12.423  0.00  0.00     0.253 C 
ENDROOT
BRANCH   1   2
ATOM      2  N   UNL d   1       9.087   4.930 -12.487  0.00  0.00     0.141 N 
ATOM      3  C   UNL d   1       7.714   4.954 -12.996  0.00  0.00     0.274 C 
ATOM      4  C   UNL d   1       7.156   3.538 -13.029  0.00  0.00     0.137 C 
ATOM      5  N   UNL d   1       8.050   2.749 -13.873  0.00  0.00    -0.344 N 
ATOM      6  C   UNL d   1       9.453   2.755 -13.462  0.00  0.00     0.137 C 
ATOM      7  C   UNL d   1       9.958   4.187 -13.411  0.00  0.00     0.274 C 
BRANCH   5   8
ATOM      8  C   UNL d   1       7.590   1.818 -14.815  0.00  0.00     0.067 A 
ATOM      9  C   UNL d   1       8.085   1.989 -16.123  0.00  0.00     0.018 A 
ATOM     10  C   UNL d   1       7.617   1.183 -17.179  0.00  0.00     0.001 A 
ATOM     11  C   UNL d   1       6.679   0.175 -16.919  0.00  0.00    -0.003 A 
ATOM     12  C   UNL d   1       6.206  -0.050 -15.616  0.00  0.00    -0.010 A 
ATOM     13  C   UNL d   1       6.653   0.771 -14.548  0.00  0.00     0.069 A 
ATOM     14 CL   UNL d   1       6.009   0.428 -12.975  0.00  0.00    -0.081 Cl
BRANCH  12  15
ATOM     15  C   UNL d   1       5.209  -1.182 -15.381  0.00  0.00     0.027 C 
ATOM     16  C   UNL d   1       3.837  -0.878 -15.965  0.00  0.00     0.005 C 
ENDBRANCH  12  15
ENDBRANCH   5   8
ENDBRANCH   1   2
BRANCH   1  17
ATOM     17  C   UNL d   1       9.103   7.052 -11.203  0.00  0.00     0.070 C 
BRANCH  17  18
ATOM     18  C   UNL d   1       9.664   8.480 -11.141  0.00  0.00     0.178 C 
ATOM     19  O   UNL d   1       9.038   9.168 -12.204  0.00  0.00    -0.221 OA
BRANCH  18  20
ATOM     20  C   UNL d   1       9.409   9.193  -9.780  0.00  0.00     0.162 C 
BRANCH  20  21
ATOM     21  N   UNL d   1       9.885   8.418  -8.645  0.00  0.00    -0.230 NA
ATOM     22  C   UNL d   1      11.155   8.444  -8.223  0.00  0.00     0.293 C 
ATOM     23  O   UNL d   1      12.099   8.785  -8.922  0.00  0.00    -0.264 OA
BRANCH  22  24
ATOM     24  C   UNL d   1      11.336   8.142  -6.807  0.00  0.00     0.139 A 
ATOM     25  N   UNL d   1      11.965   9.073  -5.988  0.00  0.00    -0.241 NA
ATOM     26  C   UNL d   1      12.060   8.590  -4.700  0.00  0.00     0.082 A 
ATOM     27  C   UNL d   1      11.455   7.311  -4.729  0.00  0.00     0.019 A 
ATOM     28  C   UNL d   1      12.660   9.095  -3.531  0.00  0.00     0.019 A 
ATOM     29  C   UNL d   1      10.982   7.051  -6.057  0.00  0.00     0.025 A 
ATOM     30  C   UNL d   1      11.463   6.579  -3.526  0.00  0.00     0.002 A 
ATOM     31  C   UNL d   1      12.035   7.085  -2.347  0.00  0.00     0.000 A 
ATOM     32  C   UNL d   1      12.629   8.350  -2.342  0.00  0.00     0.002 A 
ENDBRANCH  22  24
ENDBRANCH  20  21
ENDBRANCH  18  20
ENDBRANCH  17  18
ENDBRANCH   1  17
TORSDOF 8
