REMARK  8 active torsions:
REMARK  status: ('A' for Active; 'I' for Inactive)
REMARK    1  A    between atoms: N_2  and  C_3 
REMARK    2  A    between atoms: C_7  and  O_8 
REMARK    3  A    between atoms: O_8  and  C_9 
REMARK    4  A    between atoms: C_9  and  C_10 
REMARK    5  A    between atoms: C_10  and  N_11 
REMARK    6  A    between atoms: N_11  and  C_12 
REMARK    7  A    between atoms: C_12  and  C_13 
REMARK       I    between atoms: N_17  and  C_18 
REMARK    8  A    between atoms: C_18  and  C_20 
ROOT
ATOM      1  C   UNL d   1       8.611   5.519 -12.112  0.00  0.00     0.172 C 
ATOM      2  F   UNL d   1       8.261   6.692 -12.656  0.00  0.00    -0.238 F 
ATOM      3  C   UNL d   1       9.221   4.644 -13.222  0.00  0.00     0.059 C 
ATOM      4  C   UNL d   1       8.190   4.309 -14.310  0.00  0.00     0.107 C 
ATOM      5  N   UNL d   1       7.032   3.624 -13.688  0.00  0.00    -0.317 N 
ATOM      6  C   UNL d   1       6.547   2.386 -14.001  0.00  0.00     0.257 C 
ATOM      7  O   UNL d   1       5.517   1.925 -13.498  0.00  0.00    -0.267 OA
ATOM      8  C   UNL d   1       6.352   4.454 -12.669  0.00  0.00     0.107 C 
ATOM      9  C   UNL d   1       7.334   4.856 -11.556  0.00  0.00     0.059 C 
ENDROOT
BRANCH   1  10
ATOM     10  C   UNL d   1       9.657   5.818 -11.019  0.00  0.00     0.323 C 
BRANCH  10  11
ATOM     11  N   UNL d   1       9.052   6.390  -9.837  0.00  0.00     0.345 N 
BRANCH  11  12
ATOM     12  C   UNL d   1      10.034   6.918  -8.914  0.00  0.00     0.323 C 
BRANCH  12  13
ATOM     13  C   UNL d   1       9.358   7.062  -7.530  0.00  0.00     0.187 C 
BRANCH  13  14
ATOM     14  O   UNL d   1      10.288   6.693  -6.514  0.00  0.00    -0.329 OA
BRANCH  14  15
ATOM     15  C   UNL d   1      10.811   7.652  -5.686  0.00  0.00     0.096 A 
ATOM     16  C   UNL d   1      10.670   9.024  -5.989  0.00  0.00     0.024 A 
ATOM     17  C   UNL d   1      11.099   9.992  -5.062  0.00  0.00     0.004 A 
ATOM     18  C   UNL d   1      11.714   9.609  -3.854  0.00  0.00     0.019 A 
ATOM     19  C   UNL d   1      11.920   8.242  -3.565  0.00  0.00     0.078 A 
ATOM     20  C   UNL d   1      11.462   7.266  -4.484  0.00  0.00     0.043 A 
BRANCH  19  21
ATOM     21  N   UNL d   1      12.576   7.938  -2.367  0.00  0.00    -0.269 NA
ATOM     22  C   UNL d   1      12.624   6.578  -1.849  0.00  0.00     0.152 C 
ENDBRANCH  19  21
ENDBRANCH  14  15
ENDBRANCH  13  14
ENDBRANCH  12  13
ENDBRANCH  11  12
ENDBRANCH  10  11
ENDBRANCH   1  10
BRANCH   6  23
ATOM     23  C   UNL d   1       7.262   1.537 -15.016  0.00  0.00     0.057 A 
ATOM     24  C   UNL d   1       8.669   1.450 -15.019  0.00  0.00     0.018 A 
ATOM     25  C   UNL d   1       9.330   0.702 -16.006  0.00  0.00     0.085 A 
ATOM     26  C   UNL d   1       8.598  -0.039 -16.963  0.00  0.00     0.151 A 
ATOM     27 CL   UNL d   1      11.041   0.748 -16.080  0.00  0.00    -0.080 Cl
ATOM     28  C   UNL d   1       7.192  -0.014 -16.921  0.00  0.00     0.031 A 
ATOM     29  F   UNL d   1       9.247  -0.769 -17.906  0.00  0.00    -0.203 F 
ATOM     30  C   UNL d   1       6.531   0.761 -15.952  0.00  0.00     0.007 A 
ENDBRANCH   6  23
TORSDOF 8
