REMARK  11 active torsions:
REMARK  status: ('A' for Active; 'I' for Inactive)
REMARK    1  A    between atoms: O_2  and  C_3 
REMARK    2  A    between atoms: C_7  and  C_8 
REMARK    3  A    between atoms: C_8  and  C_9 
REMARK    4  A    between atoms: C_9  and  C_10 
REMARK    5  A    between atoms: C_15  and  O_16 
REMARK    6  A    between atoms: O_16  and  C_17 
REMARK    7  A    between atoms: C_17  and  C_18 
REMARK    8  A    between atoms: C_18  and  C_19 
REMARK    9  A    between atoms: C_19  and  C_20 
REMARK   10  A    between atoms: C_20  and  N_21 
REMARK   11  A    between atoms: N_24  and  C_25 
ROOT
ATOM      1  O   UNL d   1       8.724   0.869 -14.927  0.00  0.00    -0.331 OA
ENDROOT
BRANCH   1   2
ATOM      2  C   UNL d   1       7.583   1.518 -14.418  0.00  0.00     0.090 C 
ATOM      3  C   UNL d   1       6.520   0.722 -13.925  0.00  0.00     0.001 C 
ATOM      4  C   UNL d   1       5.471   1.355 -13.227  0.00  0.00    -0.002 C 
ATOM      5  C   UNL d   1       5.465   2.744 -13.049  0.00  0.00    -0.000 C 
ATOM      6  C   UNL d   1       6.467   3.541 -13.628  0.00  0.00     0.002 C 
ATOM      7  C   UNL d   1       7.491   2.933 -14.342  0.00  0.00     0.024 C 
BRANCH   3   8
ATOM      8  C   UNL d   1       6.472  -0.782 -14.133  0.00  0.00     0.033 C 
BRANCH   8   9
ATOM      9  C   UNL d   1       5.405  -1.257 -15.175  0.00  0.00     0.031 C 
BRANCH   9  10
ATOM     10  C   UNL d   1       5.481  -0.613 -16.565  0.00  0.00    -0.020 A 
ATOM     11  C   UNL d   1       4.428  -0.843 -17.526  0.00  0.00    -0.004 A 
ATOM     12  C   UNL d   1       4.532  -0.234 -18.820  0.00  0.00     0.002 A 
ATOM     13  C   UNL d   1       5.620   0.601 -19.173  0.00  0.00     0.024 A 
ATOM     14  C   UNL d   1       6.675   0.771 -18.218  0.00  0.00     0.094 A 
ATOM     15  C   UNL d   1       6.616   0.154 -16.945  0.00  0.00     0.020 A 
BRANCH  14  16
ATOM     16  O   UNL d   1       7.795   1.526 -18.485  0.00  0.00    -0.328 OA
ATOM     17  C   UNL d   1       8.387   1.393 -19.759  0.00  0.00     0.181 C 
ENDBRANCH  14  16
ENDBRANCH   9  10
ENDBRANCH   8   9
ENDBRANCH   3   8
ENDBRANCH   1   2
BRANCH   1  18
ATOM     18  C   UNL d   1       9.699   1.603 -15.542  0.00  0.00     0.149 C 
BRANCH  18  19
ATOM     19  C   UNL d   1      10.513   2.217 -14.395  0.00  0.00     0.035 C 
BRANCH  19  20
ATOM     20  C   UNL d   1      11.725   2.997 -14.835  0.00  0.00     0.038 C 
BRANCH  20  21
ATOM     21  C   UNL d   1      11.345   4.332 -15.514  0.00  0.00     0.251 C 
BRANCH  21  22
ATOM     22  N   UNL d   1      12.523   5.184 -15.629  0.00  0.00     0.141 N 
ATOM     23  C   UNL d   1      13.359   4.697 -16.733  0.00  0.00     0.275 C 
ATOM     24  C   UNL d   1      14.615   5.564 -16.875  0.00  0.00     0.155 C 
ATOM     25  N   UNL d   1      14.249   6.967 -17.067  0.00  0.00    -0.179 N 
ATOM     26  C   UNL d   1      13.334   7.470 -16.041  0.00  0.00     0.155 C 
ATOM     27  C   UNL d   1      12.105   6.557 -15.926  0.00  0.00     0.275 C 
BRANCH  25  28
ATOM     28  C   UNL d   1      14.722   7.753 -18.116  0.00  0.00     0.727 A 
ATOM     29  N   UNL d   1      15.470   7.158 -19.052  0.00  0.00    -0.060 NA
ATOM     30  C   UNL d   1      15.916   7.921 -20.069  0.00  0.00     0.120 A 
ATOM     31  C   UNL d   1      15.614   9.293 -20.158  0.00  0.00     0.043 A 
ATOM     32  C   UNL d   1      14.824   9.818 -19.121  0.00  0.00     0.120 A 
ATOM     33  N   UNL d   1      14.394   9.046 -18.105  0.00  0.00    -0.060 NA
ENDBRANCH  25  28
ENDBRANCH  21  22
ENDBRANCH  20  21
ENDBRANCH  19  20
ENDBRANCH  18  19
ENDBRANCH   1  18
TORSDOF 11
