REMARK  6 active torsions:
REMARK  status: ('A' for Active; 'I' for Inactive)
REMARK       I    between atoms: C_2  and  N_3 
REMARK    1  A    between atoms: C_2  and  C_27 
REMARK    2  A    between atoms: N_3  and  C_4 
REMARK    3  A    between atoms: C_7  and  C_8 
REMARK    4  A    between atoms: C_8  and  C_9 
REMARK    5  A    between atoms: C_9  and  N_10 
REMARK    6  A    between atoms: N_13  and  C_14 
ROOT
ATOM      1  C   UNL d   1       7.875   4.470 -12.321  0.00  0.00     0.107 C 
ATOM      2  C   UNL d   1       9.007   3.602 -12.920  0.00  0.00     0.024 C 
ATOM      3  C   UNL d   1       8.567   3.006 -14.252  0.00  0.00     0.002 C 
ATOM      4  C   UNL d   1       7.225   2.247 -14.170  0.00  0.00     0.002 C 
ATOM      5  C   UNL d   1       6.113   3.115 -13.533  0.00  0.00     0.002 C 
ATOM      6  C   UNL d   1       6.525   3.746 -12.195  0.00  0.00     0.024 C 
ENDROOT
BRANCH   4   7
ATOM      7  C   UNL d   1       6.835   1.718 -15.540  0.00  0.00     0.035 C 
BRANCH   7   8
ATOM      8  C   UNL d   1       5.911   0.475 -15.473  0.00  0.00     0.250 C 
BRANCH   8   9
ATOM      9  N   UNL d   1       5.718  -0.126 -16.790  0.00  0.00     0.141 N 
ATOM     10  C   UNL d   1       6.994  -0.406 -17.482  0.00  0.00     0.274 C 
ATOM     11  C   UNL d   1       6.756  -1.023 -18.866  0.00  0.00     0.138 C 
ATOM     12  N   UNL d   1       5.910  -2.201 -18.735  0.00  0.00    -0.330 N 
ATOM     13  C   UNL d   1       4.664  -2.007 -18.014  0.00  0.00     0.138 C 
ATOM     14  C   UNL d   1       4.974  -1.392 -16.627  0.00  0.00     0.274 C 
BRANCH  12  15
ATOM     15  C   UNL d   1       6.347  -3.450 -19.223  0.00  0.00     0.138 A 
ATOM     16  C   UNL d   1       6.189  -4.653 -18.505  0.00  0.00     0.036 A 
ATOM     17  C   UNL d   1       6.609  -5.849 -19.055  0.00  0.00     0.095 A 
ATOM     18  C   UNL d   1       5.681  -4.912 -17.118  0.00  0.00     0.064 C 
ATOM     19  C   UNL d   1       7.181  -5.876 -20.341  0.00  0.00     0.045 A 
ATOM     20  O   UNL d   1       6.423  -6.920 -18.228  0.00  0.00    -0.331 OA
ATOM     21  C   UNL d   1       7.317  -4.630 -20.995  0.00  0.00     0.103 A 
ATOM     22  N   UNL d   1       6.937  -3.452 -20.443  0.00  0.00    -0.228 NA
ATOM     23  C   UNL d   1       5.718  -6.446 -17.064  0.00  0.00     0.154 C 
ENDBRANCH  12  15
ENDBRANCH   8   9
ENDBRANCH   7   8
ENDBRANCH   4   7
BRANCH   1  24
ATOM     24  N   UNL d   1       8.280   4.951 -11.011  0.00  0.00    -0.236 NA
ATOM     25  C   UNL d   1       9.039   6.036 -10.820  0.00  0.00     0.275 C 
ATOM     26  O   UNL d   1       9.436   6.718 -11.769  0.00  0.00    -0.266 OA
BRANCH  25  27
ATOM     27  C   UNL d   1       9.331   6.372  -9.376  0.00  0.00     0.060 A 
ATOM     28  C   UNL d   1      10.417   7.164  -8.904  0.00  0.00     0.022 A 
ATOM     29  C   UNL d   1      10.505   7.465  -7.507  0.00  0.00     0.082 A 
ATOM     30  C   UNL d   1      11.413   7.678  -9.759  0.00  0.00     0.002 A 
ATOM     31  N   UNL d   1       9.582   7.083  -6.613  0.00  0.00    -0.244 NA
ATOM     32  C   UNL d   1      11.590   8.204  -7.009  0.00  0.00     0.019 A 
ATOM     33  C   UNL d   1       8.549   6.368  -7.071  0.00  0.00     0.099 A 
ATOM     34  C   UNL d   1       8.411   5.963  -8.398  0.00  0.00     0.025 A 
ATOM     35  C   UNL d   1      12.594   8.664  -7.872  0.00  0.00     0.002 A 
ATOM     36  C   UNL d   1      12.500   8.385  -9.243  0.00  0.00     0.000 A 
ENDBRANCH  25  27
ENDBRANCH   1  24
TORSDOF 6
