REMARK  7 active torsions:
REMARK  status: ('A' for Active; 'I' for Inactive)
REMARK       I    between atoms: C_2  and  N_3 
REMARK    1  A    between atoms: C_2  and  C_23 
REMARK    2  A    between atoms: N_3  and  C_4 
REMARK    3  A    between atoms: C_4  and  C_5 
REMARK    4  A    between atoms: C_5  and  C_6 
REMARK    5  A    between atoms: C_6  and  C_8 
REMARK    6  A    between atoms: C_8  and  N_9 
REMARK    7  A    between atoms: N_12  and  C_13 
ROOT
ATOM      1  C   UNL d   1       9.166   2.679 -14.024  0.00  0.00     0.061 C 
ENDROOT
BRANCH   1   2
ATOM      2  C   UNL d   1       8.784   4.175 -13.936  0.00  0.00     0.132 C 
BRANCH   2   3
ATOM      3  N   UNL d   1       8.948   4.643 -12.563  0.00  0.00    -0.234 NA
ATOM      4  C   UNL d   1       8.716   5.901 -12.160  0.00  0.00     0.275 C 
ATOM      5  O   UNL d   1       8.184   6.758 -12.860  0.00  0.00    -0.266 OA
BRANCH   4   6
ATOM      6  C   UNL d   1       9.241   6.245 -10.805  0.00  0.00     0.057 A 
ATOM      7  C   UNL d   1       9.862   7.498 -10.597  0.00  0.00     0.001 A 
ATOM      8  C   UNL d   1      10.327   7.809  -9.308  0.00  0.00    -0.018 A 
ATOM      9  C   UNL d   1      10.164   6.916  -8.244  0.00  0.00    -0.004 A 
ATOM     10  C   UNL d   1      11.028   9.083  -8.878  0.00  0.00     0.053 A 
ATOM     11  C   UNL d   1       9.536   5.674  -8.437  0.00  0.00    -0.000 A 
ATOM     12  C   UNL d   1      10.732   7.533  -7.049  0.00  0.00    -0.004 A 
ATOM     13  C   UNL d   1       9.075   5.344  -9.726  0.00  0.00     0.005 A 
ATOM     14  C   UNL d   1      11.229   8.791  -7.398  0.00  0.00    -0.018 A 
ATOM     15  C   UNL d   1      10.835   7.054  -5.732  0.00  0.00    -0.000 A 
ATOM     16  C   UNL d   1      11.846   9.621  -6.437  0.00  0.00    -0.004 A 
ATOM     17  C   UNL d   1      11.951   9.150  -5.108  0.00  0.00    -0.000 A 
ATOM     18  C   UNL d   1      11.458   7.871  -4.761  0.00  0.00    -0.000 A 
ENDBRANCH   4   6
ENDBRANCH   2   3
ENDBRANCH   1   2
BRANCH   1  19
ATOM     19  C   UNL d   1      10.008   2.234 -15.244  0.00  0.00     0.188 C 
ATOM     20  O   UNL d   1      10.196   0.834 -15.144  0.00  0.00    -0.221 OA
BRANCH  19  21
ATOM     21  C   UNL d   1      11.423   2.858 -15.288  0.00  0.00     0.283 C 
BRANCH  21  22
ATOM     22  N   UNL d   1      11.477   4.236 -15.780  0.00  0.00     0.144 N 
ATOM     23  C   UNL d   1      11.257   4.310 -17.230  0.00  0.00     0.274 C 
ATOM     24  C   UNL d   1      11.255   5.759 -17.751  0.00  0.00     0.137 C 
ATOM     25  N   UNL d   1      12.483   6.432 -17.333  0.00  0.00    -0.344 N 
ATOM     26  C   UNL d   1      12.791   6.350 -15.911  0.00  0.00     0.137 C 
ATOM     27  C   UNL d   1      12.751   4.875 -15.451  0.00  0.00     0.274 C 
BRANCH  25  28
ATOM     28  C   UNL d   1      13.345   7.026 -18.273  0.00  0.00     0.068 A 
ATOM     29  C   UNL d   1      14.735   6.736 -18.346  0.00  0.00     0.084 A 
ATOM     30  C   UNL d   1      15.545   7.380 -19.307  0.00  0.00     0.070 A 
ATOM     31 CL   UNL d   1      15.497   5.574 -17.310  0.00  0.00    -0.080 Cl
ATOM     32  C   UNL d   1      14.983   8.305 -20.203  0.00  0.00     0.012 A 
ATOM     33 CL   UNL d   1      17.231   7.023 -19.418  0.00  0.00    -0.081 Cl
ATOM     34  C   UNL d   1      13.610   8.589 -20.146  0.00  0.00     0.002 A 
ATOM     35  C   UNL d   1      12.797   7.952 -19.191  0.00  0.00     0.018 A 
ENDBRANCH  25  28
ENDBRANCH  21  22
ENDBRANCH  19  21
ENDBRANCH   1  19
TORSDOF 7
