REMARK  13 active torsions:
REMARK  status: ('A' for Active; 'I' for Inactive)
REMARK    1  A    between atoms: C_2  and  C_3 
REMARK    2  A    between atoms: C_3  and  N_4 
REMARK    3  A    between atoms: N_4  and  C_5 
REMARK    4  A    between atoms: N_4  and  C_24 
REMARK    5  A    between atoms: C_5  and  C_6 
REMARK    6  A    between atoms: C_6  and  C_7 
REMARK    7  A    between atoms: C_7  and  C_8 
REMARK    8  A    between atoms: C_8  and  N_9 
REMARK       I    between atoms: N_9  and  C_10 
REMARK    9  A    between atoms: C_10  and  C_12 
REMARK   10  A    between atoms: C_15  and  C_16 
REMARK   11  A    between atoms: C_24  and  C_25 
REMARK   12  A    between atoms: C_27  and  C_28 
REMARK   13  A    between atoms: C_34  and  O_35 
ROOT
ATOM      1  C   UNL d   1      10.118   4.281 -16.391  0.00  0.00     0.250 C 
ENDROOT
BRANCH   1   2
ATOM      2  N   UNL d   1       9.526   3.954 -17.695  0.00  0.00     0.137 N 
BRANCH   2   3
ATOM      3  C   UNL d   1       9.021   5.138 -18.426  0.00  0.00     0.250 C 
BRANCH   3   4
ATOM      4  C   UNL d   1      10.143   6.069 -18.938  0.00  0.00     0.035 C 
ATOM      5  C   UNL d   1       9.627   7.280 -19.697  0.00  0.00     0.002 C 
ENDBRANCH   3   4
ENDBRANCH   2   3
BRANCH   2   6
ATOM      6  C   UNL d   1      10.544   3.215 -18.447  0.00  0.00     0.251 C 
BRANCH   6   7
ATOM      7  C   UNL d   1      10.138   2.791 -19.867  0.00  0.00     0.038 A 
ATOM      8  C   UNL d   1      11.190   2.284 -20.834  0.00  0.00     0.026 A 
ATOM      9  C   UNL d   1      10.159   1.335 -20.254  0.00  0.00     0.007 A 
BRANCH   8  10
ATOM     10  C   UNL d   1      12.632   2.180 -20.415  0.00  0.00     0.001 A 
ATOM     11  C   UNL d   1      13.381   3.327 -20.077  0.00  0.00     0.090 A 
ATOM     12  C   UNL d   1      14.702   3.160 -19.590  0.00  0.00     0.025 A 
ATOM     13  C   UNL d   1      15.248   1.875 -19.515  0.00  0.00     0.013 A 
ATOM     14  C   UNL d   1      14.510   0.765 -19.909  0.00  0.00     0.058 A 
ATOM     15  C   UNL d   1      13.195   0.900 -20.343  0.00  0.00     0.009 A 
ATOM     16 CL   UNL d   1      15.233  -0.810 -19.864  0.00  0.00    -0.082 Cl
BRANCH  11  17
ATOM     17  O   UNL d   1      12.759   4.570 -20.170  0.00  0.00    -0.328 OA
ATOM     18  C   UNL d   1      13.471   5.711 -19.671  0.00  0.00     0.181 C 
ENDBRANCH  11  17
ENDBRANCH   8  10
ENDBRANCH   6   7
ENDBRANCH   2   6
ENDBRANCH   1   2
BRANCH   1  19
ATOM     19  C   UNL d   1       9.057   4.775 -15.373  0.00  0.00     0.037 C 
BRANCH  19  20
ATOM     20  C   UNL d   1       9.682   5.240 -14.053  0.00  0.00     0.029 C 
BRANCH  20  21
ATOM     21  C   UNL d   1       8.603   5.907 -13.172  0.00  0.00     0.129 C 
BRANCH  21  22
ATOM     22  N   UNL d   1       9.172   6.410 -11.942  0.00  0.00    -0.234 NA
ATOM     23  C   UNL d   1       9.457   5.633 -10.895  0.00  0.00     0.275 C 
ATOM     24  O   UNL d   1       9.338   4.388 -10.923  0.00  0.00    -0.266 OA
BRANCH  23  25
ATOM     25  C   UNL d   1       9.833   6.343  -9.643  0.00  0.00     0.058 A 
ATOM     26  C   UNL d   1       9.458   5.806  -8.401  0.00  0.00     0.005 A 
ATOM     27  C   UNL d   1       9.816   6.453  -7.210  0.00  0.00     0.002 A 
ATOM     28  C   UNL d   1      10.576   7.643  -7.231  0.00  0.00     0.018 A 
ATOM     29  C   UNL d   1      10.953   8.182  -8.480  0.00  0.00     0.002 A 
ATOM     30  C   UNL d   1      10.596   7.540  -9.679  0.00  0.00     0.005 A 
BRANCH  28  31
ATOM     31  C   UNL d   1      10.929   8.312  -5.975  0.00  0.00     0.081 A 
ATOM     32  N   UNL d   1      11.458   7.535  -4.996  0.00  0.00    -0.244 NA
ATOM     33  C   UNL d   1      11.860   8.124  -3.852  0.00  0.00     0.099 A 
ATOM     34  C   UNL d   1      11.685   9.496  -3.600  0.00  0.00     0.021 A 
ATOM     35  C   UNL d   1      11.088  10.279  -4.595  0.00  0.00     0.003 A 
ATOM     36  C   UNL d   1      10.736   9.694  -5.825  0.00  0.00     0.019 A 
ENDBRANCH  28  31
ENDBRANCH  23  25
ENDBRANCH  21  22
ENDBRANCH  20  21
ENDBRANCH  19  20
ENDBRANCH   1  19
TORSDOF 13
