REMARK  5 active torsions:
REMARK  status: ('A' for Active; 'I' for Inactive)
REMARK    1  A    between atoms: C_2  and  N_3 
REMARK    2  A    between atoms: C_7  and  C_8 
REMARK    3  A    between atoms: C_8  and  N_9 
REMARK       I    between atoms: N_9  and  C_10 
REMARK    4  A    between atoms: C_10  and  C_12 
REMARK    5  A    between atoms: C_20  and  O_21 
ROOT
ATOM      1  C   UNL d   1      10.491   3.480 -16.200  0.00  0.00     0.088 A 
ATOM      2  C   UNL d   1      11.395   4.512 -15.879  0.00  0.00     0.037 A 
ATOM      3 BR   UNL d   1      12.598   4.462 -14.410  0.00  0.00    -0.049 Br
ATOM      4  C   UNL d   1      11.445   5.700 -16.624  0.00  0.00    -0.013 A 
ATOM      5  C   UNL d   1      12.353   6.828 -16.177  0.00  0.00     0.032 C 
ATOM      6  C   UNL d   1      10.646   5.827 -17.767  0.00  0.00     0.026 A 
ATOM      7  C   UNL d   1       9.791   4.792 -18.144  0.00  0.00     0.153 A 
ATOM      8  O   UNL d   1       9.052   4.943 -19.286  0.00  0.00    -0.188 OA
ATOM      9  C   UNL d   1       9.700   3.615 -17.378  0.00  0.00     0.124 A 
ENDROOT
BRANCH   1  10
ATOM     10  C   UNL d   1      10.323   2.279 -15.300  0.00  0.00     0.277 C 
ATOM     11  N   UNL d   1      10.014   2.491 -14.020  0.00  0.00    -0.232 NA
ATOM     12  O   UNL d   1      10.478   1.144 -15.777  0.00  0.00    -0.265 OA
BRANCH  11  13
ATOM     13  C   UNL d   1       9.593   3.742 -13.351  0.00  0.00     0.162 C 
BRANCH  13  14
ATOM     14  C   UNL d   1       8.180   4.175 -13.789  0.00  0.00     0.243 C 
ATOM     15  N   UNL d   1       7.130   3.170 -13.638  0.00  0.00     0.137 N 
ATOM     16  C   UNL d   1       5.881   3.928 -13.634  0.00  0.00     0.250 C 
ATOM     17  C   UNL d   1       6.194   5.177 -12.805  0.00  0.00     0.037 C 
ATOM     18  C   UNL d   1       7.706   5.346 -12.934  0.00  0.00     0.037 C 
BRANCH  15  19
ATOM     19  C   UNL d   1       7.130   2.114 -14.659  0.00  0.00     0.250 C 
ATOM     20  C   UNL d   1       6.259   0.924 -14.232  0.00  0.00     0.037 C 
ENDBRANCH  15  19
ENDBRANCH  13  14
ENDBRANCH  11  13
ENDBRANCH   1  10
BRANCH   9  21
ATOM     21  O   UNL d   1       8.825   2.622 -17.730  0.00  0.00    -0.326 OA
ATOM     22  C   UNL d   1       9.274   1.838 -18.828  0.00  0.00     0.181 C 
ENDBRANCH   9  21
TORSDOF 5
