REMARK  7 active torsions:
REMARK  status: ('A' for Active; 'I' for Inactive)
REMARK    1  A    between atoms: N_10  and  C_11 
REMARK    2  A    between atoms: C_11  and  C_12 
REMARK    3  A    between atoms: C_12  and  C_13 
REMARK    4  A    between atoms: C_13  and  C_14 
REMARK    5  A    between atoms: C_14  and  N_15 
REMARK       I    between atoms: N_15  and  C_16 
REMARK    6  A    between atoms: C_16  and  C_18 
REMARK    7  A    between atoms: C_19  and  C_20 
ROOT
ATOM      1  N   UNL d   1      14.619   5.642 -17.939  0.00  0.00    -0.191 NA
ATOM      2  C   UNL d   1      13.743   5.073 -17.428  0.00  0.00     0.101 C 
ATOM      3  C   UNL d   1      12.652   4.353 -16.791  0.00  0.00     0.068 A 
ATOM      4  C   UNL d   1      12.660   2.938 -16.750  0.00  0.00     0.010 A 
ATOM      5  C   UNL d   1      11.674   2.211 -16.058  0.00  0.00    -0.004 A 
ATOM      6  C   UNL d   1      10.617   2.880 -15.434  0.00  0.00    -0.022 A 
ATOM      7  C   UNL d   1      10.576   4.292 -15.496  0.00  0.00     0.008 A 
ATOM      8  C   UNL d   1      11.576   5.024 -16.157  0.00  0.00     0.008 A 
ATOM      9  C   UNL d   1       9.397   5.000 -14.855  0.00  0.00     0.276 C 
ATOM     10  N   UNL d   1       8.670   4.220 -13.872  0.00  0.00     0.142 N 
ATOM     11  C   UNL d   1       8.296   2.937 -14.449  0.00  0.00     0.255 C 
ATOM     12  C   UNL d   1       9.564   2.112 -14.679  0.00  0.00     0.061 C 
ENDROOT
BRANCH  10  13
ATOM     13  C   UNL d   1       7.475   4.963 -13.485  0.00  0.00     0.251 C 
BRANCH  13  14
ATOM     14  C   UNL d   1       6.988   4.563 -12.109  0.00  0.00     0.037 C 
BRANCH  14  15
ATOM     15  C   UNL d   1       7.612   5.375 -10.983  0.00  0.00     0.029 C 
BRANCH  15  16
ATOM     16  C   UNL d   1       9.121   5.626 -11.060  0.00  0.00     0.129 C 
BRANCH  16  17
ATOM     17  N   UNL d   1       9.511   6.510  -9.981  0.00  0.00    -0.234 NA
ATOM     18  C   UNL d   1       9.723   6.073  -8.738  0.00  0.00     0.275 C 
ATOM     19  O   UNL d   1       9.588   4.888  -8.435  0.00  0.00    -0.266 OA
BRANCH  18  20
ATOM     20  C   UNL d   1      10.145   7.162  -7.870  0.00  0.00     0.062 C 
ATOM     21  C   UNL d   1      10.575   6.956  -6.614  0.00  0.00     0.006 C 
BRANCH  21  22
ATOM     22  C   UNL d   1      10.986   8.017  -5.703  0.00  0.00     0.021 A 
ATOM     23  C   UNL d   1      11.523   7.786  -4.397  0.00  0.00     0.019 A 
ATOM     24  C   UNL d   1      11.722   9.069  -3.816  0.00  0.00     0.081 A 
ATOM     25  C   UNL d   1      11.853   6.670  -3.591  0.00  0.00     0.002 C 
ATOM     26  N   UNL d   1      11.350   9.988  -4.767  0.00  0.00    -0.244 NA
ATOM     27  C   UNL d   1      12.178   9.226  -2.517  0.00  0.00     0.019 C 
ATOM     28  C   UNL d   1      10.910   9.370  -5.918  0.00  0.00     0.099 A 
ATOM     29  C   UNL d   1      12.615   8.111  -1.787  0.00  0.00     0.002 C 
ATOM     30  C   UNL d   1      12.396   6.818  -2.303  0.00  0.00     0.000 C 
ENDBRANCH  21  22
ENDBRANCH  18  20
ENDBRANCH  16  17
ENDBRANCH  15  16
ENDBRANCH  14  15
ENDBRANCH  13  14
ENDBRANCH  10  13
TORSDOF 7
