REMARK  4 active torsions:
REMARK  status: ('A' for Active; 'I' for Inactive)
REMARK    1  A    between atoms: C_4  and  C_5 
REMARK    2  A    between atoms: C_5  and  N_6 
REMARK    3  A    between atoms: C_9  and  C_10 
REMARK    4  A    between atoms: C_10  and  C_12 
ROOT
ATOM      1  N   UNL d   1       9.054   4.657 -13.720  0.00  0.00     0.137 N 
ATOM      2  C   UNL d   1       8.945   6.072 -13.327  0.00  0.00     0.251 C 
ATOM      3  C   UNL d   1       8.509   6.326 -11.884  0.00  0.00     0.043 C 
ATOM      4  C   UNL d   1       9.480   5.589 -10.952  0.00  0.00     0.066 C 
ATOM      5  C   UNL d   1       9.565   4.140 -11.436  0.00  0.00     0.043 C 
ATOM      6  C   UNL d   1      10.085   4.061 -12.869  0.00  0.00     0.251 C 
ENDROOT
BRANCH   1   7
ATOM      7  C   UNL d   1       9.412   4.553 -15.145  0.00  0.00     0.251 C 
BRANCH   7   8
ATOM      8  C   UNL d   1       8.955   3.212 -15.776  0.00  0.00     0.047 C 
ATOM      9  C   UNL d   1       9.788   2.001 -15.290  0.00  0.00     0.072 C 
ATOM     10  C   UNL d   1       9.451   0.678 -15.959  0.00  0.00     0.176 C 
ATOM     11  O   UNL d   1       9.637  -0.364 -15.334  0.00  0.00    -0.291 OA
ATOM     12  C   UNL d   1       8.896   0.739 -17.310  0.00  0.00     0.068 A 
ATOM     13  C   UNL d   1       8.654   1.959 -17.980  0.00  0.00     0.065 A 
ATOM     14  C   UNL d   1       8.566  -0.448 -18.015  0.00  0.00     0.105 A 
ATOM     15  C   UNL d   1       8.973   3.302 -17.325  0.00  0.00     0.049 C 
ATOM     16  N   UNL d   1       8.138   1.990 -19.219  0.00  0.00    -0.228 NA
ATOM     17  C   UNL d   1       7.908   0.802 -19.802  0.00  0.00     0.199 A 
ATOM     18  N   UNL d   1       8.098  -0.403 -19.269  0.00  0.00    -0.223 NA
ENDBRANCH   7   8
ENDBRANCH   1   7
BRANCH   4  19
ATOM     19  C   UNL d   1       9.021   5.659  -9.489  0.00  0.00     0.173 C 
ATOM     20  O   UNL d   1       8.328   4.758  -9.018  0.00  0.00    -0.291 OA
BRANCH  19  21
ATOM     21  C   UNL d   1       9.497   6.795  -8.667  0.00  0.00     0.035 A 
ATOM     22  C   UNL d   1      10.263   7.860  -9.199  0.00  0.00     0.005 A 
ATOM     23  C   UNL d   1      10.699   8.901  -8.363  0.00  0.00     0.030 A 
ATOM     24  C   UNL d   1      10.365   8.891  -6.996  0.00  0.00     0.140 A 
ATOM     25  C   UNL d   1       9.605   7.831  -6.470  0.00  0.00     0.030 A 
ATOM     26  F   UNL d   1      10.761   9.901  -6.190  0.00  0.00    -0.204 F 
ATOM     27  C   UNL d   1       9.158   6.793  -7.296  0.00  0.00     0.005 A 
ENDBRANCH  19  21
ENDBRANCH   4  19
TORSDOF 4
