REMARK  6 active torsions:
REMARK  status: ('A' for Active; 'I' for Inactive)
REMARK    1  A    between atoms: N_13  and  C_14 
REMARK    2  A    between atoms: C_14  and  C_15 
REMARK    3  A    between atoms: C_15  and  C_16 
REMARK    4  A    between atoms: C_16  and  C_17 
REMARK    5  A    between atoms: C_17  and  N_18 
REMARK    6  A    between atoms: N_21  and  C_22 
ROOT
ATOM      1  C   UNL d   1       8.673   4.605 -11.310  0.00  0.00     0.037 C 
ENDROOT
BRANCH   1   2
ATOM      2  C   UNL d   1       9.248   3.885 -12.537  0.00  0.00     0.027 C 
BRANCH   2   3
ATOM      3  C   UNL d   1       8.597   4.350 -13.836  0.00  0.00     0.112 C 
BRANCH   3   4
ATOM      4  N   UNL d   1       8.908   3.409 -14.911  0.00  0.00    -0.271 N 
ATOM      5  C   UNL d   1       9.910   3.577 -15.785  0.00  0.00     0.239 C 
ATOM      6  O   UNL d   1      10.654   4.551 -15.894  0.00  0.00    -0.272 OA
ATOM      7  C   UNL d   1      10.051   2.307 -16.608  0.00  0.00     0.091 C 
ATOM      8  C   UNL d   1       8.668   1.699 -16.484  0.00  0.00     0.091 C 
ATOM      9  C   UNL d   1      10.486   2.310 -18.075  0.00  0.00     0.045 C 
ATOM     10  C   UNL d   1       8.751   0.191 -16.742  0.00  0.00     0.045 C 
ATOM     11  C   UNL d   1       8.215   2.277 -15.157  0.00  0.00     0.239 C 
ATOM     12  C   UNL d   1       9.263   0.007 -18.197  0.00  0.00     0.183 C 
ATOM     13  C   UNL d   1      10.552   0.831 -18.548  0.00  0.00     0.183 C 
ATOM     14  O   UNL d   1       9.451  -1.371 -18.471  0.00  0.00    -0.221 OA
ATOM     15  O   UNL d   1      11.694   0.260 -17.934  0.00  0.00    -0.221 OA
ATOM     16  O   UNL d   1       7.296   1.804 -14.486  0.00  0.00    -0.272 OA
ENDBRANCH   3   4
ENDBRANCH   2   3
ENDBRANCH   1   2
BRANCH   1  17
ATOM     17  C   UNL d   1       9.253   6.023 -11.154  0.00  0.00     0.251 C 
BRANCH  17  18
ATOM     18  N   UNL d   1       9.114   6.505  -9.795  0.00  0.00     0.141 N 
ATOM     19  C   UNL d   1      10.036   5.810  -8.898  0.00  0.00     0.274 C 
ATOM     20  C   UNL d   1       9.884   6.321  -7.480  0.00  0.00     0.137 C 
ATOM     21  N   UNL d   1      10.098   7.754  -7.423  0.00  0.00    -0.344 N 
ATOM     22  C   UNL d   1       9.287   8.519  -8.359  0.00  0.00     0.137 C 
ATOM     23  C   UNL d   1       9.463   7.940  -9.777  0.00  0.00     0.274 C 
BRANCH  21  24
ATOM     24  C   UNL d   1      10.974   8.339  -6.495  0.00  0.00     0.057 A 
ATOM     25  C   UNL d   1      11.305   7.765  -5.222  0.00  0.00     0.022 A 
ATOM     26  C   UNL d   1      12.258   8.427  -4.410  0.00  0.00     0.031 A 
ATOM     27  C   UNL d   1      10.815   6.615  -4.518  0.00  0.00     0.009 A 
ATOM     28  C   UNL d   1      12.877   9.585  -4.831  0.00  0.00     0.007 A 
ATOM     29  S   UNL d   1      12.520   7.671  -2.853  0.00  0.00    -0.086 SA
ATOM     30  C   UNL d   1      12.486  10.165  -6.039  0.00  0.00     0.002 A 
ATOM     31  C   UNL d   1      11.579   9.550  -6.880  0.00  0.00     0.017 A 
ATOM     32  C   UNL d   1      11.434   6.420  -3.307  0.00  0.00     0.035 A 
ENDBRANCH  21  24
ENDBRANCH  17  18
ENDBRANCH   1  17
TORSDOF 6
