REMARK  8 active torsions:
REMARK  status: ('A' for Active; 'I' for Inactive)
REMARK    1  A    between atoms: O_2  and  C_3 
REMARK    2  A    between atoms: C_8  and  N_9 
REMARK    3  A    between atoms: N_12  and  C_13 
REMARK    4  A    between atoms: C_13  and  C_14 
REMARK    5  A    between atoms: C_14  and  C_15 
REMARK    6  A    between atoms: C_15  and  C_16 
REMARK    7  A    between atoms: C_16  and  O_17 
REMARK    8  A    between atoms: O_17  and  C_18 
ROOT
ATOM      1  N   UNL d   1       8.440   2.052 -16.502  0.00  0.00    -0.343 N 
ATOM      2  C   UNL d   1       7.543   2.104 -15.345  0.00  0.00     0.137 C 
ATOM      3  C   UNL d   1       8.310   2.583 -14.097  0.00  0.00     0.274 C 
ATOM      4  N   UNL d   1       9.027   3.840 -14.336  0.00  0.00     0.141 N 
ATOM      5  C   UNL d   1      10.008   3.622 -15.400  0.00  0.00     0.274 C 
ATOM      6  C   UNL d   1       9.278   3.236 -16.712  0.00  0.00     0.137 C 
ENDROOT
BRANCH   4   7
ATOM      7  C   UNL d   1       9.733   4.258 -13.109  0.00  0.00     0.251 C 
BRANCH   7   8
ATOM      8  C   UNL d   1       8.777   4.838 -12.051  0.00  0.00     0.038 C 
BRANCH   8   9
ATOM      9  C   UNL d   1       9.456   4.974 -10.683  0.00  0.00     0.035 C 
BRANCH   9  10
ATOM     10  C   UNL d   1       8.466   5.330  -9.557  0.00  0.00     0.149 C 
BRANCH  10  11
ATOM     11  O   UNL d   1       9.068   5.465  -8.287  0.00  0.00    -0.331 OA
BRANCH  11  12
ATOM     12  C   UNL d   1       9.704   6.631  -7.958  0.00  0.00     0.096 A 
ATOM     13  C   UNL d   1      10.148   6.792  -6.623  0.00  0.00     0.044 A 
ATOM     14  C   UNL d   1      10.759   7.968  -6.164  0.00  0.00     0.090 A 
ATOM     15  C   UNL d   1      10.937   9.010  -7.110  0.00  0.00     0.049 A 
ATOM     16  N   UNL d   1      11.219   8.248  -4.869  0.00  0.00    -0.236 NA
ATOM     17  C   UNL d   1      10.542   8.868  -8.459  0.00  0.00     0.010 A 
ATOM     18  S   UNL d   1      11.663  10.403  -6.341  0.00  0.00    -0.064 SA
ATOM     19  C   UNL d   1       9.921   7.677  -8.890  0.00  0.00     0.025 A 
ATOM     20  C   UNL d   1      11.698   9.495  -4.847  0.00  0.00     0.135 A 
ENDBRANCH  11  12
ENDBRANCH  10  11
ENDBRANCH   9  10
ENDBRANCH   8   9
ENDBRANCH   7   8
ENDBRANCH   4   7
BRANCH   1  21
ATOM     21  C   UNL d   1       8.569   0.866 -17.236  0.00  0.00     0.079 A 
ATOM     22  C   UNL d   1       9.834   0.344 -17.591  0.00  0.00     0.110 A 
ATOM     23  C   UNL d   1       9.890  -0.842 -18.396  0.00  0.00     0.026 A 
ATOM     24  C   UNL d   1       8.708  -1.491 -18.788  0.00  0.00     0.002 A 
ATOM     25  C   UNL d   1       7.463  -0.987 -18.401  0.00  0.00     0.002 A 
ATOM     26  C   UNL d   1       7.397   0.199 -17.628  0.00  0.00     0.019 A 
BRANCH  22  27
ATOM     27  O   UNL d   1      10.975   0.967 -17.126  0.00  0.00    -0.327 OA
ATOM     28  C   UNL d   1      12.204   0.725 -17.802  0.00  0.00     0.181 C 
ENDBRANCH  22  27
ENDBRANCH   1  21
TORSDOF 8
