REMARK  3 active torsions:
REMARK  status: ('A' for Active; 'I' for Inactive)
REMARK    1  A    between atoms: C_2  and  C_3 
REMARK    2  A    between atoms: C_3  and  C_4 
REMARK    3  A    between atoms: C_10  and  C_11 
ROOT
ATOM      1  C   UNL d   1      10.162   7.272  -7.843  0.00  0.00     0.001 A 
ATOM      2  C   UNL d   1      10.369   8.220  -8.815  0.00  0.00     0.095 A 
ATOM      3  N   UNL d   1      11.175   9.219  -8.331  0.00  0.00    -0.244 NA
ATOM      4  C   UNL d   1      11.463   9.006  -7.006  0.00  0.00     0.081 A 
ATOM      5  C   UNL d   1      12.200   9.784  -6.095  0.00  0.00     0.019 A 
ATOM      6  C   UNL d   1      12.387   9.305  -4.793  0.00  0.00     0.006 A 
ATOM      7  C   UNL d   1      11.820   8.080  -4.396  0.00  0.00     0.059 A 
ATOM      8  C   UNL d   1      11.057   7.315  -5.324  0.00  0.00     0.006 A 
ATOM      9  C   UNL d   1      10.859   7.766  -6.659  0.00  0.00     0.015 A 
ENDROOT
BRANCH   1  10
ATOM     10  C   UNL d   1       9.338   6.002  -7.964  0.00  0.00     0.069 C 
BRANCH  10  11
ATOM     11  C   UNL d   1       9.257   5.339  -9.372  0.00  0.00     0.343 C 
ATOM     12  N   UNL d   1       8.928   6.305 -10.418  0.00  0.00     0.618 N 
ENDBRANCH  10  11
ENDBRANCH   1  10
BRANCH   7  13
ATOM     13  C   UNL d   1      12.051   7.579  -3.005  0.00  0.00     0.297 C 
ATOM     14  N   UNL d   1      12.288   8.511  -2.088  0.00  0.00    -0.102 N 
ATOM     15  O   UNL d   1      11.986   6.383  -2.728  0.00  0.00    -0.264 OA
ENDBRANCH   7  13
TORSDOF 3
