REMARK  5 active torsions:
REMARK  status: ('A' for Active; 'I' for Inactive)
REMARK    1  A    between atoms: C_3  and  C_4 
REMARK    2  A    between atoms: C_3  and  C_18 
REMARK    3  A    between atoms: C_4  and  C_5 
REMARK    4  A    between atoms: C_5  and  N_6 
REMARK    5  A    between atoms: N_9  and  C_10 
ROOT
ATOM      1  N   UNL d   1       8.453   5.012 -12.649  0.00  0.00     0.141 N 
ATOM      2  C   UNL d   1       8.338   4.415 -11.317  0.00  0.00     0.274 C 
ATOM      3  C   UNL d   1       8.120   5.489 -10.240  0.00  0.00     0.138 C 
ATOM      4  N   UNL d   1       9.189   6.483 -10.300  0.00  0.00    -0.330 N 
ATOM      5  C   UNL d   1       9.304   7.109 -11.617  0.00  0.00     0.138 C 
ATOM      6  C   UNL d   1       9.532   5.992 -12.642  0.00  0.00     0.274 C 
ENDROOT
BRANCH   1   7
ATOM      7  C   UNL d   1       8.682   3.992 -13.673  0.00  0.00     0.257 C 
BRANCH   7   8
ATOM      8  C   UNL d   1      10.109   3.359 -13.665  0.00  0.00     0.084 C 
BRANCH   8   9
ATOM      9  C   UNL d   1      10.452   2.629 -14.969  0.00  0.00     0.090 C 
ATOM     10  N   UNL d   1       9.959   1.478 -15.268  0.00  0.00    -0.101 NA
ATOM     11  O   UNL d   1       9.085   0.982 -14.241  0.00  0.00    -0.061 OA
BRANCH   9  12
ATOM     12  C   UNL d   1      11.438   3.320 -15.875  0.00  0.00     0.017 A 
ATOM     13  C   UNL d   1      11.716   4.713 -15.795  0.00  0.00     0.013 A 
ATOM     14  C   UNL d   1      12.688   5.320 -16.620  0.00  0.00     0.058 A 
ATOM     15  C   UNL d   1      13.375   4.561 -17.582  0.00  0.00     0.011 A 
ATOM     16 CL   UNL d   1      13.043   7.004 -16.446  0.00  0.00    -0.082 Cl
ATOM     17  C   UNL d   1      13.089   3.188 -17.702  0.00  0.00     0.001 A 
ATOM     18  C   UNL d   1      12.139   2.577 -16.853  0.00  0.00     0.001 A 
ENDBRANCH   9  12
ENDBRANCH   8   9
ENDBRANCH   7   8
ENDBRANCH   1   7
BRANCH   4  19
ATOM     19  C   UNL d   1       9.936   6.889  -9.170  0.00  0.00     0.140 A 
ATOM     20  N   UNL d   1       9.510   6.437  -7.970  0.00  0.00    -0.227 NA
ATOM     21  C   UNL d   1      10.180   6.800  -6.846  0.00  0.00     0.101 A 
ATOM     22  C   UNL d   1      11.326   7.608  -6.873  0.00  0.00     0.021 A 
ATOM     23  C   UNL d   1      11.790   8.070  -8.116  0.00  0.00     0.005 A 
ATOM     24  C   UNL d   1      11.079   7.705  -9.283  0.00  0.00     0.037 A 
ENDBRANCH   4  19
TORSDOF 5
