REMARK  0 active torsions:
REMARK  status: ('A' for Active; 'I' for Inactive)
ROOT
ATOM      1  O   UNL d   1       9.755   9.184  -7.580  0.00  0.00    -0.269 OA
ATOM      2  C   UNL d   1      10.276   8.860  -6.519  0.00  0.00     0.275 A 
ATOM      3  N   UNL d   1      10.810   9.700  -5.622  0.00  0.00    -0.211 NA
ATOM      4  C   UNL d   1      11.383   8.989  -4.568  0.00  0.00     0.082 A 
ATOM      5  C   UNL d   1      11.975   9.468  -3.384  0.00  0.00     0.019 A 
ATOM      6  C   UNL d   1      12.439   8.524  -2.441  0.00  0.00     0.002 A 
ATOM      7  C   UNL d   1      12.276   7.140  -2.675  0.00  0.00    -0.000 A 
ATOM      8  C   UNL d   1      11.659   6.687  -3.866  0.00  0.00    -0.001 A 
ATOM      9  C   UNL d   1      11.220   7.635  -4.800  0.00  0.00     0.019 A 
ATOM     10  C   UNL d   1      10.438   7.405  -6.065  0.00  0.00     0.184 A 
ATOM     11 CL   UNL d   1      11.410   6.511  -7.238  0.00  0.00    -0.100 Cl
ENDROOT
TORSDOF 0
