REMARK  6 active torsions:
REMARK  status: ('A' for Active; 'I' for Inactive)
REMARK    1  A    between atoms: C_4  and  N_5 
REMARK    2  A    between atoms: N_8  and  C_9 
REMARK    3  A    between atoms: C_9  and  C_10 
REMARK    4  A    between atoms: C_10  and  C_11 
REMARK    5  A    between atoms: C_14  and  N_15 
REMARK    6  A    between atoms: N_15  and  C_16 
ROOT
ATOM      1  C   UNL d   1       7.904   6.040 -11.146  0.00  0.00     0.035 C 
ENDROOT
BRANCH   1   2
ATOM      2  C   UNL d   1       8.325   5.847  -9.679  0.00  0.00     0.250 C 
BRANCH   2   3
ATOM      3  N   UNL d   1       9.763   5.894  -9.506  0.00  0.00     0.141 N 
ATOM      4  C   UNL d   1      10.067   5.322  -8.205  0.00  0.00     0.274 C 
ATOM      5  C   UNL d   1       9.530   6.195  -7.069  0.00  0.00     0.138 C 
ATOM      6  N   UNL d   1      10.071   7.540  -7.173  0.00  0.00    -0.330 N 
ATOM      7  C   UNL d   1       9.879   8.194  -8.460  0.00  0.00     0.138 C 
ATOM      8  C   UNL d   1      10.360   7.239  -9.587  0.00  0.00     0.274 C 
BRANCH   6   9
ATOM      9  C   UNL d   1      10.682   8.165  -6.080  0.00  0.00     0.140 A 
ATOM     10  C   UNL d   1      11.283   7.461  -5.003  0.00  0.00     0.037 A 
ATOM     11  C   UNL d   1      11.873   8.177  -3.942  0.00  0.00     0.005 A 
ATOM     12  C   UNL d   1      11.847   9.584  -3.990  0.00  0.00     0.021 A 
ATOM     13  C   UNL d   1      11.236  10.194  -5.102  0.00  0.00     0.101 A 
ATOM     14  N   UNL d   1      10.663   9.512  -6.114  0.00  0.00    -0.227 NA
ENDBRANCH   6   9
ENDBRANCH   2   3
ENDBRANCH   1   2
BRANCH   1  15
ATOM     15  C   UNL d   1       8.095   4.777 -11.974  0.00  0.00     0.002 C 
ATOM     16  C   UNL d   1       9.505   4.731 -12.571  0.00  0.00     0.002 C 
ATOM     17  C   UNL d   1       9.705   3.492 -13.450  0.00  0.00     0.025 C 
ATOM     18  C   UNL d   1       8.633   3.406 -14.561  0.00  0.00     0.122 C 
ATOM     19  C   UNL d   1       7.230   3.433 -13.939  0.00  0.00     0.025 C 
ATOM     20  C   UNL d   1       7.026   4.676 -13.061  0.00  0.00     0.002 C 
BRANCH  18  21
ATOM     21  N   UNL d   1       8.801   2.209 -15.369  0.00  0.00    -0.088 NA
BRANCH  21  22
ATOM     22  C   UNL d   1       9.860   1.974 -16.218  0.00  0.00     0.746 A 
ATOM     23  N   UNL d   1       9.880   0.753 -16.767  0.00  0.00    -0.058 NA
ATOM     24  C   UNL d   1      10.891   0.488 -17.619  0.00  0.00     0.120 A 
ATOM     25  C   UNL d   1      11.887   1.441 -17.906  0.00  0.00     0.043 A 
ATOM     26  C   UNL d   1      11.770   2.684 -17.255  0.00  0.00     0.120 A 
ATOM     27  N   UNL d   1      10.747   2.959 -16.421  0.00  0.00    -0.058 NA
ENDBRANCH  21  22
ENDBRANCH  18  21
ENDBRANCH   1  15
TORSDOF 6
