REMARK  6 active torsions:
REMARK  status: ('A' for Active; 'I' for Inactive)
REMARK       I    between atoms: C_2  and  N_3 
REMARK       I    between atoms: C_2  and  N_10 
REMARK    1  A    between atoms: N_3  and  C_4 
REMARK    2  A    between atoms: N_10  and  C_11 
REMARK    3  A    between atoms: C_15  and  C_16 
REMARK    4  A    between atoms: C_16  and  C_17 
REMARK    5  A    between atoms: C_17  and  N_18 
REMARK    6  A    between atoms: N_21  and  C_22 
ROOT
ATOM      1  C   UNL d   1       8.259   3.433 -13.683  0.00  0.00     0.086 A 
ATOM      2  C   UNL d   1       6.885   3.362 -14.038  0.00  0.00     0.019 A 
ATOM      3  C   UNL d   1       5.903   4.030 -13.274  0.00  0.00     0.001 A 
ATOM      4  C   UNL d   1       6.283   4.774 -12.149  0.00  0.00    -0.004 A 
ATOM      5  C   UNL d   1       7.640   4.833 -11.789  0.00  0.00    -0.019 A 
ATOM      6  C   UNL d   1       8.618   4.160 -12.541  0.00  0.00     0.015 A 
ENDROOT
BRANCH   5   7
ATOM      7  C   UNL d   1       8.061   5.497 -10.517  0.00  0.00     0.062 C 
BRANCH   7   8
ATOM      8  C   UNL d   1       9.145   6.587 -10.737  0.00  0.00     0.255 C 
BRANCH   8   9
ATOM      9  N   UNL d   1      10.136   6.661  -9.657  0.00  0.00     0.141 N 
ATOM     10  C   UNL d   1      10.655   8.036  -9.582  0.00  0.00     0.274 C 
ATOM     11  C   UNL d   1      11.771   8.156  -8.517  0.00  0.00     0.137 C 
ATOM     12  N   UNL d   1      11.343   7.593  -7.241  0.00  0.00    -0.344 N 
ATOM     13  C   UNL d   1      10.706   6.294  -7.285  0.00  0.00     0.137 C 
ATOM     14  C   UNL d   1       9.601   6.268  -8.343  0.00  0.00     0.274 C 
BRANCH  12  15
ATOM     15  C   UNL d   1      11.367   8.309  -6.043  0.00  0.00     0.056 A 
ATOM     16  C   UNL d   1      11.015   9.671  -6.031  0.00  0.00     0.017 A 
ATOM     17  C   UNL d   1      11.055  10.393  -4.828  0.00  0.00     0.002 A 
ATOM     18  C   UNL d   1      11.470   9.762  -3.638  0.00  0.00     0.000 A 
ATOM     19  C   UNL d   1      11.833   8.408  -3.637  0.00  0.00     0.002 A 
ATOM     20  C   UNL d   1      11.742   7.672  -4.834  0.00  0.00     0.017 A 
ENDBRANCH  12  15
ENDBRANCH   8   9
ENDBRANCH   7   8
ENDBRANCH   5   7
BRANCH   1  21
ATOM     21  N   UNL d   1       9.326   2.805 -14.387  0.00  0.00    -0.191 NA
ATOM     22  C   UNL d   1       9.291   2.095 -15.523  0.00  0.00     0.369 C 
ATOM     23  O   UNL d   1       8.268   1.855 -16.165  0.00  0.00    -0.242 OA
ATOM     24  N   UNL d   1      10.516   1.688 -15.893  0.00  0.00    -0.191 NA
BRANCH  24  25
ATOM     25  C   UNL d   1      10.803   0.854 -17.002  0.00  0.00     0.089 A 
ATOM     26  C   UNL d   1      11.984   1.060 -17.739  0.00  0.00     0.040 A 
ATOM     27  C   UNL d   1      12.255   0.202 -18.826  0.00  0.00     0.101 A 
ATOM     28  N   UNL d   1      11.444  -0.813 -19.191  0.00  0.00    -0.242 NA
ATOM     29  C   UNL d   1      10.317  -1.005 -18.478  0.00  0.00     0.101 A 
ATOM     30  C   UNL d   1       9.960  -0.217 -17.374  0.00  0.00     0.040 A 
ENDBRANCH  24  25
ENDBRANCH   1  21
TORSDOF 6
