REMARK  6 active torsions:
REMARK  status: ('A' for Active; 'I' for Inactive)
REMARK    1  A    between atoms: O_2  and  C_3 
REMARK    2  A    between atoms: C_8  and  N_9 
REMARK    3  A    between atoms: N_12  and  C_13 
REMARK    4  A    between atoms: C_13  and  C_14 
REMARK    5  A    between atoms: C_14  and  N_15 
REMARK       I    between atoms: N_15  and  C_16 
REMARK    6  A    between atoms: C_16  and  C_18 
ROOT
ATOM      1  N   UNL d   1       8.638   4.163 -13.873  0.00  0.00    -0.343 N 
ATOM      2  C   UNL d   1       8.241   5.539 -13.697  0.00  0.00     0.137 C 
ATOM      3  C   UNL d   1       9.170   6.244 -12.684  0.00  0.00     0.274 C 
ATOM      4  N   UNL d   1       9.215   5.503 -11.415  0.00  0.00     0.143 N 
ATOM      5  C   UNL d   1       9.686   4.149 -11.698  0.00  0.00     0.274 C 
ATOM      6  C   UNL d   1       8.737   3.428 -12.662  0.00  0.00     0.137 C 
ENDROOT
BRANCH   4   7
ATOM      7  C   UNL d   1      10.104   6.136 -10.440  0.00  0.00     0.277 C 
BRANCH   7   8
ATOM      8  C   UNL d   1       9.417   7.255  -9.685  0.00  0.00     0.164 C 
BRANCH   8   9
ATOM      9  N   UNL d   1      10.271   7.877  -8.676  0.00  0.00    -0.232 NA
ATOM     10  C   UNL d   1      10.511   7.322  -7.482  0.00  0.00     0.278 C 
ATOM     11  O   UNL d   1      10.293   6.136  -7.246  0.00  0.00    -0.265 OA
BRANCH  10  12
ATOM     12  C   UNL d   1      10.989   8.272  -6.443  0.00  0.00     0.096 A 
ATOM     13  C   UNL d   1      11.372   7.921  -5.176  0.00  0.00     0.089 A 
ATOM     14  N   UNL d   1      11.668   9.132  -4.515  0.00  0.00    -0.228 N 
ATOM     15  C   UNL d   1      11.506   6.729  -4.421  0.00  0.00     0.019 A 
ATOM     16  N   UNL d   1      11.443  10.211  -5.319  0.00  0.00    -0.163 NA
ATOM     17  C   UNL d   1      12.097   9.199  -3.229  0.00  0.00     0.101 A 
ATOM     18  C   UNL d   1      11.067   9.684  -6.455  0.00  0.00     0.127 A 
ATOM     19  C   UNL d   1      12.259   8.036  -2.519  0.00  0.00     0.021 A 
ATOM     20  C   UNL d   1      11.948   6.790  -3.118  0.00  0.00     0.003 A 
ENDBRANCH  10  12
ENDBRANCH   8   9
ENDBRANCH   7   8
ENDBRANCH   4   7
BRANCH   1  21
ATOM     21  C   UNL d   1       8.933   3.554 -15.107  0.00  0.00     0.079 A 
ATOM     22  C   UNL d   1       9.890   4.124 -15.980  0.00  0.00     0.110 A 
ATOM     23  C   UNL d   1      10.089   3.554 -17.255  0.00  0.00     0.026 A 
ATOM     24  C   UNL d   1       9.364   2.414 -17.652  0.00  0.00     0.002 A 
ATOM     25  C   UNL d   1       8.431   1.829 -16.776  0.00  0.00     0.002 A 
ATOM     26  C   UNL d   1       8.224   2.389 -15.502  0.00  0.00     0.019 A 
BRANCH  22  27
ATOM     27  O   UNL d   1      10.600   5.205 -15.503  0.00  0.00    -0.327 OA
ATOM     28  C   UNL d   1      11.486   5.872 -16.380  0.00  0.00     0.181 C 
ENDBRANCH  22  27
ENDBRANCH   1  21
TORSDOF 6
