REMARK  6 active torsions:
REMARK  status: ('A' for Active; 'I' for Inactive)
REMARK    1  A    between atoms: N_2  and  C_3 
REMARK    2  A    between atoms: C_5  and  O_6 
REMARK    3  A    between atoms: C_8  and  C_9 
REMARK       I    between atoms: C_9  and  N_11 
REMARK    4  A    between atoms: N_11  and  C_12 
REMARK    5  A    between atoms: N_15  and  C_16 
REMARK    6  A    between atoms: C_16  and  C_17 
ROOT
ATOM      1  C   UNL d   1       9.133   6.336 -11.621  0.00  0.00     0.277 C 
ATOM      2  O   UNL d   1       9.295   7.424 -12.163  0.00  0.00    -0.266 OA
ATOM      3  N   UNL d   1       9.493   6.024 -10.367  0.00  0.00    -0.236 NA
ENDROOT
BRANCH   3   4
ATOM      4  C   UNL d   1      10.464   6.774  -9.565  0.00  0.00     0.111 C 
ATOM      5  C   UNL d   1      10.047   8.237  -9.348  0.00  0.00     0.060 C 
ATOM      6  C   UNL d   1      10.964   8.958  -8.348  0.00  0.00     0.253 C 
ATOM      7  N   UNL d   1      11.006   8.219  -7.079  0.00  0.00     0.141 N 
ATOM      8  C   UNL d   1      11.610   6.919  -7.331  0.00  0.00     0.253 C 
ATOM      9  C   UNL d   1      10.628   6.117  -8.178  0.00  0.00     0.060 C 
BRANCH   7  10
ATOM     10  C   UNL d   1      11.748   9.032  -6.112  0.00  0.00     0.277 C 
BRANCH  10  11
ATOM     11  C   UNL d   1      11.837   8.439  -4.715  0.00  0.00     0.011 A 
ATOM     12  C   UNL d   1      12.626   9.073  -3.726  0.00  0.00    -0.002 A 
ATOM     13  C   UNL d   1      12.781   8.483  -2.456  0.00  0.00    -0.000 A 
ATOM     14  C   UNL d   1      12.248   7.209  -2.172  0.00  0.00    -0.000 A 
ATOM     15  C   UNL d   1      11.470   6.590  -3.172  0.00  0.00    -0.000 A 
ATOM     16  C   UNL d   1      11.202   7.202  -4.394  0.00  0.00    -0.002 A 
ENDBRANCH  10  11
ENDBRANCH   7  10
ENDBRANCH   3   4
BRANCH   1  17
ATOM     17  C   UNL d   1       8.569   5.205 -12.390  0.00  0.00     0.081 A 
ATOM     18  C   UNL d   1       9.403   4.452 -13.249  0.00  0.00     0.100 A 
ATOM     19  C   UNL d   1       8.821   3.401 -13.996  0.00  0.00     0.044 A 
ATOM     20  C   UNL d   1       7.443   3.118 -13.894  0.00  0.00     0.089 A 
ATOM     21  C   UNL d   1       6.645   3.905 -13.038  0.00  0.00     0.075 A 
ATOM     22  C   UNL d   1       7.200   4.940 -12.276  0.00  0.00     0.020 A 
ATOM     23 CL   UNL d   1       4.976   3.591 -12.810  0.00  0.00    -0.081 Cl
BRANCH  18  24
ATOM     24  O   UNL d   1      10.744   4.773 -13.334  0.00  0.00    -0.328 OA
ATOM     25  C   UNL d   1      11.572   4.012 -14.209  0.00  0.00     0.181 C 
ENDBRANCH  18  24
BRANCH  20  26
ATOM     26  N   UNL d   1       6.837   2.058 -14.587  0.00  0.00    -0.268 NA
ATOM     27  C   UNL d   1       7.632   1.053 -15.268  0.00  0.00     0.152 C 
ENDBRANCH  20  26
ENDBRANCH   1  17
TORSDOF 6
