REMARK  6 active torsions:
REMARK  status: ('A' for Active; 'I' for Inactive)
REMARK    1  A    between atoms: N_13  and  C_14 
REMARK    2  A    between atoms: C_14  and  C_15 
REMARK    3  A    between atoms: C_15  and  C_16 
REMARK    4  A    between atoms: C_16  and  S_17 
REMARK    5  A    between atoms: S_17  and  C_18 
REMARK    6  A    between atoms: C_21  and  C_22 
ROOT
ATOM      1  C   UNL d   1      10.349   4.788 -14.682  0.00  0.00     0.251 C 
ENDROOT
BRANCH   1   2
ATOM      2  N   UNL d   1      11.549   3.950 -14.739  0.00  0.00     0.138 N 
ATOM      3  C   UNL d   1      11.300   2.507 -14.762  0.00  0.00     0.255 C 
ATOM      4  C   UNL d   1      10.561   1.973 -15.995  0.00  0.00     0.061 C 
ATOM      5  C   UNL d   1      11.451   1.792 -17.213  0.00  0.00    -0.022 A 
ATOM      6  C   UNL d   1      12.157   2.886 -17.786  0.00  0.00    -0.022 A 
ATOM      7  C   UNL d   1      11.576   0.506 -17.781  0.00  0.00     0.022 A 
ATOM      8  C   UNL d   1      12.977   2.684 -18.923  0.00  0.00     0.017 A 
ATOM      9  C   UNL d   1      12.041   4.289 -17.214  0.00  0.00     0.061 C 
ATOM     10  C   UNL d   1      13.114   1.403 -19.493  0.00  0.00     0.106 A 
ATOM     11  N   UNL d   1      13.832   0.930 -20.574  0.00  0.00    -0.224 NA
ATOM     12  C   UNL d   1      12.403   0.338 -18.899  0.00  0.00     0.119 A 
ATOM     13  C   UNL d   1      13.535  -0.377 -20.588  0.00  0.00     0.159 A 
ATOM     14  C   UNL d   1      14.037  -1.376 -21.573  0.00  0.00     0.080 C 
ATOM     15  O   UNL d   1      12.684  -0.813 -19.610  0.00  0.00    -0.292 OA
ATOM     16  C   UNL d   1      12.507   4.414 -15.746  0.00  0.00     0.255 C 
ENDBRANCH   1   2
BRANCH   1  17
ATOM     17  C   UNL d   1       9.400   4.403 -13.540  0.00  0.00     0.047 C 
BRANCH  17  18
ATOM     18  C   UNL d   1       8.171   5.312 -13.483  0.00  0.00     0.067 C 
BRANCH  18  19
ATOM     19  S   UNL d   1       7.317   5.153 -11.901  0.00  0.00    -0.075 SA
BRANCH  19  20
ATOM     20  C   UNL d   1       8.540   5.962 -10.913  0.00  0.00     0.193 A 
ATOM     21  N   UNL d   1       8.873   5.561  -9.658  0.00  0.00    -0.292 N 
ATOM     22  C   UNL d   1       9.817   6.471  -9.338  0.00  0.00     0.143 A 
ATOM     23  C   UNL d   1       8.348   4.425  -8.931  0.00  0.00     0.134 C 
ATOM     24  N   UNL d   1      10.106   7.309 -10.334  0.00  0.00    -0.133 NA
ATOM     25  N   UNL d   1       9.257   6.987 -11.352  0.00  0.00    -0.122 NA
BRANCH  22  26
ATOM     26  C   UNL d   1      10.517   6.532  -7.992  0.00  0.00     0.064 C 
ATOM     27  C   UNL d   1      11.582   7.664  -7.940  0.00  0.00     0.040 C 
ATOM     28  C   UNL d   1      10.922   9.066  -7.860  0.00  0.00     0.143 C 
ATOM     29  O   UNL d   1      10.032   9.138  -6.757  0.00  0.00    -0.354 OA
ATOM     30  C   UNL d   1       8.978   8.184  -6.858  0.00  0.00     0.143 C 
ATOM     31  C   UNL d   1       9.583   6.785  -6.787  0.00  0.00     0.040 C 
ENDBRANCH  22  26
ENDBRANCH  19  20
ENDBRANCH  18  19
ENDBRANCH  17  18
ENDBRANCH   1  17
TORSDOF 6
