REMARK  7 active torsions:
REMARK  status: ('A' for Active; 'I' for Inactive)
REMARK    1  A    between atoms: O_2  and  C_3 
REMARK    2  A    between atoms: C_8  and  N_9 
REMARK    3  A    between atoms: N_12  and  C_13 
REMARK    4  A    between atoms: C_13  and  C_14 
REMARK    5  A    between atoms: C_14  and  C_15 
REMARK    6  A    between atoms: C_15  and  C_16 
REMARK    7  A    between atoms: C_16  and  N_17 
ROOT
ATOM      1  N   UNL d   1       8.328   3.886 -14.316  0.00  0.00    -0.343 N 
ATOM      2  C   UNL d   1       7.403   3.800 -13.201  0.00  0.00     0.137 C 
ATOM      3  C   UNL d   1       8.142   4.212 -11.917  0.00  0.00     0.274 C 
ATOM      4  N   UNL d   1       8.678   5.568 -12.033  0.00  0.00     0.141 N 
ATOM      5  C   UNL d   1       9.658   5.565 -13.126  0.00  0.00     0.274 C 
ATOM      6  C   UNL d   1       8.987   5.180 -14.454  0.00  0.00     0.137 C 
ENDROOT
BRANCH   4   7
ATOM      7  C   UNL d   1       9.361   5.974 -10.811  0.00  0.00     0.251 C 
BRANCH   7   8
ATOM      8  C   UNL d   1       8.472   5.855  -9.560  0.00  0.00     0.037 C 
BRANCH   8   9
ATOM      9  C   UNL d   1       8.936   6.730  -8.393  0.00  0.00     0.026 C 
BRANCH   9  10
ATOM     10  C   UNL d   1      10.429   6.547  -8.076  0.00  0.00     0.105 C 
BRANCH  10  11
ATOM     11  N   UNL d   1      10.812   7.192  -6.832  0.00  0.00    -0.313 N 
ATOM     12  C   UNL d   1      10.722   8.507  -6.539  0.00  0.00     0.257 A 
ATOM     13  C   UNL d   1      11.235   8.643  -5.162  0.00  0.00     0.054 A 
ATOM     14  O   UNL d   1      10.314   9.430  -7.236  0.00  0.00    -0.267 OA
ATOM     15  C   UNL d   1      11.632   7.414  -4.678  0.00  0.00     0.005 A 
ATOM     16  C   UNL d   1      11.330   9.806  -4.393  0.00  0.00     0.004 A 
ATOM     17  C   UNL d   1      11.387   6.392  -5.741  0.00  0.00     0.131 A 
ATOM     18  C   UNL d   1      12.146   7.244  -3.384  0.00  0.00    -0.002 A 
ATOM     19  C   UNL d   1      12.263   8.403  -2.587  0.00  0.00    -0.000 A 
ATOM     20  C   UNL d   1      11.861   9.662  -3.088  0.00  0.00     0.000 A 
ENDBRANCH  10  11
ENDBRANCH   9  10
ENDBRANCH   8   9
ENDBRANCH   7   8
ENDBRANCH   4   7
BRANCH   1  21
ATOM     21  C   UNL d   1       8.588   2.786 -15.164  0.00  0.00     0.079 A 
ATOM     22  C   UNL d   1       9.902   2.488 -15.620  0.00  0.00     0.110 A 
ATOM     23  C   UNL d   1      10.086   1.417 -16.530  0.00  0.00     0.026 A 
ATOM     24  C   UNL d   1       9.000   0.632 -16.956  0.00  0.00     0.002 A 
ATOM     25  C   UNL d   1       7.708   0.909 -16.477  0.00  0.00     0.002 A 
ATOM     26  C   UNL d   1       7.507   1.978 -15.586  0.00  0.00     0.019 A 
BRANCH  22  27
ATOM     27  O   UNL d   1      10.947   3.242 -15.125  0.00  0.00    -0.327 OA
ATOM     28  C   UNL d   1      12.194   3.188 -15.788  0.00  0.00     0.181 C 
ENDBRANCH  22  27
ENDBRANCH   1  21
TORSDOF 7
