REMARK  4 active torsions:
REMARK  status: ('A' for Active; 'I' for Inactive)
REMARK    1  A    between atoms: C_6  and  C_7 
REMARK    2  A    between atoms: C_10  and  C_11 
REMARK    3  A    between atoms: C_11  and  N_12 
REMARK    4  A    between atoms: N_15  and  C_16 
ROOT
ATOM      1  N   UNL d   1       7.681   0.527 -16.206  0.00  0.00    -0.191 NA
ATOM      2  C   UNL d   1       6.899   0.758 -15.383  0.00  0.00     0.111 C 
ATOM      3  C   UNL d   1       5.914   1.050 -14.398  0.00  0.00     0.138 C 
ATOM      4  C   UNL d   1       4.795   0.193 -14.192  0.00  0.00     0.111 C 
ATOM      5  N   UNL d   1       3.865  -0.463 -13.999  0.00  0.00    -0.191 NA
ATOM      6  C   UNL d   1       5.997   2.160 -13.641  0.00  0.00     0.040 C 
ENDROOT
BRANCH   6   7
ATOM      7  C   UNL d   1       6.980   3.204 -13.611  0.00  0.00     0.082 A 
ATOM      8  N   UNL d   1       6.885   4.192 -12.646  0.00  0.00    -0.248 NA
ATOM      9  C   UNL d   1       7.931   5.083 -12.740  0.00  0.00     0.092 A 
ATOM     10  C   UNL d   1       8.711   4.652 -13.776  0.00  0.00     0.018 A 
ATOM     11  C   UNL d   1       8.132   3.463 -14.306  0.00  0.00     0.020 A 
BRANCH   9  12
ATOM     12  C   UNL d   1       8.055   6.273 -11.848  0.00  0.00     0.296 C 
BRANCH  12  13
ATOM     13  N   UNL d   1       9.216   6.208 -10.955  0.00  0.00     0.147 N 
ATOM     14  C   UNL d   1       9.789   7.553 -10.791  0.00  0.00     0.275 C 
ATOM     15  C   UNL d   1      11.002   7.526  -9.849  0.00  0.00     0.137 C 
ATOM     16  N   UNL d   1      10.619   6.950  -8.565  0.00  0.00    -0.344 N 
ATOM     17  C   UNL d   1       9.948   5.654  -8.649  0.00  0.00     0.137 C 
ATOM     18  C   UNL d   1       8.779   5.704  -9.644  0.00  0.00     0.275 C 
BRANCH  16  19
ATOM     19  C   UNL d   1      10.917   7.570  -7.338  0.00  0.00     0.056 A 
ATOM     20  C   UNL d   1      11.170   6.796  -6.185  0.00  0.00     0.018 A 
ATOM     21  C   UNL d   1      11.442   7.409  -4.944  0.00  0.00     0.013 A 
ATOM     22  C   UNL d   1      11.485   8.809  -4.844  0.00  0.00     0.058 A 
ATOM     23  C   UNL d   1      11.240   9.596  -5.985  0.00  0.00     0.013 A 
ATOM     24 CL   UNL d   1      11.873   9.545  -3.337  0.00  0.00    -0.082 Cl
ATOM     25  C   UNL d   1      10.960   8.977  -7.226  0.00  0.00     0.018 A 
ENDBRANCH  16  19
ENDBRANCH  12  13
ENDBRANCH   9  12
ENDBRANCH   6   7
TORSDOF 4
