REMARK  9 active torsions:
REMARK  status: ('A' for Active; 'I' for Inactive)
REMARK    1  A    between atoms: O_2  and  C_3 
REMARK    2  A    between atoms: C_9  and  N_10 
REMARK    3  A    between atoms: N_13  and  C_14 
REMARK    4  A    between atoms: C_14  and  C_15 
REMARK    5  A    between atoms: C_15  and  C_16 
REMARK    6  A    between atoms: C_16  and  C_17 
REMARK    7  A    between atoms: C_17  and  N_18 
REMARK       I    between atoms: N_18  and  C_19 
REMARK    8  A    between atoms: C_19  and  C_21 
REMARK    9  A    between atoms: C_23  and  C_24 
ROOT
ATOM      1  N   UNL d   1       6.837   2.147 -14.617  0.00  0.00    -0.328 N 
ATOM      2  C   UNL d   1       8.217   2.377 -15.004  0.00  0.00     0.138 C 
ATOM      3  C   UNL d   1       8.980   3.064 -13.853  0.00  0.00     0.274 C 
ATOM      4  N   UNL d   1       8.281   4.282 -13.433  0.00  0.00     0.141 N 
ATOM      5  C   UNL d   1       6.942   3.929 -12.927  0.00  0.00     0.274 C 
ATOM      6  C   UNL d   1       6.107   3.256 -14.026  0.00  0.00     0.138 C 
ENDROOT
BRANCH   4   7
ATOM      7  C   UNL d   1       9.050   4.886 -12.355  0.00  0.00     0.251 C 
BRANCH   7   8
ATOM      8  C   UNL d   1       8.723   6.378 -12.236  0.00  0.00     0.037 C 
BRANCH   8   9
ATOM      9  C   UNL d   1       9.419   7.044 -11.064  0.00  0.00     0.029 C 
BRANCH   9  10
ATOM     10  C   UNL d   1       9.087   6.424  -9.687  0.00  0.00     0.129 C 
BRANCH  10  11
ATOM     11  N   UNL d   1       9.743   7.072  -8.562  0.00  0.00    -0.233 NA
ATOM     12  C   UNL d   1      10.077   8.362  -8.442  0.00  0.00     0.294 C 
ATOM     13  O   UNL d   1       9.930   9.195  -9.329  0.00  0.00    -0.264 OA
BRANCH  12  14
ATOM     14  C   UNL d   1      10.679   8.758  -7.128  0.00  0.00     0.162 A 
ATOM     15  N   UNL d   1      11.073   9.981  -6.787  0.00  0.00    -0.143 NA
ATOM     16  N   UNL d   1      11.551   9.848  -5.541  0.00  0.00    -0.146 NA
ATOM     17  C   UNL d   1      11.459   8.553  -5.095  0.00  0.00     0.127 A 
ATOM     18  C   UNL d   1      10.902   7.805  -6.085  0.00  0.00     0.049 A 
BRANCH  17  19
ATOM     19  C   UNL d   1      11.900   8.156  -3.796  0.00  0.00     0.119 A 
ATOM     20  O   UNL d   1      11.805   6.831  -3.522  0.00  0.00    -0.304 OA
ATOM     21  C   UNL d   1      12.262   6.687  -2.260  0.00  0.00     0.123 A 
ATOM     22  C   UNL d   1      12.652   7.888  -1.742  0.00  0.00     0.029 A 
ATOM     23  C   UNL d   1      12.412   8.852  -2.748  0.00  0.00     0.028 A 
ENDBRANCH  17  19
ENDBRANCH  12  14
ENDBRANCH  10  11
ENDBRANCH   9  10
ENDBRANCH   8   9
ENDBRANCH   7   8
ENDBRANCH   4   7
BRANCH   1  24
ATOM     24  C   UNL d   1       6.266   0.874 -14.702  0.00  0.00     0.169 A 
ATOM     25  N   UNL d   1       5.949   0.142 -13.636  0.00  0.00    -0.109 NA
ATOM     26  O   UNL d   1       5.368  -1.052 -14.147  0.00  0.00    -0.210 OA
ATOM     27  C   UNL d   1       5.317  -1.010 -15.533  0.00  0.00     0.128 A 
ATOM     28  C   UNL d   1       4.805  -1.913 -16.470  0.00  0.00     0.029 A 
ATOM     29  C   UNL d   1       5.889   0.206 -15.892  0.00  0.00     0.063 A 
ATOM     30  C   UNL d   1       4.870  -1.561 -17.830  0.00  0.00     0.026 A 
ATOM     31  C   UNL d   1       5.439  -0.324 -18.243  0.00  0.00     0.094 A 
ATOM     32  C   UNL d   1       5.954   0.570 -17.264  0.00  0.00     0.029 A 
BRANCH  31  33
ATOM     33  O   UNL d   1       5.514   0.061 -19.569  0.00  0.00    -0.328 OA
ATOM     34  C   UNL d   1       4.999  -0.859 -20.541  0.00  0.00     0.181 C 
ENDBRANCH  31  33
ENDBRANCH   1  24
TORSDOF 9
