REMARK  7 active torsions:
REMARK  status: ('A' for Active; 'I' for Inactive)
REMARK    1  A    between atoms: C_2  and  C_3 
REMARK       I    between atoms: C_2  and  N_13 
REMARK    2  A    between atoms: C_3  and  C_4 
REMARK    3  A    between atoms: C_4  and  C_5 
REMARK    4  A    between atoms: C_5  and  C_7 
REMARK    5  A    between atoms: N_13  and  C_14 
REMARK    6  A    between atoms: C_14  and  C_15 
REMARK    7  A    between atoms: C_15  and  C_16 
ROOT
ATOM      1  O   UNL d   1       9.854   4.941  -8.637  0.00  0.00    -0.271 OA
ATOM      2  C   UNL d   1       9.357   5.975  -9.074  0.00  0.00     0.252 C 
ATOM      3  N   UNL d   1       8.600   5.990 -10.175  0.00  0.00    -0.238 NA
ENDROOT
BRANCH   2   4
ATOM      4  C   UNL d   1       9.581   7.327  -8.378  0.00  0.00     0.098 C 
BRANCH   4   5
ATOM      5  C   UNL d   1      10.722   7.226  -7.346  0.00  0.00     0.079 C 
BRANCH   5   6
ATOM      6  C   UNL d   1      10.896   8.452  -6.447  0.00  0.00     0.173 C 
ATOM      7  O   UNL d   1      10.670   9.576  -6.907  0.00  0.00    -0.291 OA
BRANCH   6   8
ATOM      8  C   UNL d   1      11.374   8.246  -5.047  0.00  0.00     0.035 A 
ATOM      9  C   UNL d   1      11.601   9.367  -4.214  0.00  0.00     0.003 A 
ATOM     10  C   UNL d   1      12.053   9.192  -2.887  0.00  0.00     0.000 A 
ATOM     11  C   UNL d   1      12.265   7.901  -2.371  0.00  0.00     0.000 A 
ATOM     12  C   UNL d   1      12.037   6.781  -3.191  0.00  0.00     0.000 A 
ATOM     13  C   UNL d   1      11.600   6.949  -4.519  0.00  0.00     0.003 A 
ENDBRANCH   6   8
ENDBRANCH   5   6
ENDBRANCH   4   5
ENDBRANCH   2   4
BRANCH   3  14
ATOM     14  C   UNL d   1       8.297   4.822 -10.986  0.00  0.00     0.133 C 
BRANCH  14  15
ATOM     15  C   UNL d   1       7.928   5.259 -12.406  0.00  0.00     0.054 C 
BRANCH  15  16
ATOM     16  C   UNL d   1       7.687   4.084 -13.301  0.00  0.00     0.000 A 
ATOM     17  C   UNL d   1       8.679   3.291 -13.982  0.00  0.00     0.015 A 
ATOM     18  C   UNL d   1       8.005   2.266 -14.707  0.00  0.00     0.081 A 
ATOM     19  C   UNL d   1      10.091   3.317 -14.060  0.00  0.00     0.001 A 
ATOM     20  N   UNL d   1       6.660   2.453 -14.450  0.00  0.00    -0.244 NA
ATOM     21  C   UNL d   1       8.700   1.323 -15.487  0.00  0.00     0.019 A 
ATOM     22  C   UNL d   1       6.467   3.544 -13.620  0.00  0.00     0.095 A 
ATOM     23  C   UNL d   1      10.102   1.377 -15.550  0.00  0.00     0.002 A 
ATOM     24  C   UNL d   1      10.797   2.374 -14.836  0.00  0.00     0.000 A 
ENDBRANCH  15  16
ENDBRANCH  14  15
ENDBRANCH   3  14
TORSDOF 7
