REMARK  6 active torsions:
REMARK  status: ('A' for Active; 'I' for Inactive)
REMARK    1  A    between atoms: C_2  and  C_3 
REMARK    2  A    between atoms: N_12  and  C_13 
REMARK    3  A    between atoms: C_13  and  C_14 
REMARK    4  A    between atoms: C_14  and  C_15 
REMARK    5  A    between atoms: C_15  and  O_16 
REMARK    6  A    between atoms: O_16  and  C_17 
ROOT
ATOM      1  O   UNL d   1       9.027   8.773  -7.662  0.00  0.00    -0.221 OA
ATOM      2  C   UNL d   1      10.034   7.788  -7.450  0.00  0.00     0.149 C 
ATOM      3  C   UNL d   1       9.376   6.397  -7.591  0.00  0.00     0.070 C 
ATOM      4  C   UNL d   1       8.872   6.126  -8.993  0.00  0.00     0.253 C 
ATOM      5  N   UNL d   1       9.959   6.275  -9.968  0.00  0.00     0.137 N 
ATOM      6  C   UNL d   1      10.453   7.658  -9.951  0.00  0.00     0.253 C 
ATOM      7  C   UNL d   1      11.054   7.989  -8.576  0.00  0.00     0.070 C 
ENDROOT
BRANCH   5   8
ATOM      8  C   UNL d   1       9.452   5.995 -11.306  0.00  0.00     0.253 C 
BRANCH   8   9
ATOM      9  C   UNL d   1       9.137   4.529 -11.486  0.00  0.00     0.068 C 
BRANCH   9  10
ATOM     10  C   UNL d   1       8.671   4.210 -12.902  0.00  0.00     0.151 C 
BRANCH  10  11
ATOM     11  O   UNL d   1       9.785   3.969 -13.754  0.00  0.00    -0.331 OA
BRANCH  11  12
ATOM     12  C   UNL d   1       9.841   2.814 -14.501  0.00  0.00     0.094 A 
ATOM     13  C   UNL d   1      10.997   2.596 -15.299  0.00  0.00     0.026 A 
ATOM     14  C   UNL d   1      11.126   1.415 -16.087  0.00  0.00     0.032 A 
ATOM     15  C   UNL d   1      10.108   0.440 -16.062  0.00  0.00     0.140 A 
ATOM     16  C   UNL d   1       8.968   0.662 -15.270  0.00  0.00     0.032 A 
ATOM     17  F   UNL d   1      10.244  -0.682 -16.804  0.00  0.00    -0.204 F 
ATOM     18  C   UNL d   1       8.819   1.833 -14.522  0.00  0.00     0.026 A 
ENDBRANCH  11  12
ENDBRANCH  10  11
ENDBRANCH   9  10
ENDBRANCH   8   9
ENDBRANCH   5   8
BRANCH   2  19
ATOM     19  C   UNL d   1      10.715   7.960  -6.086  0.00  0.00     0.005 A 
ATOM     20  C   UNL d   1      11.305   6.853  -5.415  0.00  0.00    -0.001 A 
ATOM     21  C   UNL d   1      11.871   6.996  -4.140  0.00  0.00     0.011 A 
ATOM     22  C   UNL d   1      11.926   8.271  -3.536  0.00  0.00     0.058 A 
ATOM     23  C   UNL d   1      11.396   9.402  -4.205  0.00  0.00     0.011 A 
ATOM     24 CL   UNL d   1      12.637   8.428  -1.955  0.00  0.00    -0.082 Cl
ATOM     25  C   UNL d   1      10.790   9.234  -5.470  0.00  0.00    -0.001 A 
ENDBRANCH   2  19
TORSDOF 6
