REMARK  6 active torsions:
REMARK  status: ('A' for Active; 'I' for Inactive)
REMARK    1  A    between atoms: C_2  and  N_3 
REMARK    2  A    between atoms: N_3  and  C_4 
REMARK    3  A    between atoms: C_7  and  C_8 
REMARK    4  A    between atoms: C_8  and  C_9 
REMARK    5  A    between atoms: C_9  and  N_10 
REMARK    6  A    between atoms: N_13  and  C_14 
ROOT
ATOM      1  N   UNL d   1       7.529   5.232 -12.721  0.00  0.00     0.141 N 
ATOM      2  C   UNL d   1       8.466   4.821 -13.780  0.00  0.00     0.274 C 
ATOM      3  C   UNL d   1       8.541   3.285 -13.878  0.00  0.00     0.138 C 
ATOM      4  N   UNL d   1       7.190   2.728 -14.038  0.00  0.00    -0.330 N 
ATOM      5  C   UNL d   1       6.124   3.224 -13.152  0.00  0.00     0.138 C 
ATOM      6  C   UNL d   1       6.177   4.748 -13.043  0.00  0.00     0.274 C 
ENDROOT
BRANCH   1   7
ATOM      7  C   UNL d   1       7.891   4.778 -11.383  0.00  0.00     0.250 C 
BRANCH   7   8
ATOM      8  C   UNL d   1       9.240   5.297 -10.901  0.00  0.00     0.035 C 
BRANCH   8   9
ATOM      9  C   UNL d   1       9.112   6.202  -9.678  0.00  0.00     0.002 C 
ATOM     10  C   UNL d   1       9.643   5.535  -8.411  0.00  0.00     0.002 C 
ATOM     11  C   UNL d   1       9.580   6.497  -7.214  0.00  0.00     0.024 C 
ATOM     12  C   UNL d   1      10.322   7.810  -7.514  0.00  0.00     0.107 C 
ATOM     13  C   UNL d   1       9.762   8.495  -8.769  0.00  0.00     0.024 C 
ATOM     14  C   UNL d   1       9.819   7.540  -9.965  0.00  0.00     0.002 C 
BRANCH  12  15
ATOM     15  N   UNL d   1      10.205   8.693  -6.377  0.00  0.00    -0.232 NA
BRANCH  15  16
ATOM     16  C   UNL d   1      11.123   9.596  -6.011  0.00  0.00     0.333 C 
ATOM     17  O   UNL d   1      10.980  10.340  -5.055  0.00  0.00    -0.260 OA
ENDBRANCH  15  16
ENDBRANCH  12  15
ENDBRANCH   8   9
ENDBRANCH   7   8
ENDBRANCH   1   7
BRANCH   4  18
ATOM     18  C   UNL d   1       6.930   1.816 -15.055  0.00  0.00     0.138 A 
ATOM     19  C   UNL d   1       5.998   0.758 -14.908  0.00  0.00     0.036 A 
ATOM     20  C   UNL d   1       5.756  -0.107 -15.956  0.00  0.00     0.095 A 
ATOM     21  C   UNL d   1       5.159   0.362 -13.735  0.00  0.00     0.064 C 
ATOM     22  C   UNL d   1       6.430   0.050 -17.177  0.00  0.00     0.045 A 
ATOM     23  O   UNL d   1       4.826  -1.059 -15.651  0.00  0.00    -0.331 OA
ATOM     24  C   UNL d   1       7.354   1.113 -17.250  0.00  0.00     0.103 A 
ATOM     25  N   UNL d   1       7.594   1.971 -16.228  0.00  0.00    -0.228 NA
ATOM     26  C   UNL d   1       4.507  -0.926 -14.260  0.00  0.00     0.154 C 
ENDBRANCH   4  18
TORSDOF 6
