REMARK  4 active torsions:
REMARK  status: ('A' for Active; 'I' for Inactive)
REMARK    1  A    between atoms: C_6  and  N_7 
REMARK    2  A    between atoms: N_10  and  C_11 
REMARK    3  A    between atoms: C_11  and  C_12 
REMARK    4  A    between atoms: C_12  and  C_13 
ROOT
ATOM      1  N   UNL d   1       7.591   3.293 -13.822  0.00  0.00    -0.344 N 
ATOM      2  C   UNL d   1       9.024   3.588 -13.854  0.00  0.00     0.137 C 
ATOM      3  C   UNL d   1       9.567   3.902 -12.457  0.00  0.00     0.274 C 
ATOM      4  N   UNL d   1       8.803   4.993 -11.860  0.00  0.00     0.141 N 
ATOM      5  C   UNL d   1       7.393   4.600 -11.738  0.00  0.00     0.274 C 
ATOM      6  C   UNL d   1       6.784   4.281 -13.111  0.00  0.00     0.137 C 
ENDROOT
BRANCH   4   7
ATOM      7  C   UNL d   1       9.320   5.275 -10.522  0.00  0.00     0.255 C 
BRANCH   7   8
ATOM      8  C   UNL d   1       9.562   6.781 -10.335  0.00  0.00     0.062 C 
BRANCH   8   9
ATOM      9  C   UNL d   1       9.924   7.173  -8.908  0.00  0.00    -0.018 A 
ATOM     10  C   UNL d   1      10.860   8.213  -8.672  0.00  0.00     0.018 A 
ATOM     11  C   UNL d   1      11.159   8.609  -7.345  0.00  0.00     0.124 A 
ATOM     12  C   UNL d   1      10.528   7.930  -6.284  0.00  0.00     0.124 A 
ATOM     13  N   UNL d   1      11.986   9.592  -6.838  0.00  0.00    -0.127 NA
ATOM     14  C   UNL d   1       9.614   6.894  -6.494  0.00  0.00     0.022 A 
ATOM     15  N   UNL d   1      11.063   8.574  -5.191  0.00  0.00    -0.127 NA
ATOM     16  C   UNL d   1       9.301   6.525  -7.812  0.00  0.00    -0.003 A 
ATOM     17  N   UNL d   1      11.916   9.563  -5.539  0.00  0.00    -0.042 NA
ENDBRANCH   8   9
ENDBRANCH   7   8
ENDBRANCH   4   7
BRANCH   1  18
ATOM     18  C   UNL d   1       7.032   2.129 -14.386  0.00  0.00     0.052 A 
ATOM     19  C   UNL d   1       5.995   1.461 -13.677  0.00  0.00     0.017 A 
ATOM     20  C   UNL d   1       5.415   0.281 -14.172  0.00  0.00     0.001 A 
ATOM     21  C   UNL d   1       5.867  -0.263 -15.380  0.00  0.00    -0.004 A 
ATOM     22  C   UNL d   1       6.892   0.382 -16.106  0.00  0.00    -0.024 A 
ATOM     23  C   UNL d   1       7.362  -0.247 -17.401  0.00  0.00     0.031 C 
ATOM     24  C   UNL d   1       7.472   1.591 -15.634  0.00  0.00    -0.010 A 
ATOM     25  C   UNL d   1       8.552   2.262 -16.499  0.00  0.00     0.032 C 
ENDBRANCH   1  18
TORSDOF 4
