REMARK  7 active torsions:
REMARK  status: ('A' for Active; 'I' for Inactive)
REMARK    1  A    between atoms: C_6  and  C_7 
REMARK    2  A    between atoms: C_10  and  S_11 
REMARK    3  A    between atoms: S_11  and  C_12 
REMARK    4  A    between atoms: C_12  and  C_13 
REMARK    5  A    between atoms: C_13  and  C_14 
REMARK    6  A    between atoms: C_14  and  N_15 
REMARK    7  A    between atoms: C_19  and  C_20 
ROOT
ATOM      1  C   UNL d   1       8.925   5.755 -10.023  0.00  0.00     0.047 C 
ENDROOT
BRANCH   1   2
ATOM      2  C   UNL d   1       8.230   4.709 -10.900  0.00  0.00     0.067 C 
BRANCH   2   3
ATOM      3  S   UNL d   1       7.616   5.471 -12.420  0.00  0.00    -0.075 SA
BRANCH   3   4
ATOM      4  C   UNL d   1       7.572   4.010 -13.391  0.00  0.00     0.193 A 
ATOM      5  N   UNL d   1       6.447   3.349 -13.649  0.00  0.00    -0.122 NA
ATOM      6  N   UNL d   1       6.829   2.292 -14.440  0.00  0.00    -0.126 NA
ATOM      7  C   UNL d   1       8.154   2.394 -14.594  0.00  0.00     0.191 A 
ATOM      8  N   UNL d   1       8.673   3.460 -13.943  0.00  0.00    -0.287 N 
ATOM      9  C   UNL d   1      10.057   3.909 -13.859  0.00  0.00     0.134 C 
BRANCH   7  10
ATOM     10  C   UNL d   1       8.907   1.437 -15.411  0.00  0.00     0.151 A 
ATOM     11  C   UNL d   1       8.516   0.405 -16.230  0.00  0.00     0.087 A 
ATOM     12  C   UNL d   1       7.140  -0.090 -16.561  0.00  0.00     0.054 C 
ATOM     13  N   UNL d   1       9.650  -0.174 -16.782  0.00  0.00    -0.221 NA
ATOM     14  C   UNL d   1      10.660   0.530 -16.282  0.00  0.00     0.225 A 
ATOM     15  O   UNL d   1      10.275   1.524 -15.441  0.00  0.00    -0.282 OA
ENDBRANCH   7  10
ENDBRANCH   3   4
ENDBRANCH   2   3
ENDBRANCH   1   2
BRANCH   1  16
ATOM     16  C   UNL d   1       9.287   5.279  -8.606  0.00  0.00     0.251 C 
BRANCH  16  17
ATOM     17  N   UNL d   1      10.120   6.265  -7.877  0.00  0.00     0.137 N 
ATOM     18  C   UNL d   1       9.408   7.008  -6.835  0.00  0.00     0.254 C 
ATOM     19  C   UNL d   1      10.329   8.181  -6.573  0.00  0.00     0.052 A 
ATOM     20  C   UNL d   1      11.207   8.329  -7.768  0.00  0.00     0.039 A 
ATOM     21  C   UNL d   1      10.259   9.433  -7.423  0.00  0.00     0.008 A 
ATOM     22  C   UNL d   1      10.775   7.247  -8.735  0.00  0.00     0.251 C 
BRANCH  19  23
ATOM     23  C   UNL d   1      11.016   8.218  -5.213  0.00  0.00    -0.021 A 
ATOM     24  C   UNL d   1      11.168   9.439  -4.541  0.00  0.00    -0.002 A 
ATOM     25  C   UNL d   1      11.832   9.497  -3.304  0.00  0.00     0.029 A 
ATOM     26  C   UNL d   1      12.322   8.321  -2.718  0.00  0.00     0.140 A 
ATOM     27  C   UNL d   1      12.171   7.088  -3.382  0.00  0.00     0.029 A 
ATOM     28  F   UNL d   1      12.941   8.387  -1.517  0.00  0.00    -0.204 F 
ATOM     29  C   UNL d   1      11.521   7.033  -4.633  0.00  0.00    -0.002 A 
ENDBRANCH  19  23
ENDBRANCH  16  17
ENDBRANCH   1  16
TORSDOF 7
