REMARK  6 active torsions:
REMARK  status: ('A' for Active; 'I' for Inactive)
REMARK    1  A    between atoms: S_2  and  C_4 
REMARK    2  A    between atoms: S_2  and  N_14 
REMARK    3  A    between atoms: C_18  and  C_19 
REMARK    4  A    between atoms: C_19  and  C_20 
REMARK    5  A    between atoms: C_20  and  N_21 
REMARK    6  A    between atoms: N_24  and  C_25 
ROOT
ATOM      1  N   UNL d   1       8.529   2.455 -17.832  0.00  0.00    -0.276 N 
ATOM      2  C   UNL d   1       7.559   1.393 -18.098  0.00  0.00     0.113 C 
ATOM      3  C   UNL d   1       8.080   0.170 -17.361  0.00  0.00     0.027 C 
ATOM      4  C   UNL d   1       8.739   0.785 -16.105  0.00  0.00     0.025 C 
ATOM      5  C   UNL d   1       9.115   2.250 -16.495  0.00  0.00     0.094 C 
ENDROOT
BRANCH   5   6
ATOM      6  C   UNL d   1       8.666   3.245 -15.472  0.00  0.00     0.058 C 
BRANCH   6   7
ATOM      7  C   UNL d   1       9.594   3.297 -14.245  0.00  0.00     0.252 C 
BRANCH   7   8
ATOM      8  N   UNL d   1       8.931   4.066 -13.195  0.00  0.00     0.141 N 
ATOM      9  C   UNL d   1       9.690   3.849 -11.973  0.00  0.00     0.274 C 
ATOM     10  C   UNL d   1       9.133   4.650 -10.782  0.00  0.00     0.137 C 
ATOM     11  N   UNL d   1       9.101   6.046 -11.134  0.00  0.00    -0.344 N 
ATOM     12  C   UNL d   1       8.402   6.341 -12.372  0.00  0.00     0.137 C 
ATOM     13  C   UNL d   1       9.012   5.497 -13.503  0.00  0.00     0.274 C 
BRANCH  11  14
ATOM     14  C   UNL d   1       9.595   7.052 -10.276  0.00  0.00     0.057 C 
ATOM     15  C   UNL d   1       9.423   7.014  -8.862  0.00  0.00     0.022 A 
ATOM     16  C   UNL d   1       9.960   8.084  -8.090  0.00  0.00     0.031 A 
ATOM     17  C   UNL d   1       8.705   6.075  -8.036  0.00  0.00     0.009 A 
ATOM     18  C   UNL d   1      10.685   9.138  -8.657  0.00  0.00     0.007 C 
ATOM     19  S   UNL d   1       9.618   7.932  -6.413  0.00  0.00    -0.086 SA
ATOM     20  C   UNL d   1      10.865   9.146 -10.038  0.00  0.00     0.002 C 
ATOM     21  C   UNL d   1      10.243   8.182 -10.835  0.00  0.00     0.017 C 
ATOM     22  C   UNL d   1       8.709   6.491  -6.745  0.00  0.00     0.035 A 
ENDBRANCH  11  14
ENDBRANCH   7   8
ENDBRANCH   6   7
ENDBRANCH   5   6
BRANCH   1  23
ATOM     23  S   UNL d   1       9.475   3.106 -19.151  0.00  0.00     0.266 S 
ATOM     24  O   UNL d   1      10.161   4.320 -18.653  0.00  0.00    -0.200 OA
ATOM     25  O   UNL d   1       8.573   3.222 -20.293  0.00  0.00    -0.200 OA
BRANCH  23  26
ATOM     26  C   UNL d   1      10.751   1.866 -19.536  0.00  0.00     0.122 A 
ATOM     27  C   UNL d   1      11.489   1.873 -20.764  0.00  0.00     0.015 A 
ATOM     28  C   UNL d   1      12.453   0.838 -20.967  0.00  0.00     0.020 A 
ATOM     29  C   UNL d   1      11.327   2.851 -21.783  0.00  0.00     0.001 A 
ATOM     30  C   UNL d   1      12.649  -0.137 -19.981  0.00  0.00     0.099 A 
ATOM     31  C   UNL d   1      13.226   0.770 -22.131  0.00  0.00     0.002 A 
ATOM     32  N   UNL d   1      11.966  -0.137 -18.820  0.00  0.00    -0.242 NA
ATOM     33  C   UNL d   1      11.065   0.841 -18.609  0.00  0.00     0.112 A 
ATOM     34  C   UNL d   1      13.058   1.741 -23.125  0.00  0.00     0.000 A 
ATOM     35  C   UNL d   1      12.115   2.780 -22.960  0.00  0.00     0.000 A 
ENDBRANCH  23  26
ENDBRANCH   1  23
TORSDOF 6
