REMARK  8 active torsions:
REMARK  status: ('A' for Active; 'I' for Inactive)
REMARK    1  A    between atoms: N_14  and  C_15 
REMARK    2  A    between atoms: C_15  and  C_16 
REMARK    3  A    between atoms: C_16  and  C_17 
REMARK    4  A    between atoms: C_17  and  C_18 
REMARK    5  A    between atoms: C_18  and  C_19 
REMARK    6  A    between atoms: C_19  and  C_20 
REMARK    7  A    between atoms: C_20  and  N_21 
REMARK    8  A    between atoms: N_24  and  C_25 
ROOT
ATOM      1  C   UNL d   1       6.971   3.586 -13.495  0.00  0.00     0.002 C 
ENDROOT
BRANCH   1   2
ATOM      2  C   UNL d   1       8.267   3.271 -14.318  0.00  0.00     0.025 C 
BRANCH   2   3
ATOM      3  C   UNL d   1       8.475   1.775 -14.573  0.00  0.00     0.118 C 
BRANCH   3   4
ATOM      4  N   UNL d   1       7.300   1.126 -15.131  0.00  0.00    -0.254 N 
ATOM      5  S   UNL d   1       6.171   0.198 -14.189  0.00  0.00     0.268 S 
ATOM      6  O   UNL d   1       5.186   1.094 -13.549  0.00  0.00    -0.200 OA
ATOM      7  O   UNL d   1       6.926  -0.811 -13.453  0.00  0.00    -0.200 OA
ATOM      8  C   UNL d   1       5.484  -0.425 -15.683  0.00  0.00     0.105 A 
ATOM      9  C   UNL d   1       6.119   0.089 -16.825  0.00  0.00     0.029 A 
ATOM     10  C   UNL d   1       4.348  -1.227 -15.816  0.00  0.00     0.013 A 
ATOM     11  C   UNL d   1       5.710  -0.219 -18.131  0.00  0.00     0.002 A 
ATOM     12  C   UNL d   1       7.183   0.951 -16.512  0.00  0.00     0.071 A 
ATOM     13  C   UNL d   1       4.587  -1.067 -18.252  0.00  0.00     0.000 A 
ATOM     14  C   UNL d   1       6.469   0.337 -19.183  0.00  0.00     0.000 A 
ATOM     15  C   UNL d   1       3.910  -1.560 -17.111  0.00  0.00     0.001 A 
ATOM     16  C   UNL d   1       7.581   1.170 -18.916  0.00  0.00     0.002 A 
ATOM     17  C   UNL d   1       7.942   1.484 -17.584  0.00  0.00     0.018 A 
ENDBRANCH   3   4
ENDBRANCH   2   3
ENDBRANCH   1   2
BRANCH   1  18
ATOM     18  C   UNL d   1       6.974   4.853 -12.625  0.00  0.00     0.002 C 
BRANCH  18  19
ATOM     19  C   UNL d   1       8.207   4.941 -11.701  0.00  0.00     0.035 C 
BRANCH  19  20
ATOM     20  C   UNL d   1       8.256   6.259 -10.965  0.00  0.00     0.250 C 
BRANCH  20  21
ATOM     21  N   UNL d   1       9.449   6.310 -10.131  0.00  0.00     0.141 N 
ATOM     22  C   UNL d   1       9.084   5.853  -8.785  0.00  0.00     0.274 C 
ATOM     23  C   UNL d   1      10.298   5.913  -7.849  0.00  0.00     0.137 C 
ATOM     24  N   UNL d   1      10.862   7.253  -7.840  0.00  0.00    -0.344 N 
ATOM     25  C   UNL d   1      11.147   7.818  -9.151  0.00  0.00     0.137 C 
ATOM     26  C   UNL d   1       9.902   7.704 -10.046  0.00  0.00     0.274 C 
BRANCH  24  27
ATOM     27  C   UNL d   1      11.096   7.942  -6.628  0.00  0.00     0.057 A 
ATOM     28  C   UNL d   1      11.455   7.230  -5.462  0.00  0.00     0.028 A 
ATOM     29  C   UNL d   1      11.705   7.909  -4.250  0.00  0.00     0.059 A 
ATOM     30  C   UNL d   1      11.577   9.306  -4.192  0.00  0.00     0.011 A 
ATOM     31 CL   UNL d   1      12.158   7.024  -2.840  0.00  0.00    -0.082 Cl
ATOM     32  C   UNL d   1      11.216  10.023  -5.345  0.00  0.00     0.002 A 
ATOM     33  C   UNL d   1      10.986   9.347  -6.561  0.00  0.00     0.017 A 
ENDBRANCH  24  27
ENDBRANCH  20  21
ENDBRANCH  19  20
ENDBRANCH  18  19
ENDBRANCH   1  18
TORSDOF 8
