REMARK  6 active torsions:
REMARK  status: ('A' for Active; 'I' for Inactive)
REMARK    1  A    between atoms: C_2  and  C_3 
REMARK    2  A    between atoms: C_6  and  C_7 
REMARK    3  A    between atoms: C_10  and  C_11 
REMARK       I    between atoms: C_11  and  N_13 
REMARK    4  A    between atoms: N_13  and  C_14 
REMARK    5  A    between atoms: N_17  and  C_18 
REMARK    6  A    between atoms: C_18  and  C_19 
ROOT
ATOM      1  C   UNL d   1       9.045   6.338 -11.925  0.00  0.00     0.275 C 
ATOM      2  O   UNL d   1       8.450   7.137 -12.636  0.00  0.00    -0.266 OA
ATOM      3  N   UNL d   1       9.402   5.103 -12.318  0.00  0.00    -0.234 NA
ENDROOT
BRANCH   1   4
ATOM      4  C   UNL d   1       9.532   6.722 -10.563  0.00  0.00     0.058 A 
ATOM      5  C   UNL d   1       9.435   5.821  -9.488  0.00  0.00     0.005 A 
ATOM      6  C   UNL d   1       9.872   6.204  -8.209  0.00  0.00     0.000 A 
ATOM      7  C   UNL d   1      10.427   7.484  -7.973  0.00  0.00     0.000 A 
ATOM      8  C   UNL d   1      10.521   8.378  -9.066  0.00  0.00     0.000 A 
ATOM      9  C   UNL d   1      10.069   8.009 -10.346  0.00  0.00     0.005 A 
BRANCH   7  10
ATOM     10  C   UNL d   1      10.894   7.870  -6.623  0.00  0.00     0.000 A 
ATOM     11  C   UNL d   1      11.382   6.900  -5.714  0.00  0.00     0.000 A 
ATOM     12  C   UNL d   1      11.831   7.258  -4.429  0.00  0.00     0.003 A 
ATOM     13  C   UNL d   1      11.811   8.607  -4.031  0.00  0.00     0.042 A 
ATOM     14  C   UNL d   1      11.328   9.587  -4.920  0.00  0.00     0.003 A 
ATOM     15  C   UNL d   1      10.873   9.219  -6.198  0.00  0.00     0.000 A 
BRANCH  13  16
ATOM     16  C   UNL d   1      12.266   8.999  -2.683  0.00  0.00     0.234 C 
ATOM     17  O   UNL d   1      12.656   8.216  -1.826  0.00  0.00    -0.283 OA
ENDBRANCH  13  16
ENDBRANCH   7  10
ENDBRANCH   1   4
BRANCH   3  18
ATOM     18  C   UNL d   1       9.260   4.595 -13.675  0.00  0.00     0.142 C 
ATOM     19  C   UNL d   1       9.004   3.090 -13.669  0.00  0.00     0.275 C 
ATOM     20  N   UNL d   1       9.638   2.620 -14.899  0.00  0.00     0.143 N 
ATOM     21  C   UNL d   1      10.909   3.339 -14.915  0.00  0.00     0.253 C 
ATOM     22  C   UNL d   1      10.549   4.752 -14.480  0.00  0.00     0.062 C 
BRANCH  20  23
ATOM     23  C   UNL d   1       9.812   1.164 -14.905  0.00  0.00     0.277 C 
BRANCH  23  24
ATOM     24  C   UNL d   1      10.272   0.587 -16.243  0.00  0.00     0.011 A 
ATOM     25  C   UNL d   1       9.488  -0.383 -16.911  0.00  0.00    -0.002 A 
ATOM     26  C   UNL d   1       9.893  -0.908 -18.156  0.00  0.00    -0.000 A 
ATOM     27  C   UNL d   1      11.077  -0.446 -18.761  0.00  0.00    -0.000 A 
ATOM     28  C   UNL d   1      11.868   0.517 -18.096  0.00  0.00    -0.000 A 
ATOM     29  C   UNL d   1      11.485   1.011 -16.833  0.00  0.00    -0.002 A 
ENDBRANCH  23  24
ENDBRANCH  20  23
ENDBRANCH   3  18
TORSDOF 6
