REMARK  7 active torsions:
REMARK  status: ('A' for Active; 'I' for Inactive)
REMARK    1  A    between atoms: C_8  and  O_9 
REMARK    2  A    between atoms: O_9  and  C_10 
REMARK    3  A    between atoms: C_10  and  C_11 
REMARK    4  A    between atoms: C_11  and  C_12 
REMARK    5  A    between atoms: C_12  and  C_13 
REMARK    6  A    between atoms: C_13  and  N_14 
REMARK    7  A    between atoms: N_17  and  C_18 
ROOT
ATOM      1  N   UNL d   1      10.115   6.491  -9.835  0.00  0.00     0.141 N 
ATOM      2  C   UNL d   1      10.659   7.855  -9.772  0.00  0.00     0.274 C 
ATOM      3  C   UNL d   1      11.668   7.989  -8.623  0.00  0.00     0.137 C 
ATOM      4  N   UNL d   1      11.039   7.569  -7.384  0.00  0.00    -0.344 N 
ATOM      5  C   UNL d   1      10.348   6.288  -7.410  0.00  0.00     0.137 C 
ATOM      6  C   UNL d   1       9.382   6.211  -8.593  0.00  0.00     0.274 C 
ENDROOT
BRANCH   1   7
ATOM      7  C   UNL d   1       9.212   6.407 -10.977  0.00  0.00     0.251 C 
BRANCH   7   8
ATOM      8  C   UNL d   1       9.225   5.010 -11.608  0.00  0.00     0.038 C 
BRANCH   8   9
ATOM      9  C   UNL d   1       8.779   5.043 -13.075  0.00  0.00     0.035 C 
BRANCH   9  10
ATOM     10  C   UNL d   1       9.125   3.732 -13.801  0.00  0.00     0.151 C 
BRANCH  10  11
ATOM     11  O   UNL d   1      10.523   3.699 -14.091  0.00  0.00    -0.315 OA
BRANCH  11  12
ATOM     12  C   UNL d   1      10.982   4.420 -15.180  0.00  0.00     0.179 A 
ATOM     13  C   UNL d   1      10.138   5.046 -16.124  0.00  0.00     0.044 A 
ATOM     14  C   UNL d   1      10.706   5.740 -17.201  0.00  0.00     0.002 A 
ATOM     15  C   UNL d   1      12.105   5.806 -17.293  0.00  0.00     0.014 A 
ATOM     16  C   UNL d   1      12.752   6.522 -18.468  0.00  0.00     0.039 C 
ATOM     17  C   UNL d   1      12.887   5.157 -16.308  0.00  0.00     0.163 A 
ATOM     18  C   UNL d   1      14.224   6.895 -18.224  0.00  0.00     0.095 C 
ATOM     19  C   UNL d   1      14.980   5.901 -17.338  0.00  0.00     0.257 C 
ATOM     20  O   UNL d   1      16.199   5.804 -17.436  0.00  0.00    -0.270 OA
ATOM     21  N   UNL d   1      14.288   5.182 -16.442  0.00  0.00    -0.193 NA
ATOM     22  N   UNL d   1      12.332   4.484 -15.270  0.00  0.00    -0.204 NA
ENDBRANCH  11  12
ENDBRANCH  10  11
ENDBRANCH   9  10
ENDBRANCH   8   9
ENDBRANCH   7   8
ENDBRANCH   1   7
BRANCH   4  23
ATOM     23  C   UNL d   1      11.060   8.369  -6.233  0.00  0.00     0.056 A 
ATOM     24  C   UNL d   1      11.426   7.880  -4.963  0.00  0.00     0.016 A 
ATOM     25  C   UNL d   1      11.463   8.718  -3.820  0.00  0.00     0.004 A 
ATOM     26  C   UNL d   1      11.849   6.567  -4.810  0.00  0.00     0.004 A 
ATOM     27  C   UNL d   1      11.062  10.032  -3.932  0.00  0.00     0.000 A 
ATOM     28  C   UNL d   1      11.844   8.263  -2.539  0.00  0.00     0.030 A 
ATOM     29  C   UNL d   1      10.685  10.527  -5.177  0.00  0.00     0.002 A 
ATOM     30  C   UNL d   1      10.688   9.709  -6.312  0.00  0.00     0.017 A 
ATOM     31  C   UNL d   1      12.243   6.941  -2.437  0.00  0.00     0.140 A 
ATOM     32  F   UNL d   1      12.752   6.380  -1.338  0.00  0.00    -0.204 F 
ATOM     33  C   UNL d   1      12.267   6.168  -3.565  0.00  0.00     0.030 A 
ENDBRANCH   4  23
TORSDOF 7
