REMARK  4 active torsions:
REMARK  status: ('A' for Active; 'I' for Inactive)
REMARK    1  A    between atoms: C_2  and  C_3 
REMARK    2  A    between atoms: N_16  and  C_17 
REMARK    3  A    between atoms: C_17  and  C_18 
REMARK    4  A    between atoms: C_18  and  C_19 
ROOT
ATOM      1  O   UNL d   1      10.768   9.954  -7.032  0.00  0.00    -0.221 OA
ATOM      2  C   UNL d   1      11.030   8.614  -6.864  0.00  0.00     0.149 C 
ATOM      3  C   UNL d   1       9.698   7.899  -7.159  0.00  0.00     0.068 C 
ATOM      4  C   UNL d   1       9.422   7.760  -8.672  0.00  0.00     0.222 C 
ATOM      5  C   UNL d   1       9.403   9.110  -9.424  0.00  0.00     0.035 C 
ATOM      6  C   UNL d   1      10.846   9.305  -9.861  0.00  0.00     0.035 C 
ATOM      7  C   UNL d   1      11.567   8.068  -9.329  0.00  0.00     0.222 C 
ATOM      8  C   UNL d   1      12.133   8.249  -7.898  0.00  0.00     0.068 C 
ATOM      9  N   UNL d   1      10.533   7.025  -9.261  0.00  0.00     0.134 N 
ENDROOT
BRANCH   9  10
ATOM     10  C   UNL d   1      10.130   6.504 -10.570  0.00  0.00     0.255 C 
BRANCH  10  11
ATOM     11  C   UNL d   1       9.559   5.089 -10.477  0.00  0.00     0.063 C 
BRANCH  11  12
ATOM     12  C   UNL d   1       9.325   4.493 -11.849  0.00  0.00     0.000 A 
ATOM     13  C   UNL d   1       8.065   4.067 -12.366  0.00  0.00     0.015 A 
ATOM     14  C   UNL d   1       8.268   3.479 -13.654  0.00  0.00     0.081 A 
ATOM     15  C   UNL d   1       6.751   4.061 -11.850  0.00  0.00     0.001 A 
ATOM     16  N   UNL d   1       9.612   3.585 -13.906  0.00  0.00    -0.244 NA
ATOM     17  C   UNL d   1       7.239   2.910 -14.377  0.00  0.00     0.019 A 
ATOM     18  C   UNL d   1      10.238   4.203 -12.853  0.00  0.00     0.095 A 
ATOM     19  C   UNL d   1       5.961   2.923 -13.808  0.00  0.00     0.002 A 
ATOM     20  C   UNL d   1       5.697   3.507 -12.563  0.00  0.00     0.000 A 
ENDBRANCH  11  12
ENDBRANCH  10  11
ENDBRANCH   9  10
BRANCH   2  21
ATOM     21  C   UNL d   1      11.456   8.450  -5.433  0.00  0.00     0.005 A 
ATOM     22  C   UNL d   1      11.650   7.158  -4.915  0.00  0.00    -0.001 A 
ATOM     23  C   UNL d   1      12.075   7.023  -3.591  0.00  0.00     0.011 A 
ATOM     24  C   UNL d   1      12.244   8.191  -2.835  0.00  0.00     0.058 A 
ATOM     25  C   UNL d   1      12.082   9.474  -3.319  0.00  0.00     0.011 A 
ATOM     26 CL   UNL d   1      12.671   8.101  -1.241  0.00  0.00    -0.082 Cl
ATOM     27  C   UNL d   1      11.671   9.608  -4.625  0.00  0.00    -0.001 A 
ENDBRANCH   2  21
TORSDOF 4
