REMARK  3 active torsions:
REMARK  status: ('A' for Active; 'I' for Inactive)
REMARK    1  A    between atoms: C_2  and  C_3 
REMARK    2  A    between atoms: C_2  and  N_6 
REMARK    3  A    between atoms: C_9  and  C_10 
ROOT
ATOM      1  N   UNL d   1       7.523   2.612 -14.092  0.00  0.00     0.135 N 
ATOM      2  C   UNL d   1       6.349   3.473 -13.819  0.00  0.00     0.250 C 
ATOM      3  C   UNL d   1       6.568   4.209 -12.491  0.00  0.00     0.036 C 
ATOM      4  C   UNL d   1       7.843   5.042 -12.555  0.00  0.00     0.011 C 
ATOM      5  C   UNL d   1       9.037   4.206 -13.036  0.00  0.00     0.036 C 
ATOM      6  C   UNL d   1       8.705   3.456 -14.316  0.00  0.00     0.250 C 
ENDROOT
BRANCH   4   7
ATOM      7  C   UNL d   1       8.128   5.776 -11.200  0.00  0.00     0.062 C 
ATOM      8  C   UNL d   1       9.157   6.902 -11.308  0.00  0.00     0.172 C 
ATOM      9  C   UNL d   1       9.872   7.303 -10.062  0.00  0.00     0.031 A 
ATOM     10  O   UNL d   1       9.352   7.458 -12.408  0.00  0.00    -0.291 OA
ATOM     11  C   UNL d   1       9.660   6.618  -8.828  0.00  0.00    -0.019 A 
ATOM     12  C   UNL d   1      10.774   8.377 -10.101  0.00  0.00     0.003 A 
ATOM     13  C   UNL d   1       8.706   5.454  -8.722  0.00  0.00     0.027 C 
ATOM     14  C   UNL d   1      10.358   7.022  -7.660  0.00  0.00    -0.004 A 
ATOM     15  C   UNL d   1       8.523   4.783 -10.059  0.00  0.00     0.012 C 
ATOM     16  C   UNL d   1      11.257   8.104  -7.722  0.00  0.00    -0.000 A 
ATOM     17  C   UNL d   1      11.461   8.770  -8.945  0.00  0.00     0.000 A 
ENDBRANCH   4   7
BRANCH   1  18
ATOM     18  C   UNL d   1       7.304   1.654 -15.196  0.00  0.00     0.219 C 
ATOM     19  C   UNL d   1       8.567   0.819 -15.541  0.00  0.00     0.035 C 
BRANCH  18  20
ATOM     20  C   UNL d   1       6.101   0.735 -14.939  0.00  0.00     0.031 A 
ATOM     21  C   UNL d   1       6.221  -0.651 -14.336  0.00  0.00     0.002 A 
ATOM     22  C   UNL d   1       5.521   0.430 -13.563  0.00  0.00     0.002 A 
ENDBRANCH  18  20
ENDBRANCH   1  18
TORSDOF 3
