REMARK  8 active torsions:
REMARK  status: ('A' for Active; 'I' for Inactive)
REMARK       I    between atoms: N_2  and  C_3 
REMARK    1  A    between atoms: C_3  and  C_5 
REMARK    2  A    between atoms: C_7  and  O_8 
REMARK    3  A    between atoms: O_8  and  C_9 
REMARK    4  A    between atoms: C_9  and  C_10 
REMARK    5  A    between atoms: C_10  and  C_11 
REMARK    6  A    between atoms: C_11  and  C_12 
REMARK    7  A    between atoms: C_12  and  N_13 
REMARK    8  A    between atoms: N_16  and  C_17 
ROOT
ATOM      1  N   UNL d   1       9.230   5.949 -10.432  0.00  0.00     0.141 N 
ATOM      2  C   UNL d   1       9.794   7.293 -10.638  0.00  0.00     0.274 C 
ATOM      3  C   UNL d   1      11.039   7.496  -9.756  0.00  0.00     0.137 C 
ATOM      4  N   UNL d   1      10.702   7.253  -8.362  0.00  0.00    -0.344 N 
ATOM      5  C   UNL d   1      10.005   6.007  -8.106  0.00  0.00     0.137 C 
ATOM      6  C   UNL d   1       8.808   5.849  -9.026  0.00  0.00     0.274 C 
ENDROOT
BRANCH   1   7
ATOM      7  C   UNL d   1       8.055   5.798 -11.285  0.00  0.00     0.251 C 
BRANCH   7   8
ATOM      8  C   UNL d   1       7.587   4.360 -11.398  0.00  0.00     0.038 C 
BRANCH   8   9
ATOM      9  C   UNL d   1       6.356   4.244 -12.336  0.00  0.00     0.035 C 
BRANCH   9  10
ATOM     10  C   UNL d   1       5.668   2.872 -12.092  0.00  0.00     0.149 C 
BRANCH  10  11
ATOM     11  O   UNL d   1       5.203   2.193 -13.232  0.00  0.00    -0.331 OA
BRANCH  11  12
ATOM     12  C   UNL d   1       6.120   1.560 -14.057  0.00  0.00     0.097 A 
ATOM     13  C   UNL d   1       7.462   1.961 -14.194  0.00  0.00     0.048 A 
ATOM     14  C   UNL d   1       8.298   1.296 -15.120  0.00  0.00     0.141 A 
ATOM     15  N   UNL d   1       7.838   0.251 -15.866  0.00  0.00    -0.239 NA
ATOM     16  C   UNL d   1       6.558  -0.163 -15.690  0.00  0.00     0.101 A 
ATOM     17  C   UNL d   1       5.657   0.468 -14.812  0.00  0.00     0.045 A 
BRANCH  14  18
ATOM     18  C   UNL d   1       9.747   1.709 -15.278  0.00  0.00     0.293 C 
ATOM     19  N   UNL d   1      10.072   2.891 -14.716  0.00  0.00    -0.231 NA
ATOM     20  C   UNL d   1      11.399   3.481 -14.711  0.00  0.00     0.155 C 
ATOM     21  O   UNL d   1      10.572   1.007 -15.867  0.00  0.00    -0.264 OA
ENDBRANCH  14  18
ENDBRANCH  11  12
ENDBRANCH  10  11
ENDBRANCH   9  10
ENDBRANCH   8   9
ENDBRANCH   7   8
ENDBRANCH   1   7
BRANCH   4  22
ATOM     22  C   UNL d   1      11.021   8.152  -7.311  0.00  0.00     0.057 C 
ATOM     23  C   UNL d   1      11.356   7.744  -5.992  0.00  0.00     0.022 A 
ATOM     24  C   UNL d   1      11.611   8.739  -4.998  0.00  0.00     0.031 A 
ATOM     25  C   UNL d   1      11.553   6.442  -5.440  0.00  0.00     0.009 A 
ATOM     26  C   UNL d   1      11.526  10.076  -5.302  0.00  0.00     0.007 C 
ATOM     27  S   UNL d   1      12.075   8.074  -3.447  0.00  0.00    -0.086 SA
ATOM     28  C   UNL d   1      11.309  10.450  -6.606  0.00  0.00     0.002 C 
ATOM     29  C   UNL d   1      11.018   9.523  -7.608  0.00  0.00     0.017 C 
ATOM     30  C   UNL d   1      11.864   6.472  -4.102  0.00  0.00     0.035 A 
ENDBRANCH   4  22
TORSDOF 8
