REMARK  7 active torsions:
REMARK  status: ('A' for Active; 'I' for Inactive)
REMARK    1  A    between atoms: C_2  and  C_3 
REMARK       I    between atoms: C_2  and  N_13 
REMARK    2  A    between atoms: C_3  and  C_4 
REMARK    3  A    between atoms: N_13  and  C_14 
REMARK    4  A    between atoms: C_17  and  C_18 
REMARK    5  A    between atoms: C_18  and  C_19 
REMARK    6  A    between atoms: C_19  and  N_20 
REMARK    7  A    between atoms: C_23  and  C_24 
ROOT
ATOM      1  C   UNL d   1       9.083   2.921 -15.482  0.00  0.00     0.106 C 
ATOM      2  C   UNL d   1       7.997   2.747 -14.396  0.00  0.00     0.024 C 
ATOM      3  C   UNL d   1       7.911   3.944 -13.448  0.00  0.00     0.002 C 
ATOM      4  C   UNL d   1       9.282   4.240 -12.818  0.00  0.00     0.002 C 
ATOM      5  C   UNL d   1      10.347   4.424 -13.915  0.00  0.00     0.002 C 
ATOM      6  C   UNL d   1      10.444   3.214 -14.844  0.00  0.00     0.024 C 
ENDROOT
BRANCH   4   7
ATOM      7  C   UNL d   1       9.229   5.468 -11.894  0.00  0.00     0.035 C 
BRANCH   7   8
ATOM      8  C   UNL d   1       8.698   5.146 -10.482  0.00  0.00     0.250 C 
BRANCH   8   9
ATOM      9  N   UNL d   1       9.109   6.130  -9.484  0.00  0.00     0.137 N 
ATOM     10  C   UNL d   1       8.556   5.743  -8.179  0.00  0.00     0.251 C 
ATOM     11  C   UNL d   1       8.934   6.771  -7.097  0.00  0.00     0.040 C 
ATOM     12  C   UNL d   1      10.457   6.939  -6.986  0.00  0.00     0.028 C 
ATOM     13  C   UNL d   1      11.033   7.215  -8.372  0.00  0.00     0.040 C 
ATOM     14  C   UNL d   1      10.565   6.170  -9.371  0.00  0.00     0.251 C 
BRANCH  12  15
ATOM     15  C   UNL d   1      10.831   8.048  -6.055  0.00  0.00     0.004 A 
ATOM     16  C   UNL d   1      11.434   7.945  -4.757  0.00  0.00     0.021 A 
ATOM     17  C   UNL d   1      11.574   9.272  -4.281  0.00  0.00     0.100 A 
ATOM     18  C   UNL d   1      11.861   6.905  -3.902  0.00  0.00     0.002 A 
ATOM     19  O   UNL d   1      11.085  10.156  -5.220  0.00  0.00    -0.305 OA
ATOM     20  C   UNL d   1      12.110   9.577  -3.030  0.00  0.00     0.025 A 
ATOM     21  C   UNL d   1      10.666   9.400  -6.273  0.00  0.00     0.118 A 
ATOM     22  C   UNL d   1      12.542   8.525  -2.200  0.00  0.00     0.002 A 
ATOM     23  C   UNL d   1      12.405   7.189  -2.634  0.00  0.00     0.000 A 
ENDBRANCH  12  15
ENDBRANCH   8   9
ENDBRANCH   7   8
ENDBRANCH   4   7
BRANCH   1  24
ATOM     24  N   UNL d   1       9.183   1.716 -16.304  0.00  0.00    -0.240 NA
ATOM     25  C   UNL d   1       8.493   1.494 -17.433  0.00  0.00     0.258 C 
ATOM     26  O   UNL d   1       7.864   2.367 -18.030  0.00  0.00    -0.270 OA
BRANCH  25  27
ATOM     27  C   UNL d   1       8.451   0.052 -17.943  0.00  0.00     0.138 C 
BRANCH  27  28
ATOM     28  C   UNL d   1       7.056  -0.511 -17.788  0.00  0.00     0.097 A 
ATOM     29  C   UNL d   1       6.166  -0.521 -16.686  0.00  0.00     0.041 A 
ATOM     30  C   UNL d   1       4.989  -1.177 -17.044  0.00  0.00     0.126 A 
ATOM     31  C   UNL d   1       6.300  -0.030 -15.371  0.00  0.00     0.003 A 
ATOM     32  O   UNL d   1       5.186  -1.567 -18.360  0.00  0.00    -0.211 OA
ATOM     33  C   UNL d   1       3.914  -1.348 -16.154  0.00  0.00     0.027 A 
ATOM     34  N   UNL d   1       6.473  -1.144 -18.806  0.00  0.00    -0.130 NA
ATOM     35  C   UNL d   1       4.031  -0.812 -14.851  0.00  0.00     0.002 A 
ATOM     36  C   UNL d   1       5.224  -0.153 -14.463  0.00  0.00     0.000 A 
ENDBRANCH  27  28
ENDBRANCH  25  27
ENDBRANCH   1  24
TORSDOF 7
