REMARK  6 active torsions:
REMARK  status: ('A' for Active; 'I' for Inactive)
REMARK    1  A    between atoms: C_5  and  N_6 
REMARK    2  A    between atoms: N_9  and  C_10 
REMARK    3  A    between atoms: C_10  and  C_11 
REMARK    4  A    between atoms: C_11  and  C_12 
REMARK    5  A    between atoms: C_15  and  N_16 
REMARK    6  A    between atoms: N_16  and  C_17 
ROOT
ATOM      1  C   UNL d   1       8.788   5.775 -10.143  0.00  0.00     0.250 C 
ENDROOT
BRANCH   1   2
ATOM      2  N   UNL d   1       8.365   5.470 -11.506  0.00  0.00     0.141 N 
ATOM      3  C   UNL d   1       7.020   4.890 -11.454  0.00  0.00     0.274 C 
ATOM      4  C   UNL d   1       6.486   4.618 -12.861  0.00  0.00     0.137 C 
ATOM      5  N   UNL d   1       7.408   3.753 -13.598  0.00  0.00    -0.344 N 
ATOM      6  C   UNL d   1       8.803   4.203 -13.588  0.00  0.00     0.137 C 
ATOM      7  C   UNL d   1       9.258   4.506 -12.151  0.00  0.00     0.274 C 
BRANCH   5   8
ATOM      8  C   UNL d   1       7.009   2.524 -14.154  0.00  0.00     0.056 A 
ATOM      9  C   UNL d   1       7.687   1.977 -15.279  0.00  0.00     0.019 A 
ATOM     10  C   UNL d   1       7.259   0.769 -15.864  0.00  0.00     0.031 A 
ATOM     11  C   UNL d   1       6.154   0.083 -15.339  0.00  0.00     0.140 A 
ATOM     12  F   UNL d   1       5.723  -1.059 -15.918  0.00  0.00    -0.204 F 
ATOM     13  C   UNL d   1       5.486   0.585 -14.219  0.00  0.00     0.031 A 
ATOM     14  C   UNL d   1       5.899   1.794 -13.637  0.00  0.00     0.019 A 
ENDBRANCH   5   8
ENDBRANCH   1   2
BRANCH   1  15
ATOM     15  C   UNL d   1       9.885   6.854 -10.142  0.00  0.00     0.035 C 
BRANCH  15  16
ATOM     16  C   UNL d   1      10.276   7.357  -8.744  0.00  0.00     0.002 C 
ATOM     17  C   UNL d   1       9.139   8.140  -8.065  0.00  0.00     0.002 C 
ATOM     18  C   UNL d   1       9.511   8.611  -6.674  0.00  0.00     0.025 C 
ATOM     19  C   UNL d   1      10.830   9.429  -6.657  0.00  0.00     0.122 C 
ATOM     20  C   UNL d   1      11.962   8.707  -7.441  0.00  0.00     0.025 C 
ATOM     21  C   UNL d   1      11.534   8.245  -8.834  0.00  0.00     0.002 C 
BRANCH  19  22
ATOM     22  N   UNL d   1      11.237   9.826  -5.313  0.00  0.00    -0.088 NA
BRANCH  22  23
ATOM     23  C   UNL d   1      11.584   8.943  -4.308  0.00  0.00     0.746 A 
ATOM     24  N   UNL d   1      11.543   7.646  -4.575  0.00  0.00    -0.058 NA
ATOM     25  C   UNL d   1      11.870   6.778  -3.619  0.00  0.00     0.120 A 
ATOM     26  C   UNL d   1      12.264   7.207  -2.367  0.00  0.00     0.043 A 
ATOM     27  C   UNL d   1      12.264   8.600  -2.159  0.00  0.00     0.120 A 
ATOM     28  N   UNL d   1      11.922   9.463  -3.148  0.00  0.00    -0.058 NA
ENDBRANCH  22  23
ENDBRANCH  19  22
ENDBRANCH  15  16
ENDBRANCH   1  15
TORSDOF 6
