REMARK  6 active torsions:
REMARK  status: ('A' for Active; 'I' for Inactive)
REMARK       I    between atoms: C_2  and  N_3 
REMARK    1  A    between atoms: C_2  and  C_23 
REMARK    2  A    between atoms: N_3  and  C_4 
REMARK    3  A    between atoms: C_4  and  C_5 
REMARK    4  A    between atoms: C_5  and  C_6 
REMARK    5  A    between atoms: C_6  and  C_7 
REMARK    6  A    between atoms: C_7  and  N_8 
ROOT
ATOM      1  C   UNL d   1       9.071   3.789 -16.071  0.00  0.00     0.251 C 
ENDROOT
BRANCH   1   2
ATOM      2  C   UNL d   1       8.779   3.600 -14.568  0.00  0.00     0.037 C 
BRANCH   2   3
ATOM      3  C   UNL d   1       7.355   4.027 -14.184  0.00  0.00     0.029 C 
BRANCH   3   4
ATOM      4  C   UNL d   1       6.981   3.997 -12.711  0.00  0.00     0.129 C 
BRANCH   4   5
ATOM      5  N   UNL d   1       7.981   4.618 -11.845  0.00  0.00    -0.233 NA
ATOM      6  C   UNL d   1       8.481   5.859 -11.992  0.00  0.00     0.293 C 
ATOM      7  O   UNL d   1       8.348   6.549 -13.002  0.00  0.00    -0.264 OA
BRANCH   6   8
ATOM      8  C   UNL d   1       9.223   6.431 -10.851  0.00  0.00     0.139 A 
ATOM      9  N   UNL d   1       9.139   5.851  -9.592  0.00  0.00    -0.241 NA
ATOM     10  C   UNL d   1       9.787   6.625  -8.661  0.00  0.00     0.082 A 
ATOM     11  C   UNL d   1      10.326   7.744  -9.363  0.00  0.00     0.019 A 
ATOM     12  C   UNL d   1       9.935   6.471  -7.282  0.00  0.00     0.019 A 
ATOM     13  C   UNL d   1       9.931   7.598 -10.738  0.00  0.00     0.025 A 
ATOM     14  C   UNL d   1      11.049   8.706  -8.630  0.00  0.00     0.002 A 
ATOM     15  C   UNL d   1      11.224   8.547  -7.235  0.00  0.00     0.000 A 
ATOM     16  C   UNL d   1      10.666   7.434  -6.566  0.00  0.00     0.002 A 
ENDBRANCH   6   8
ENDBRANCH   4   5
ENDBRANCH   3   4
ENDBRANCH   2   3
ENDBRANCH   1   2
BRANCH   1  17
ATOM     17  N   UNL d   1      10.463   3.653 -16.449  0.00  0.00     0.143 N 
ATOM     18  C   UNL d   1      10.682   3.826 -17.904  0.00  0.00     0.280 C 
ATOM     19  C   UNL d   1      12.153   3.583 -18.299  0.00  0.00     0.173 C 
ATOM     20  C   UNL d   1      10.307   5.221 -18.459  0.00  0.00     0.185 C 
ATOM     21  O   UNL d   1      12.623   2.344 -17.775  0.00  0.00    -0.348 OA
ATOM     22  C   UNL d   1      13.018   4.771 -17.905  0.00  0.00     0.031 A 
ATOM     23  C   UNL d   1      12.410   2.179 -16.383  0.00  0.00     0.178 C 
ATOM     24  C   UNL d   1      10.957   2.351 -16.051  0.00  0.00     0.282 C 
ATOM     25  C   UNL d   1      12.409   6.038 -17.709  0.00  0.00     0.092 A 
ATOM     26  C   UNL d   1      14.416   4.622 -17.758  0.00  0.00     0.028 A 
ATOM     27  C   UNL d   1      13.208   7.144 -17.369  0.00  0.00     0.026 A 
ATOM     28  O   UNL d   1      11.053   6.246 -17.814  0.00  0.00    -0.329 OA
ATOM     29  C   UNL d   1      14.596   7.000 -17.258  0.00  0.00     0.029 A 
ATOM     30  C   UNL d   1      15.209   5.743 -17.431  0.00  0.00     0.131 A 
ATOM     31  O   UNL d   1      16.561   5.611 -17.301  0.00  0.00    -0.190 OA
ENDBRANCH   1  17
TORSDOF 6
