REMARK  6 active torsions:
REMARK  status: ('A' for Active; 'I' for Inactive)
REMARK    1  A    between atoms: O_2  and  C_3 
REMARK    2  A    between atoms: C_8  and  N_9 
REMARK    3  A    between atoms: N_12  and  C_13 
REMARK    4  A    between atoms: C_13  and  C_14 
REMARK    5  A    between atoms: C_14  and  C_15 
REMARK    6  A    between atoms: C_21  and  N_22 
ROOT
ATOM      1  C   UNL d   1       9.242   6.275 -11.295  0.00  0.00     0.251 C 
ENDROOT
BRANCH   1   2
ATOM      2  N   UNL d   1       8.159   5.603 -12.015  0.00  0.00     0.141 N 
ATOM      3  C   UNL d   1       8.238   5.859 -13.447  0.00  0.00     0.274 C 
ATOM      4  C   UNL d   1       9.552   5.325 -14.058  0.00  0.00     0.137 C 
ATOM      5  N   UNL d   1       9.709   3.922 -13.709  0.00  0.00    -0.343 N 
ATOM      6  C   UNL d   1       9.466   3.551 -12.325  0.00  0.00     0.137 C 
ATOM      7  C   UNL d   1       8.128   4.156 -11.820  0.00  0.00     0.274 C 
BRANCH   5   8
ATOM      8  C   UNL d   1       9.909   2.957 -14.699  0.00  0.00     0.079 A 
ATOM      9  C   UNL d   1       9.000   1.882 -14.880  0.00  0.00     0.110 A 
ATOM     10  C   UNL d   1       9.277   0.912 -15.877  0.00  0.00     0.026 A 
ATOM     11  C   UNL d   1      10.426   1.027 -16.683  0.00  0.00     0.002 A 
ATOM     12  C   UNL d   1      11.316   2.099 -16.499  0.00  0.00     0.002 A 
ATOM     13  C   UNL d   1      11.056   3.060 -15.508  0.00  0.00     0.019 A 
BRANCH   9  14
ATOM     14  O   UNL d   1       7.870   1.840 -14.086  0.00  0.00    -0.327 OA
ATOM     15  C   UNL d   1       7.024   0.700 -14.160  0.00  0.00     0.181 C 
ENDBRANCH   9  14
ENDBRANCH   5   8
ENDBRANCH   1   2
BRANCH   1  16
ATOM     16  C   UNL d   1       9.081   6.091  -9.772  0.00  0.00     0.038 C 
BRANCH  16  17
ATOM     17  C   UNL d   1      10.134   6.877  -8.988  0.00  0.00     0.037 C 
ATOM     18  C   UNL d   1      10.006   6.630  -7.475  0.00  0.00     0.174 C 
ATOM     19  C   UNL d   1      10.882   7.539  -6.613  0.00  0.00     0.005 A 
ATOM     20  O   UNL d   1       8.667   6.790  -7.078  0.00  0.00    -0.219 OA
ATOM     21  C   UNL d   1      11.446   8.722  -7.145  0.00  0.00    -0.024 A 
ATOM     22  C   UNL d   1      11.081   7.209  -5.250  0.00  0.00     0.021 A 
ATOM     23  C   UNL d   1      11.291   9.081  -8.618  0.00  0.00     0.026 C 
ATOM     24  C   UNL d   1      12.168   9.574  -6.292  0.00  0.00    -0.003 A 
ATOM     25  C   UNL d   1      10.132   8.372  -9.309  0.00  0.00     0.008 C 
ATOM     26  C   UNL d   1      12.343   9.234  -4.927  0.00  0.00     0.023 A 
ATOM     27  C   UNL d   1      11.818   8.045  -4.383  0.00  0.00     0.126 A 
BRANCH  27  28
ATOM     28  N   UNL d   1      12.018   7.700  -2.990  0.00  0.00    -0.114 N 
ATOM     29  O   UNL d   1      12.282   8.587  -2.202  0.00  0.00    -0.532 OA
ATOM     30  O   UNL d   1      11.914   6.536  -2.654  0.00  0.00    -0.532 OA
ENDBRANCH  27  28
ENDBRANCH  16  17
ENDBRANCH   1  16
TORSDOF 6
