REMARK  7 active torsions:
REMARK  status: ('A' for Active; 'I' for Inactive)
REMARK    1  A    between atoms: C_7  and  O_8 
REMARK    2  A    between atoms: O_8  and  C_9 
REMARK    3  A    between atoms: C_9  and  C_10 
REMARK    4  A    between atoms: C_10  and  C_11 
REMARK    5  A    between atoms: C_11  and  C_12 
REMARK    6  A    between atoms: C_12  and  N_13 
REMARK    7  A    between atoms: N_16  and  C_17 
ROOT
ATOM      1  C   UNL d   1       8.110   6.142 -12.390  0.00  0.00     0.251 C 
ENDROOT
BRANCH   1   2
ATOM      2  C   UNL d   1       9.290   6.385 -11.445  0.00  0.00     0.038 C 
BRANCH   2   3
ATOM      3  C   UNL d   1       9.598   7.883 -11.312  0.00  0.00     0.035 C 
BRANCH   3   4
ATOM      4  C   UNL d   1      10.534   8.226 -10.155  0.00  0.00     0.149 C 
BRANCH   4   5
ATOM      5  O   UNL d   1      10.235   7.479  -8.981  0.00  0.00    -0.331 OA
BRANCH   5   6
ATOM      6  C   UNL d   1      10.726   7.926  -7.778  0.00  0.00     0.096 A 
ATOM      7  C   UNL d   1      11.189   9.262  -7.603  0.00  0.00     0.026 A 
ATOM      8  C   UNL d   1      11.677   9.707  -6.361  0.00  0.00     0.023 A 
ATOM      9  C   UNL d   1      11.686   8.774  -5.308  0.00  0.00     0.104 A 
ATOM     10  N   UNL d   1      12.151   8.889  -3.997  0.00  0.00    -0.189 NA
ATOM     11  C   UNL d   1      11.244   7.476  -5.455  0.00  0.00     0.106 A 
ATOM     12  C   UNL d   1      12.003   7.714  -3.343  0.00  0.00     0.369 A 
ATOM     13  O   UNL d   1      12.286   7.497  -2.170  0.00  0.00    -0.242 OA
ATOM     14  N   UNL d   1      11.458   6.832  -4.221  0.00  0.00    -0.189 NA
ATOM     15  C   UNL d   1      10.743   7.019  -6.691  0.00  0.00     0.045 A 
ENDBRANCH   5   6
ENDBRANCH   4   5
ENDBRANCH   3   4
ENDBRANCH   2   3
ENDBRANCH   1   2
BRANCH   1  16
ATOM     16  N   UNL d   1       7.975   4.711 -12.636  0.00  0.00     0.141 N 
ATOM     17  C   UNL d   1       6.609   4.451 -13.098  0.00  0.00     0.274 C 
ATOM     18  C   UNL d   1       6.367   2.973 -13.399  0.00  0.00     0.137 C 
ATOM     19  N   UNL d   1       7.409   2.460 -14.292  0.00  0.00    -0.344 N 
ATOM     20  C   UNL d   1       8.792   2.793 -13.956  0.00  0.00     0.137 C 
ATOM     21  C   UNL d   1       8.939   4.295 -13.666  0.00  0.00     0.274 C 
BRANCH  19  22
ATOM     22  C   UNL d   1       7.119   1.673 -15.431  0.00  0.00     0.068 A 
ATOM     23  C   UNL d   1       6.172   0.612 -15.414  0.00  0.00     0.084 A 
ATOM     24  C   UNL d   1       5.860  -0.058 -16.622  0.00  0.00     0.070 A 
ATOM     25 CL   UNL d   1       5.387   0.068 -13.967  0.00  0.00    -0.080 Cl
ATOM     26  C   UNL d   1       6.503   0.285 -17.818  0.00  0.00     0.012 A 
ATOM     27 CL   UNL d   1       4.672  -1.314 -16.640  0.00  0.00    -0.081 Cl
ATOM     28  C   UNL d   1       7.475   1.294 -17.833  0.00  0.00     0.002 A 
ATOM     29  C   UNL d   1       7.778   1.982 -16.636  0.00  0.00     0.018 A 
ENDBRANCH  19  22
ENDBRANCH   1  16
TORSDOF 7
