REMARK  5 active torsions:
REMARK  status: ('A' for Active; 'I' for Inactive)
REMARK    1  A    between atoms: O_2  and  C_3 
REMARK    2  A    between atoms: C_6  and  N_7 
REMARK    3  A    between atoms: N_7  and  S_8 
REMARK    4  A    between atoms: S_8  and  C_11 
REMARK    5  A    between atoms: C_23  and  N_24 
ROOT
ATOM      1  C   UNL d   1       9.590   1.530 -15.607  0.00  0.00     0.110 A 
ATOM      2  C   UNL d   1      10.818   2.119 -15.228  0.00  0.00     0.027 A 
ATOM      3  C   UNL d   1      10.855   3.156 -14.278  0.00  0.00     0.022 A 
ATOM      4  C   UNL d   1       9.663   3.611 -13.674  0.00  0.00     0.095 A 
ATOM      5  C   UNL d   1       8.436   3.027 -14.052  0.00  0.00     0.039 A 
ATOM      6  C   UNL d   1       8.384   2.000 -15.021  0.00  0.00     0.080 A 
ENDROOT
BRANCH   4   7
ATOM      7  N   UNL d   1       9.720   4.626 -12.712  0.00  0.00    -0.158 NA
BRANCH   7   8
ATOM      8  S   UNL d   1       8.434   5.457 -11.895  0.00  0.00     0.291 S 
ATOM      9  O   UNL d   1       7.928   6.451 -12.844  0.00  0.00    -0.198 OA
ATOM     10  O   UNL d   1       7.560   4.401 -11.349  0.00  0.00    -0.198 OA
BRANCH   8  11
ATOM     11  C   UNL d   1       9.214   6.349 -10.548  0.00  0.00     0.131 A 
ATOM     12  C   UNL d   1       9.385   5.925  -9.251  0.00  0.00    -0.003 A 
ATOM     13  C   UNL d   1      10.047   6.920  -8.436  0.00  0.00     0.004 A 
ATOM     14  C   UNL d   1       8.958   4.607  -8.734  0.00  0.00     0.032 C 
ATOM     15  C   UNL d   1      10.382   8.086  -9.183  0.00  0.00     0.030 A 
ATOM     16  C   UNL d   1      10.412   6.913  -7.066  0.00  0.00     0.012 A 
ATOM     17  S   UNL d   1       9.861   7.941 -10.842  0.00  0.00    -0.074 SA
ATOM     18  C   UNL d   1      11.040   9.179  -8.601  0.00  0.00     0.007 A 
ATOM     19  C   UNL d   1      11.371   9.150  -7.233  0.00  0.00     0.012 A 
ATOM     20  C   UNL d   1      11.049   8.015  -6.468  0.00  0.00     0.058 A 
ATOM     21 CL   UNL d   1      11.465   7.960  -4.796  0.00  0.00    -0.082 Cl
ENDBRANCH   8  11
ENDBRANCH   7   8
ENDBRANCH   4   7
BRANCH   6  22
ATOM     22  N   UNL d   1       7.126   1.486 -15.399  0.00  0.00    -0.343 N 
ATOM     23  C   UNL d   1       6.770   1.241 -16.795  0.00  0.00     0.137 C 
ATOM     24  C   UNL d   1       6.384  -0.238 -16.994  0.00  0.00     0.274 C 
ATOM     25  N   UNL d   1       5.300  -0.603 -16.072  0.00  0.00     0.143 N 
ATOM     26  C   UNL d   1       5.785  -0.464 -14.691  0.00  0.00     0.274 C 
ATOM     27  C   UNL d   1       4.909  -1.982 -16.317  0.00  0.00     0.286 C 
ATOM     28  C   UNL d   1       6.185   1.001 -14.396  0.00  0.00     0.137 C 
ENDBRANCH   6  22
BRANCH   1  29
ATOM     29  O   UNL d   1       9.504   0.543 -16.562  0.00  0.00    -0.327 OA
ATOM     30  C   UNL d   1      10.561  -0.386 -16.654  0.00  0.00     0.181 C 
ENDBRANCH   1  29
TORSDOF 5
