REMARK  6 active torsions:
REMARK  status: ('A' for Active; 'I' for Inactive)
REMARK    1  A    between atoms: O_2  and  C_3 
REMARK    2  A    between atoms: C_8  and  N_9 
REMARK    3  A    between atoms: N_12  and  C_13 
REMARK    4  A    between atoms: C_13  and  C_14 
REMARK    5  A    between atoms: C_14  and  O_15 
REMARK    6  A    between atoms: O_15  and  C_16 
ROOT
ATOM      1  N   UNL d   1       9.157   4.022 -13.668  0.00  0.00    -0.343 N 
ATOM      2  C   UNL d   1       8.985   5.404 -14.029  0.00  0.00     0.137 C 
ATOM      3  C   UNL d   1       8.561   6.242 -12.800  0.00  0.00     0.274 C 
ATOM      4  N   UNL d   1       9.517   6.077 -11.707  0.00  0.00     0.144 N 
ATOM      5  C   UNL d   1       9.520   4.665 -11.315  0.00  0.00     0.274 C 
ATOM      6  C   UNL d   1       9.991   3.809 -12.505  0.00  0.00     0.137 C 
ENDROOT
BRANCH   4   7
ATOM      7  C   UNL d   1       9.133   6.952 -10.594  0.00  0.00     0.283 C 
BRANCH   7   8
ATOM      8  C   UNL d   1      10.291   7.107  -9.587  0.00  0.00     0.184 C 
BRANCH   8   9
ATOM      9  O   UNL d   1      10.005   8.139  -8.644  0.00  0.00    -0.329 OA
BRANCH   9  10
ATOM     10  C   UNL d   1      10.506   8.023  -7.363  0.00  0.00     0.096 A 
ATOM     11  C   UNL d   1      10.928   6.768  -6.843  0.00  0.00     0.026 A 
ATOM     12  C   UNL d   1      11.456   6.678  -5.541  0.00  0.00     0.025 A 
ATOM     13  C   UNL d   1      11.538   7.831  -4.753  0.00  0.00     0.124 A 
ATOM     14  N   UNL d   1      12.029   7.934  -3.522  0.00  0.00    -0.127 NA
ATOM     15  C   UNL d   1      11.109   9.046  -5.231  0.00  0.00     0.126 A 
ATOM     16  N   UNL d   1      11.858   9.270  -3.296  0.00  0.00    -0.042 NA
ATOM     17  N   UNL d   1      11.265   9.987  -4.308  0.00  0.00    -0.127 NA
ATOM     18  C   UNL d   1      10.591   9.181  -6.537  0.00  0.00     0.047 A 
ENDBRANCH   9  10
ENDBRANCH   8   9
ENDBRANCH   7   8
ENDBRANCH   4   7
BRANCH   1  19
ATOM     19  C   UNL d   1       8.466   2.999 -14.324  0.00  0.00     0.079 A 
ATOM     20  C   UNL d   1       7.102   2.768 -14.052  0.00  0.00     0.110 A 
ATOM     21  C   UNL d   1       6.434   1.720 -14.735  0.00  0.00     0.026 A 
ATOM     22  C   UNL d   1       7.097   0.957 -15.714  0.00  0.00     0.002 A 
ATOM     23  C   UNL d   1       8.450   1.208 -15.989  0.00  0.00     0.002 A 
ATOM     24  C   UNL d   1       9.136   2.217 -15.285  0.00  0.00     0.019 A 
BRANCH  20  25
ATOM     25  O   UNL d   1       6.497   3.561 -13.092  0.00  0.00    -0.327 OA
ATOM     26  C   UNL d   1       5.082   3.572 -13.008  0.00  0.00     0.181 C 
ENDBRANCH  20  25
ENDBRANCH   1  19
TORSDOF 6
