REMARK  7 active torsions:
REMARK  status: ('A' for Active; 'I' for Inactive)
REMARK    1  A    between atoms: C_3  and  C_4 
REMARK    2  A    between atoms: N_15  and  C_16 
REMARK    3  A    between atoms: C_16  and  C_17 
REMARK    4  A    between atoms: C_17  and  C_18 
REMARK    5  A    between atoms: C_18  and  C_19 
REMARK    6  A    between atoms: C_19  and  N_20 
REMARK    7  A    between atoms: C_24  and  C_25 
ROOT
ATOM      1  O   UNL d   1      11.764   2.136 -15.999  0.00  0.00    -0.267 OA
ATOM      2  C   UNL d   1      10.682   1.672 -16.366  0.00  0.00     0.265 A 
ATOM      3  C   UNL d   1      10.525   0.887 -17.596  0.00  0.00     0.068 A 
ATOM      4  C   UNL d   1       9.292   0.395 -17.916  0.00  0.00     0.046 A 
ATOM      5  N   UNL d   1       8.158   0.634 -17.141  0.00  0.00    -0.285 N 
ATOM      6  C   UNL d   1       8.239   1.391 -15.948  0.00  0.00     0.333 A 
ATOM      7  O   UNL d   1       7.251   1.605 -15.239  0.00  0.00    -0.246 OA
ATOM      8  N   UNL d   1       9.510   1.892 -15.608  0.00  0.00    -0.249 N 
ATOM      9  C   UNL d   1       6.867   0.105 -17.535  0.00  0.00     0.110 C 
ATOM     10  C   UNL d   1       6.580   0.387 -19.017  0.00  0.00     0.025 C 
ATOM     11  C   UNL d   1       7.757   0.029 -19.938  0.00  0.00     0.008 C 
ATOM     12  C   UNL d   1       9.008  -0.434 -19.178  0.00  0.00     0.044 C 
ENDROOT
BRANCH   8  13
ATOM     13  C   UNL d   1       9.645   2.747 -14.438  0.00  0.00     0.114 C 
BRANCH  13  14
ATOM     14  C   UNL d   1       9.804   4.241 -14.800  0.00  0.00     0.027 C 
BRANCH  14  15
ATOM     15  C   UNL d   1      10.149   5.086 -13.586  0.00  0.00     0.037 C 
BRANCH  15  16
ATOM     16  C   UNL d   1       8.911   5.474 -12.767  0.00  0.00     0.250 C 
BRANCH  16  17
ATOM     17  N   UNL d   1       9.292   5.560 -11.360  0.00  0.00     0.137 N 
ATOM     18  C   UNL d   1       8.318   6.345 -10.604  0.00  0.00     0.255 C 
ATOM     19  C   UNL d   1       8.759   6.466  -9.103  0.00  0.00     0.057 C 
ATOM     20  C   UNL d   1       8.779   5.105  -8.443  0.00  0.00     0.009 C 
ATOM     21  C   UNL d   1       9.662   4.196  -9.264  0.00  0.00     0.036 C 
ATOM     22  C   UNL d   1       9.269   4.238 -10.773  0.00  0.00     0.250 C 
BRANCH  19  23
ATOM     23  C   UNL d   1      10.031   7.226  -8.917  0.00  0.00     0.000 A 
ATOM     24  C   UNL d   1      10.455   7.918  -7.739  0.00  0.00     0.015 A 
ATOM     25  C   UNL d   1      11.726   8.475  -8.029  0.00  0.00     0.081 A 
ATOM     26  C   UNL d   1       9.923   8.128  -6.439  0.00  0.00     0.001 A 
ATOM     27  N   UNL d   1      12.038   8.143  -9.317  0.00  0.00    -0.244 NA
ATOM     28  C   UNL d   1      12.447   9.202  -7.094  0.00  0.00     0.019 A 
ATOM     29  C   UNL d   1      11.019   7.417  -9.844  0.00  0.00     0.095 A 
ATOM     30  C   UNL d   1      11.912   9.415  -5.820  0.00  0.00     0.002 A 
ATOM     31  C   UNL d   1      10.659   8.870  -5.489  0.00  0.00     0.000 A 
ENDBRANCH  19  23
ENDBRANCH  16  17
ENDBRANCH  15  16
ENDBRANCH  14  15
ENDBRANCH  13  14
ENDBRANCH   8  13
BRANCH   3  32
ATOM     32  C   UNL d   1      11.728   0.589 -18.410  0.00  0.00     0.006 A 
ATOM     33  C   UNL d   1      12.103  -0.747 -18.670  0.00  0.00     0.001 A 
ATOM     34  C   UNL d   1      13.238  -1.029 -19.455  0.00  0.00     0.011 A 
ATOM     35  C   UNL d   1      14.019   0.021 -19.972  0.00  0.00     0.058 A 
ATOM     36  C   UNL d   1      13.656   1.357 -19.710  0.00  0.00     0.011 A 
ATOM     37 CL   UNL d   1      15.422  -0.334 -20.912  0.00  0.00    -0.082 Cl
ATOM     38  C   UNL d   1      12.514   1.640 -18.935  0.00  0.00     0.001 A 
ENDBRANCH   3  32
TORSDOF 7
