REMARK  7 active torsions:
REMARK  status: ('A' for Active; 'I' for Inactive)
REMARK    1  A    between atoms: C_2  and  C_3 
REMARK       I    between atoms: C_2  and  N_11 
REMARK    2  A    between atoms: C_14  and  C_16 
REMARK    3  A    between atoms: C_16  and  N_17 
REMARK    4  A    between atoms: N_17  and  C_18 
REMARK    5  A    between atoms: C_18  and  C_19 
REMARK    6  A    between atoms: C_19  and  O_20 
REMARK    7  A    between atoms: O_20  and  C_21 
ROOT
ATOM      1  O   UNL d   1       9.358   1.298 -14.820  0.00  0.00    -0.267 OA
ATOM      2  C   UNL d   1       8.265   1.800 -14.500  0.00  0.00     0.257 C 
ATOM      3  N   UNL d   1       8.157   3.049 -13.972  0.00  0.00    -0.317 N 
ATOM      4  C   UNL d   1       9.345   3.895 -13.770  0.00  0.00     0.107 C 
ATOM      5  C   UNL d   1       9.442   4.349 -12.305  0.00  0.00     0.059 C 
ATOM      6  C   UNL d   1       8.168   5.040 -11.811  0.00  0.00     0.172 C 
ATOM      7  F   UNL d   1       8.042   6.212 -12.506  0.00  0.00    -0.238 F 
ATOM      8  C   UNL d   1       6.934   4.198 -12.121  0.00  0.00     0.059 C 
ATOM      9  C   UNL d   1       6.900   3.748 -13.600  0.00  0.00     0.107 C 
ENDROOT
BRANCH   6  10
ATOM     10  C   UNL d   1       8.250   5.398 -10.313  0.00  0.00     0.323 C 
BRANCH  10  11
ATOM     11  N   UNL d   1       9.457   6.146 -10.012  0.00  0.00     0.345 N 
BRANCH  11  12
ATOM     12  C   UNL d   1       9.384   6.696  -8.669  0.00  0.00     0.323 C 
BRANCH  12  13
ATOM     13  C   UNL d   1      10.702   7.406  -8.353  0.00  0.00     0.187 C 
BRANCH  13  14
ATOM     14  O   UNL d   1      10.510   8.355  -7.313  0.00  0.00    -0.328 OA
BRANCH  14  15
ATOM     15  C   UNL d   1      11.078   8.109  -6.085  0.00  0.00     0.105 A 
ATOM     16  C   UNL d   1      11.575   9.207  -5.360  0.00  0.00     0.080 A 
ATOM     17  C   UNL d   1      12.193   9.037  -4.108  0.00  0.00     0.013 A 
ATOM     18 CL   UNL d   1      11.451  10.781  -6.042  0.00  0.00    -0.080 Cl
ATOM     19  C   UNL d   1      12.304   7.750  -3.556  0.00  0.00     0.001 A 
ATOM     20  C   UNL d   1      11.799   6.646  -4.266  0.00  0.00     0.002 A 
ATOM     21  C   UNL d   1      11.183   6.823  -5.523  0.00  0.00     0.025 A 
ENDBRANCH  14  15
ENDBRANCH  13  14
ENDBRANCH  12  13
ENDBRANCH  11  12
ENDBRANCH  10  11
ENDBRANCH   6  10
BRANCH   2  22
ATOM     22  C   UNL d   1       7.019   1.011 -14.776  0.00  0.00     0.057 A 
ATOM     23  C   UNL d   1       6.783   0.506 -16.067  0.00  0.00     0.018 A 
ATOM     24  C   UNL d   1       5.613  -0.220 -16.357  0.00  0.00     0.085 A 
ATOM     25  C   UNL d   1       4.659  -0.456 -15.345  0.00  0.00     0.151 A 
ATOM     26 CL   UNL d   1       5.313  -0.779 -17.961  0.00  0.00    -0.080 Cl
ATOM     27  C   UNL d   1       4.908   0.033 -14.038  0.00  0.00     0.031 A 
ATOM     28  F   UNL d   1       3.507  -1.108 -15.605  0.00  0.00    -0.203 F 
ATOM     29  C   UNL d   1       6.086   0.740 -13.746  0.00  0.00     0.007 A 
ENDBRANCH   2  22
TORSDOF 7
