REMARK  14 active torsions:
REMARK  status: ('A' for Active; 'I' for Inactive)
REMARK    1  A    between atoms: N_2  and  C_3 
REMARK    2  A    between atoms: N_14  and  C_15 
REMARK    3  A    between atoms: C_15  and  C_16 
REMARK    4  A    between atoms: C_16  and  O_17 
REMARK    5  A    between atoms: O_17  and  C_18 
REMARK    6  A    between atoms: C_18  and  C_19 
REMARK    7  A    between atoms: C_19  and  O_20 
REMARK    8  A    between atoms: O_20  and  C_21 
REMARK    9  A    between atoms: C_21  and  C_22 
REMARK   10  A    between atoms: C_22  and  O_23 
REMARK   11  A    between atoms: O_23  and  C_24 
REMARK   12  A    between atoms: C_24  and  C_25 
REMARK   13  A    between atoms: C_25  and  O_26 
REMARK   14  A    between atoms: O_26  and  C_27 
ROOT
ATOM      1  C   UNL d   1       6.301   5.015 -12.254  0.00  0.00     0.174 C 
ENDROOT
BRANCH   1   2
ATOM      2  O   UNL d   1       7.461   4.641 -11.522  0.00  0.00    -0.349 OA
BRANCH   2   3
ATOM      3  C   UNL d   1       7.909   5.662 -10.639  0.00  0.00     0.167 C 
BRANCH   3   4
ATOM      4  C   UNL d   1       8.972   5.098  -9.679  0.00  0.00     0.143 C 
BRANCH   4   5
ATOM      5  N   UNL d   1       9.431   6.145  -8.709  0.00  0.00    -0.278 N 
ATOM      6  C   UNL d   1      10.516   6.969  -8.944  0.00  0.00     0.080 A 
ATOM      7  C   UNL d   1      11.388   7.119 -10.032  0.00  0.00     0.019 A 
ATOM      8  C   UNL d   1      10.784   7.727  -7.861  0.00  0.00     0.076 A 
ATOM      9  C   UNL d   1      12.515   7.996  -9.915  0.00  0.00     0.001 A 
ATOM     10  C   UNL d   1      12.762   8.674  -8.710  0.00  0.00    -0.003 A 
ATOM     11  C   UNL d   1      11.841   8.611  -7.659  0.00  0.00    -0.003 A 
ATOM     12  C   UNL d   1      11.835   9.357  -6.363  0.00  0.00     0.066 C 
ATOM     13  C   UNL d   1      11.183   8.571  -5.210  0.00  0.00     0.283 C 
ATOM     14  C   UNL d   1       9.810   7.997  -5.634  0.00  0.00     0.147 C 
ATOM     15  N   UNL d   1       9.824   7.383  -6.944  0.00  0.00    -0.278 N 
ATOM     16  C   UNL d   1       8.951   6.487  -7.469  0.00  0.00     0.332 A 
ATOM     17  O   UNL d   1       7.965   6.027  -6.929  0.00  0.00    -0.246 OA
BRANCH  13  18
ATOM     18  N   UNL d   1      11.065   9.441  -4.045  0.00  0.00     0.342 N 
ATOM     19  C   UNL d   1      12.316   9.505  -3.326  0.00  0.00     0.328 C 
ENDBRANCH  13  18
ENDBRANCH   4   5
ENDBRANCH   3   4
ENDBRANCH   2   3
ENDBRANCH   1   2
BRANCH   1  20
ATOM     20  C   UNL d   1       5.685   3.745 -12.843  0.00  0.00     0.174 C 
BRANCH  20  21
ATOM     21  O   UNL d   1       6.418   3.338 -13.985  0.00  0.00    -0.349 OA
BRANCH  21  22
ATOM     22  C   UNL d   1       6.238   1.959 -14.282  0.00  0.00     0.174 C 
BRANCH  22  23
ATOM     23  C   UNL d   1       6.953   1.659 -15.617  0.00  0.00     0.174 C 
BRANCH  23  24
ATOM     24  O   UNL d   1       8.348   1.671 -15.471  0.00  0.00    -0.349 OA
BRANCH  24  25
ATOM     25  C   UNL d   1       8.874   0.596 -14.700  0.00  0.00     0.175 C 
BRANCH  25  26
ATOM     26  C   UNL d   1      10.375   0.478 -14.946  0.00  0.00     0.181 C 
BRANCH  26  27
ATOM     27  O   UNL d   1      11.062   1.634 -14.458  0.00  0.00    -0.328 OA
BRANCH  27  28
ATOM     28  C   UNL d   1      11.136   2.752 -15.268  0.00  0.00     0.096 A 
ATOM     29  C   UNL d   1      10.526   2.805 -16.545  0.00  0.00     0.043 A 
ATOM     30  C   UNL d   1      10.546   3.983 -17.285  0.00  0.00     0.082 A 
ATOM     31  C   UNL d   1      11.257   5.103 -16.821  0.00  0.00    -0.004 A 
ATOM     32  N   UNL d   1       9.845   4.013 -18.509  0.00  0.00    -0.212 NA
ATOM     33  C   UNL d   1      11.919   5.058 -15.574  0.00  0.00    -0.001 A 
ATOM     34  C   UNL d   1      11.324   6.312 -17.729  0.00  0.00     0.038 C 
ATOM     35  C   UNL d   1      11.843   3.882 -14.794  0.00  0.00     0.024 A 
ATOM     36  C   UNL d   1      10.050   6.452 -18.596  0.00  0.00     0.095 C 
ATOM     37  C   UNL d   1       9.609   5.123 -19.220  0.00  0.00     0.256 C 
ATOM     38  O   UNL d   1       9.047   5.090 -20.312  0.00  0.00    -0.270 OA
ENDBRANCH  27  28
ENDBRANCH  26  27
ENDBRANCH  25  26
ENDBRANCH  24  25
ENDBRANCH  23  24
ENDBRANCH  22  23
ENDBRANCH  21  22
ENDBRANCH  20  21
ENDBRANCH   1  20
TORSDOF 14
