REMARK  5 active torsions:
REMARK  status: ('A' for Active; 'I' for Inactive)
REMARK    1  A    between atoms: C_2  and  C_4 
REMARK    2  A    between atoms: C_4  and  C_5 
REMARK    3  A    between atoms: C_5  and  C_6 
REMARK    4  A    between atoms: C_8  and  C_9 
REMARK    5  A    between atoms: C_15  and  C_16 
ROOT
ATOM      1  C   UNL d   1       9.812   1.178 -15.937  0.00  0.00     0.159 A 
ATOM      2  N   UNL d   1       8.783   0.347 -16.054  0.00  0.00    -0.224 NA
ATOM      3  C   UNL d   1       7.736   0.928 -15.342  0.00  0.00     0.106 A 
ATOM      4  C   UNL d   1       8.195   2.146 -14.851  0.00  0.00     0.119 A 
ATOM      5  O   UNL d   1       9.514   2.301 -15.239  0.00  0.00    -0.292 OA
ENDROOT
BRANCH   3   6
ATOM      6  C   UNL d   1       6.438   0.232 -15.260  0.00  0.00     0.020 A 
ATOM      7  C   UNL d   1       5.622   0.342 -14.109  0.00  0.00     0.002 A 
ATOM      8  C   UNL d   1       4.322  -0.186 -14.092  0.00  0.00     0.000 A 
ATOM      9  C   UNL d   1       3.860  -0.957 -15.164  0.00  0.00     0.000 A 
ATOM     10  C   UNL d   1       4.697  -1.163 -16.279  0.00  0.00     0.000 A 
ATOM     11  C   UNL d   1       5.966  -0.542 -16.342  0.00  0.00     0.002 A 
ENDBRANCH   3   6
BRANCH   4  12
ATOM     12  C   UNL d   1       7.603   3.215 -14.041  0.00  0.00     0.024 A 
ATOM     13  C   UNL d   1       6.236   3.238 -13.704  0.00  0.00     0.002 A 
ATOM     14  C   UNL d   1       5.705   4.184 -12.831  0.00  0.00     0.000 A 
ATOM     15  C   UNL d   1       6.509   5.257 -12.384  0.00  0.00     0.000 A 
ATOM     16  C   UNL d   1       7.859   5.320 -12.791  0.00  0.00     0.000 A 
ATOM     17  C   UNL d   1       8.415   4.298 -13.588  0.00  0.00     0.002 A 
ENDBRANCH   4  12
BRANCH   1  18
ATOM     18  C   UNL d   1      11.161   1.042 -16.550  0.00  0.00     0.083 C 
BRANCH  18  19
ATOM     19  C   UNL d   1      11.199   1.540 -18.002  0.00  0.00     0.106 C 
BRANCH  19  20
ATOM     20  C   UNL d   1      12.516   1.195 -18.693  0.00  0.00     0.186 C 
ATOM     21  O   UNL d   1      13.337   2.040 -19.038  0.00  0.00    -0.647 OA
ATOM     22  O   UNL d   1      12.656  -0.150 -18.873  0.00  0.00    -0.647 OA
ENDBRANCH  19  20
ENDBRANCH  18  19
ENDBRANCH   1  18
TORSDOF 5
