REMARK  7 active torsions:
REMARK  status: ('A' for Active; 'I' for Inactive)
REMARK    1  A    between atoms: C_11  and  C_12 
REMARK    2  A    between atoms: N_15  and  C_16 
REMARK    3  A    between atoms: C_16  and  C_17 
REMARK    4  A    between atoms: C_17  and  C_18 
REMARK    5  A    between atoms: C_18  and  N_19 
REMARK    6  A    between atoms: N_19  and  S_20 
REMARK    7  A    between atoms: S_20  and  C_23 
ROOT
ATOM      1  C   UNL d   1       7.046   2.687 -14.114  0.00  0.00    -0.021 C 
ATOM      2  C   UNL d   1       6.057   3.139 -13.340  0.00  0.00     0.005 C 
ATOM      3  C   UNL d   1       6.220   4.268 -12.323  0.00  0.00     0.276 C 
ATOM      4  N   UNL d   1       7.620   4.597 -12.087  0.00  0.00     0.142 N 
ATOM      5  C   UNL d   1       8.361   4.705 -13.335  0.00  0.00     0.255 C 
ATOM      6  C   UNL d   1       8.419   3.316 -13.986  0.00  0.00     0.061 C 
ENDROOT
BRANCH   4   7
ATOM      7  C   UNL d   1       7.682   5.856 -11.332  0.00  0.00     0.253 C 
BRANCH   7   8
ATOM      8  C   UNL d   1       9.066   6.046 -10.699  0.00  0.00     0.062 C 
BRANCH   8   9
ATOM      9  C   UNL d   1       8.986   6.079  -9.173  0.00  0.00     0.141 C 
BRANCH   9  10
ATOM     10  N   UNL d   1      10.303   6.394  -8.629  0.00  0.00    -0.185 NA
BRANCH  10  11
ATOM     11  S   UNL d   1      10.921   8.012  -8.678  0.00  0.00     0.281 S 
ATOM     12  O   UNL d   1      12.241   7.982  -9.344  0.00  0.00    -0.199 OA
ATOM     13  O   UNL d   1       9.873   8.916  -9.164  0.00  0.00    -0.199 OA
BRANCH  11  14
ATOM     14  C   UNL d   1      11.194   8.361  -6.953  0.00  0.00     0.105 A 
ATOM     15  C   UNL d   1      11.430   7.327  -6.032  0.00  0.00     0.013 A 
ATOM     16  C   UNL d   1      11.655   7.648  -4.685  0.00  0.00     0.001 A 
ATOM     17  C   UNL d   1      11.635   8.993  -4.249  0.00  0.00     0.000 A 
ATOM     18  C   UNL d   1      11.928   6.624  -3.767  0.00  0.00     0.000 A 
ATOM     19  C   UNL d   1      11.365  10.018  -5.173  0.00  0.00     0.001 A 
ATOM     20  C   UNL d   1      11.896   9.307  -2.903  0.00  0.00     0.000 A 
ATOM     21  C   UNL d   1      11.172   9.701  -6.527  0.00  0.00     0.013 A 
ATOM     22  C   UNL d   1      12.185   8.269  -1.998  0.00  0.00     0.000 A 
ATOM     23  C   UNL d   1      12.192   6.928  -2.423  0.00  0.00     0.000 A 
ENDBRANCH  11  14
ENDBRANCH  10  11
ENDBRANCH   9  10
ENDBRANCH   8   9
ENDBRANCH   7   8
ENDBRANCH   4   7
BRANCH   1  24
ATOM     24  C   UNL d   1       6.855   1.528 -15.019  0.00  0.00     0.011 A 
ATOM     25  C   UNL d   1       6.088   0.398 -14.777  0.00  0.00     0.059 A 
ATOM     26  C   UNL d   1       5.293  -0.054 -13.594  0.00  0.00     0.052 C 
ATOM     27  N   UNL d   1       6.187  -0.407 -15.905  0.00  0.00    -0.250 NA
ATOM     28  C   UNL d   1       6.995   0.166 -16.878  0.00  0.00     0.081 A 
ATOM     29  C   UNL d   1       7.432   1.412 -16.332  0.00  0.00     0.019 A 
ATOM     30  C   UNL d   1       7.383  -0.274 -18.162  0.00  0.00     0.020 A 
ATOM     31  C   UNL d   1       8.274   2.195 -17.158  0.00  0.00     0.013 A 
ATOM     32  C   UNL d   1       8.676   1.772 -18.441  0.00  0.00     0.058 A 
ATOM     33  C   UNL d   1       8.230   0.537 -18.947  0.00  0.00     0.013 A 
ATOM     34 CL   UNL d   1       9.713   2.769 -19.391  0.00  0.00    -0.082 Cl
ENDBRANCH   1  24
TORSDOF 7
