REMARK  6 active torsions:
REMARK  status: ('A' for Active; 'I' for Inactive)
REMARK    1  A    between atoms: N_9  and  C_10 
REMARK    2  A    between atoms: C_10  and  C_11 
REMARK    3  A    between atoms: C_11  and  C_12 
REMARK    4  A    between atoms: C_12  and  C_13 
REMARK    5  A    between atoms: C_13  and  N_14 
REMARK    6  A    between atoms: N_17  and  C_18 
ROOT
ATOM      1  C   UNL d   1       9.455   7.481 -12.059  0.00  0.00     0.037 C 
ENDROOT
BRANCH   1   2
ATOM      2  C   UNL d   1       9.460   7.823 -10.559  0.00  0.00     0.037 C 
BRANCH   2   3
ATOM      3  C   UNL d   1      10.848   7.917  -9.908  0.00  0.00     0.250 C 
BRANCH   3   4
ATOM      4  N   UNL d   1      10.697   8.163  -8.462  0.00  0.00     0.138 N 
ATOM      5  C   UNL d   1      10.788   6.910  -7.718  0.00  0.00     0.256 C 
ATOM      6  C   UNL d   1      10.203   7.007  -6.309  0.00  0.00     0.070 C 
ATOM      7  C   UNL d   1      11.056   7.746  -5.342  0.00  0.00     0.026 C 
ATOM      8  C   UNL d   1      11.566   9.010  -5.498  0.00  0.00     0.065 C 
ATOM      9  S   UNL d   1      11.667   7.008  -3.877  0.00  0.00    -0.050 SA
ATOM     10  N   UNL d   1      12.292   9.472  -4.402  0.00  0.00    -0.224 NA
ATOM     11  C   UNL d   1      11.389   9.866  -6.710  0.00  0.00     0.081 C 
ATOM     12  C   UNL d   1      12.367   8.559  -3.429  0.00  0.00     0.214 C 
ATOM     13  N   UNL d   1      12.946   8.787  -2.201  0.00  0.00    -0.120 N 
ATOM     14  C   UNL d   1      11.696   9.139  -8.038  0.00  0.00     0.257 C 
ENDBRANCH   3   4
ENDBRANCH   2   3
ENDBRANCH   1   2
BRANCH   1  15
ATOM     15  C   UNL d   1       8.091   6.963 -12.570  0.00  0.00     0.251 C 
BRANCH  15  16
ATOM     16  N   UNL d   1       8.065   5.513 -12.563  0.00  0.00     0.141 N 
ATOM     17  C   UNL d   1       6.665   5.091 -12.584  0.00  0.00     0.275 C 
ATOM     18  C   UNL d   1       6.585   3.564 -12.568  0.00  0.00     0.155 C 
ATOM     19  N   UNL d   1       7.321   3.019 -13.712  0.00  0.00    -0.179 N 
ATOM     20  C   UNL d   1       8.710   3.471 -13.760  0.00  0.00     0.155 C 
ATOM     21  C   UNL d   1       8.747   4.999 -13.765  0.00  0.00     0.275 C 
BRANCH  19  22
ATOM     22  C   UNL d   1       6.841   2.016 -14.540  0.00  0.00     0.727 A 
ATOM     23  N   UNL d   1       5.886   1.208 -14.064  0.00  0.00    -0.060 NA
ATOM     24  C   UNL d   1       5.394   0.280 -14.918  0.00  0.00     0.120 A 
ATOM     25  C   UNL d   1       5.841   0.185 -16.247  0.00  0.00     0.043 A 
ATOM     26  C   UNL d   1       6.857   1.072 -16.627  0.00  0.00     0.120 A 
ATOM     27  N   UNL d   1       7.359   1.981 -15.770  0.00  0.00    -0.060 NA
ENDBRANCH  19  22
ENDBRANCH  15  16
ENDBRANCH   1  15
TORSDOF 6
