REMARK  13 active torsions:
REMARK  status: ('A' for Active; 'I' for Inactive)
REMARK    1  A    between atoms: C_2  and  C_3 
REMARK    2  A    between atoms: C_3  and  N_4 
REMARK    3  A    between atoms: N_4  and  C_5 
REMARK    4  A    between atoms: N_4  and  C_24 
REMARK    5  A    between atoms: C_5  and  C_6 
REMARK    6  A    between atoms: C_6  and  C_7 
REMARK    7  A    between atoms: C_7  and  C_8 
REMARK    8  A    between atoms: C_8  and  N_9 
REMARK       I    between atoms: N_9  and  C_10 
REMARK    9  A    between atoms: C_10  and  C_12 
REMARK   10  A    between atoms: C_15  and  C_16 
REMARK   11  A    between atoms: C_24  and  C_25 
REMARK   12  A    between atoms: C_27  and  C_28 
REMARK   13  A    between atoms: C_31  and  C_32 
ROOT
ATOM      1  C   UNL d   1       9.335   2.086 -14.447  0.00  0.00     0.250 C 
ENDROOT
BRANCH   1   2
ATOM      2  N   UNL d   1       8.784   1.484 -15.674  0.00  0.00     0.137 N 
BRANCH   2   3
ATOM      3  C   UNL d   1       7.356   1.166 -15.602  0.00  0.00     0.250 C 
BRANCH   3   4
ATOM      4  C   UNL d   1       7.040   0.115 -14.535  0.00  0.00     0.035 C 
ATOM      5  C   UNL d   1       5.537  -0.137 -14.456  0.00  0.00     0.002 C 
ENDBRANCH   3   4
ENDBRANCH   2   3
BRANCH   2   6
ATOM      6  C   UNL d   1       9.116   2.343 -16.806  0.00  0.00     0.251 C 
BRANCH   6   7
ATOM      7  C   UNL d   1       8.759   1.804 -18.174  0.00  0.00     0.038 A 
ATOM      8  C   UNL d   1       9.311   2.493 -19.392  0.00  0.00     0.024 A 
ATOM      9  C   UNL d   1       9.779   1.097 -19.027  0.00  0.00     0.007 A 
BRANCH   8  10
ATOM     10  C   UNL d   1      10.193   3.689 -19.256  0.00  0.00    -0.022 A 
ATOM     11  C   UNL d   1      11.562   3.573 -19.547  0.00  0.00    -0.004 A 
ATOM     12  C   UNL d   1      12.432   4.662 -19.352  0.00  0.00     0.004 A 
ATOM     13  C   UNL d   1      11.936   5.883 -18.845  0.00  0.00     0.071 A 
ATOM     14  C   UNL d   1      10.563   6.000 -18.541  0.00  0.00     0.004 A 
ATOM     15  C   UNL d   1       9.694   4.905 -18.744  0.00  0.00    -0.004 A 
BRANCH  13  16
ATOM     16  C   UNL d   1      12.871   7.061 -18.628  0.00  0.00     0.419 C 
ATOM     17  F   UNL d   1      12.656   7.600 -17.428  0.00  0.00    -0.166 F 
ATOM     18  F   UNL d   1      14.158   6.707 -18.703  0.00  0.00    -0.166 F 
ATOM     19  F   UNL d   1      12.624   7.968 -19.570  0.00  0.00    -0.166 F 
ENDBRANCH  13  16
ENDBRANCH   8  10
ENDBRANCH   6   7
ENDBRANCH   2   6
ENDBRANCH   1   2
BRANCH   1  20
ATOM     20  C   UNL d   1       8.569   3.341 -13.958  0.00  0.00     0.037 C 
BRANCH  20  21
ATOM     21  C   UNL d   1       9.151   3.969 -12.704  0.00  0.00     0.029 C 
BRANCH  21  22
ATOM     22  C   UNL d   1       8.082   4.796 -11.976  0.00  0.00     0.129 C 
BRANCH  22  23
ATOM     23  N   UNL d   1       8.631   5.338 -10.753  0.00  0.00    -0.234 NA
ATOM     24  C   UNL d   1       9.271   6.510 -10.664  0.00  0.00     0.275 C 
ATOM     25  O   UNL d   1       9.472   7.239 -11.639  0.00  0.00    -0.266 OA
BRANCH  24  26
ATOM     26  C   UNL d   1       9.785   6.852  -9.293  0.00  0.00     0.058 A 
ATOM     27  C   UNL d   1      10.933   7.659  -9.139  0.00  0.00     0.005 A 
ATOM     28  C   UNL d   1      11.396   8.000  -7.850  0.00  0.00     0.002 A 
ATOM     29  C   UNL d   1      10.710   7.565  -6.695  0.00  0.00     0.018 A 
ATOM     30  C   UNL d   1       9.545   6.794  -6.857  0.00  0.00     0.002 A 
ATOM     31  C   UNL d   1       9.076   6.445  -8.136  0.00  0.00     0.005 A 
BRANCH  29  32
ATOM     32  C   UNL d   1      11.192   7.910  -5.350  0.00  0.00     0.081 A 
ATOM     33  N   UNL d   1      11.116   9.215  -5.012  0.00  0.00    -0.244 NA
ATOM     34  C   UNL d   1      11.544   9.585  -3.788  0.00  0.00     0.099 A 
ATOM     35  C   UNL d   1      12.085   8.685  -2.849  0.00  0.00     0.021 A 
ATOM     36  C   UNL d   1      12.163   7.324  -3.199  0.00  0.00     0.003 A 
ATOM     37  C   UNL d   1      11.698   6.931  -4.467  0.00  0.00     0.019 A 
ENDBRANCH  29  32
ENDBRANCH  24  26
ENDBRANCH  22  23
ENDBRANCH  21  22
ENDBRANCH  20  21
ENDBRANCH   1  20
TORSDOF 13
