REMARK  4 active torsions:
REMARK  status: ('A' for Active; 'I' for Inactive)
REMARK    1  A    between atoms: C_8  and  C_9 
REMARK    2  A    between atoms: C_9  and  C_10 
REMARK    3  A    between atoms: C_10  and  N_11 
REMARK    4  A    between atoms: N_14  and  C_15 
ROOT
ATOM      1  N   UNL d   1       9.185   2.960 -13.485  0.00  0.00     0.141 N 
ATOM      2  C   UNL d   1       8.248   3.334 -14.537  0.00  0.00     0.274 C 
ATOM      3  C   UNL d   1       7.778   2.096 -15.282  0.00  0.00     0.138 C 
ATOM      4  N   UNL d   1       8.908   1.332 -15.807  0.00  0.00    -0.328 N 
ATOM      5  C   UNL d   1       9.970   1.048 -14.836  0.00  0.00     0.138 C 
ATOM      6  C   UNL d   1      10.362   2.334 -14.092  0.00  0.00     0.274 C 
ENDROOT
BRANCH   1   7
ATOM      7  C   UNL d   1       9.586   4.115 -12.712  0.00  0.00     0.255 C 
BRANCH   7   8
ATOM      8  C   UNL d   1       8.452   4.696 -11.835  0.00  0.00     0.068 C 
BRANCH   8   9
ATOM      9  C   UNL d   1       8.984   5.759 -10.873  0.00  0.00     0.050 A 
ATOM     10  C   UNL d   1       9.393   6.979 -11.300  0.00  0.00     0.061 A 
ATOM     11  C   UNL d   1       9.360   7.395 -12.741  0.00  0.00     0.052 C 
ATOM     12  N   UNL d   1       9.884   7.947 -10.437  0.00  0.00    -0.234 NA
ATOM     13  C   UNL d   1       9.861   7.729  -9.168  0.00  0.00     0.153 A 
ATOM     14  C   UNL d   1      10.323   8.818  -8.207  0.00  0.00     0.208 C 
ATOM     15  N   UNL d   1       9.419   6.502  -8.620  0.00  0.00    -0.283 N 
ATOM     16  C   UNL d   1      10.698   8.362  -6.802  0.00  0.00     0.043 C 
ATOM     17  O   UNL d   1      11.458   9.450  -8.748  0.00  0.00    -0.215 OA
ATOM     18  C   UNL d   1       9.597   7.471  -6.273  0.00  0.00     0.028 C 
ATOM     19  C   UNL d   1       9.489   6.248  -7.172  0.00  0.00     0.111 C 
ATOM     20  C   UNL d   1       9.008   5.477  -9.422  0.00  0.00     0.259 A 
ATOM     21  O   UNL d   1       8.713   4.385  -8.946  0.00  0.00    -0.267 OA
ENDBRANCH   8   9
ENDBRANCH   7   8
ENDBRANCH   1   7
BRANCH   4  22
ATOM     22  C   UNL d   1       9.027   0.987 -17.142  0.00  0.00     0.169 A 
ATOM     23  C   UNL d   1       7.976   0.812 -18.105  0.00  0.00     0.061 A 
ATOM     24  C   UNL d   1       8.554   0.483 -19.336  0.00  0.00     0.130 A 
ATOM     25  C   UNL d   1       6.566   0.876 -18.001  0.00  0.00     0.007 A 
ATOM     26  O   UNL d   1       9.924   0.437 -19.100  0.00  0.00    -0.210 OA
ATOM     27  C   UNL d   1       7.796   0.249 -20.501  0.00  0.00     0.057 A 
ATOM     28  N   UNL d   1      10.200   0.741 -17.741  0.00  0.00    -0.109 NA
ATOM     29  C   UNL d   1       6.392   0.365 -20.403  0.00  0.00     0.142 A 
ATOM     30  F   UNL d   1       5.623   0.157 -21.495  0.00  0.00    -0.204 F 
ATOM     31  C   UNL d   1       5.789   0.679 -19.165  0.00  0.00     0.030 A 
ENDBRANCH   4  22
TORSDOF 4
