REMARK  6 active torsions:
REMARK  status: ('A' for Active; 'I' for Inactive)
REMARK    1  A    between atoms: C_10  and  S_11 
REMARK    2  A    between atoms: S_11  and  C_12 
REMARK    3  A    between atoms: C_12  and  C_13 
REMARK    4  A    between atoms: C_13  and  C_14 
REMARK    5  A    between atoms: C_14  and  N_16 
REMARK    6  A    between atoms: C_22  and  C_23 
ROOT
ATOM      1  C   UNL d   1       7.819   3.882 -14.036  0.00  0.00     0.045 C 
ENDROOT
BRANCH   1   2
ATOM      2  C   UNL d   1       9.111   3.132 -13.596  0.00  0.00     0.067 C 
BRANCH   2   3
ATOM      3  S   UNL d   1      10.012   2.458 -15.016  0.00  0.00    -0.075 SA
BRANCH   3   4
ATOM      4  C   UNL d   1      10.911   3.910 -15.415  0.00  0.00     0.193 A 
ATOM      5  N   UNL d   1      11.366   4.797 -14.525  0.00  0.00    -0.122 NA
ATOM      6  N   UNL d   1      11.940   5.800 -15.270  0.00  0.00    -0.128 NA
ATOM      7  C   UNL d   1      11.815   5.411 -16.541  0.00  0.00     0.167 A 
ATOM      8  C   UNL d   1      12.340   6.186 -17.642  0.00  0.00     0.037 A 
ATOM      9  N   UNL d   1      11.179   4.234 -16.684  0.00  0.00    -0.289 N 
ATOM     10  C   UNL d   1      13.739   6.355 -17.819  0.00  0.00     0.021 A 
ATOM     11  C   UNL d   1      11.426   6.779 -18.526  0.00  0.00     0.003 A 
ATOM     12  C   UNL d   1      14.684   5.760 -16.954  0.00  0.00     0.003 A 
ATOM     13  C   UNL d   1      14.214   7.146 -18.903  0.00  0.00     0.081 A 
ATOM     14  C   UNL d   1      16.057   5.968 -17.187  0.00  0.00     0.015 A 
ATOM     15  C   UNL d   1      16.428   6.772 -18.280  0.00  0.00     0.059 A 
ATOM     16  C   UNL d   1      17.887   7.035 -18.592  0.00  0.00     0.052 C 
ATOM     17  N   UNL d   1      15.538   7.343 -19.112  0.00  0.00    -0.250 NA
ATOM     18  C   UNL d   1      13.279   7.731 -19.775  0.00  0.00     0.019 A 
ATOM     19  C   UNL d   1      11.892   7.559 -19.595  0.00  0.00     0.002 A 
ATOM     20  C   UNL d   1      10.855   3.473 -17.872  0.00  0.00     0.134 C 
ENDBRANCH   3   4
ENDBRANCH   2   3
ENDBRANCH   1   2
BRANCH   1  21
ATOM     21  C   UNL d   1       7.095   4.812 -13.021  0.00  0.00     0.220 C 
ATOM     22  C   UNL d   1       6.043   4.135 -12.095  0.00  0.00     0.035 C 
BRANCH  21  23
ATOM     23  N   UNL d   1       8.140   5.578 -12.343  0.00  0.00     0.136 N 
ATOM     24  C   UNL d   1       8.451   5.019 -11.031  0.00  0.00     0.255 C 
ATOM     25  C   UNL d   1       9.833   5.448 -10.601  0.00  0.00     0.061 C 
ATOM     26  C   UNL d   1       9.892   6.715  -9.816  0.00  0.00    -0.024 C 
ATOM     27  C   UNL d   1       9.466   7.899 -10.435  0.00  0.00    -0.024 C 
ATOM     28  C   UNL d   1      10.388   6.689  -8.483  0.00  0.00    -0.003 C 
ATOM     29  C   UNL d   1       8.960   7.917 -11.880  0.00  0.00     0.061 C 
ATOM     30  C   UNL d   1       9.480   9.065  -9.655  0.00  0.00    -0.004 C 
ATOM     31  C   UNL d   1       7.754   6.964 -12.201  0.00  0.00     0.255 C 
ATOM     32  C   UNL d   1       9.835   9.022  -8.305  0.00  0.00     0.001 C 
ATOM     33  C   UNL d   1      10.390   7.870  -7.714  0.00  0.00     0.017 C 
BRANCH  33  34
ATOM     34  C   UNL d   1      10.891   7.863  -6.327  0.00  0.00     0.079 A 
ATOM     35  N   UNL d   1      11.412   8.967  -5.667  0.00  0.00    -0.249 N 
ATOM     36  N   UNL d   1      11.773   8.670  -4.400  0.00  0.00    -0.174 NA
ATOM     37  C   UNL d   1      11.617  10.314  -6.142  0.00  0.00     0.154 C 
ATOM     38  C   UNL d   1      11.477   7.389  -4.260  0.00  0.00     0.081 A 
ATOM     39  C   UNL d   1      10.951   6.824  -5.454  0.00  0.00     0.035 A 
ATOM     40  C   UNL d   1      11.755   6.704  -2.955  0.00  0.00     0.054 C 
ENDBRANCH  33  34
ENDBRANCH  21  23
ENDBRANCH   1  21
TORSDOF 6
