REMARK  6 active torsions:
REMARK  status: ('A' for Active; 'I' for Inactive)
REMARK    1  A    between atoms: S_2  and  C_4 
REMARK    2  A    between atoms: S_2  and  C_15 
REMARK    3  A    between atoms: C_7  and  N_8 
REMARK    4  A    between atoms: N_19  and  C_20 
REMARK    5  A    between atoms: C_20  and  C_21 
REMARK    6  A    between atoms: C_21  and  C_22 
ROOT
ATOM      1  C   UNL d   1       8.627   5.922 -11.145  0.00  0.00     0.234 C 
ATOM      2  F   UNL d   1       7.374   5.830 -10.810  0.00  0.00    -0.223 F 
ATOM      3  C   UNL d   1       9.268   4.833 -10.424  0.00  0.00     0.084 C 
ATOM      4  C   UNL d   1       9.342   5.092  -8.935  0.00  0.00     0.254 C 
ATOM      5  N   UNL d   1      10.058   6.360  -8.705  0.00  0.00     0.138 N 
ATOM      6  C   UNL d   1       9.304   7.457  -9.285  0.00  0.00     0.254 C 
ATOM      7  C   UNL d   1       9.228   7.290 -10.800  0.00  0.00     0.084 C 
ENDROOT
BRANCH   1   8
ATOM      8  S   UNL d   1       8.695   5.662 -12.900  0.00  0.00     0.216 S 
ATOM      9  O   UNL d   1      10.081   5.460 -13.318  0.00  0.00    -0.219 OA
ATOM     10  O   UNL d   1       7.883   6.788 -13.337  0.00  0.00    -0.219 OA
BRANCH   8  11
ATOM     11  C   UNL d   1       7.763   4.174 -13.263  0.00  0.00     0.086 A 
ATOM     12  C   UNL d   1       6.436   4.004 -12.811  0.00  0.00     0.013 A 
ATOM     13  C   UNL d   1       5.741   2.812 -13.065  0.00  0.00     0.020 A 
ATOM     14  C   UNL d   1       6.338   1.791 -13.844  0.00  0.00     0.083 A 
ATOM     15  C   UNL d   1       7.647   2.001 -14.362  0.00  0.00     0.020 A 
ATOM     16  C   UNL d   1       8.363   3.177 -14.054  0.00  0.00     0.013 A 
BRANCH  14  17
ATOM     17  N   UNL d   1       5.660   0.568 -14.075  0.00  0.00    -0.228 N 
ATOM     18  N   UNL d   1       4.394   0.380 -13.639  0.00  0.00    -0.164 NA
ATOM     19  C   UNL d   1       4.039  -0.800 -14.110  0.00  0.00     0.122 A 
ATOM     20  C   UNL d   1       5.101  -1.449 -14.796  0.00  0.00     0.043 A 
ATOM     21  C   UNL d   1       6.122  -0.548 -14.742  0.00  0.00     0.102 A 
ENDBRANCH  14  17
ENDBRANCH   8  11
ENDBRANCH   1   8
BRANCH   5  22
ATOM     22  C   UNL d   1      10.155   6.523  -7.271  0.00  0.00     0.255 C 
BRANCH  22  23
ATOM     23  C   UNL d   1      10.786   7.870  -6.845  0.00  0.00     0.064 C 
BRANCH  23  24
ATOM     24  C   UNL d   1      11.233   7.942  -5.400  0.00  0.00     0.007 A 
ATOM     25  C   UNL d   1      11.460   9.201  -4.799  0.00  0.00     0.138 A 
ATOM     26  C   UNL d   1      11.912   9.262  -3.463  0.00  0.00     0.059 A 
ATOM     27  F   UNL d   1      11.249  10.348  -5.495  0.00  0.00    -0.204 F 
ATOM     28  C   UNL d   1      12.150   8.082  -2.729  0.00  0.00     0.142 A 
ATOM     29  C   UNL d   1      11.910   6.836  -3.318  0.00  0.00     0.029 A 
ATOM     30  F   UNL d   1      12.603   8.137  -1.459  0.00  0.00    -0.204 F 
ATOM     31  C   UNL d   1      11.460   6.771  -4.636  0.00  0.00     0.000 A 
ENDBRANCH  23  24
ENDBRANCH  22  23
ENDBRANCH   5  22
TORSDOF 6
