REMARK  5 active torsions:
REMARK  status: ('A' for Active; 'I' for Inactive)
REMARK    1  A    between atoms: C_2  and  C_5 
REMARK    2  A    between atoms: C_7  and  C_8 
REMARK    3  A    between atoms: C_8  and  N_9 
REMARK    4  A    between atoms: N_12  and  C_13 
REMARK    5  A    between atoms: C_13  and  C_14 
ROOT
ATOM      1  N   UNL d   1       9.321   4.768 -13.308  0.00  0.00     0.147 N 
ATOM      2  C   UNL d   1       9.589   4.982 -14.735  0.00  0.00     0.286 C 
ATOM      3  C   UNL d   1       9.779   3.646 -15.502  0.00  0.00     0.286 C 
ATOM      4  N   UNL d   1       8.606   2.784 -15.384  0.00  0.00     0.147 N 
ATOM      5  C   UNL d   1       8.340   2.595 -13.965  0.00  0.00     0.286 C 
ATOM      6  C   UNL d   1       8.149   3.907 -13.223  0.00  0.00     0.286 C 
ENDROOT
BRANCH   1   7
ATOM      7  C   UNL d   1       9.128   6.018 -12.564  0.00  0.00     0.296 C 
BRANCH   7   8
ATOM      8  C   UNL d   1       9.214   6.037 -11.056  0.00  0.00     0.099 A 
ATOM      9  N   UNL d   1       9.971   7.037 -10.440  0.00  0.00    -0.245 NA
ATOM     10  C   UNL d   1      10.051   6.910  -9.113  0.00  0.00     0.087 A 
ATOM     11  S   UNL d   1       9.066   5.591  -8.508  0.00  0.00    -0.070 SA
ATOM     12  C   UNL d   1       8.639   5.197 -10.135  0.00  0.00     0.053 A 
BRANCH  10  13
ATOM     13  C   UNL d   1      10.768   7.872  -8.206  0.00  0.00     0.041 C 
ATOM     14  C   UNL d   1       9.839   9.044  -7.858  0.00  0.00     0.006 C 
ATOM     15  C   UNL d   1      12.050   8.398  -8.882  0.00  0.00     0.006 C 
ATOM     16  C   UNL d   1      11.193   7.149  -6.906  0.00  0.00     0.006 C 
ENDBRANCH  10  13
ENDBRANCH   7   8
ENDBRANCH   1   7
BRANCH   4  17
ATOM     17  C   UNL d   1       8.766   1.512 -16.099  0.00  0.00     0.296 C 
BRANCH  17  18
ATOM     18  C   UNL d   1       7.483   0.684 -16.227  0.00  0.00     0.092 A 
ATOM     19  N   UNL d   1       7.029   0.061 -15.118  0.00  0.00    -0.246 NA
ATOM     20  C   UNL d   1       5.871  -0.629 -15.182  0.00  0.00     0.099 A 
ATOM     21  C   UNL d   1       5.142  -0.781 -16.369  0.00  0.00     0.021 A 
ATOM     22  C   UNL d   1       5.633  -0.173 -17.540  0.00  0.00     0.003 A 
ATOM     23  C   UNL d   1       6.820   0.580 -17.466  0.00  0.00     0.017 A 
ENDBRANCH  17  18
ENDBRANCH   4  17
TORSDOF 5
