REMARK  6 active torsions:
REMARK  status: ('A' for Active; 'I' for Inactive)
REMARK    1  A    between atoms: C_2  and  C_3 
REMARK    2  A    between atoms: C_2  and  C_20 
REMARK    3  A    between atoms: C_3  and  C_4 
REMARK    4  A    between atoms: C_4  and  C_5 
REMARK    5  A    between atoms: C_5  and  N_6 
REMARK    6  A    between atoms: C_9  and  C_11 
ROOT
ATOM      1  N   UNL d   1       9.463   6.018 -10.685  0.00  0.00     0.137 N 
ATOM      2  C   UNL d   1       8.488   6.604 -11.608  0.00  0.00     0.253 C 
ATOM      3  C   UNL d   1       8.735   6.070 -13.025  0.00  0.00     0.070 C 
ATOM      4  C   UNL d   1       8.639   4.540 -13.109  0.00  0.00     0.149 C 
ATOM      5  O   UNL d   1       7.302   4.191 -12.802  0.00  0.00    -0.221 OA
ATOM      6  C   UNL d   1       9.566   3.952 -12.053  0.00  0.00     0.070 C 
ATOM      7  C   UNL d   1       9.290   4.561 -10.659  0.00  0.00     0.253 C 
ENDROOT
BRANCH   1   8
ATOM      8  C   UNL d   1       9.223   6.589  -9.357  0.00  0.00     0.251 C 
BRANCH   8   9
ATOM      9  C   UNL d   1      10.407   6.312  -8.419  0.00  0.00     0.043 C 
BRANCH   9  10
ATOM     10  C   UNL d   1      10.109   6.625  -6.956  0.00  0.00     0.071 C 
BRANCH  10  11
ATOM     11  C   UNL d   1      10.500   8.031  -6.495  0.00  0.00     0.173 C 
ATOM     12  O   UNL d   1      10.265   8.994  -7.224  0.00  0.00    -0.291 OA
BRANCH  11  13
ATOM     13  C   UNL d   1      11.137   8.168  -5.154  0.00  0.00     0.037 A 
ATOM     14  C   UNL d   1      11.620   7.042  -4.438  0.00  0.00     0.033 A 
ATOM     15  C   UNL d   1      12.209   7.197  -3.168  0.00  0.00     0.140 A 
ATOM     16  C   UNL d   1      12.330   8.470  -2.596  0.00  0.00     0.030 A 
ATOM     17  F   UNL d   1      12.659   6.117  -2.488  0.00  0.00    -0.204 F 
ATOM     18  C   UNL d   1      11.854   9.593  -3.293  0.00  0.00     0.002 A 
ATOM     19  C   UNL d   1      11.271   9.444  -4.568  0.00  0.00     0.003 A 
ENDBRANCH  11  13
ENDBRANCH  10  11
ENDBRANCH   9  10
ENDBRANCH   8   9
ENDBRANCH   1   8
BRANCH   4  20
ATOM     20  C   UNL d   1       9.034   3.982 -14.487  0.00  0.00     0.005 A 
ATOM     21  C   UNL d   1       9.965   4.635 -15.337  0.00  0.00    -0.001 A 
ATOM     22  C   UNL d   1      10.274   4.104 -16.608  0.00  0.00     0.011 A 
ATOM     23  C   UNL d   1       9.679   2.904 -17.036  0.00  0.00     0.058 A 
ATOM     24  C   UNL d   1       8.779   2.228 -16.192  0.00  0.00     0.011 A 
ATOM     25 CL   UNL d   1      10.052   2.259 -18.594  0.00  0.00    -0.082 Cl
ATOM     26  C   UNL d   1       8.469   2.762 -14.923  0.00  0.00    -0.001 A 
ENDBRANCH   4  20
TORSDOF 6
