REMARK  3 active torsions:
REMARK  status: ('A' for Active; 'I' for Inactive)
REMARK    1  A    between atoms: C_2  and  C_3 
REMARK    2  A    between atoms: C_3  and  N_4 
REMARK    3  A    between atoms: C_12  and  O_13 
ROOT
ATOM      1  N   UNL d   1       8.572   4.937 -13.277  0.00  0.00     0.140 N 
ATOM      2  C   UNL d   1       9.489   4.809 -14.415  0.00  0.00     0.251 C 
ATOM      3  C   UNL d   1       9.259   3.428 -15.038  0.00  0.00     0.042 C 
ATOM      4  C   UNL d   1       8.274   2.810 -14.053  0.00  0.00     0.055 C 
ATOM      5  C   UNL d   1       7.368   1.697 -14.537  0.00  0.00    -0.023 A 
ATOM      6  C   UNL d   1       7.808   0.818 -15.545  0.00  0.00    -0.004 A 
ATOM      7  C   UNL d   1       6.951  -0.203 -15.977  0.00  0.00     0.002 A 
ATOM      8  C   UNL d   1       5.716  -0.421 -15.364  0.00  0.00     0.024 A 
ATOM      9  C   UNL d   1       5.264   0.433 -14.339  0.00  0.00     0.090 A 
ATOM     10  C   UNL d   1       6.087   1.523 -13.942  0.00  0.00    -0.004 A 
ATOM     11  C   UNL d   1       5.566   2.517 -12.888  0.00  0.00     0.030 C 
ATOM     12  C   UNL d   1       6.530   3.606 -12.416  0.00  0.00     0.038 C 
ATOM     13  C   UNL d   1       7.486   4.029 -13.573  0.00  0.00     0.224 C 
ENDROOT
BRANCH   1  14
ATOM     14  C   UNL d   1       8.214   6.335 -13.105  0.00  0.00     0.276 C 
BRANCH  14  15
ATOM     15  C   UNL d   1       7.153   6.564 -12.071  0.00  0.00     0.009 C 
ATOM     16  C   UNL d   1       5.959   7.155 -12.328  0.00  0.00    -0.003 C 
ENDBRANCH  14  15
ENDBRANCH   1  14
BRANCH   9  17
ATOM     17  O   UNL d   1       4.042   0.305 -13.698  0.00  0.00    -0.328 OA
ATOM     18  C   UNL d   1       3.176  -0.736 -14.142  0.00  0.00     0.181 C 
ENDBRANCH   9  17
TORSDOF 3
