REMARK  3 active torsions:
REMARK  status: ('A' for Active; 'I' for Inactive)
REMARK    1  A    between atoms: C_2  and  C_3 
REMARK    2  A    between atoms: C_3  and  N_4 
REMARK    3  A    between atoms: C_12  and  C_13 
ROOT
ATOM      1  N   UNL d   1       7.879   6.281 -12.615  0.00  0.00     0.140 N 
ATOM      2  C   UNL d   1       6.524   6.201 -12.067  0.00  0.00     0.251 C 
ATOM      3  C   UNL d   1       5.936   4.960 -12.727  0.00  0.00     0.042 C 
ATOM      4  C   UNL d   1       7.124   4.008 -12.706  0.00  0.00     0.055 C 
ATOM      5  C   UNL d   1       7.025   2.834 -13.674  0.00  0.00    -0.024 A 
ATOM      6  C   UNL d   1       5.884   2.005 -13.604  0.00  0.00    -0.004 A 
ATOM      7  C   UNL d   1       5.784   0.862 -14.410  0.00  0.00    -0.000 A 
ATOM      8  C   UNL d   1       6.818   0.545 -15.304  0.00  0.00     0.004 A 
ATOM      9  C   UNL d   1       7.989   1.329 -15.361  0.00  0.00     0.055 A 
ATOM     10  C   UNL d   1       8.092   2.501 -14.556  0.00  0.00    -0.021 A 
ATOM     11  C   UNL d   1       9.318   3.412 -14.619  0.00  0.00     0.028 C 
ATOM     12  C   UNL d   1       9.009   4.854 -14.232  0.00  0.00     0.038 C 
ATOM     13  C   UNL d   1       8.358   4.917 -12.849  0.00  0.00     0.224 C 
ENDROOT
BRANCH   1  14
ATOM     14  C   UNL d   1       8.807   7.125 -11.860  0.00  0.00     0.276 C 
BRANCH  14  15
ATOM     15  C   UNL d   1       9.087   6.631 -10.448  0.00  0.00     0.009 C 
ATOM     16  C   UNL d   1      10.303   6.517  -9.901  0.00  0.00    -0.003 C 
ENDBRANCH  14  15
ENDBRANCH   1  14
BRANCH   9  17
ATOM     17  C   UNL d   1       9.070   0.889 -16.306  0.00  0.00     0.296 C 
ATOM     18  N   UNL d   1      10.293   0.783 -15.780  0.00  0.00    -0.102 N 
ATOM     19  O   UNL d   1       8.824   0.594 -17.473  0.00  0.00    -0.264 OA
ENDBRANCH   9  17
TORSDOF 3
