REMARK  8 active torsions:
REMARK  status: ('A' for Active; 'I' for Inactive)
REMARK       I    between atoms: C_2  and  N_3 
REMARK    1  A    between atoms: C_2  and  C_23 
REMARK    2  A    between atoms: N_3  and  C_4 
REMARK    3  A    between atoms: C_4  and  C_5 
REMARK    4  A    between atoms: C_5  and  C_7 
REMARK    5  A    between atoms: C_7  and  C_8 
REMARK    6  A    between atoms: C_8  and  N_9 
REMARK    7  A    between atoms: N_12  and  C_13 
REMARK    8  A    between atoms: C_26  and  C_27 
ROOT
ATOM      1  C   UNL d   1       6.609   3.749 -12.305  0.00  0.00     0.178 C 
ATOM      2  O   UNL d   1       5.865   4.933 -12.080  0.00  0.00    -0.221 OA
ENDROOT
BRANCH   1   3
ATOM      3  C   UNL d   1       8.105   4.100 -12.463  0.00  0.00     0.162 C 
BRANCH   3   4
ATOM      4  N   UNL d   1       8.622   4.789 -11.285  0.00  0.00    -0.232 NA
ATOM      5  C   UNL d   1       9.051   6.061 -11.268  0.00  0.00     0.275 C 
ATOM      6  O   UNL d   1       9.116   6.757 -12.281  0.00  0.00    -0.266 OA
BRANCH   5   7
ATOM      7  C   UNL d   1       9.532   6.569  -9.933  0.00  0.00     0.058 A 
ATOM      8  C   UNL d   1       9.087   5.989  -8.722  0.00  0.00     0.005 A 
ATOM      9  C   UNL d   1       9.527   6.495  -7.486  0.00  0.00     0.002 A 
ATOM     10  C   UNL d   1      10.405   7.596  -7.420  0.00  0.00     0.018 A 
ATOM     11  C   UNL d   1      10.826   8.193  -8.627  0.00  0.00     0.002 A 
ATOM     12  C   UNL d   1      10.393   7.690  -9.870  0.00  0.00     0.005 A 
BRANCH  10  13
ATOM     13  C   UNL d   1      10.871   8.102  -6.120  0.00  0.00     0.081 A 
ATOM     14  N   UNL d   1      10.755   9.435  -5.929  0.00  0.00    -0.244 NA
ATOM     15  C   UNL d   1      11.174   9.956  -4.760  0.00  0.00     0.099 A 
ATOM     16  C   UNL d   1      11.738   9.185  -3.727  0.00  0.00     0.021 A 
ATOM     17  C   UNL d   1      11.862   7.797  -3.921  0.00  0.00     0.003 A 
ATOM     18  C   UNL d   1      11.412   7.244  -5.137  0.00  0.00     0.019 A 
ENDBRANCH  10  13
ENDBRANCH   5   7
ENDBRANCH   3   4
ENDBRANCH   1   3
BRANCH   1  19
ATOM     19  C   UNL d   1       6.053   3.032 -13.558  0.00  0.00     0.070 C 
BRANCH  19  20
ATOM     20  C   UNL d   1       6.250   1.502 -13.538  0.00  0.00     0.253 C 
BRANCH  20  21
ATOM     21  N   UNL d   1       5.503   0.842 -14.596  0.00  0.00     0.141 N 
ATOM     22  C   UNL d   1       6.346   0.672 -15.793  0.00  0.00     0.274 C 
ATOM     23  C   UNL d   1       5.545   0.050 -16.949  0.00  0.00     0.137 C 
ATOM     24  N   UNL d   1       4.899  -1.177 -16.509  0.00  0.00    -0.344 N 
ATOM     25  C   UNL d   1       4.121  -1.074 -15.286  0.00  0.00     0.137 C 
ATOM     26  C   UNL d   1       4.971  -0.451 -14.166  0.00  0.00     0.274 C 
BRANCH  24  27
ATOM     27  C   UNL d   1       5.051  -2.397 -17.207  0.00  0.00     0.068 A 
ATOM     28  C   UNL d   1       4.788  -2.507 -18.602  0.00  0.00     0.084 A 
ATOM     29  C   UNL d   1       4.943  -3.751 -19.249  0.00  0.00     0.070 A 
ATOM     30 CL   UNL d   1       4.231  -1.146 -19.527  0.00  0.00    -0.080 Cl
ATOM     31  C   UNL d   1       5.355  -4.880 -18.528  0.00  0.00     0.012 A 
ATOM     32 CL   UNL d   1       4.624  -3.899 -20.934  0.00  0.00    -0.081 Cl
ATOM     33  C   UNL d   1       5.609  -4.787 -17.151  0.00  0.00     0.002 A 
ATOM     34  C   UNL d   1       5.445  -3.553 -16.500  0.00  0.00     0.018 A 
ENDBRANCH  24  27
ENDBRANCH  20  21
ENDBRANCH  19  20
ENDBRANCH   1  19
TORSDOF 8
