REMARK  13 active torsions:
REMARK  status: ('A' for Active; 'I' for Inactive)
REMARK    1  A    between atoms: C_2  and  N_3 
REMARK    2  A    between atoms: N_3  and  C_4 
REMARK    3  A    between atoms: N_3  and  C_20 
REMARK    4  A    between atoms: C_4  and  C_5 
REMARK    5  A    between atoms: C_5  and  C_6 
REMARK    6  A    between atoms: C_6  and  S_7 
REMARK    7  A    between atoms: S_7  and  C_8 
REMARK    8  A    between atoms: C_11  and  C_12 
REMARK    9  A    between atoms: C_20  and  C_21 
REMARK   10  A    between atoms: C_23  and  C_24 
REMARK   11  A    between atoms: C_30  and  O_31 
REMARK   12  A    between atoms: O_31  and  C_32 
REMARK   13  A    between atoms: C_32  and  C_33 
ROOT
ATOM      1  N   UNL d   1      10.742   2.836 -15.572  0.00  0.00     0.137 N 
ENDROOT
BRANCH   1   2
ATOM      2  C   UNL d   1      11.894   3.259 -14.776  0.00  0.00     0.250 C 
ATOM      3  C   UNL d   1      12.970   3.900 -15.666  0.00  0.00     0.037 C 
ENDBRANCH   1   2
BRANCH   1   4
ATOM      4  C   UNL d   1       9.531   2.771 -14.753  0.00  0.00     0.251 C 
BRANCH   4   5
ATOM      5  C   UNL d   1       9.132   4.148 -14.187  0.00  0.00     0.047 C 
BRANCH   5   6
ATOM      6  C   UNL d   1       7.833   4.106 -13.382  0.00  0.00     0.067 C 
BRANCH   6   7
ATOM      7  S   UNL d   1       7.410   5.750 -12.736  0.00  0.00    -0.075 SA
BRANCH   7   8
ATOM      8  C   UNL d   1       8.405   5.793 -11.277  0.00  0.00     0.193 A 
ATOM      9  N   UNL d   1       9.107   6.880 -10.918  0.00  0.00    -0.289 N 
ATOM     10  C   UNL d   1       9.645   6.490  -9.745  0.00  0.00     0.167 A 
ATOM     11  C   UNL d   1       9.182   8.174 -11.577  0.00  0.00     0.134 C 
ATOM     12  N   UNL d   1       9.318   5.241  -9.401  0.00  0.00    -0.128 NA
ATOM     13  N   UNL d   1       8.499   4.785 -10.407  0.00  0.00    -0.122 NA
BRANCH  10  14
ATOM     14  C   UNL d   1      10.505   7.306  -8.918  0.00  0.00     0.036 A 
ATOM     15  C   UNL d   1      11.778   7.663  -9.397  0.00  0.00     0.003 A 
ATOM     16  C   UNL d   1      12.656   8.389  -8.576  0.00  0.00     0.000 A 
ATOM     17  C   UNL d   1      12.249   8.808  -7.301  0.00  0.00     0.000 A 
ATOM     18  C   UNL d   1      10.960   8.470  -6.826  0.00  0.00     0.000 A 
ATOM     19  C   UNL d   1      10.091   7.709  -7.634  0.00  0.00     0.003 A 
ENDBRANCH  10  14
ENDBRANCH   7   8
ENDBRANCH   6   7
ENDBRANCH   5   6
ENDBRANCH   4   5
ENDBRANCH   1   4
BRANCH   1  20
ATOM     20  C   UNL d   1      11.028   1.518 -16.156  0.00  0.00     0.251 C 
BRANCH  20  21
ATOM     21  C   UNL d   1       9.996   1.108 -17.204  0.00  0.00     0.038 A 
ATOM     22  C   UNL d   1      10.085  -0.254 -17.872  0.00  0.00     0.026 A 
ATOM     23  C   UNL d   1       8.979   0.029 -16.883  0.00  0.00     0.007 A 
BRANCH  22  24
ATOM     24  C   UNL d   1       9.767  -0.409 -19.337  0.00  0.00     0.002 A 
ATOM     25  C   UNL d   1       8.835  -1.386 -19.767  0.00  0.00     0.090 A 
ATOM     26  C   UNL d   1       8.538  -1.492 -21.148  0.00  0.00     0.026 A 
ATOM     27  C   UNL d   1       9.170  -0.649 -22.081  0.00  0.00     0.032 A 
ATOM     28  C   UNL d   1      10.107   0.304 -21.648  0.00  0.00     0.140 A 
ATOM     29  C   UNL d   1      10.409   0.418 -20.282  0.00  0.00     0.027 A 
ATOM     30  F   UNL d   1      10.695   1.127 -22.548  0.00  0.00    -0.204 F 
BRANCH  25  31
ATOM     31  O   UNL d   1       8.262  -2.194 -18.804  0.00  0.00    -0.328 OA
BRANCH  31  32
ATOM     32  C   UNL d   1       7.369  -3.218 -19.215  0.00  0.00     0.187 C 
BRANCH  32  33
ATOM     33  C   UNL d   1       7.109  -4.160 -18.037  0.00  0.00     0.226 C 
ATOM     34  F   UNL d   1       6.441  -5.238 -18.450  0.00  0.00    -0.232 F 
ENDBRANCH  32  33
ENDBRANCH  31  32
ENDBRANCH  25  31
ENDBRANCH  22  24
ENDBRANCH  20  21
ENDBRANCH   1  20
TORSDOF 13
