REMARK  9 active torsions:
REMARK  status: ('A' for Active; 'I' for Inactive)
REMARK    1  A    between atoms: O_2  and  C_3 
REMARK    2  A    between atoms: C_8  and  N_9 
REMARK    3  A    between atoms: N_12  and  C_13 
REMARK    4  A    between atoms: C_13  and  C_14 
REMARK    5  A    between atoms: C_14  and  C_15 
REMARK    6  A    between atoms: C_15  and  C_16 
REMARK    7  A    between atoms: C_16  and  N_17 
REMARK       I    between atoms: N_17  and  C_18 
REMARK    8  A    between atoms: C_18  and  C_20 
REMARK    9  A    between atoms: C_23  and  N_24 
ROOT
ATOM      1  C   UNL d   1       8.282   3.486 -14.014  0.00  0.00     0.037 C 
ENDROOT
BRANCH   1   2
ATOM      2  C   UNL d   1       9.331   2.991 -15.031  0.00  0.00     0.251 C 
BRANCH   2   3
ATOM      3  N   UNL d   1      10.450   3.925 -15.168  0.00  0.00     0.141 N 
ATOM      4  C   UNL d   1      11.636   3.214 -15.649  0.00  0.00     0.274 C 
ATOM      5  C   UNL d   1      12.847   4.170 -15.690  0.00  0.00     0.137 C 
ATOM      6  N   UNL d   1      12.544   5.325 -16.523  0.00  0.00    -0.343 N 
ATOM      7  C   UNL d   1      11.313   6.022 -16.180  0.00  0.00     0.137 C 
ATOM      8  C   UNL d   1      10.134   5.021 -16.090  0.00  0.00     0.274 C 
BRANCH   6   9
ATOM      9  C   UNL d   1      13.312   5.688 -17.647  0.00  0.00     0.079 A 
ATOM     10  C   UNL d   1      13.813   4.717 -18.562  0.00  0.00     0.110 A 
ATOM     11  C   UNL d   1      14.624   5.142 -19.646  0.00  0.00     0.026 A 
ATOM     12  C   UNL d   1      14.909   6.505 -19.843  0.00  0.00     0.002 A 
ATOM     13  C   UNL d   1      14.385   7.465 -18.959  0.00  0.00     0.002 A 
ATOM     14  C   UNL d   1      13.592   7.055 -17.871  0.00  0.00     0.019 A 
BRANCH  10  15
ATOM     15  O   UNL d   1      13.450   3.398 -18.372  0.00  0.00    -0.327 OA
ATOM     16  C   UNL d   1      13.989   2.404 -19.222  0.00  0.00     0.181 C 
ENDBRANCH  10  15
ENDBRANCH   6   9
ENDBRANCH   2   3
ENDBRANCH   1   2
BRANCH   1  17
ATOM     17  C   UNL d   1       8.888   3.978 -12.690  0.00  0.00     0.029 C 
BRANCH  17  18
ATOM     18  C   UNL d   1       7.833   4.567 -11.736  0.00  0.00     0.129 C 
BRANCH  18  19
ATOM     19  N   UNL d   1       8.458   5.183 -10.575  0.00  0.00    -0.234 NA
ATOM     20  C   UNL d   1       9.181   6.318 -10.591  0.00  0.00     0.275 C 
ATOM     21  O   UNL d   1       9.439   6.952 -11.616  0.00  0.00    -0.266 OA
BRANCH  20  22
ATOM     22  C   UNL d   1       9.739   6.745  -9.262  0.00  0.00     0.058 A 
ATOM     23  C   UNL d   1      10.858   7.608  -9.206  0.00  0.00     0.006 A 
ATOM     24  C   UNL d   1      11.354   8.057  -7.965  0.00  0.00     0.018 A 
ATOM     25  C   UNL d   1      10.727   7.652  -6.769  0.00  0.00     0.066 A 
ATOM     26  C   UNL d   1       9.613   6.796  -6.818  0.00  0.00     0.018 A 
ATOM     27  C   UNL d   1       9.110   6.358  -8.054  0.00  0.00     0.006 A 
BRANCH  25  28
ATOM     28  N   UNL d   1      11.211   8.072  -5.513  0.00  0.00    -0.287 N 
ATOM     29  C   UNL d   1      11.436   9.367  -5.263  0.00  0.00     0.183 A 
ATOM     30  N   UNL d   1      11.853   9.583  -4.022  0.00  0.00    -0.222 NA
ATOM     31  C   UNL d   1      11.912   8.311  -3.447  0.00  0.00     0.120 A 
ATOM     32  C   UNL d   1      11.503   7.362  -4.360  0.00  0.00     0.102 A 
ENDBRANCH  25  28
ENDBRANCH  20  22
ENDBRANCH  18  19
ENDBRANCH  17  18
ENDBRANCH   1  17
TORSDOF 9
