REMARK  7 active torsions:
REMARK  status: ('A' for Active; 'I' for Inactive)
REMARK       I    between atoms: C_2  and  N_3 
REMARK    1  A    between atoms: C_2  and  C_27 
REMARK    2  A    between atoms: N_3  and  C_4 
REMARK    3  A    between atoms: C_7  and  C_8 
REMARK    4  A    between atoms: C_8  and  C_9 
REMARK    5  A    between atoms: C_9  and  N_10 
REMARK    6  A    between atoms: C_13  and  C_14 
REMARK    7  A    between atoms: C_27  and  C_29 
ROOT
ATOM      1  C   UNL d   1       9.246   5.643 -11.910  0.00  0.00     0.035 C 
ENDROOT
BRANCH   1   2
ATOM      2  C   UNL d   1       9.408   4.410 -12.809  0.00  0.00     0.002 C 
ATOM      3  C   UNL d   1       8.072   4.080 -13.499  0.00  0.00     0.002 C 
ATOM      4  C   UNL d   1       8.210   2.890 -14.448  0.00  0.00     0.024 C 
ATOM      5  C   UNL d   1       9.361   3.099 -15.461  0.00  0.00     0.106 C 
ATOM      6  C   UNL d   1      10.697   3.455 -14.781  0.00  0.00     0.024 C 
ATOM      7  C   UNL d   1      10.528   4.639 -13.837  0.00  0.00     0.002 C 
BRANCH   5   8
ATOM      8  N   UNL d   1       9.513   1.944 -16.336  0.00  0.00    -0.238 NA
ATOM      9  C   UNL d   1       9.838   0.690 -15.976  0.00  0.00     0.291 C 
ATOM     10  O   UNL d   1      10.121   0.358 -14.825  0.00  0.00    -0.268 OA
BRANCH   9  11
ATOM     11  C   UNL d   1       9.880  -0.369 -17.070  0.00  0.00     0.325 C 
ATOM     12  O   UNL d   1      11.104  -0.261 -17.774  0.00  0.00    -0.204 OA
BRANCH  11  13
ATOM     13  C   UNL d   1       8.681  -0.304 -18.041  0.00  0.00     0.434 C 
ATOM     14  F   UNL d   1       8.730  -1.340 -18.877  0.00  0.00    -0.167 F 
ATOM     15  F   UNL d   1       7.533  -0.361 -17.363  0.00  0.00    -0.167 F 
ATOM     16  F   UNL d   1       8.689   0.835 -18.739  0.00  0.00    -0.167 F 
ENDBRANCH  11  13
ENDBRANCH   9  11
ENDBRANCH   5   8
ENDBRANCH   1   2
BRANCH   1  17
ATOM     17  C   UNL d   1       8.727   5.309 -10.504  0.00  0.00     0.250 C 
BRANCH  17  18
ATOM     18  N   UNL d   1       9.163   6.248  -9.475  0.00  0.00     0.137 N 
ATOM     19  C   UNL d   1       8.661   5.768  -8.181  0.00  0.00     0.251 C 
ATOM     20  C   UNL d   1       9.003   6.768  -7.062  0.00  0.00     0.040 C 
ATOM     21  C   UNL d   1      10.521   7.014  -6.978  0.00  0.00     0.028 C 
ATOM     22  C   UNL d   1      11.045   7.391  -8.361  0.00  0.00     0.040 C 
ATOM     23  C   UNL d   1      10.620   6.362  -9.393  0.00  0.00     0.251 C 
BRANCH  21  24
ATOM     24  C   UNL d   1      10.863   8.076  -5.991  0.00  0.00     0.004 A 
ATOM     25  C   UNL d   1      11.449   7.915  -4.694  0.00  0.00     0.021 A 
ATOM     26  C   UNL d   1      11.545   9.211  -4.143  0.00  0.00     0.100 A 
ATOM     27  C   UNL d   1      11.866   6.834  -3.889  0.00  0.00     0.002 A 
ATOM     28  O   UNL d   1      11.063  10.140  -5.043  0.00  0.00    -0.305 OA
ATOM     29  C   UNL d   1      12.041   9.460  -2.858  0.00  0.00     0.025 A 
ATOM     30  C   UNL d   1      10.676   9.427  -6.139  0.00  0.00     0.118 A 
ATOM     31  C   UNL d   1      12.470   8.370  -2.079  0.00  0.00     0.002 A 
ATOM     32  C   UNL d   1      12.368   7.056  -2.590  0.00  0.00     0.000 A 
ENDBRANCH  21  24
ENDBRANCH  17  18
ENDBRANCH   1  17
TORSDOF 7
