REMARK  7 active torsions:
REMARK  status: ('A' for Active; 'I' for Inactive)
REMARK    1  A    between atoms: C_2  and  O_4 
REMARK    2  A    between atoms: O_4  and  C_5 
REMARK    3  A    between atoms: C_10  and  N_11 
REMARK    4  A    between atoms: N_14  and  C_15 
REMARK    5  A    between atoms: C_18  and  N_19 
REMARK    6  A    between atoms: N_19  and  S_20 
REMARK    7  A    between atoms: S_20  and  C_23 
ROOT
ATOM      1  C   UNL d   1       9.395   5.435 -11.500  0.00  0.00     0.220 C 
ATOM      2  C   UNL d   1       9.243   6.947 -11.436  0.00  0.00     0.035 C 
ATOM      3  C   UNL d   1      10.091   7.541 -10.300  0.00  0.00     0.027 C 
ATOM      4  C   UNL d   1       9.769   6.896  -8.943  0.00  0.00     0.116 C 
ATOM      5  C   UNL d   1       9.947   5.414  -8.977  0.00  0.00     0.027 C 
ATOM      6  C   UNL d   1       9.183   4.776 -10.112  0.00  0.00     0.035 C 
ENDROOT
BRANCH   1   7
ATOM      7  N   UNL d   1       8.556   4.853 -12.555  0.00  0.00     0.139 N 
ATOM      8  C   UNL d   1       9.207   3.684 -13.173  0.00  0.00     0.274 C 
ATOM      9  C   UNL d   1       8.407   3.237 -14.399  0.00  0.00     0.137 C 
ATOM     10  N   UNL d   1       7.011   2.969 -14.040  0.00  0.00    -0.343 N 
ATOM     11  C   UNL d   1       6.346   4.038 -13.294  0.00  0.00     0.137 C 
ATOM     12  C   UNL d   1       7.210   4.485 -12.101  0.00  0.00     0.274 C 
BRANCH  10  13
ATOM     13  C   UNL d   1       6.359   1.774 -14.350  0.00  0.00     0.079 A 
ATOM     14  C   UNL d   1       6.538   1.163 -15.613  0.00  0.00     0.109 A 
ATOM     15  C   UNL d   1       5.825  -0.011 -15.928  0.00  0.00     0.026 A 
ATOM     16  C   UNL d   1       4.944  -0.590 -14.983  0.00  0.00     0.002 A 
ATOM     17  C   UNL d   1       4.757   0.029 -13.731  0.00  0.00     0.002 A 
ATOM     18  C   UNL d   1       5.459   1.198 -13.414  0.00  0.00     0.019 A 
BRANCH  14  19
ATOM     19  O   UNL d   1       7.396   1.782 -16.519  0.00  0.00    -0.332 OA
BRANCH  19  20
ATOM     20  C   UNL d   1       7.776   1.135 -17.735  0.00  0.00     0.122 C 
ATOM     21  C   UNL d   1       8.512  -0.192 -17.454  0.00  0.00     0.033 C 
ATOM     22  C   UNL d   1       8.706   2.082 -18.491  0.00  0.00     0.033 C 
ENDBRANCH  19  20
ENDBRANCH  14  19
ENDBRANCH  10  13
ENDBRANCH   1   7
BRANCH   4  23
ATOM     23  N   UNL d   1      10.698   7.361  -7.925  0.00  0.00    -0.187 NA
BRANCH  23  24
ATOM     24  S   UNL d   1      10.316   8.824  -7.173  0.00  0.00     0.283 S 
ATOM     25  O   UNL d   1      11.148   9.839  -7.827  0.00  0.00    -0.199 OA
ATOM     26  O   UNL d   1       8.851   8.881  -7.159  0.00  0.00    -0.199 OA
BRANCH  24  27
ATOM     27  C   UNL d   1      10.924   8.712  -5.515  0.00  0.00     0.132 A 
ATOM     28  C   UNL d   1      11.276   7.463  -4.993  0.00  0.00     0.153 A 
ATOM     29  C   UNL d   1      11.837   7.369  -3.724  0.00  0.00     0.042 A 
ATOM     30  F   UNL d   1      11.076   6.347  -5.694  0.00  0.00    -0.203 F 
ATOM     31  C   UNL d   1      12.026   8.538  -2.983  0.00  0.00     0.060 A 
ATOM     32  C   UNL d   1      11.679   9.803  -3.491  0.00  0.00     0.012 A 
ATOM     33 CL   UNL d   1      12.658   8.384  -1.409  0.00  0.00    -0.082 Cl
ATOM     34  C   UNL d   1      11.131   9.903  -4.784  0.00  0.00     0.016 A 
ENDBRANCH  24  27
ENDBRANCH  23  24
ENDBRANCH   4  23
TORSDOF 7
