REMARK  6 active torsions:
REMARK  status: ('A' for Active; 'I' for Inactive)
REMARK    1  A    between atoms: C_2  and  C_3 
REMARK    2  A    between atoms: N_16  and  C_17 
REMARK    3  A    between atoms: C_17  and  C_18 
REMARK    4  A    between atoms: C_18  and  C_19 
REMARK    5  A    between atoms: C_19  and  C_20 
REMARK    6  A    between atoms: C_20  and  C_21 
ROOT
ATOM      1  O   UNL d   1       5.708   4.364 -13.919  0.00  0.00    -0.221 OA
ATOM      2  C   UNL d   1       7.093   4.314 -13.559  0.00  0.00     0.149 C 
ATOM      3  C   UNL d   1       7.924   5.634 -13.768  0.00  0.00     0.068 C 
ATOM      4  C   UNL d   1       9.207   5.785 -12.912  0.00  0.00     0.222 C 
ATOM      5  C   UNL d   1      10.216   4.633 -12.991  0.00  0.00     0.035 C 
ATOM      6  C   UNL d   1       9.623   3.688 -11.953  0.00  0.00     0.035 C 
ATOM      7  C   UNL d   1       8.383   4.404 -11.314  0.00  0.00     0.222 C 
ATOM      8  C   UNL d   1       7.026   4.098 -12.018  0.00  0.00     0.068 C 
ATOM      9  N   UNL d   1       8.702   5.822 -11.524  0.00  0.00     0.133 N 
ENDROOT
BRANCH   9  10
ATOM     10  C   UNL d   1       9.741   6.322 -10.611  0.00  0.00     0.250 C 
BRANCH  10  11
ATOM     11  C   UNL d   1       9.230   6.406  -9.171  0.00  0.00     0.036 C 
BRANCH  11  12
ATOM     12  C   UNL d   1      10.279   6.916  -8.190  0.00  0.00     0.009 C 
BRANCH  12  13
ATOM     13  C   UNL d   1       9.754   8.083  -7.339  0.00  0.00     0.053 C 
BRANCH  13  14
ATOM     14  C   UNL d   1      10.497   8.243  -6.061  0.00  0.00     0.088 A 
ATOM     15  S   UNL d   1      10.885   9.840  -5.391  0.00  0.00    -0.071 SA
ATOM     16  C   UNL d   1      11.577   9.022  -4.004  0.00  0.00     0.048 A 
ATOM     17  C   UNL d   1      11.499   7.610  -4.173  0.00  0.00     0.087 A 
ATOM     18  C   UNL d   1      12.146   9.586  -2.846  0.00  0.00     0.008 A 
ATOM     19  N   UNL d   1      10.854   7.183  -5.328  0.00  0.00    -0.243 NA
ATOM     20  C   UNL d   1      12.037   6.789  -3.170  0.00  0.00     0.020 A 
ATOM     21  C   UNL d   1      12.625   7.353  -2.023  0.00  0.00     0.002 A 
ATOM     22  C   UNL d   1      12.671   8.745  -1.862  0.00  0.00     0.001 A 
ENDBRANCH  13  14
ENDBRANCH  12  13
ENDBRANCH  11  12
ENDBRANCH  10  11
ENDBRANCH   9  10
BRANCH   2  23
ATOM     23  C   UNL d   1       7.719   3.109 -14.305  0.00  0.00     0.005 C 
ATOM     24  C   UNL d   1       8.804   3.285 -15.222  0.00  0.00    -0.001 C 
ATOM     25  C   UNL d   1       9.479   2.153 -15.762  0.00  0.00     0.011 C 
ATOM     26  C   UNL d   1       8.989   0.916 -15.509  0.00  0.00     0.058 C 
ATOM     27  C   UNL d   1       7.840   0.692 -14.692  0.00  0.00     0.011 C 
ATOM     28 CL   UNL d   1       9.829  -0.340 -16.265  0.00  0.00    -0.082 Cl
ATOM     29  C   UNL d   1       7.200   1.828 -14.122  0.00  0.00    -0.001 C 
ENDBRANCH   2  23
TORSDOF 6
