REMARK  4 active torsions:
REMARK  status: ('A' for Active; 'I' for Inactive)
REMARK    1  A    between atoms: C_5  and  C_6 
REMARK    2  A    between atoms: N_9  and  C_10 
REMARK    3  A    between atoms: C_10  and  C_11 
REMARK    4  A    between atoms: C_11  and  C_12 
ROOT
ATOM      1  C   UNL d   1      10.401   6.837  -8.957  0.00  0.00     0.026 C 
ATOM      2  C   UNL d   1       9.908   7.730 -10.105  0.00  0.00     0.040 C 
ATOM      3  C   UNL d   1       9.472   6.933 -11.337  0.00  0.00     0.251 C 
ATOM      4  N   UNL d   1       8.466   5.941 -11.022  0.00  0.00     0.137 N 
ATOM      5  C   UNL d   1       9.017   4.993 -10.053  0.00  0.00     0.251 C 
ATOM      6  C   UNL d   1       9.383   5.700  -8.746  0.00  0.00     0.040 C 
ENDROOT
BRANCH   4   7
ATOM      7  C   UNL d   1       8.092   5.298 -12.275  0.00  0.00     0.253 C 
BRANCH   7   8
ATOM      8  C   UNL d   1       6.890   4.372 -12.086  0.00  0.00     0.064 C 
BRANCH   8   9
ATOM      9  C   UNL d   1       6.387   3.663 -13.358  0.00  0.00     0.131 A 
ATOM     10  C   UNL d   1       7.410   2.808 -14.092  0.00  0.00     0.005 A 
ATOM     11  C   UNL d   1       6.988   1.491 -14.078  0.00  0.00     0.055 A 
ATOM     12  C   UNL d   1       8.610   3.182 -14.729  0.00  0.00    -0.002 A 
ATOM     13  C   UNL d   1       5.705   1.391 -13.359  0.00  0.00     0.275 A 
ATOM     14  C   UNL d   1       7.743   0.455 -14.660  0.00  0.00     0.004 A 
ATOM     15  N   UNL d   1       5.392   2.643 -12.976  0.00  0.00    -0.232 NA
ATOM     16  O   UNL d   1       5.062   0.359 -13.170  0.00  0.00    -0.266 OA
ATOM     17  C   UNL d   1       8.957   0.809 -15.287  0.00  0.00     0.000 A 
ATOM     18  C   UNL d   1       9.385   2.159 -15.328  0.00  0.00    -0.000 A 
ENDBRANCH   8   9
ENDBRANCH   7   8
ENDBRANCH   4   7
BRANCH   1  19
ATOM     19  C   UNL d   1      10.703   7.591  -7.644  0.00  0.00    -0.023 A 
ATOM     20  C   UNL d   1      10.565   8.987  -7.554  0.00  0.00    -0.005 A 
ATOM     21  C   UNL d   1      10.826   9.662  -6.353  0.00  0.00    -0.005 A 
ATOM     22  C   UNL d   1      11.220   8.947  -5.215  0.00  0.00    -0.026 A 
ATOM     23  C   UNL d   1      11.468   9.721  -3.942  0.00  0.00     0.031 C 
ATOM     24  C   UNL d   1      11.370   7.547  -5.278  0.00  0.00    -0.026 A 
ATOM     25  C   UNL d   1      11.118   6.875  -6.498  0.00  0.00    -0.009 A 
ATOM     26  C   UNL d   1      11.809   6.760  -4.058  0.00  0.00     0.031 C 
ENDBRANCH   1  19
TORSDOF 4
