REMARK  8 active torsions:
REMARK  status: ('A' for Active; 'I' for Inactive)
REMARK    1  A    between atoms: C_2  and  C_4 
REMARK    2  A    between atoms: C_9  and  O_10 
REMARK    3  A    between atoms: O_10  and  C_11 
REMARK    4  A    between atoms: C_11  and  C_12 
REMARK    5  A    between atoms: C_12  and  C_14 
REMARK    6  A    between atoms: C_14  and  O_15 
REMARK    7  A    between atoms: O_15  and  C_16 
REMARK    8  A    between atoms: C_22  and  C_23 
ROOT
ATOM      1  C   UNL d   1       8.136   6.270 -11.942  0.00  0.00     0.212 C 
ATOM      2  O   UNL d   1       7.865   7.510 -12.526  0.00  0.00    -0.218 OA
ENDROOT
BRANCH   1   3
ATOM      3  C   UNL d   1       7.400   5.109 -12.602  0.00  0.00     0.184 C 
BRANCH   3   4
ATOM      4  O   UNL d   1       8.251   4.477 -13.550  0.00  0.00    -0.328 OA
BRANCH   4   5
ATOM      5  C   UNL d   1       7.887   3.266 -14.100  0.00  0.00     0.099 A 
ATOM      6  C   UNL d   1       8.809   2.614 -14.961  0.00  0.00     0.084 A 
ATOM      7  C   UNL d   1      10.152   3.182 -15.272  0.00  0.00     0.202 A 
ATOM      8  C   UNL d   1       8.454   1.381 -15.569  0.00  0.00     0.105 A 
ATOM      9  C   UNL d   1      10.972   2.413 -16.198  0.00  0.00     0.073 A 
ATOM     10  O   UNL d   1      10.591   4.238 -14.804  0.00  0.00    -0.286 OA
ATOM     11  C   UNL d   1      10.536   1.240 -16.734  0.00  0.00     0.167 A 
ATOM     12  O   UNL d   1       9.307   0.714 -16.418  0.00  0.00    -0.301 OA
ATOM     13  C   UNL d   1       7.196   0.809 -15.304  0.00  0.00     0.025 A 
ATOM     14  C   UNL d   1       6.287   1.444 -14.445  0.00  0.00     0.004 A 
ATOM     15  C   UNL d   1       6.624   2.674 -13.852  0.00  0.00     0.024 A 
BRANCH  11  16
ATOM     16  C   UNL d   1      11.376   0.496 -17.661  0.00  0.00     0.235 C 
ATOM     17  O   UNL d   1      11.130  -0.652 -18.045  0.00  0.00    -0.642 OA
ATOM     18  O   UNL d   1      12.484   1.170 -18.087  0.00  0.00    -0.642 OA
ENDBRANCH  11  16
ENDBRANCH   4   5
ENDBRANCH   3   4
ENDBRANCH   1   3
BRANCH   1  19
ATOM     19  C   UNL d   1       9.654   6.006 -11.802  0.00  0.00     0.184 C 
BRANCH  19  20
ATOM     20  O   UNL d   1      10.261   6.746 -10.747  0.00  0.00    -0.328 OA
BRANCH  20  21
ATOM     21  C   UNL d   1       9.891   6.523  -9.443  0.00  0.00     0.099 A 
ATOM     22  C   UNL d   1      10.485   7.312  -8.413  0.00  0.00     0.084 A 
ATOM     23  C   UNL d   1       9.968   7.259  -7.095  0.00  0.00     0.105 A 
ATOM     24  C   UNL d   1      11.636   8.226  -8.639  0.00  0.00     0.202 A 
ATOM     25  C   UNL d   1       8.894   6.425  -6.820  0.00  0.00     0.025 A 
ATOM     26  O   UNL d   1      10.488   7.972  -6.042  0.00  0.00    -0.301 OA
ATOM     27  C   UNL d   1       8.362   5.602  -7.816  0.00  0.00     0.004 A 
ATOM     28  C   UNL d   1       8.867   5.601  -9.108  0.00  0.00     0.024 A 
ATOM     29  C   UNL d   1      11.565   8.768  -6.233  0.00  0.00     0.167 A 
ATOM     30  C   UNL d   1      12.146   8.921  -7.461  0.00  0.00     0.073 A 
ATOM     31  O   UNL d   1      12.187   8.391  -9.729  0.00  0.00    -0.286 OA
BRANCH  29  32
ATOM     32  C   UNL d   1      12.096   9.467  -5.092  0.00  0.00     0.235 C 
ATOM     33  O   UNL d   1      13.272   9.645  -4.821  0.00  0.00    -0.642 OA
ATOM     34  O   UNL d   1      11.102   9.903  -4.270  0.00  0.00    -0.642 OA
ENDBRANCH  29  32
ENDBRANCH  20  21
ENDBRANCH  19  20
ENDBRANCH   1  19
TORSDOF 8
