REMARK  2 active torsions:
REMARK  status: ('A' for Active; 'I' for Inactive)
REMARK    1  A    between atoms: N_10  and  C_11 
REMARK    2  A    between atoms: C_11  and  C_12 
ROOT
ATOM      1  F   UNL d   1       5.461   4.993 -12.486  0.00  0.00    -0.204 F 
ATOM      2  C   UNL d   1       6.727   4.670 -12.821  0.00  0.00     0.140 A 
ATOM      3  C   UNL d   1       7.803   5.445 -12.354  0.00  0.00     0.032 A 
ATOM      4  C   UNL d   1       9.123   5.103 -12.710  0.00  0.00     0.026 A 
ATOM      5  C   UNL d   1       9.378   3.984 -13.532  0.00  0.00     0.090 A 
ATOM      6  C   UNL d   1       8.282   3.215 -14.003  0.00  0.00     0.004 A 
ATOM      7  C   UNL d   1       6.962   3.554 -13.643  0.00  0.00     0.027 A 
ATOM      8  C   UNL d   1       8.587   2.001 -14.845  0.00  0.00     0.062 C 
ATOM      9  C   UNL d   1       7.657   1.609 -15.977  0.00  0.00     0.255 C 
ATOM     10  N   UNL d   1       8.480   0.626 -16.693  0.00  0.00     0.142 N 
ATOM     11  C   UNL d   1       9.893   1.015 -16.545  0.00  0.00     0.254 C 
ATOM     12  C   UNL d   1       9.852   2.229 -15.616  0.00  0.00     0.070 C 
ATOM     13  C   UNL d   1      10.973   2.495 -14.611  0.00  0.00     0.151 C 
ATOM     14  O   UNL d   1      10.694   3.698 -13.868  0.00  0.00    -0.331 OA
ENDROOT
BRANCH  10  15
ATOM     15  C   UNL d   1       8.074   0.469 -18.087  0.00  0.00     0.277 C 
BRANCH  15  16
ATOM     16  C   UNL d   1       6.638  -0.010 -18.275  0.00  0.00     0.011 A 
ATOM     17  C   UNL d   1       6.043  -0.891 -17.347  0.00  0.00    -0.002 A 
ATOM     18  C   UNL d   1       4.713  -1.323 -17.518  0.00  0.00    -0.000 A 
ATOM     19  C   UNL d   1       3.977  -0.884 -18.633  0.00  0.00    -0.000 A 
ATOM     20  C   UNL d   1       4.566  -0.013 -19.569  0.00  0.00    -0.000 A 
ATOM     21  C   UNL d   1       5.894   0.422 -19.394  0.00  0.00    -0.002 A 
ENDBRANCH  15  16
ENDBRANCH  10  15
TORSDOF 2
