REMARK  1 active torsions:
REMARK  status: ('A' for Active; 'I' for Inactive)
REMARK    1  A    between atoms: C_4  and  C_5 
ROOT
ATOM      1  C   UNL d   1      12.720   6.005  -2.268  0.00  0.00     0.031 C 
ATOM      2  C   UNL d   1      12.215   7.137  -3.105  0.00  0.00    -0.017 A 
ATOM      3  C   UNL d   1      11.632   6.959  -4.380  0.00  0.00     0.011 A 
ATOM      4  C   UNL d   1      11.170   8.055  -5.131  0.00  0.00     0.069 A 
ATOM      5  N   UNL d   1      11.264   9.309  -4.602  0.00  0.00    -0.164 N 
ATOM      6  O   UNL d   1      10.839  10.346  -5.222  0.00  0.00    -0.078 OA
ATOM      7  C   UNL d   1      11.806   9.449  -3.357  0.00  0.00     0.219 A 
ATOM      8  O   UNL d   1      11.859  10.653  -2.847  0.00  0.00    -0.169 OA
ATOM      9  C   UNL d   1      12.275   8.411  -2.579  0.00  0.00     0.044 A 
ENDROOT
BRANCH   4  10
ATOM     10  C   UNL d   1      10.577   7.846  -6.532  0.00  0.00     0.041 C 
ATOM     11  C   UNL d   1      11.653   7.362  -7.509  0.00  0.00     0.006 C 
ATOM     12  C   UNL d   1      11.038   7.152  -8.902  0.00  0.00     0.000 C 
ATOM     13  C   UNL d   1       9.884   6.129  -8.827  0.00  0.00     0.000 C 
ATOM     14  C   UNL d   1       8.800   6.618  -7.850  0.00  0.00     0.000 C 
ATOM     15  C   UNL d   1       9.389   6.895  -6.468  0.00  0.00     0.006 C 
ENDBRANCH   4  10
TORSDOF 1
