REMARK  6 active torsions:
REMARK  status: ('A' for Active; 'I' for Inactive)
REMARK    1  A    between atoms: C_2  and  C_3 
REMARK    2  A    between atoms: C_2  and  C_20 
REMARK    3  A    between atoms: C_3  and  C_4 
REMARK    4  A    between atoms: C_4  and  C_5 
REMARK    5  A    between atoms: C_5  and  N_6 
REMARK    6  A    between atoms: C_9  and  C_10 
ROOT
ATOM      1  N   UNL d   1       9.170   5.896 -10.846  0.00  0.00     0.137 N 
ATOM      2  C   UNL d   1       9.277   4.441 -10.753  0.00  0.00     0.251 C 
ATOM      3  C   UNL d   1       9.576   3.862 -12.144  0.00  0.00     0.039 C 
ATOM      4  C   UNL d   1       8.570   4.309 -13.175  0.00  0.00     0.023 A 
ATOM      5  C   UNL d   1       8.832   5.580 -13.906  0.00  0.00     0.006 A 
ATOM      6  C   UNL d   1       7.752   5.537 -12.863  0.00  0.00     0.037 A 
ATOM      7  C   UNL d   1       7.904   6.218 -11.517  0.00  0.00     0.251 C 
ENDROOT
BRANCH   1   8
ATOM      8  C   UNL d   1       9.107   6.546  -9.531  0.00  0.00     0.251 C 
BRANCH   8   9
ATOM      9  C   UNL d   1      10.367   6.332  -8.693  0.00  0.00     0.043 C 
BRANCH   9  10
ATOM     10  C   UNL d   1      10.136   6.566  -7.201  0.00  0.00     0.071 C 
BRANCH  10  11
ATOM     11  C   UNL d   1      10.483   7.979  -6.700  0.00  0.00     0.173 C 
ATOM     12  O   UNL d   1      10.268   8.956  -7.402  0.00  0.00    -0.291 OA
BRANCH  11  13
ATOM     13  C   UNL d   1      11.080   8.071  -5.330  0.00  0.00     0.035 A 
ATOM     14  C   UNL d   1      11.286   9.360  -4.765  0.00  0.00     0.005 A 
ATOM     15  C   UNL d   1      11.848   9.482  -3.473  0.00  0.00     0.030 A 
ATOM     16  C   UNL d   1      12.227   8.345  -2.744  0.00  0.00     0.140 A 
ATOM     17  C   UNL d   1      12.035   7.066  -3.302  0.00  0.00     0.030 A 
ATOM     18  F   UNL d   1      12.749   8.465  -1.504  0.00  0.00    -0.204 F 
ATOM     19  C   UNL d   1      11.463   6.932  -4.578  0.00  0.00     0.005 A 
ENDBRANCH  11  13
ENDBRANCH  10  11
ENDBRANCH   9  10
ENDBRANCH   8   9
ENDBRANCH   1   8
BRANCH   4  20
ATOM     20  C   UNL d   1       7.976   3.159 -13.921  0.00  0.00    -0.023 A 
ATOM     21  C   UNL d   1       6.651   2.766 -13.655  0.00  0.00    -0.003 A 
ATOM     22  C   UNL d   1       6.114   1.639 -14.284  0.00  0.00     0.011 A 
ATOM     23  C   UNL d   1       6.864   0.926 -15.235  0.00  0.00     0.058 A 
ATOM     24  C   UNL d   1       8.192   1.309 -15.511  0.00  0.00     0.011 A 
ATOM     25 CL   UNL d   1       6.132  -0.384 -16.079  0.00  0.00    -0.082 Cl
ATOM     26  C   UNL d   1       8.748   2.421 -14.847  0.00  0.00    -0.003 A 
ENDBRANCH   4  20
TORSDOF 6
