REMARK  6 active torsions:
REMARK  status: ('A' for Active; 'I' for Inactive)
REMARK       I    between atoms: C_2  and  N_3 
REMARK    1  A    between atoms: C_2  and  C_27 
REMARK    2  A    between atoms: N_3  and  C_4 
REMARK    3  A    between atoms: C_7  and  C_8 
REMARK    4  A    between atoms: C_8  and  C_9 
REMARK    5  A    between atoms: C_9  and  N_10 
REMARK    6  A    between atoms: N_13  and  C_14 
ROOT
ATOM      1  C   UNL d   1       8.986   6.514  -9.599  0.00  0.00     0.107 C 
ATOM      2  C   UNL d   1       9.191   7.455 -10.833  0.00  0.00     0.024 C 
ATOM      3  C   UNL d   1       8.562   6.865 -12.083  0.00  0.00     0.002 C 
ATOM      4  C   UNL d   1       9.169   5.485 -12.385  0.00  0.00     0.002 C 
ATOM      5  C   UNL d   1       8.986   4.540 -11.183  0.00  0.00     0.002 C 
ATOM      6  C   UNL d   1       9.534   5.120  -9.876  0.00  0.00     0.024 C 
ENDROOT
BRANCH   4   7
ATOM      7  C   UNL d   1       8.573   4.891 -13.667  0.00  0.00     0.035 C 
BRANCH   7   8
ATOM      8  C   UNL d   1       9.336   3.641 -14.138  0.00  0.00     0.250 C 
BRANCH   8   9
ATOM      9  N   UNL d   1       8.822   3.182 -15.416  0.00  0.00     0.141 N 
ATOM     10  C   UNL d   1       7.608   2.387 -15.216  0.00  0.00     0.274 C 
ATOM     11  C   UNL d   1       7.019   1.944 -16.555  0.00  0.00     0.138 C 
ATOM     12  N   UNL d   1       8.017   1.280 -17.362  0.00  0.00    -0.330 N 
ATOM     13  C   UNL d   1       9.299   1.943 -17.498  0.00  0.00     0.138 C 
ATOM     14  C   UNL d   1       9.829   2.375 -16.105  0.00  0.00     0.274 C 
BRANCH  12  15
ATOM     15  C   UNL d   1       7.766   0.010 -17.932  0.00  0.00     0.138 A 
ATOM     16  C   UNL d   1       6.507  -0.373 -18.437  0.00  0.00     0.036 A 
ATOM     17  C   UNL d   1       6.317  -1.634 -18.966  0.00  0.00     0.095 A 
ATOM     18  C   UNL d   1       5.230   0.393 -18.580  0.00  0.00     0.064 C 
ATOM     19  C   UNL d   1       7.384  -2.543 -18.981  0.00  0.00     0.045 A 
ATOM     20  O   UNL d   1       5.066  -1.827 -19.473  0.00  0.00    -0.331 OA
ATOM     21  C   UNL d   1       8.609  -2.079 -18.466  0.00  0.00     0.103 A 
ATOM     22  N   UNL d   1       8.815  -0.840 -17.978  0.00  0.00    -0.228 NA
ATOM     23  C   UNL d   1       4.361  -0.577 -19.396  0.00  0.00     0.154 C 
ENDBRANCH  12  15
ENDBRANCH   8   9
ENDBRANCH   7   8
ENDBRANCH   4   7
BRANCH   1  24
ATOM     24  N   UNL d   1       9.560   7.039  -8.361  0.00  0.00    -0.236 NA
ATOM     25  C   UNL d   1      10.813   7.494  -8.189  0.00  0.00     0.275 C 
ATOM     26  O   UNL d   1      11.657   7.602  -9.068  0.00  0.00    -0.266 OA
BRANCH  25  27
ATOM     27  C   UNL d   1      11.167   7.863  -6.795  0.00  0.00     0.060 A 
ATOM     28  C   UNL d   1      10.972   6.951  -5.738  0.00  0.00     0.031 A 
ATOM     29  C   UNL d   1      11.457   7.313  -4.474  0.00  0.00     0.119 A 
ATOM     30  C   UNL d   1      12.067   8.533  -4.253  0.00  0.00     0.119 A 
ATOM     31  O   UNL d   1      11.470   6.585  -3.336  0.00  0.00    -0.300 OA
ATOM     32  C   UNL d   1      12.265   9.459  -5.293  0.00  0.00     0.026 A 
ATOM     33  O   UNL d   1      12.430   8.622  -2.948  0.00  0.00    -0.300 OA
ATOM     34  C   UNL d   1      11.811   9.104  -6.575  0.00  0.00     0.007 A 
ATOM     35  C   UNL d   1      12.021   7.420  -2.358  0.00  0.00     0.304 A 
ENDBRANCH  25  27
ENDBRANCH   1  24
TORSDOF 6
