REMARK  7 active torsions:
REMARK  status: ('A' for Active; 'I' for Inactive)
REMARK    1  A    between atoms: C_4  and  C_5 
REMARK    2  A    between atoms: N_16  and  C_17 
REMARK    3  A    between atoms: C_17  and  C_18 
REMARK    4  A    between atoms: C_18  and  C_19 
REMARK    5  A    between atoms: C_19  and  C_20 
REMARK    6  A    between atoms: C_20  and  N_21 
REMARK    7  A    between atoms: C_24  and  C_25 
ROOT
ATOM      1  C   UNL d   1       9.178   5.079 -13.113  0.00  0.00     0.027 C 
ENDROOT
BRANCH   1   2
ATOM      2  C   UNL d   1       8.757   3.622 -12.877  0.00  0.00     0.112 C 
BRANCH   2   3
ATOM      3  N   UNL d   1       8.595   2.860 -14.111  0.00  0.00    -0.270 N 
ATOM      4  C   UNL d   1       9.572   2.222 -14.763  0.00  0.00     0.240 A 
ATOM      5  O   UNL d   1      10.767   2.202 -14.456  0.00  0.00    -0.272 OA
ATOM      6  C   UNL d   1       9.024   1.486 -15.983  0.00  0.00     0.102 A 
ATOM      7  C   UNL d   1       7.523   1.812 -15.930  0.00  0.00     0.113 A 
ATOM      8  C   UNL d   1       7.405   2.679 -14.687  0.00  0.00     0.243 A 
ATOM      9  O   UNL d   1       6.335   3.152 -14.289  0.00  0.00    -0.272 OA
BRANCH   7  10
ATOM     10  C   UNL d   1       6.642   0.593 -15.821  0.00  0.00     0.007 A 
ATOM     11  C   UNL d   1       5.837   0.015 -16.863  0.00  0.00     0.016 A 
ATOM     12  C   UNL d   1       5.177  -1.124 -16.324  0.00  0.00     0.081 A 
ATOM     13  C   UNL d   1       5.593   0.323 -18.225  0.00  0.00     0.001 A 
ATOM     14  N   UNL d   1       5.566  -1.194 -15.000  0.00  0.00    -0.244 NA
ATOM     15  C   UNL d   1       4.335  -1.930 -17.105  0.00  0.00     0.019 A 
ATOM     16  C   UNL d   1       6.451  -0.181 -14.700  0.00  0.00     0.095 A 
ATOM     17  C   UNL d   1       4.106  -1.600 -18.453  0.00  0.00     0.002 A 
ATOM     18  C   UNL d   1       4.732  -0.472 -19.012  0.00  0.00     0.000 A 
ENDBRANCH   7  10
ENDBRANCH   2   3
ENDBRANCH   1   2
BRANCH   1  19
ATOM     19  C   UNL d   1       8.725   6.033 -11.991  0.00  0.00     0.037 C 
BRANCH  19  20
ATOM     20  C   UNL d   1       8.717   5.393 -10.580  0.00  0.00     0.250 C 
BRANCH  20  21
ATOM     21  N   UNL d   1       9.100   6.330  -9.531  0.00  0.00     0.137 N 
ATOM     22  C   UNL d   1       8.714   5.784  -8.227  0.00  0.00     0.251 C 
ATOM     23  C   UNL d   1       9.058   6.798  -7.118  0.00  0.00     0.040 C 
ATOM     24  C   UNL d   1      10.553   7.149  -7.136  0.00  0.00     0.028 C 
ATOM     25  C   UNL d   1      10.965   7.575  -8.549  0.00  0.00     0.040 C 
ATOM     26  C   UNL d   1      10.543   6.532  -9.576  0.00  0.00     0.251 C 
BRANCH  24  27
ATOM     27  C   UNL d   1      10.873   8.224  -6.136  0.00  0.00    -0.002 A 
ATOM     28  C   UNL d   1      11.413   8.066  -4.826  0.00  0.00     0.017 A 
ATOM     29  C   UNL d   1      11.516   9.357  -4.237  0.00  0.00     0.081 A 
ATOM     30  C   UNL d   1      11.804   6.955  -4.045  0.00  0.00     0.031 A 
ATOM     31  N   UNL d   1      11.058  10.245  -5.189  0.00  0.00    -0.244 NA
ATOM     32  C   UNL d   1      11.992   9.538  -2.930  0.00  0.00     0.021 A 
ATOM     33  C   UNL d   1      10.683   9.567  -6.323  0.00  0.00     0.095 A 
ATOM     34  C   UNL d   1      12.391   8.416  -2.181  0.00  0.00     0.031 A 
ATOM     35  C   UNL d   1      12.285   7.128  -2.737  0.00  0.00     0.140 A 
ATOM     36  F   UNL d   1      12.661   6.051  -2.018  0.00  0.00    -0.204 F 
ENDBRANCH  24  27
ENDBRANCH  20  21
ENDBRANCH  19  20
ENDBRANCH   1  19
TORSDOF 7
