REMARK  7 active torsions:
REMARK  status: ('A' for Active; 'I' for Inactive)
REMARK    1  A    between atoms: C_3  and  S_4 
REMARK    2  A    between atoms: S_4  and  C_5 
REMARK    3  A    between atoms: C_5  and  C_6 
REMARK    4  A    between atoms: C_6  and  C_7 
REMARK    5  A    between atoms: C_7  and  N_8 
REMARK    6  A    between atoms: N_16  and  C_17 
REMARK    7  A    between atoms: C_28  and  C_29 
ROOT
ATOM      1  N   UNL d   1       9.127   5.776 -11.110  0.00  0.00     0.137 N 
ATOM      2  C   UNL d   1      10.159   6.739 -10.756  0.00  0.00     0.250 C 
ATOM      3  C   UNL d   1       9.824   7.657  -9.602  0.00  0.00     0.035 C 
ATOM      4  C   UNL d   1       9.429   6.851  -8.353  0.00  0.00     0.008 C 
ATOM      5  C   UNL d   1       8.371   5.822  -8.784  0.00  0.00     0.035 C 
ATOM      6  C   UNL d   1       8.805   4.918  -9.973  0.00  0.00     0.250 C 
ATOM      7  C   UNL d   1       8.858   7.774  -7.229  0.00  0.00     0.024 C 
ATOM      8  C   UNL d   1       9.936   8.691  -6.651  0.00  0.00     0.101 C 
ATOM      9  N   UNL d   1      11.073   7.902  -6.223  0.00  0.00    -0.348 N 
ATOM     10  C   UNL d   1      11.688   6.965  -7.150  0.00  0.00     0.101 C 
ATOM     11  C   UNL d   1      10.601   6.074  -7.720  0.00  0.00     0.024 C 
ENDROOT
BRANCH   1  12
ATOM     12  C   UNL d   1       9.530   4.965 -12.236  0.00  0.00     0.251 C 
BRANCH  12  13
ATOM     13  C   UNL d   1       8.346   4.285 -12.929  0.00  0.00     0.047 C 
BRANCH  13  14
ATOM     14  C   UNL d   1       8.783   3.221 -13.940  0.00  0.00     0.067 C 
BRANCH  14  15
ATOM     15  S   UNL d   1       7.339   2.280 -14.540  0.00  0.00    -0.075 SA
BRANCH  15  16
ATOM     16  C   UNL d   1       8.121   1.218 -15.715  0.00  0.00     0.193 A 
ATOM     17  N   UNL d   1       7.418   0.618 -16.699  0.00  0.00    -0.289 N 
ATOM     18  C   UNL d   1       5.990   0.750 -16.968  0.00  0.00     0.134 C 
ATOM     19  C   UNL d   1       8.388  -0.050 -17.369  0.00  0.00     0.167 A 
ATOM     20  N   UNL d   1       9.603   0.129 -16.831  0.00  0.00    -0.128 NA
ATOM     21  N   UNL d   1       9.426   0.944 -15.739  0.00  0.00    -0.122 NA
BRANCH  19  22
ATOM     22  C   UNL d   1       8.192  -0.871 -18.568  0.00  0.00     0.036 A 
ATOM     23  C   UNL d   1       7.189  -1.866 -18.616  0.00  0.00     0.003 A 
ATOM     24  C   UNL d   1       6.966  -2.604 -19.792  0.00  0.00     0.000 A 
ATOM     25  C   UNL d   1       7.791  -2.409 -20.917  0.00  0.00     0.000 A 
ATOM     26  C   UNL d   1       8.825  -1.455 -20.866  0.00  0.00     0.000 A 
ATOM     27  C   UNL d   1       9.023  -0.686 -19.699  0.00  0.00     0.003 A 
ENDBRANCH  19  22
ENDBRANCH  15  16
ENDBRANCH  14  15
ENDBRANCH  13  14
ENDBRANCH  12  13
ENDBRANCH   1  12
BRANCH   9  28
ATOM     28  C   UNL d   1      11.488   8.006  -4.896  0.00  0.00     0.056 A 
ATOM     29  C   UNL d   1      11.610   9.288  -4.305  0.00  0.00     0.019 A 
ATOM     30  C   UNL d   1      12.127   9.403  -3.012  0.00  0.00     0.031 A 
ATOM     31  C   UNL d   1      12.516   8.255  -2.316  0.00  0.00     0.140 A 
ATOM     32  C   UNL d   1      12.383   6.980  -2.876  0.00  0.00     0.031 A 
ATOM     33  F   UNL d   1      13.059   8.392  -1.107  0.00  0.00    -0.204 F 
ATOM     34  C   UNL d   1      11.854   6.848  -4.167  0.00  0.00     0.019 A 
ENDBRANCH   9  28
TORSDOF 7
