REMARK  7 active torsions:
REMARK  status: ('A' for Active; 'I' for Inactive)
REMARK    1  A    between atoms: C_2  and  C_3 
REMARK    2  A    between atoms: C_3  and  N_4 
REMARK    3  A    between atoms: N_4  and  C_5 
REMARK    4  A    between atoms: N_4  and  C_14 
REMARK    5  A    between atoms: C_5  and  C_6 
REMARK    6  A    between atoms: C_9  and  O_10 
REMARK    7  A    between atoms: C_22  and  O_23 
ROOT
ATOM      1  N   UNL d   1       8.801   5.979 -11.950  0.00  0.00     0.140 N 
ENDROOT
BRANCH   1   2
ATOM      2  C   UNL d   1       8.243   6.801 -13.012  0.00  0.00     0.251 C 
BRANCH   2   3
ATOM      3  C   UNL d   1       6.867   7.394 -12.673  0.00  0.00     0.035 C 
ATOM      4  C   UNL d   1       5.925   6.404 -11.984  0.00  0.00     0.002 C 
ENDBRANCH   2   3
ENDBRANCH   1   2
BRANCH   1   5
ATOM      5  C   UNL d   1       9.843   5.045 -12.395  0.00  0.00     0.277 C 
BRANCH   5   6
ATOM      6  C   UNL d   1       9.465   4.044 -13.463  0.00  0.00     0.011 A 
ATOM      7  C   UNL d   1      10.468   3.588 -14.347  0.00  0.00    -0.000 A 
ATOM      8  C   UNL d   1      10.152   2.695 -15.384  0.00  0.00     0.024 A 
ATOM      9  C   UNL d   1       8.808   2.245 -15.547  0.00  0.00     0.094 A 
ATOM     10  C   UNL d   1       7.813   2.704 -14.660  0.00  0.00     0.024 A 
ATOM     11  C   UNL d   1       8.141   3.589 -13.616  0.00  0.00    -0.000 A 
BRANCH   9  12
ATOM     12  O   UNL d   1       8.396   1.373 -16.530  0.00  0.00    -0.328 OA
ATOM     13  C   UNL d   1       9.383   0.893 -17.423  0.00  0.00     0.181 C 
ENDBRANCH   9  12
ENDBRANCH   5   6
ENDBRANCH   1   5
BRANCH   1  14
ATOM     14  C   UNL d   1       9.182   6.780 -10.768  0.00  0.00     0.224 C 
ATOM     15  C   UNL d   1       8.929   6.046  -9.440  0.00  0.00     0.059 C 
ATOM     16  C   UNL d   1       9.492   6.813  -8.254  0.00  0.00    -0.022 C 
ATOM     17  C   UNL d   1      10.403   7.876  -8.351  0.00  0.00    -0.004 C 
ATOM     18  C   UNL d   1       9.069   6.394  -7.003  0.00  0.00    -0.004 C 
ATOM     19  C   UNL d   1      10.821   8.400  -9.695  0.00  0.00     0.030 C 
ATOM     20  C   UNL d   1      10.932   8.513  -7.192  0.00  0.00     0.090 C 
ATOM     21  C   UNL d   1      10.545   7.431 -10.820  0.00  0.00     0.038 C 
ATOM     22  C   UNL d   1      10.543   8.009  -5.929  0.00  0.00     0.024 C 
ATOM     23  C   UNL d   1       9.677   6.909  -5.850  0.00  0.00     0.002 C 
BRANCH  20  24
ATOM     24  O   UNL d   1      11.796   9.562  -7.325  0.00  0.00    -0.328 OA
ATOM     25  C   UNL d   1      12.185  10.306  -6.177  0.00  0.00     0.181 C 
ENDBRANCH  20  24
ENDBRANCH   1  14
TORSDOF 7
