REMARK  7 active torsions:
REMARK  status: ('A' for Active; 'I' for Inactive)
REMARK    1  A    between atoms: N_2  and  C_3 
REMARK    2  A    between atoms: C_5  and  O_6 
REMARK    3  A    between atoms: C_8  and  C_9 
REMARK       I    between atoms: C_9  and  N_11 
REMARK    4  A    between atoms: N_11  and  C_12 
REMARK    5  A    between atoms: C_12  and  C_13 
REMARK    6  A    between atoms: N_15  and  C_16 
REMARK    7  A    between atoms: C_16  and  C_17 
ROOT
ATOM      1  C   UNL d   1       9.825   6.832  -9.226  0.00  0.00     0.277 C 
ATOM      2  O   UNL d   1      10.428   6.772 -10.269  0.00  0.00    -0.266 OA
ATOM      3  N   UNL d   1       8.603   6.338  -9.089  0.00  0.00    -0.234 NA
ENDROOT
BRANCH   3   4
ATOM      4  C   UNL d   1       7.820   5.975 -10.266  0.00  0.00     0.131 C 
BRANCH   4   5
ATOM      5  C   UNL d   1       7.890   4.539 -10.698  0.00  0.00     0.060 C 
ATOM      6  C   UNL d   1       7.045   4.293 -11.966  0.00  0.00     0.037 C 
ATOM      7  C   UNL d   1       8.121   3.833 -12.941  0.00  0.00     0.251 C 
ATOM      8  C   UNL d   1       6.302   5.496 -12.598  0.00  0.00     0.002 C 
ATOM      9  N   UNL d   1       9.361   4.511 -12.531  0.00  0.00     0.141 N 
ATOM     10  C   UNL d   1       9.348   4.214 -11.113  0.00  0.00     0.253 C 
BRANCH   9  11
ATOM     11  C   UNL d   1      10.535   3.826 -13.100  0.00  0.00     0.277 C 
BRANCH  11  12
ATOM     12  C   UNL d   1      10.983   4.397 -14.413  0.00  0.00     0.011 A 
ATOM     13  C   UNL d   1      10.038   4.777 -15.380  0.00  0.00    -0.002 A 
ATOM     14  C   UNL d   1      10.453   5.315 -16.587  0.00  0.00    -0.000 A 
ATOM     15  C   UNL d   1      11.818   5.509 -16.832  0.00  0.00    -0.000 A 
ATOM     16  C   UNL d   1      12.773   5.159 -15.857  0.00  0.00    -0.000 A 
ATOM     17  C   UNL d   1      12.355   4.601 -14.636  0.00  0.00    -0.002 A 
ENDBRANCH  11  12
ENDBRANCH   9  11
ENDBRANCH   4   5
ENDBRANCH   3   4
BRANCH   1  18
ATOM     18  C   UNL d   1      10.361   7.500  -8.025  0.00  0.00     0.081 A 
ATOM     19  C   UNL d   1      10.801   8.837  -8.064  0.00  0.00     0.100 A 
ATOM     20  C   UNL d   1      11.279   9.442  -6.873  0.00  0.00     0.044 A 
ATOM     21  C   UNL d   1      11.354   8.684  -5.669  0.00  0.00     0.089 A 
ATOM     22  C   UNL d   1      10.971   7.334  -5.704  0.00  0.00     0.075 A 
ATOM     23  C   UNL d   1      10.450   6.758  -6.853  0.00  0.00     0.020 A 
ATOM     24 CL   UNL d   1      11.093   6.383  -4.303  0.00  0.00    -0.081 Cl
BRANCH  19  25
ATOM     25  O   UNL d   1      10.675   9.565  -9.229  0.00  0.00    -0.328 OA
ATOM     26  C   UNL d   1      11.657   9.291 -10.224  0.00  0.00     0.181 C 
ENDBRANCH  19  25
BRANCH  21  27
ATOM     27  N   UNL d   1      11.782   9.259  -4.471  0.00  0.00    -0.268 NA
ATOM     28  C   UNL d   1      13.061   8.790  -3.942  0.00  0.00     0.152 C 
ENDBRANCH  21  27
ENDBRANCH   1  18
TORSDOF 7
