REMARK  1 active torsions:
REMARK  status: ('A' for Active; 'I' for Inactive)
REMARK    1  A    between atoms: N_5  and  C_6 
ROOT
ATOM      1  C   UNL d   1       9.884   2.894 -14.471  0.00  0.00     0.142 C 
ATOM      2  N   UNL d   1      10.841   2.548 -15.262  0.00  0.00    -0.227 NA
ATOM      3  C   UNL d   1      10.775   1.528 -16.230  0.00  0.00     0.101 A 
ATOM      4  C   UNL d   1      11.570   1.731 -17.380  0.00  0.00     0.032 A 
ATOM      5  C   UNL d   1      11.671   0.746 -18.377  0.00  0.00     0.059 A 
ATOM      6 CL   UNL d   1      12.654   1.018 -19.769  0.00  0.00    -0.082 Cl
ATOM      7  C   UNL d   1      10.981  -0.468 -18.238  0.00  0.00     0.013 A 
ATOM      8  C   UNL d   1      10.186  -0.683 -17.104  0.00  0.00     0.021 A 
ATOM      9  C   UNL d   1      10.073   0.302 -16.101  0.00  0.00     0.099 A 
ATOM     10  N   UNL d   1       9.226   0.017 -15.030  0.00  0.00    -0.244 NA
ATOM     11  C   UNL d   1       8.243   0.909 -14.632  0.00  0.00     0.084 A 
ATOM     12  C   UNL d   1       6.937   0.404 -14.482  0.00  0.00     0.019 A 
ATOM     13  C   UNL d   1       5.880   1.265 -14.156  0.00  0.00     0.002 A 
ATOM     14  C   UNL d   1       6.123   2.643 -13.982  0.00  0.00     0.000 A 
ATOM     15  C   UNL d   1       7.409   3.149 -14.165  0.00  0.00     0.004 A 
ATOM     16  C   UNL d   1       8.501   2.291 -14.455  0.00  0.00     0.051 A 
ENDROOT
BRANCH   1  17
ATOM     17  N   UNL d   1      10.063   3.881 -13.514  0.00  0.00    -0.330 N 
ATOM     18  C   UNL d   1      10.663   5.165 -13.783  0.00  0.00     0.138 C 
ATOM     19  C   UNL d   1       9.766   6.283 -13.191  0.00  0.00     0.274 C 
ATOM     20  N   UNL d   1       9.555   6.056 -11.777  0.00  0.00     0.143 N 
ATOM     21  C   UNL d   1       8.744   7.172 -11.274  0.00  0.00     0.286 C 
ATOM     22  C   UNL d   1       8.870   4.810 -11.549  0.00  0.00     0.274 C 
ATOM     23  C   UNL d   1       9.763   3.733 -12.125  0.00  0.00     0.138 C 
ENDBRANCH   1  17
TORSDOF 1
