REMARK  8 active torsions:
REMARK  status: ('A' for Active; 'I' for Inactive)
REMARK    1  A    between atoms: C_2  and  C_3 
REMARK    2  A    between atoms: C_8  and  C_9 
REMARK    3  A    between atoms: N_16  and  C_17 
REMARK    4  A    between atoms: C_17  and  C_18 
REMARK    5  A    between atoms: C_18  and  C_19 
REMARK    6  A    between atoms: C_19  and  C_20 
REMARK    7  A    between atoms: C_20  and  C_21 
REMARK    8  A    between atoms: C_20  and  C_28 
ROOT
ATOM      1  O   UNL d   1       8.722   8.577  -8.040  0.00  0.00    -0.221 OA
ATOM      2  C   UNL d   1       9.704   7.579  -7.877  0.00  0.00     0.149 C 
ATOM      3  C   UNL d   1       9.056   6.192  -7.652  0.00  0.00     0.070 C 
ATOM      4  C   UNL d   1       8.384   5.619  -8.896  0.00  0.00     0.253 C 
ATOM      5  N   UNL d   1       9.333   5.535 -10.004  0.00  0.00     0.137 N 
ATOM      6  C   UNL d   1       9.796   6.889 -10.327  0.00  0.00     0.253 C 
ATOM      7  C   UNL d   1      10.563   7.503  -9.158  0.00  0.00     0.070 C 
ENDROOT
BRANCH   5   8
ATOM      8  C   UNL d   1       8.632   4.969 -11.148  0.00  0.00     0.250 C 
BRANCH   8   9
ATOM      9  C   UNL d   1       9.618   4.451 -12.212  0.00  0.00     0.036 C 
BRANCH   9  10
ATOM     10  C   UNL d   1       8.908   3.952 -13.480  0.00  0.00     0.011 C 
BRANCH  10  11
ATOM     11  C   UNL d   1       9.855   3.213 -14.460  0.00  0.00     0.045 C 
BRANCH  11  12
ATOM     12  C   UNL d   1      10.799   4.188 -15.167  0.00  0.00    -0.018 A 
ATOM     13  C   UNL d   1      10.294   5.177 -16.043  0.00  0.00    -0.002 A 
ATOM     14  C   UNL d   1      11.166   5.996 -16.782  0.00  0.00     0.029 A 
ATOM     15  C   UNL d   1      12.556   5.873 -16.616  0.00  0.00     0.140 A 
ATOM     16  C   UNL d   1      13.063   4.899 -15.738  0.00  0.00     0.029 A 
ATOM     17  F   UNL d   1      13.401   6.675 -17.307  0.00  0.00    -0.204 F 
ATOM     18  C   UNL d   1      12.195   4.066 -15.011  0.00  0.00    -0.002 A 
ENDBRANCH  11  12
BRANCH  11  19
ATOM     19  C   UNL d   1       9.106   2.270 -15.414  0.00  0.00    -0.018 A 
ATOM     20  C   UNL d   1       9.246   2.342 -16.825  0.00  0.00    -0.002 A 
ATOM     21  C   UNL d   1       8.540   1.468 -17.666  0.00  0.00     0.029 A 
ATOM     22  C   UNL d   1       7.703   0.482 -17.120  0.00  0.00     0.140 A 
ATOM     23  C   UNL d   1       7.575   0.379 -15.722  0.00  0.00     0.029 A 
ATOM     24  F   UNL d   1       7.043  -0.373 -17.940  0.00  0.00    -0.204 F 
ATOM     25  C   UNL d   1       8.278   1.256 -14.874  0.00  0.00    -0.002 A 
ENDBRANCH  11  19
ENDBRANCH  10  11
ENDBRANCH   9  10
ENDBRANCH   8   9
ENDBRANCH   5   8
BRANCH   2  26
ATOM     26  C   UNL d   1      10.581   7.999  -6.713  0.00  0.00     0.005 A 
ATOM     27  C   UNL d   1      10.714   7.228  -5.521  0.00  0.00     0.003 A 
ATOM     28  C   UNL d   1      11.472   7.726  -4.447  0.00  0.00     0.082 A 
ATOM     29  C   UNL d   1      12.064   8.981  -4.583  0.00  0.00     0.062 A 
ATOM     30  C   UNL d   1      11.976   9.748  -5.748  0.00  0.00     0.011 A 
ATOM     31 CL   UNL d   1      12.841   9.585  -3.241  0.00  0.00    -0.082 Cl
ATOM     32  C   UNL d   1      11.221   9.260  -6.817  0.00  0.00    -0.001 A 
BRANCH  28  33
ATOM     33  C   UNL d   1      11.613   6.960  -3.129  0.00  0.00     0.420 C 
ATOM     34  F   UNL d   1      10.628   6.154  -3.014  0.00  0.00    -0.166 F 
ATOM     35  F   UNL d   1      12.667   6.169  -3.145  0.00  0.00    -0.166 F 
ATOM     36  F   UNL d   1      11.608   7.633  -1.978  0.00  0.00    -0.166 F 
ENDBRANCH  28  33
ENDBRANCH   2  26
TORSDOF 8
