REMARK  9 active torsions:
REMARK  status: ('A' for Active; 'I' for Inactive)
REMARK    1  A    between atoms: C_2  and  C_3 
REMARK    2  A    between atoms: C_3  and  C_4 
REMARK    3  A    between atoms: C_4  and  C_5 
REMARK    4  A    between atoms: C_5  and  C_6 
REMARK    5  A    between atoms: C_6  and  C_7 
REMARK    6  A    between atoms: C_7  and  O_9 
REMARK    7  A    between atoms: O_9  and  C_10 
REMARK    8  A    between atoms: N_24  and  C_25 
REMARK    9  A    between atoms: C_25  and  C_26 
ROOT
ATOM      1  C   UNL d   1       8.166   4.754 -12.594  0.00  0.00     0.103 A 
ATOM      2  C   UNL d   1       6.837   4.684 -12.106  0.00  0.00     0.025 A 
ATOM      3  C   UNL d   1       5.897   3.813 -12.685  0.00  0.00     0.002 A 
ATOM      4  C   UNL d   1       6.264   3.030 -13.785  0.00  0.00    -0.004 A 
ATOM      5  C   UNL d   1       7.565   3.124 -14.314  0.00  0.00    -0.018 A 
ATOM      6  C   UNL d   1       8.528   4.004 -13.755  0.00  0.00     0.019 A 
ATOM      7  C   UNL d   1       9.855   4.047 -14.436  0.00  0.00    -0.001 A 
ATOM      8  C   UNL d   1      10.698   5.183 -14.418  0.00  0.00    -0.000 A 
ATOM      9  C   UNL d   1      11.944   5.244 -15.079  0.00  0.00    -0.000 A 
ATOM     10  C   UNL d   1      12.407   4.147 -15.815  0.00  0.00    -0.004 A 
ATOM     11  C   UNL d   1      11.595   3.011 -15.921  0.00  0.00    -0.022 A 
ATOM     12  C   UNL d   1      10.344   2.987 -15.245  0.00  0.00     0.005 A 
ATOM     13  C   UNL d   1       9.417   1.762 -15.350  0.00  0.00     0.245 C 
ATOM     14  C   UNL d   1       7.945   2.232 -15.476  0.00  0.00     0.064 C 
ATOM     15  N   UNL d   1       9.769   0.848 -16.444  0.00  0.00     0.140 N 
ATOM     16  C   UNL d   1      11.187   0.549 -16.306  0.00  0.00     0.255 C 
ATOM     17  C   UNL d   1      11.944   1.789 -16.736  0.00  0.00     0.061 C 
ENDROOT
BRANCH   1  18
ATOM     18  O   UNL d   1       9.078   5.571 -11.946  0.00  0.00    -0.276 OA
BRANCH  18  19
ATOM     19  C   UNL d   1       9.205   5.574 -10.591  0.00  0.00     0.276 C 
ATOM     20  O   UNL d   1       8.696   4.778  -9.806  0.00  0.00    -0.264 OA
BRANCH  19  21
ATOM     21  C   UNL d   1      10.095   6.708 -10.087  0.00  0.00     0.096 C 
BRANCH  21  22
ATOM     22  C   UNL d   1      10.083   6.819  -8.551  0.00  0.00     0.010 C 
BRANCH  22  23
ATOM     23  C   UNL d   1      10.901   8.008  -8.043  0.00  0.00     0.001 C 
BRANCH  23  24
ATOM     24  C   UNL d   1      10.997   8.039  -6.509  0.00  0.00     0.000 C 
BRANCH  24  25
ATOM     25  C   UNL d   1      11.823   9.227  -5.988  0.00  0.00     0.000 C 
ATOM     26  C   UNL d   1      12.072   9.159  -4.475  0.00  0.00     0.000 C 
ENDBRANCH  24  25
ENDBRANCH  23  24
ENDBRANCH  22  23
ENDBRANCH  21  22
ENDBRANCH  19  21
ENDBRANCH  18  19
ENDBRANCH   1  18
BRANCH  15  27
ATOM     27  C   UNL d   1       9.038  -0.415 -16.397  0.00  0.00     0.251 C 
BRANCH  27  28
ATOM     28  C   UNL d   1       8.690  -0.901 -17.817  0.00  0.00     0.035 C 
ATOM     29  C   UNL d   1       9.899  -1.271 -18.686  0.00  0.00     0.002 C 
ENDBRANCH  27  28
ENDBRANCH  15  27
TORSDOF 9
