REMARK  10 active torsions:
REMARK  status: ('A' for Active; 'I' for Inactive)
REMARK    1  A    between atoms: S_2  and  N_4 
REMARK    2  A    between atoms: S_2  and  C_24 
REMARK    3  A    between atoms: N_4  and  C_5 
REMARK    4  A    between atoms: C_5  and  C_6 
REMARK    5  A    between atoms: C_6  and  C_7 
REMARK    6  A    between atoms: C_7  and  C_8 
REMARK    7  A    between atoms: C_8  and  N_9 
REMARK    8  A    between atoms: N_12  and  C_13 
REMARK    9  A    between atoms: C_27  and  O_28 
REMARK   10  A    between atoms: O_28  and  C_29 
ROOT
ATOM      1  C   UNL d   1       8.652   4.471 -12.822  0.00  0.00     0.029 C 
ENDROOT
BRANCH   1   2
ATOM      2  C   UNL d   1      10.046   4.892 -13.296  0.00  0.00     0.139 C 
BRANCH   2   3
ATOM      3  N   UNL d   1      10.150   4.878 -14.752  0.00  0.00    -0.185 NA
BRANCH   3   4
ATOM      4  S   UNL d   1      11.522   4.239 -15.562  0.00  0.00     0.281 S 
ATOM      5  O   UNL d   1      11.774   5.116 -16.712  0.00  0.00    -0.199 OA
ATOM      6  O   UNL d   1      12.574   3.992 -14.562  0.00  0.00    -0.199 OA
BRANCH   4   7
ATOM      7  C   UNL d   1      10.888   2.675 -16.153  0.00  0.00     0.105 A 
ATOM      8  C   UNL d   1      10.529   2.548 -17.508  0.00  0.00     0.015 A 
ATOM      9  C   UNL d   1      10.030   1.327 -17.992  0.00  0.00     0.025 A 
ATOM     10  C   UNL d   1       9.882   0.218 -17.123  0.00  0.00     0.102 A 
ATOM     11  C   UNL d   1      10.240   0.361 -15.762  0.00  0.00     0.025 A 
ATOM     12  C   UNL d   1      10.736   1.587 -15.273  0.00  0.00     0.015 A 
BRANCH  10  13
ATOM     13  O   UNL d   1       9.412  -1.012 -17.531  0.00  0.00    -0.253 OA
BRANCH  13  14
ATOM     14  C   UNL d   1       8.778  -1.167 -18.728  0.00  0.00     0.530 C 
ATOM     15  F   UNL d   1       9.628  -1.031 -19.771  0.00  0.00    -0.144 F 
ATOM     16  F   UNL d   1       8.261  -2.420 -18.798  0.00  0.00    -0.144 F 
ATOM     17  F   UNL d   1       7.742  -0.301 -18.884  0.00  0.00    -0.144 F 
ENDBRANCH  13  14
ENDBRANCH  10  13
ENDBRANCH   4   7
ENDBRANCH   3   4
ENDBRANCH   2   3
ENDBRANCH   1   2
BRANCH   1  18
ATOM     18  C   UNL d   1       8.526   4.612 -11.294  0.00  0.00     0.037 C 
BRANCH  18  19
ATOM     19  C   UNL d   1       8.589   6.075 -10.814  0.00  0.00     0.251 C 
BRANCH  19  20
ATOM     20  N   UNL d   1       9.686   6.260  -9.874  0.00  0.00     0.141 N 
ATOM     21  C   UNL d   1      10.186   7.637  -9.960  0.00  0.00     0.274 C 
ATOM     22  C   UNL d   1      11.348   7.853  -8.975  0.00  0.00     0.138 C 
ATOM     23  N   UNL d   1      10.956   7.486  -7.620  0.00  0.00    -0.329 N 
ATOM     24  C   UNL d   1      10.314   6.196  -7.497  0.00  0.00     0.138 C 
ATOM     25  C   UNL d   1       9.179   6.040  -8.516  0.00  0.00     0.274 C 
BRANCH  23  26
ATOM     26  C   UNL d   1      11.076   8.360  -6.525  0.00  0.00     0.148 A 
ATOM     27  C   UNL d   1      11.460   7.936  -5.190  0.00  0.00     0.042 A 
ATOM     28  C   UNL d   1      11.508   9.059  -4.317  0.00  0.00     0.050 A 
ATOM     29  C   UNL d   1      11.819   6.695  -4.621  0.00  0.00     0.004 A 
ATOM     30  S   UNL d   1      11.060  10.438  -5.255  0.00  0.00     0.015 SA
ATOM     31  C   UNL d   1      11.869   8.960  -2.962  0.00  0.00     0.008 A 
ATOM     32  N   UNL d   1      10.885   9.642  -6.710  0.00  0.00    -0.192 NA
ATOM     33  C   UNL d   1      12.213   7.705  -2.431  0.00  0.00     0.001 A 
ATOM     34  C   UNL d   1      12.186   6.577  -3.267  0.00  0.00     0.000 A 
ENDBRANCH  23  26
ENDBRANCH  19  20
ENDBRANCH  18  19
ENDBRANCH   1  18
TORSDOF 10
