REMARK  3 active torsions:
REMARK  status: ('A' for Active; 'I' for Inactive)
REMARK    1  A    between atoms: O_2  and  C_3 
REMARK    2  A    between atoms: N_15  and  C_16 
REMARK    3  A    between atoms: C_16  and  C_17 
ROOT
ATOM      1  C   UNL d   1       9.019   0.192 -16.541  0.00  0.00     0.096 A 
ATOM      2  C   UNL d   1       7.788   0.145 -15.833  0.00  0.00     0.024 A 
ATOM      3  C   UNL d   1       7.399   1.196 -14.992  0.00  0.00     0.004 A 
ATOM      4  C   UNL d   1       8.230   2.326 -14.846  0.00  0.00     0.019 A 
ATOM      5  C   UNL d   1       7.899   3.497 -14.044  0.00  0.00    -0.015 A 
ATOM      6  C   UNL d   1       8.756   4.547 -14.025  0.00  0.00     0.071 A 
ATOM      7  C   UNL d   1      10.071   4.504 -14.721  0.00  0.00     0.298 A 
ATOM      8  O   UNL d   1      10.941   5.373 -14.611  0.00  0.00    -0.259 OA
ATOM      9  O   UNL d   1      10.317   3.424 -15.467  0.00  0.00    -0.273 OA
ATOM     10  C   UNL d   1       9.454   2.371 -15.551  0.00  0.00     0.105 A 
ATOM     11  C   UNL d   1       9.840   1.332 -16.377  0.00  0.00     0.049 A 
ATOM     12  C   UNL d   1       8.494   5.764 -13.190  0.00  0.00     0.282 C 
ATOM     13  N   UNL d   1       7.552   5.540 -12.088  0.00  0.00     0.146 N 
ATOM     14  C   UNL d   1       6.328   4.916 -12.620  0.00  0.00     0.256 C 
ATOM     15  C   UNL d   1       6.599   3.534 -13.252  0.00  0.00     0.062 C 
ENDROOT
BRANCH  13  16
ATOM     16  C   UNL d   1       8.096   4.807 -10.933  0.00  0.00     0.277 C 
BRANCH  16  17
ATOM     17  C   UNL d   1       8.916   5.634  -9.929  0.00  0.00     0.011 A 
ATOM     18  C   UNL d   1       9.916   6.558 -10.320  0.00  0.00    -0.000 A 
ATOM     19  C   UNL d   1      10.651   7.300  -9.394  0.00  0.00     0.029 A 
ATOM     20  C   UNL d   1      10.412   7.155  -8.014  0.00  0.00     0.140 A 
ATOM     21  C   UNL d   1       9.415   6.252  -7.598  0.00  0.00     0.029 A 
ATOM     22  F   UNL d   1      11.150   7.870  -7.121  0.00  0.00    -0.204 F 
ATOM     23  C   UNL d   1       8.663   5.484  -8.531  0.00  0.00    -0.000 A 
ENDBRANCH  16  17
ENDBRANCH  13  16
BRANCH   1  24
ATOM     24  O   UNL d   1       9.363  -0.866 -17.346  0.00  0.00    -0.328 OA
ATOM     25  C   UNL d   1      10.567  -0.760 -18.098  0.00  0.00     0.181 C 
ENDBRANCH   1  24
TORSDOF 3
