REMARK  6 active torsions:
REMARK  status: ('A' for Active; 'I' for Inactive)
REMARK    1  A    between atoms: O_2  and  C_3 
REMARK    2  A    between atoms: C_8  and  N_9 
REMARK    3  A    between atoms: N_12  and  C_13 
REMARK    4  A    between atoms: C_13  and  C_14 
REMARK    5  A    between atoms: C_14  and  N_15 
REMARK       I    between atoms: N_15  and  C_16 
REMARK       I    between atoms: C_16  and  N_18 
REMARK    6  A    between atoms: N_19  and  C_20 
ROOT
ATOM      1  N   UNL d   1      10.341   2.556 -15.369  0.00  0.00    -0.343 N 
ATOM      2  C   UNL d   1       9.294   2.125 -14.450  0.00  0.00     0.137 C 
ATOM      3  C   UNL d   1       8.467   3.342 -13.988  0.00  0.00     0.274 C 
ATOM      4  N   UNL d   1       9.345   4.356 -13.380  0.00  0.00     0.143 N 
ATOM      5  C   UNL d   1      10.304   4.803 -14.398  0.00  0.00     0.274 C 
ATOM      6  C   UNL d   1      11.190   3.632 -14.865  0.00  0.00     0.137 C 
ENDROOT
BRANCH   4   7
ATOM      7  C   UNL d   1       8.573   5.497 -12.889  0.00  0.00     0.277 C 
BRANCH   7   8
ATOM      8  C   UNL d   1       7.816   5.146 -11.592  0.00  0.00     0.166 C 
BRANCH   8   9
ATOM      9  N   UNL d   1       8.272   5.982 -10.489  0.00  0.00    -0.214 NA
ATOM     10  C   UNL d   1       9.072   5.579  -9.497  0.00  0.00     0.382 C 
ATOM     11  O   UNL d   1       9.466   4.420  -9.344  0.00  0.00    -0.241 OA
ATOM     12  N   UNL d   1       9.457   6.681  -8.556  0.00  0.00    -0.088 NA
ATOM     13  N   UNL d   1      10.209   6.319  -7.634  0.00  0.00    -0.144 NA
BRANCH  13  14
ATOM     14  C   UNL d   1      10.589   7.288  -6.680  0.00  0.00     0.103 A 
ATOM     15  C   UNL d   1      11.154   6.830  -5.473  0.00  0.00     0.023 A 
ATOM     16  C   UNL d   1      11.544   7.740  -4.473  0.00  0.00     0.031 A 
ATOM     17  C   UNL d   1      11.379   9.121  -4.678  0.00  0.00     0.140 A 
ATOM     18  C   UNL d   1      10.835   9.590  -5.888  0.00  0.00     0.031 A 
ATOM     19  F   UNL d   1      11.706   9.991  -3.697  0.00  0.00    -0.204 F 
ATOM     20  C   UNL d   1      10.436   8.680  -6.890  0.00  0.00     0.023 A 
ENDBRANCH  13  14
ENDBRANCH   8   9
ENDBRANCH   7   8
ENDBRANCH   4   7
BRANCH   1  21
ATOM     21  C   UNL d   1      10.489   2.033 -16.658  0.00  0.00     0.079 A 
ATOM     22  C   UNL d   1       9.368   1.723 -17.489  0.00  0.00     0.110 A 
ATOM     23  C   UNL d   1       9.585   1.139 -18.756  0.00  0.00     0.026 A 
ATOM     24  C   UNL d   1      10.889   0.915 -19.238  0.00  0.00     0.002 A 
ATOM     25  C   UNL d   1      11.994   1.253 -18.443  0.00  0.00     0.002 A 
ATOM     26  C   UNL d   1      11.798   1.796 -17.164  0.00  0.00     0.019 A 
BRANCH  22  27
ATOM     27  O   UNL d   1       8.104   2.060 -17.048  0.00  0.00    -0.327 OA
ATOM     28  C   UNL d   1       7.007   1.318 -17.554  0.00  0.00     0.181 C 
ENDBRANCH  22  27
ENDBRANCH   1  21
TORSDOF 6
