REMARK  3 active torsions:
REMARK  status: ('A' for Active; 'I' for Inactive)
REMARK    1  A    between atoms: C_2  and  C_3 
REMARK    2  A    between atoms: N_13  and  C_14 
REMARK    3  A    between atoms: C_14  and  C_15 
ROOT
ATOM      1  O   UNL d   1       9.062   8.571  -7.607  0.00  0.00    -0.222 OA
ATOM      2  C   UNL d   1      10.271   7.833  -7.561  0.00  0.00     0.147 C 
ATOM      3  C   UNL d   1      11.220   8.497  -8.605  0.00  0.00     0.037 C 
ATOM      4  C   UNL d   1      11.199   7.925 -10.027  0.00  0.00     0.038 C 
ATOM      5  C   UNL d   1       9.808   7.655 -10.621  0.00  0.00     0.251 C 
ATOM      6  N   UNL d   1       9.361   6.281 -10.363  0.00  0.00     0.141 N 
ATOM      7  C   UNL d   1       8.892   6.096  -8.992  0.00  0.00     0.254 C 
ATOM      8  C   UNL d   1       9.932   6.349  -7.914  0.00  0.00     0.070 C 
ENDROOT
BRANCH   6   9
ATOM      9  C   UNL d   1       8.247   5.952 -11.246  0.00  0.00     0.278 C 
BRANCH   9  10
ATOM     10  C   UNL d   1       8.488   5.001 -12.374  0.00  0.00     0.032 A 
ATOM     11  C   UNL d   1       7.563   4.030 -12.872  0.00  0.00     0.017 A 
ATOM     12  C   UNL d   1       8.206   3.301 -13.922  0.00  0.00     0.081 A 
ATOM     13  C   UNL d   1       6.245   3.635 -12.526  0.00  0.00     0.001 A 
ATOM     14  N   UNL d   1       9.462   3.853 -14.041  0.00  0.00    -0.244 NA
ATOM     15  C   UNL d   1       7.572   2.247 -14.600  0.00  0.00     0.019 A 
ATOM     16  C   UNL d   1       9.633   4.861 -13.108  0.00  0.00     0.097 A 
ATOM     17  C   UNL d   1       6.264   1.882 -14.229  0.00  0.00     0.002 A 
ATOM     18  C   UNL d   1       5.606   2.575 -13.196  0.00  0.00     0.000 A 
ENDBRANCH   9  10
ENDBRANCH   6   9
BRANCH   2  19
ATOM     19  C   UNL d   1      10.894   7.972  -6.167  0.00  0.00     0.005 A 
ATOM     20  C   UNL d   1      10.961   9.253  -5.570  0.00  0.00    -0.001 A 
ATOM     21  C   UNL d   1      11.478   9.410  -4.268  0.00  0.00     0.011 A 
ATOM     22  C   UNL d   1      11.937   8.291  -3.548  0.00  0.00     0.058 A 
ATOM     23  C   UNL d   1      11.859   7.016  -4.131  0.00  0.00     0.011 A 
ATOM     24 CL   UNL d   1      12.601   8.469  -1.966  0.00  0.00    -0.082 Cl
ATOM     25  C   UNL d   1      11.378   6.863  -5.438  0.00  0.00    -0.001 A 
ENDBRANCH   2  19
TORSDOF 3
