REMARK  5 active torsions:
REMARK  status: ('A' for Active; 'I' for Inactive)
REMARK       I    between atoms: C_2  and  N_3 
REMARK    1  A    between atoms: C_2  and  C_16 
REMARK    2  A    between atoms: N_3  and  C_4 
REMARK    3  A    between atoms: N_7  and  C_8 
REMARK    4  A    between atoms: C_8  and  C_9 
REMARK    5  A    between atoms: C_19  and  C_20 
ROOT
ATOM      1  O   UNL d   1       9.456   7.194 -12.600  0.00  0.00    -0.266 OA
ATOM      2  C   UNL d   1       9.107   6.224 -11.941  0.00  0.00     0.275 C 
ATOM      3  N   UNL d   1       9.305   6.087 -10.627  0.00  0.00    -0.234 NA
ENDROOT
BRANCH   2   4
ATOM      4  C   UNL d   1       8.512   5.058 -12.639  0.00  0.00     0.058 A 
ATOM      5  C   UNL d   1       9.238   4.419 -13.664  0.00  0.00     0.005 A 
ATOM      6  C   UNL d   1       8.677   3.338 -14.356  0.00  0.00     0.000 A 
ATOM      7  C   UNL d   1       7.366   2.907 -14.053  0.00  0.00     0.001 A 
ATOM      8  C   UNL d   1       6.624   3.588 -13.053  0.00  0.00     0.000 A 
ATOM      9  C   UNL d   1       7.199   4.651 -12.335  0.00  0.00     0.005 A 
BRANCH   7  10
ATOM     10  C   UNL d   1       6.796   1.764 -14.762  0.00  0.00     0.007 A 
ATOM     11  C   UNL d   1       7.063   1.391 -16.058  0.00  0.00     0.035 A 
ATOM     12  S   UNL d   1       6.162  -0.013 -16.542  0.00  0.00    -0.086 SA
ATOM     13  C   UNL d   1       5.427  -0.121 -14.970  0.00  0.00     0.035 A 
ATOM     14  C   UNL d   1       5.864   0.875 -14.138  0.00  0.00     0.007 A 
ENDBRANCH   7  10
ENDBRANCH   2   4
BRANCH   3  15
ATOM     15  C   UNL d   1      10.126   6.966  -9.790  0.00  0.00     0.142 C 
ATOM     16  C   UNL d   1       9.901   6.692  -8.295  0.00  0.00     0.275 C 
ATOM     17  N   UNL d   1      10.174   7.977  -7.678  0.00  0.00     0.143 N 
ATOM     18  C   UNL d   1       9.466   8.898  -8.524  0.00  0.00     0.253 C 
ATOM     19  C   UNL d   1       9.857   8.476  -9.925  0.00  0.00     0.062 C 
BRANCH  17  20
ATOM     20  C   UNL d   1       9.624   8.069  -6.329  0.00  0.00     0.277 C 
BRANCH  20  21
ATOM     21  C   UNL d   1      10.713   8.039  -5.277  0.00  0.00     0.011 A 
ATOM     22  C   UNL d   1      11.125   6.814  -4.739  0.00  0.00    -0.002 A 
ATOM     23  C   UNL d   1      12.084   6.776  -3.707  0.00  0.00    -0.000 A 
ATOM     24  C   UNL d   1      12.641   7.985  -3.237  0.00  0.00    -0.000 A 
ATOM     25  C   UNL d   1      12.224   9.207  -3.777  0.00  0.00    -0.000 A 
ATOM     26  C   UNL d   1      11.256   9.244  -4.806  0.00  0.00    -0.002 A 
ENDBRANCH  20  21
ENDBRANCH  17  20
ENDBRANCH   3  15
TORSDOF 5
