REMARK  4 active torsions:
REMARK  status: ('A' for Active; 'I' for Inactive)
REMARK    1  A    between atoms: S_2  and  C_3 
REMARK    2  A    between atoms: S_2  and  C_9 
REMARK    3  A    between atoms: C_12  and  C_13 
REMARK    4  A    between atoms: C_14  and  C_15 
ROOT
ATOM      1  C   UNL d   1       8.696   6.050 -11.279  0.00  0.00     0.080 A 
ATOM      2  C   UNL d   1       8.441   5.052 -10.332  0.00  0.00     0.012 A 
ATOM      3  C   UNL d   1       9.010   5.191  -9.055  0.00  0.00     0.020 A 
ATOM      4  C   UNL d   1       9.786   6.340  -8.776  0.00  0.00     0.082 A 
ATOM      5  N   UNL d   1      10.012   7.315  -9.690  0.00  0.00    -0.243 NA
ATOM      6  C   UNL d   1       9.467   7.166 -10.916  0.00  0.00     0.108 A 
ENDROOT
BRANCH   4   7
ATOM      7  C   UNL d   1      10.309   6.512  -7.422  0.00  0.00     0.019 C 
ATOM      8  C   UNL d   1      10.541   7.696  -6.824  0.00  0.00     0.002 C 
BRANCH   8   9
ATOM      9  C   UNL d   1      11.096   7.883  -5.470  0.00  0.00     0.000 A 
ATOM     10  C   UNL d   1      11.487   6.793  -4.652  0.00  0.00     0.002 A 
ATOM     11  C   UNL d   1      12.029   7.008  -3.368  0.00  0.00     0.030 A 
ATOM     12  C   UNL d   1      12.169   8.319  -2.878  0.00  0.00     0.140 A 
ATOM     13  C   UNL d   1      11.773   9.406  -3.673  0.00  0.00     0.030 A 
ATOM     14  F   UNL d   1      12.663   8.529  -1.636  0.00  0.00    -0.204 F 
ATOM     15  C   UNL d   1      11.249   9.195  -4.965  0.00  0.00     0.002 A 
ENDBRANCH   8   9
ENDBRANCH   4   7
BRANCH   1  16
ATOM     16  S   UNL d   1       7.986   5.926 -12.933  0.00  0.00     0.090 S 
ATOM     17  O   UNL d   1       6.665   5.171 -12.788  0.00  0.00    -0.247 OA
BRANCH  16  18
ATOM     18  C   UNL d   1       9.194   4.723 -13.590  0.00  0.00     0.060 A 
ATOM     19  C   UNL d   1      10.444   5.175 -14.041  0.00  0.00     0.009 A 
ATOM     20  C   UNL d   1      11.395   4.248 -14.516  0.00  0.00     0.001 A 
ATOM     21  C   UNL d   1      11.089   2.872 -14.529  0.00  0.00     0.000 A 
ATOM     22  C   UNL d   1       9.826   2.428 -14.091  0.00  0.00     0.001 A 
ATOM     23  C   UNL d   1       8.869   3.355 -13.634  0.00  0.00     0.009 A 
ENDBRANCH  16  18
ENDBRANCH   1  16
TORSDOF 4
