REMARK  9 active torsions:
REMARK  status: ('A' for Active; 'I' for Inactive)
REMARK    1  A    between atoms: N_13  and  C_14 
REMARK    2  A    between atoms: C_14  and  C_15 
REMARK    3  A    between atoms: C_15  and  C_16 
REMARK    4  A    between atoms: C_16  and  C_17 
REMARK    5  A    between atoms: C_17  and  C_18 
REMARK    6  A    between atoms: C_18  and  C_19 
REMARK    7  A    between atoms: C_19  and  N_20 
REMARK    8  A    between atoms: N_23  and  C_24 
REMARK    9  A    between atoms: C_27  and  C_28 
ROOT
ATOM      1  C   UNL d   1       7.814   4.834 -11.859  0.00  0.00     0.035 C 
ENDROOT
BRANCH   1   2
ATOM      2  C   UNL d   1       6.542   4.767 -12.735  0.00  0.00     0.002 C 
BRANCH   2   3
ATOM      3  C   UNL d   1       6.529   3.591 -13.748  0.00  0.00     0.002 C 
BRANCH   3   4
ATOM      4  C   UNL d   1       7.892   3.400 -14.430  0.00  0.00     0.025 C 
BRANCH   4   5
ATOM      5  C   UNL d   1       7.961   2.406 -15.602  0.00  0.00     0.109 C 
BRANCH   5   6
ATOM      6  N   UNL d   1       9.255   2.434 -16.304  0.00  0.00    -0.296 N 
ATOM      7  C   UNL d   1      10.071   3.500 -16.558  0.00  0.00     0.261 A 
ATOM      8  O   UNL d   1       9.962   4.692 -16.269  0.00  0.00    -0.267 OA
ATOM      9  C   UNL d   1      11.189   2.956 -17.359  0.00  0.00     0.058 A 
ATOM     10  C   UNL d   1      10.992   1.616 -17.587  0.00  0.00     0.021 A 
ATOM     11  C   UNL d   1      12.329   3.568 -17.902  0.00  0.00     0.005 A 
ATOM     12  C   UNL d   1      11.821   0.778 -18.328  0.00  0.00     0.002 A 
ATOM     13  C   UNL d   1       9.810   1.285 -16.946  0.00  0.00     0.063 A 
ATOM     14  C   UNL d   1      12.974   1.393 -18.877  0.00  0.00     0.000 A 
ATOM     15  C   UNL d   1      11.382  -0.562 -18.425  0.00  0.00     0.000 A 
ATOM     16  C   UNL d   1      13.226   2.778 -18.662  0.00  0.00     0.000 A 
ATOM     17  C   UNL d   1      10.178  -0.972 -17.790  0.00  0.00     0.002 A 
ATOM     18  C   UNL d   1       9.383  -0.058 -17.048  0.00  0.00     0.017 A 
ENDBRANCH   5   6
ENDBRANCH   4   5
ENDBRANCH   3   4
ENDBRANCH   2   3
ENDBRANCH   1   2
BRANCH   1  19
ATOM     19  C   UNL d   1       7.967   6.175 -11.167  0.00  0.00     0.250 C 
BRANCH  19  20
ATOM     20  N   UNL d   1       9.225   6.201 -10.414  0.00  0.00     0.141 N 
ATOM     21  C   UNL d   1       8.974   5.595  -9.109  0.00  0.00     0.274 C 
ATOM     22  C   UNL d   1      10.232   5.626  -8.254  0.00  0.00     0.137 C 
ATOM     23  N   UNL d   1      10.761   6.981  -8.146  0.00  0.00    -0.344 N 
ATOM     24  C   UNL d   1      10.964   7.669  -9.424  0.00  0.00     0.137 C 
ATOM     25  C   UNL d   1       9.661   7.590 -10.221  0.00  0.00     0.274 C 
BRANCH  23  26
ATOM     26  C   UNL d   1      11.096   7.524  -6.908  0.00  0.00     0.056 A 
ATOM     27  C   UNL d   1      11.067   8.926  -6.674  0.00  0.00     0.017 A 
ATOM     28  C   UNL d   1      11.377   9.452  -5.401  0.00  0.00     0.005 A 
ATOM     29  C   UNL d   1      11.697   8.577  -4.339  0.00  0.00     0.072 A 
ATOM     30  C   UNL d   1      11.751   7.196  -4.556  0.00  0.00     0.005 A 
ATOM     31  C   UNL d   1      11.460   6.675  -5.820  0.00  0.00     0.017 A 
BRANCH  29  32
ATOM     32  C   UNL d   1      11.942   9.072  -2.943  0.00  0.00     0.419 C 
ATOM     33  F   UNL d   1      11.476  10.308  -2.833  0.00  0.00    -0.166 F 
ATOM     34  F   UNL d   1      11.467   8.229  -2.044  0.00  0.00    -0.166 F 
ATOM     35  F   UNL d   1      13.212   9.107  -2.669  0.00  0.00    -0.166 F 
ENDBRANCH  29  32
ENDBRANCH  23  26
ENDBRANCH  19  20
ENDBRANCH   1  19
TORSDOF 9
