REMARK  7 active torsions:
REMARK  status: ('A' for Active; 'I' for Inactive)
REMARK    1  A    between atoms: C_6  and  N_7 
REMARK    2  A    between atoms: N_10  and  C_11 
REMARK    3  A    between atoms: C_11  and  C_12 
REMARK    4  A    between atoms: C_12  and  C_13 
REMARK    5  A    between atoms: C_13  and  C_14 
REMARK    6  A    between atoms: C_14  and  N_15 
REMARK       I    between atoms: N_15  and  C_16 
REMARK    7  A    between atoms: C_16  and  C_18 
ROOT
ATOM      1  C   UNL d   1       8.847   6.779 -12.541  0.00  0.00     0.037 C 
ENDROOT
BRANCH   1   2
ATOM      2  C   UNL d   1       9.276   5.608 -13.457  0.00  0.00     0.251 C 
BRANCH   2   3
ATOM      3  N   UNL d   1       8.721   4.304 -13.213  0.00  0.00     0.141 N 
ATOM      4  C   UNL d   1       9.334   3.435 -14.252  0.00  0.00     0.274 C 
ATOM      5  C   UNL d   1       8.759   2.026 -14.118  0.00  0.00     0.137 C 
ATOM      6  N   UNL d   1       7.300   1.997 -14.061  0.00  0.00    -0.344 N 
ATOM      7  C   UNL d   1       6.570   3.008 -13.299  0.00  0.00     0.137 C 
ATOM      8  C   UNL d   1       7.257   4.365 -13.434  0.00  0.00     0.274 C 
BRANCH   6   9
ATOM      9  C   UNL d   1       6.616   1.081 -14.857  0.00  0.00     0.056 A 
ATOM     10  C   UNL d   1       5.455   0.470 -14.377  0.00  0.00     0.017 A 
ATOM     11  C   UNL d   1       4.735  -0.428 -15.188  0.00  0.00     0.001 A 
ATOM     12  C   UNL d   1       5.188  -0.726 -16.486  0.00  0.00    -0.004 A 
ATOM     13  C   UNL d   1       6.363  -0.120 -16.966  0.00  0.00    -0.020 A 
ATOM     14  C   UNL d   1       6.860  -0.432 -18.373  0.00  0.00     0.031 C 
ATOM     15  C   UNL d   1       7.081   0.781 -16.157  0.00  0.00     0.013 A 
ENDBRANCH   6   9
ENDBRANCH   2   3
ENDBRANCH   1   2
BRANCH   1  16
ATOM     16  C   UNL d   1       9.456   6.601 -11.167  0.00  0.00     0.029 C 
BRANCH  16  17
ATOM     17  C   UNL d   1       9.917   7.925 -10.553  0.00  0.00     0.129 C 
BRANCH  17  18
ATOM     18  N   UNL d   1      10.666   7.782  -9.309  0.00  0.00    -0.233 NA
ATOM     19  C   UNL d   1      10.172   7.243  -8.182  0.00  0.00     0.293 C 
ATOM     20  O   UNL d   1       9.323   6.355  -8.110  0.00  0.00    -0.264 OA
BRANCH  19  21
ATOM     21  C   UNL d   1      10.737   7.848  -6.948  0.00  0.00     0.139 A 
ATOM     22  N   UNL d   1      10.744   9.198  -6.849  0.00  0.00    -0.239 NA
ATOM     23  C   UNL d   1      11.081   9.761  -5.675  0.00  0.00     0.099 A 
ATOM     24  C   UNL d   1      11.470   9.000  -4.550  0.00  0.00     0.019 A 
ATOM     25  C   UNL d   1      11.483   7.590  -4.679  0.00  0.00     0.003 A 
ATOM     26  C   UNL d   1      11.834   9.587  -3.330  0.00  0.00     0.002 A 
ATOM     27  C   UNL d   1      11.086   7.012  -5.883  0.00  0.00     0.024 A 
ATOM     28  C   UNL d   1      11.867   6.787  -3.593  0.00  0.00     0.000 A 
ATOM     29  C   UNL d   1      12.263   7.381  -2.389  0.00  0.00     0.000 A 
ATOM     30  C   UNL d   1      12.260   8.782  -2.256  0.00  0.00     0.000 A 
ENDBRANCH  19  21
ENDBRANCH  17  18
ENDBRANCH  16  17
ENDBRANCH   1  16
TORSDOF 7
