REMARK  7 active torsions:
REMARK  status: ('A' for Active; 'I' for Inactive)
REMARK    1  A    between atoms: O_2  and  C_3 
REMARK    2  A    between atoms: C_6  and  C_7 
REMARK       I    between atoms: C_7  and  N_9 
REMARK    3  A    between atoms: N_9  and  C_10 
REMARK    4  A    between atoms: C_10  and  C_11 
REMARK    5  A    between atoms: C_11  and  C_12 
REMARK    6  A    between atoms: C_12  and  C_13 
REMARK    7  A    between atoms: C_13  and  N_14 
ROOT
ATOM      1  C   UNL d   1      12.396   2.813 -17.328  0.00  0.00     0.251 C 
ENDROOT
BRANCH   1   2
ATOM      2  C   UNL d   1      11.053   2.270 -16.807  0.00  0.00     0.037 C 
BRANCH   2   3
ATOM      3  C   UNL d   1      11.245   1.060 -15.884  0.00  0.00     0.029 C 
BRANCH   3   4
ATOM      4  C   UNL d   1       9.931   0.405 -15.422  0.00  0.00     0.129 C 
BRANCH   4   5
ATOM      5  N   UNL d   1       9.151   1.345 -14.627  0.00  0.00    -0.234 NA
ATOM      6  C   UNL d   1       7.899   1.732 -14.893  0.00  0.00     0.275 C 
ATOM      7  O   UNL d   1       7.174   1.197 -15.732  0.00  0.00    -0.266 OA
BRANCH   6   8
ATOM      8  C   UNL d   1       7.407   2.899 -14.094  0.00  0.00     0.058 A 
ATOM      9  C   UNL d   1       6.098   2.883 -13.579  0.00  0.00     0.007 A 
ATOM     10  C   UNL d   1       5.610   3.985 -12.859  0.00  0.00     0.024 A 
ATOM     11  C   UNL d   1       6.401   5.138 -12.682  0.00  0.00     0.094 A 
ATOM     12  C   UNL d   1       7.716   5.160 -13.205  0.00  0.00     0.024 A 
ATOM     13  C   UNL d   1       8.217   4.045 -13.908  0.00  0.00     0.007 A 
BRANCH  11  14
ATOM     14  O   UNL d   1       5.861   6.176 -11.970  0.00  0.00    -0.328 OA
ATOM     15  C   UNL d   1       6.072   7.496 -12.448  0.00  0.00     0.181 C 
ENDBRANCH  11  14
ENDBRANCH   6   8
ENDBRANCH   4   5
ENDBRANCH   3   4
ENDBRANCH   2   3
ENDBRANCH   1   2
BRANCH   1  16
ATOM     16  N   UNL d   1      12.250   3.895 -18.308  0.00  0.00     0.143 N 
ATOM     17  C   UNL d   1      13.453   4.725 -18.493  0.00  0.00     0.280 C 
ATOM     18  C   UNL d   1      13.177   5.830 -19.543  0.00  0.00     0.173 C 
ATOM     19  C   UNL d   1      14.004   5.430 -17.230  0.00  0.00     0.185 C 
ATOM     20  O   UNL d   1      12.835   5.228 -20.788  0.00  0.00    -0.348 OA
ATOM     21  C   UNL d   1      14.348   6.788 -19.672  0.00  0.00     0.029 A 
ATOM     22  C   UNL d   1      11.669   4.419 -20.693  0.00  0.00     0.178 C 
ATOM     23  C   UNL d   1      11.873   3.341 -19.615  0.00  0.00     0.282 C 
ATOM     24  C   UNL d   1      15.302   6.879 -18.629  0.00  0.00     0.092 A 
ATOM     25  C   UNL d   1      14.473   7.610 -20.814  0.00  0.00     0.000 A 
ATOM     26  C   UNL d   1      16.394   7.759 -18.766  0.00  0.00     0.024 A 
ATOM     27  O   UNL d   1      15.227   6.114 -17.487  0.00  0.00    -0.329 OA
ATOM     28  C   UNL d   1      16.523   8.570 -19.908  0.00  0.00     0.002 A 
ATOM     29  C   UNL d   1      15.559   8.499 -20.931  0.00  0.00    -0.000 A 
ENDBRANCH   1  16
TORSDOF 7
