REMARK  6 active torsions:
REMARK  status: ('A' for Active; 'I' for Inactive)
REMARK    1  A    between atoms: C_3  and  C_4 
REMARK       I    between atoms: C_4  and  N_6 
REMARK    2  A    between atoms: N_6  and  C_7 
REMARK    3  A    between atoms: C_10  and  C_11 
REMARK    4  A    between atoms: C_11  and  C_12 
REMARK    5  A    between atoms: C_12  and  N_13 
REMARK    6  A    between atoms: N_16  and  C_17 
ROOT
ATOM      1  N   UNL d   1      12.364   6.612  -2.435  0.00  0.00    -0.196 NA
ATOM      2  C   UNL d   1      12.240   7.730  -2.686  0.00  0.00     0.084 C 
ATOM      3  C   UNL d   1      12.086   9.146  -3.030  0.00  0.00     0.194 C 
ENDROOT
BRANCH   3   4
ATOM      4  C   UNL d   1      11.364   9.363  -4.358  0.00  0.00     0.267 C 
ATOM      5  O   UNL d   1      10.700  10.375  -4.529  0.00  0.00    -0.269 OA
ATOM      6  N   UNL d   1      11.474   8.400  -5.287  0.00  0.00    -0.239 NA
BRANCH   6   7
ATOM      7  C   UNL d   1      10.908   8.456  -6.625  0.00  0.00     0.106 C 
ATOM      8  C   UNL d   1       9.675   7.551  -6.695  0.00  0.00     0.024 C 
ATOM      9  C   UNL d   1       9.111   7.524  -8.103  0.00  0.00     0.002 C 
ATOM     10  C   UNL d   1      10.151   7.114  -9.161  0.00  0.00     0.002 C 
ATOM     11  C   UNL d   1      11.410   7.994  -9.064  0.00  0.00     0.002 C 
ATOM     12  C   UNL d   1      11.972   8.014  -7.642  0.00  0.00     0.024 C 
BRANCH  10  13
ATOM     13  C   UNL d   1       9.550   7.210 -10.558  0.00  0.00     0.035 C 
BRANCH  13  14
ATOM     14  C   UNL d   1       8.471   6.160 -10.784  0.00  0.00     0.250 C 
BRANCH  14  15
ATOM     15  N   UNL d   1       7.807   6.337 -12.069  0.00  0.00     0.141 N 
ATOM     16  C   UNL d   1       6.641   5.452 -12.184  0.00  0.00     0.274 C 
ATOM     17  C   UNL d   1       7.108   3.977 -12.192  0.00  0.00     0.137 C 
ATOM     18  N   UNL d   1       8.111   3.772 -13.253  0.00  0.00    -0.343 N 
ATOM     19  C   UNL d   1       9.235   4.716 -13.278  0.00  0.00     0.137 C 
ATOM     20  C   UNL d   1       8.690   6.141 -13.210  0.00  0.00     0.274 C 
BRANCH  18  21
ATOM     21  C   UNL d   1       7.995   2.728 -14.179  0.00  0.00     0.081 A 
ATOM     22  C   UNL d   1       9.101   2.196 -14.897  0.00  0.00     0.135 A 
ATOM     23  C   UNL d   1       8.970   1.175 -15.810  0.00  0.00     0.121 A 
ATOM     24  O   UNL d   1      10.421   2.544 -14.825  0.00  0.00    -0.298 OA
ATOM     25  C   UNL d   1       7.730   0.577 -16.084  0.00  0.00     0.026 A 
ATOM     26  O   UNL d   1      10.176   0.878 -16.357  0.00  0.00    -0.299 OA
ATOM     27  C   UNL d   1       6.608   1.063 -15.383  0.00  0.00     0.004 A 
ATOM     28  C   UNL d   1       6.731   2.116 -14.462  0.00  0.00     0.019 A 
ATOM     29  C   UNL d   1      11.094   1.749 -15.760  0.00  0.00     0.304 A 
ENDBRANCH  18  21
ENDBRANCH  14  15
ENDBRANCH  13  14
ENDBRANCH  10  13
ENDBRANCH   6   7
ENDBRANCH   3   4
TORSDOF 6
