REMARK  7 active torsions:
REMARK  status: ('A' for Active; 'I' for Inactive)
REMARK    1  A    between atoms: C_2  and  C_3 
REMARK       I    between atoms: C_2  and  N_11 
REMARK    2  A    between atoms: C_14  and  C_16 
REMARK    3  A    between atoms: C_16  and  N_17 
REMARK    4  A    between atoms: N_17  and  C_18 
REMARK    5  A    between atoms: C_18  and  C_19 
REMARK    6  A    between atoms: C_19  and  N_20 
REMARK    7  A    between atoms: N_20  and  C_21 
ROOT
ATOM      1  O   UNL d   1       5.435   0.598 -12.589  0.00  0.00    -0.267 OA
ATOM      2  C   UNL d   1       5.885   1.013 -13.650  0.00  0.00     0.257 C 
ATOM      3  N   UNL d   1       6.421   2.256 -13.725  0.00  0.00    -0.317 N 
ATOM      4  C   UNL d   1       5.844   3.410 -13.008  0.00  0.00     0.107 C 
ATOM      5  C   UNL d   1       6.868   4.086 -12.070  0.00  0.00     0.059 C 
ATOM      6  C   UNL d   1       8.201   4.406 -12.781  0.00  0.00     0.172 C 
ATOM      7  F   UNL d   1       7.980   5.307 -13.737  0.00  0.00    -0.238 F 
ATOM      8  C   UNL d   1       8.730   3.207 -13.528  0.00  0.00     0.059 C 
ATOM      9  C   UNL d   1       7.681   2.560 -14.407  0.00  0.00     0.107 C 
ENDROOT
BRANCH   6  10
ATOM     10  C   UNL d   1       9.272   4.932 -11.828  0.00  0.00     0.323 C 
BRANCH  10  11
ATOM     11  N   UNL d   1       9.064   6.355 -11.605  0.00  0.00     0.344 N 
BRANCH  11  12
ATOM     12  C   UNL d   1      10.024   6.766 -10.615  0.00  0.00     0.316 C 
BRANCH  12  13
ATOM     13  C   UNL d   1      10.041   8.299 -10.521  0.00  0.00     0.166 C 
BRANCH  13  14
ATOM     14  N   UNL d   1      10.952   8.810  -9.502  0.00  0.00    -0.251 NA
BRANCH  14  15
ATOM     15  C   UNL d   1      10.813   8.470  -8.148  0.00  0.00     0.158 A 
ATOM     16  N   UNL d   1       9.793   7.665  -7.771  0.00  0.00    -0.226 NA
ATOM     17  C   UNL d   1       9.750   7.212  -6.504  0.00  0.00     0.101 A 
ATOM     18  C   UNL d   1      10.676   7.606  -5.520  0.00  0.00     0.021 A 
ATOM     19  C   UNL d   1      11.671   8.530  -5.886  0.00  0.00     0.005 A 
ATOM     20  C   UNL d   1      11.773   8.939  -7.230  0.00  0.00     0.038 A 
ENDBRANCH  14  15
ENDBRANCH  13  14
ENDBRANCH  12  13
ENDBRANCH  11  12
ENDBRANCH  10  11
ENDBRANCH   6  10
BRANCH   2  21
ATOM     21  C   UNL d   1       5.630   0.233 -14.929  0.00  0.00     0.057 A 
ATOM     22  C   UNL d   1       6.547   0.176 -16.018  0.00  0.00     0.018 A 
ATOM     23  C   UNL d   1       6.295  -0.546 -17.182  0.00  0.00     0.085 A 
ATOM     24  C   UNL d   1       5.104  -1.271 -17.328  0.00  0.00     0.151 A 
ATOM     25 CL   UNL d   1       7.525  -0.554 -18.391  0.00  0.00    -0.080 Cl
ATOM     26  C   UNL d   1       4.156  -1.234 -16.278  0.00  0.00     0.031 A 
ATOM     27  F   UNL d   1       4.878  -1.996 -18.452  0.00  0.00    -0.203 F 
ATOM     28  C   UNL d   1       4.406  -0.492 -15.088  0.00  0.00     0.007 A 
ENDBRANCH   2  21
TORSDOF 7
