REMARK  7 active torsions:
REMARK  status: ('A' for Active; 'I' for Inactive)
REMARK    1  A    between atoms: C_6  and  N_7 
REMARK    2  A    between atoms: N_10  and  C_11 
REMARK    3  A    between atoms: C_11  and  C_12 
REMARK    4  A    between atoms: C_12  and  C_13 
REMARK    5  A    between atoms: C_13  and  C_14 
REMARK    6  A    between atoms: C_14  and  O_15 
REMARK    7  A    between atoms: O_15  and  C_16 
ROOT
ATOM      1  N   UNL d   1       8.920   2.441 -16.551  0.00  0.00    -0.344 N 
ATOM      2  C   UNL d   1       9.462   3.778 -16.731  0.00  0.00     0.137 C 
ATOM      3  C   UNL d   1      10.135   4.264 -15.418  0.00  0.00     0.274 C 
ATOM      4  N   UNL d   1       9.188   4.176 -14.298  0.00  0.00     0.141 N 
ATOM      5  C   UNL d   1       8.804   2.768 -14.128  0.00  0.00     0.274 C 
ATOM      6  C   UNL d   1       8.085   2.238 -15.383  0.00  0.00     0.137 C 
ENDROOT
BRANCH   4   7
ATOM      7  C   UNL d   1       9.839   4.664 -13.080  0.00  0.00     0.251 C 
BRANCH   7   8
ATOM      8  C   UNL d   1       8.852   4.898 -11.917  0.00  0.00     0.038 C 
BRANCH   8   9
ATOM      9  C   UNL d   1       9.577   5.123 -10.577  0.00  0.00     0.035 C 
BRANCH   9  10
ATOM     10  C   UNL d   1       8.588   5.298  -9.396  0.00  0.00     0.149 C 
BRANCH  10  11
ATOM     11  O   UNL d   1       9.258   5.445  -8.159  0.00  0.00    -0.329 OA
BRANCH  11  12
ATOM     12  C   UNL d   1       9.826   6.646  -7.827  0.00  0.00     0.113 A 
ATOM     13  C   UNL d   1      10.369   6.778  -6.551  0.00  0.00     0.124 A 
ATOM     14  N   UNL d   1      10.897   7.977  -6.179  0.00  0.00    -0.226 N 
ATOM     15  C   UNL d   1      10.940   9.088  -7.039  0.00  0.00     0.085 A 
ATOM     16  N   UNL d   1      11.443   8.263  -4.952  0.00  0.00    -0.164 NA
ATOM     17  C   UNL d   1      10.431   8.936  -8.354  0.00  0.00     0.021 A 
ATOM     18  C   UNL d   1      11.502  10.109  -6.330  0.00  0.00     0.042 A 
ATOM     19  C   UNL d   1       9.862   7.742  -8.728  0.00  0.00     0.027 A 
ATOM     20  C   UNL d   1      11.792   9.529  -5.067  0.00  0.00     0.122 A 
ENDBRANCH  11  12
ENDBRANCH  10  11
ENDBRANCH   9  10
ENDBRANCH   8   9
ENDBRANCH   7   8
ENDBRANCH   4   7
BRANCH   1  21
ATOM     21  C   UNL d   1       9.276   1.343 -17.382  0.00  0.00     0.068 A 
ATOM     22  C   UNL d   1       8.229   0.565 -17.899  0.00  0.00     0.018 A 
ATOM     23  C   UNL d   1       8.516  -0.513 -18.769  0.00  0.00     0.002 A 
ATOM     24  C   UNL d   1       9.842  -0.804 -19.111  0.00  0.00     0.012 A 
ATOM     25  C   UNL d   1      10.892  -0.048 -18.570  0.00  0.00     0.070 A 
ATOM     26 CL   UNL d   1      12.519  -0.454 -18.994  0.00  0.00    -0.081 Cl
ATOM     27  C   UNL d   1      10.612   1.029 -17.691  0.00  0.00     0.084 A 
ATOM     28 CL   UNL d   1      11.970   1.880 -17.024  0.00  0.00    -0.080 Cl
ENDBRANCH   1  21
TORSDOF 7
