REMARK  8 active torsions:
REMARK  status: ('A' for Active; 'I' for Inactive)
REMARK    1  A    between atoms: O_2  and  C_3 
REMARK    2  A    between atoms: C_8  and  N_9 
REMARK    3  A    between atoms: N_12  and  C_13 
REMARK    4  A    between atoms: C_13  and  C_14 
REMARK    5  A    between atoms: C_14  and  C_15 
REMARK    6  A    between atoms: C_15  and  C_16 
REMARK    7  A    between atoms: C_16  and  N_17 
REMARK       I    between atoms: N_17  and  C_18 
REMARK    8  A    between atoms: C_18  and  C_20 
ROOT
ATOM      1  N   UNL d   1       8.521   4.589 -13.629  0.00  0.00    -0.343 N 
ATOM      2  C   UNL d   1       7.286   4.835 -12.900  0.00  0.00     0.137 C 
ATOM      3  C   UNL d   1       7.558   4.786 -11.389  0.00  0.00     0.274 C 
ATOM      4  N   UNL d   1       8.627   5.709 -11.017  0.00  0.00     0.141 N 
ATOM      5  C   UNL d   1       9.849   5.304 -11.699  0.00  0.00     0.274 C 
ATOM      6  C   UNL d   1       9.650   5.396 -13.199  0.00  0.00     0.137 C 
ENDROOT
BRANCH   4   7
ATOM      7  C   UNL d   1       8.845   5.666  -9.573  0.00  0.00     0.251 C 
BRANCH   7   8
ATOM      8  C   UNL d   1       9.418   6.977  -9.010  0.00  0.00     0.037 C 
BRANCH   8   9
ATOM      9  C   UNL d   1      10.671   7.529  -9.717  0.00  0.00     0.029 C 
BRANCH   9  10
ATOM     10  C   UNL d   1      11.171   8.880  -9.207  0.00  0.00     0.129 C 
BRANCH  10  11
ATOM     11  N   UNL d   1      11.754   8.792  -7.875  0.00  0.00    -0.238 NA
ATOM     12  C   UNL d   1      11.048   8.794  -6.737  0.00  0.00     0.251 C 
ATOM     13  O   UNL d   1       9.820   8.859  -6.696  0.00  0.00    -0.271 OA
BRANCH  12  14
ATOM     14  C   UNL d   1      11.851   8.717  -5.443  0.00  0.00     0.081 C 
ATOM     15  C   UNL d   1      11.336   9.759  -4.443  0.00  0.00     0.009 C 
ATOM     16  C   UNL d   1      12.113   9.682  -3.131  0.00  0.00     0.001 C 
ATOM     17  C   UNL d   1      12.072   8.273  -2.518  0.00  0.00     0.000 C 
ATOM     18  C   UNL d   1      12.569   7.221  -3.513  0.00  0.00     0.001 C 
ATOM     19  C   UNL d   1      11.794   7.287  -4.840  0.00  0.00     0.009 C 
ENDBRANCH  12  14
ENDBRANCH  10  11
ENDBRANCH   9  10
ENDBRANCH   8   9
ENDBRANCH   7   8
ENDBRANCH   4   7
BRANCH   1  20
ATOM     20  C   UNL d   1       8.651   3.599 -14.626  0.00  0.00     0.079 A 
ATOM     21  C   UNL d   1       9.462   3.826 -15.764  0.00  0.00     0.110 A 
ATOM     22  C   UNL d   1       9.565   2.816 -16.750  0.00  0.00     0.026 A 
ATOM     23  C   UNL d   1       8.847   1.610 -16.615  0.00  0.00     0.002 A 
ATOM     24  C   UNL d   1       8.032   1.401 -15.490  0.00  0.00     0.002 A 
ATOM     25  C   UNL d   1       7.943   2.386 -14.495  0.00  0.00     0.019 A 
BRANCH  21  26
ATOM     26  O   UNL d   1      10.091   5.055 -15.893  0.00  0.00    -0.327 OA
ATOM     27  C   UNL d   1      10.994   5.266 -16.965  0.00  0.00     0.181 C 
ENDBRANCH  21  26
ENDBRANCH   1  20
TORSDOF 8
