REMARK  5 active torsions:
REMARK  status: ('A' for Active; 'I' for Inactive)
REMARK    1  A    between atoms: C_2  and  C_3 
REMARK    2  A    between atoms: C_3  and  N_4 
REMARK    3  A    between atoms: C_12  and  O_13 
REMARK    4  A    between atoms: O_13  and  S_14 
REMARK    5  A    between atoms: S_14  and  C_17 
ROOT
ATOM      1  N   UNL d   1       7.505   5.705 -12.406  0.00  0.00     0.135 N 
ATOM      2  C   UNL d   1       6.075   5.542 -12.313  0.00  0.00     0.251 C 
ATOM      3  C   UNL d   1       5.730   4.173 -12.917  0.00  0.00     0.042 C 
ATOM      4  C   UNL d   1       7.115   3.627 -13.268  0.00  0.00     0.055 C 
ATOM      5  C   UNL d   1       7.253   2.582 -14.374  0.00  0.00    -0.023 A 
ATOM      6  C   UNL d   1       6.265   1.598 -14.535  0.00  0.00    -0.004 A 
ATOM      7  C   UNL d   1       6.365   0.644 -15.545  0.00  0.00     0.002 A 
ATOM      8  C   UNL d   1       7.485   0.639 -16.388  0.00  0.00     0.025 A 
ATOM      9  C   UNL d   1       8.492   1.603 -16.228  0.00  0.00     0.109 A 
ATOM     10  C   UNL d   1       8.389   2.578 -15.199  0.00  0.00    -0.002 A 
ATOM     11  C   UNL d   1       9.487   3.644 -15.027  0.00  0.00     0.030 C 
ATOM     12  C   UNL d   1       9.347   4.571 -13.788  0.00  0.00     0.038 C 
ATOM     13  C   UNL d   1       7.878   4.873 -13.539  0.00  0.00     0.224 C 
ENDROOT
BRANCH   9  14
ATOM     14  O   UNL d   1       9.548   1.539 -17.090  0.00  0.00    -0.225 OA
BRANCH  14  15
ATOM     15  S   UNL d   1      10.711   0.425 -16.655  0.00  0.00     0.374 S 
ATOM     16  O   UNL d   1      11.152   0.830 -15.307  0.00  0.00    -0.189 OA
ATOM     17  O   UNL d   1      10.182  -0.940 -16.884  0.00  0.00    -0.189 OA
BRANCH  15  18
ATOM     18  C   UNL d   1      11.980   0.776 -17.944  0.00  0.00     0.524 C 
ATOM     19  F   UNL d   1      12.777  -0.283 -18.087  0.00  0.00    -0.155 F 
ATOM     20  F   UNL d   1      11.351   0.976 -19.103  0.00  0.00    -0.155 F 
ATOM     21  F   UNL d   1      12.693   1.847 -17.598  0.00  0.00    -0.155 F 
ENDBRANCH  15  18
ENDBRANCH  14  15
ENDBRANCH   9  14
BRANCH   1  22
ATOM     22  C   UNL d   1       7.760   7.112 -12.566  0.00  0.00     0.250 C 
BRANCH  22  23
ATOM     23  C   UNL d   1       9.157   7.459 -12.032  0.00  0.00     0.035 C 
ATOM     24  C   UNL d   1       9.320   8.898 -11.614  0.00  0.00     0.002 C 
ENDBRANCH  22  23
ENDBRANCH   1  22
TORSDOF 5
