REMARK  3 active torsions:
REMARK  status: ('A' for Active; 'I' for Inactive)
REMARK    1  A    between atoms: C_5  and  N_6 
REMARK    2  A    between atoms: N_9  and  C_10 
REMARK    3  A    between atoms: C_10  and  C_11 
ROOT
ATOM      1  N   UNL d   1      10.330   8.063  -6.470  0.00  0.00    -0.344 N 
ATOM      2  C   UNL d   1       9.459   6.951  -6.837  0.00  0.00     0.137 C 
ATOM      3  C   UNL d   1       9.880   6.388  -8.200  0.00  0.00     0.275 C 
ATOM      4  N   UNL d   1       9.872   7.455  -9.205  0.00  0.00     0.147 N 
ATOM      5  C   UNL d   1      10.839   8.491  -8.823  0.00  0.00     0.275 C 
ATOM      6  C   UNL d   1      10.433   9.103  -7.478  0.00  0.00     0.137 C 
ENDROOT
BRANCH   4   7
ATOM      7  C   UNL d   1      10.240   6.913 -10.505  0.00  0.00     0.297 C 
BRANCH   7   8
ATOM      8  C   UNL d   1       9.333   5.970 -11.237  0.00  0.00     0.112 A 
ATOM      9  N   UNL d   1       9.713   5.340 -12.423  0.00  0.00    -0.229 NA
ATOM     10  C   UNL d   1       8.655   4.620 -12.802  0.00  0.00     0.148 A 
ATOM     11  N   UNL d   1       7.585   4.793 -11.894  0.00  0.00    -0.288 N 
ATOM     12  C   UNL d   1       8.436   3.757 -13.906  0.00  0.00     0.037 A 
ATOM     13  C   UNL d   1       8.050   5.640 -10.912  0.00  0.00     0.098 A 
ATOM     14  C   UNL d   1       6.373   4.189 -12.051  0.00  0.00     0.082 A 
ATOM     15  C   UNL d   1       6.171   3.357 -13.125  0.00  0.00     0.019 A 
ATOM     16  C   UNL d   1       7.217   3.130 -14.051  0.00  0.00     0.005 A 
ENDBRANCH   7   8
ENDBRANCH   4   7
BRANCH   1  17
ATOM     17  C   UNL d   1      11.012   8.142  -5.242  0.00  0.00     0.056 A 
ATOM     18  C   UNL d   1      11.465   6.971  -4.587  0.00  0.00     0.019 A 
ATOM     19  C   UNL d   1      12.125   7.064  -3.346  0.00  0.00     0.031 A 
ATOM     20  C   UNL d   1      12.326   8.319  -2.747  0.00  0.00     0.140 A 
ATOM     21  F   UNL d   1      12.960   8.408  -1.558  0.00  0.00    -0.204 F 
ATOM     22  C   UNL d   1      11.864   9.481  -3.379  0.00  0.00     0.031 A 
ATOM     23  C   UNL d   1      11.216   9.400  -4.625  0.00  0.00     0.019 A 
ENDBRANCH   1  17
TORSDOF 3
