REMARK  8 active torsions:
REMARK  status: ('A' for Active; 'I' for Inactive)
REMARK    1  A    between atoms: N_2  and  C_3 
REMARK    2  A    between atoms: N_2  and  S_22 
REMARK    3  A    between atoms: N_6  and  C_7 
REMARK    4  A    between atoms: C_7  and  C_8 
REMARK    5  A    between atoms: C_8  and  O_9 
REMARK    6  A    between atoms: O_9  and  C_10 
REMARK    7  A    between atoms: C_15  and  C_16 
REMARK    8  A    between atoms: S_22  and  C_25 
ROOT
ATOM      1  C   UNL d   1      10.513   7.593  -8.095  0.00  0.00     0.096 C 
ATOM      2  C   UNL d   1       9.380   8.232  -8.882  0.00  0.00     0.058 C 
ATOM      3  C   UNL d   1       9.457   7.716 -10.318  0.00  0.00     0.252 C 
ATOM      4  N   UNL d   1       9.189   6.283 -10.279  0.00  0.00     0.140 N 
ATOM      5  C   UNL d   1      10.337   5.685  -9.626  0.00  0.00     0.252 C 
ATOM      6  C   UNL d   1      10.447   6.062  -8.172  0.00  0.00     0.058 C 
ENDROOT
BRANCH   4   7
ATOM      7  C   UNL d   1       9.141   5.874 -11.670  0.00  0.00     0.283 C 
BRANCH   7   8
ATOM      8  C   UNL d   1       9.043   4.364 -11.923  0.00  0.00     0.184 C 
BRANCH   8   9
ATOM      9  O   UNL d   1       8.575   4.053 -13.216  0.00  0.00    -0.329 OA
BRANCH   9  10
ATOM     10  C   UNL d   1       9.355   4.144 -14.327  0.00  0.00     0.090 A 
ATOM     11  C   UNL d   1       9.108   3.282 -15.434  0.00  0.00    -0.001 A 
ATOM     12  C   UNL d   1       9.924   3.446 -16.594  0.00  0.00    -0.002 A 
ATOM     13  C   UNL d   1      10.930   4.429 -16.681  0.00  0.00    -0.000 A 
ATOM     14  C   UNL d   1      11.148   5.274 -15.591  0.00  0.00     0.002 A 
ATOM     15  C   UNL d   1      10.371   5.122 -14.432  0.00  0.00     0.024 A 
BRANCH  11  16
ATOM     16  C   UNL d   1       8.000   2.184 -15.405  0.00  0.00     0.021 C 
ATOM     17  C   UNL d   1       7.556   1.760 -16.839  0.00  0.00     0.004 C 
ATOM     18  C   UNL d   1       6.674   2.601 -14.678  0.00  0.00     0.004 C 
ATOM     19  C   UNL d   1       8.567   0.911 -14.731  0.00  0.00     0.004 C 
ENDBRANCH  11  16
ENDBRANCH   9  10
ENDBRANCH   8   9
ENDBRANCH   7   8
ENDBRANCH   4   7
BRANCH   1  20
ATOM     20  N   UNL d   1      10.406   7.988  -6.707  0.00  0.00    -0.274 N 
ATOM     21  C   UNL d   1       9.098   7.770  -6.108  0.00  0.00     0.138 C 
BRANCH  20  22
ATOM     22  S   UNL d   1      11.407   9.170  -6.017  0.00  0.00     0.264 S 
ATOM     23  O   UNL d   1      12.635   9.233  -6.848  0.00  0.00    -0.200 OA
ATOM     24  O   UNL d   1      10.670  10.387  -5.782  0.00  0.00    -0.200 OA
BRANCH  22  25
ATOM     25  C   UNL d   1      11.845   8.483  -4.453  0.00  0.00     0.106 A 
ATOM     26  C   UNL d   1      11.895   9.339  -3.350  0.00  0.00     0.043 A 
ATOM     27  C   UNL d   1      12.230   8.802  -2.111  0.00  0.00     0.141 A 
ATOM     28  C   UNL d   1      12.442   7.435  -1.935  0.00  0.00     0.030 A 
ATOM     29  F   UNL d   1      12.293   9.615  -1.067  0.00  0.00    -0.204 F 
ATOM     30  C   UNL d   1      12.342   6.573  -3.027  0.00  0.00     0.003 A 
ATOM     31  C   UNL d   1      12.044   7.102  -4.295  0.00  0.00     0.013 A 
ENDBRANCH  22  25
ENDBRANCH  20  22
ENDBRANCH   1  20
TORSDOF 8
