REMARK  2 active torsions:
REMARK  status: ('A' for Active; 'I' for Inactive)
REMARK    1  A    between atoms: N_11  and  C_12 
REMARK    2  A    between atoms: C_12  and  C_13 
ROOT
ATOM      1  N   UNL d   1      16.416   6.864 -18.324  0.00  0.00    -0.191 NA
ATOM      2  C   UNL d   1      15.698   5.961 -18.320  0.00  0.00     0.101 C 
ATOM      3  C   UNL d   1      14.791   4.823 -18.308  0.00  0.00     0.068 A 
ATOM      4  C   UNL d   1      14.844   3.866 -19.343  0.00  0.00     0.012 A 
ATOM      5  C   UNL d   1      13.986   2.751 -19.319  0.00  0.00     0.025 A 
ATOM      6  C   UNL d   1      13.062   2.597 -18.275  0.00  0.00     0.090 A 
ATOM      7  C   UNL d   1      13.023   3.553 -17.229  0.00  0.00     0.003 A 
ATOM      8  C   UNL d   1      13.884   4.665 -17.249  0.00  0.00     0.008 A 
ATOM      9  C   UNL d   1      12.115   3.341 -16.038  0.00  0.00     0.062 C 
ATOM     10  C   UNL d   1      11.180   4.508 -15.715  0.00  0.00     0.255 C 
ATOM     11  N   UNL d   1      10.196   3.857 -14.846  0.00  0.00     0.142 N 
ATOM     12  C   UNL d   1       9.882   2.642 -15.582  0.00  0.00     0.254 C 
ATOM     13  C   UNL d   1      11.177   2.140 -16.184  0.00  0.00     0.070 C 
ATOM     14  C   UNL d   1      10.991   1.693 -17.649  0.00  0.00     0.151 C 
ATOM     15  O   UNL d   1      12.236   1.497 -18.299  0.00  0.00    -0.331 OA
ENDROOT
BRANCH  11  16
ATOM     16  C   UNL d   1       9.034   4.712 -14.618  0.00  0.00     0.277 C 
BRANCH  16  17
ATOM     17  C   UNL d   1       7.853   4.038 -13.917  0.00  0.00     0.011 A 
ATOM     18  C   UNL d   1       7.277   2.846 -14.434  0.00  0.00    -0.002 A 
ATOM     19  C   UNL d   1       6.222   2.226 -13.757  0.00  0.00    -0.000 A 
ATOM     20  C   UNL d   1       5.651   2.809 -12.590  0.00  0.00    -0.000 A 
ATOM     21  C   UNL d   1       6.188   4.018 -12.111  0.00  0.00    -0.000 A 
ATOM     22  C   UNL d   1       7.287   4.623 -12.756  0.00  0.00    -0.002 A 
ENDBRANCH  16  17
ENDBRANCH  11  16
TORSDOF 2
