REMARK  6 active torsions:
REMARK  status: ('A' for Active; 'I' for Inactive)
REMARK    1  A    between atoms: N_3  and  C_4 
REMARK    2  A    between atoms: C_4  and  C_5 
REMARK    3  A    between atoms: C_5  and  C_6 
REMARK    4  A    between atoms: C_6  and  C_7 
REMARK    5  A    between atoms: C_7  and  N_8 
REMARK    6  A    between atoms: N_11  and  C_12 
ROOT
ATOM      1  N   UNL d   1       8.041   4.336 -13.870  0.00  0.00     0.141 N 
ATOM      2  C   UNL d   1       7.014   4.653 -12.862  0.00  0.00     0.274 C 
ATOM      3  C   UNL d   1       7.315   6.013 -12.183  0.00  0.00     0.137 C 
ATOM      4  N   UNL d   1       8.683   6.051 -11.683  0.00  0.00    -0.343 N 
ATOM      5  C   UNL d   1       9.714   5.620 -12.590  0.00  0.00     0.137 C 
ATOM      6  C   UNL d   1       9.350   4.258 -13.213  0.00  0.00     0.274 C 
ENDROOT
BRANCH   1   7
ATOM      7  C   UNL d   1       7.703   3.073 -14.516  0.00  0.00     0.251 C 
BRANCH   7   8
ATOM      8  C   UNL d   1       8.583   2.791 -15.758  0.00  0.00     0.037 C 
BRANCH   8   9
ATOM      9  C   UNL d   1       7.916   1.817 -16.735  0.00  0.00     0.029 C 
BRANCH   9  10
ATOM     10  C   UNL d   1       7.791   0.392 -16.171  0.00  0.00     0.133 C 
BRANCH  10  11
ATOM     11  N   UNL d   1       6.828  -0.384 -16.939  0.00  0.00    -0.201 N 
ATOM     12  C   UNL d   1       5.583  -0.707 -16.558  0.00  0.00     0.352 A 
ATOM     13  O   UNL d   1       5.009  -0.412 -15.511  0.00  0.00    -0.244 OA
ATOM     14  N   UNL d   1       5.119  -1.407 -17.584  0.00  0.00    -0.239 N 
ATOM     15  C   UNL d   1       6.111  -1.478 -18.548  0.00  0.00     0.199 A 
ATOM     16  C   UNL d   1       3.857  -1.998 -17.715  0.00  0.00     0.086 A 
ATOM     17  N   UNL d   1       7.173  -0.846 -18.170  0.00  0.00    -0.145 NA
ATOM     18  C   UNL d   1       5.776  -2.216 -19.751  0.00  0.00     0.176 A 
ATOM     19  F   UNL d   1       6.679  -2.338 -20.738  0.00  0.00    -0.201 F 
ATOM     20  C   UNL d   1       4.553  -2.782 -19.890  0.00  0.00     0.034 A 
ATOM     21  C   UNL d   1       3.554  -2.675 -18.835  0.00  0.00     0.022 A 
ENDBRANCH  10  11
ENDBRANCH   9  10
ENDBRANCH   8   9
ENDBRANCH   7   8
ENDBRANCH   1   7
BRANCH   4  22
ATOM     22  C   UNL d   1       8.988   6.313 -10.333  0.00  0.00     0.075 A 
ATOM     23  C   UNL d   1       9.791   7.418  -9.938  0.00  0.00     0.103 A 
ATOM     24  C   UNL d   1      10.006   7.611  -8.533  0.00  0.00     0.050 A 
ATOM     25  N   UNL d   1      10.382   8.384 -10.751  0.00  0.00    -0.235 NA
ATOM     26  C   UNL d   1       9.384   6.812  -7.570  0.00  0.00     0.008 A 
ATOM     27  S   UNL d   1      11.066   8.978  -8.258  0.00  0.00    -0.064 SA
ATOM     28  C   UNL d   1       8.557   5.763  -7.986  0.00  0.00     0.002 A 
ATOM     29  C   UNL d   1       8.396   5.496  -9.357  0.00  0.00     0.018 A 
ATOM     30  C   UNL d   1      11.156   9.168  -9.999  0.00  0.00     0.135 C 
ENDBRANCH   4  22
TORSDOF 6
