REMARK  1 active torsions:
REMARK  status: ('A' for Active; 'I' for Inactive)
REMARK    1  A    between atoms: C_13  and  C_14 
ROOT
ATOM      1  C   UNL d   1       6.352   8.317 -12.651  0.00  0.00     0.285 C 
ATOM      2  N   UNL d   1       6.900   6.991 -12.431  0.00  0.00     0.140 N 
ATOM      3  C   UNL d   1       5.832   6.032 -12.637  0.00  0.00     0.255 C 
ATOM      4  C   UNL d   1       6.127   4.704 -12.027  0.00  0.00     0.061 C 
ATOM      5  C   UNL d   1       7.032   3.934 -12.945  0.00  0.00    -0.023 A 
ATOM      6  C   UNL d   1       6.525   2.762 -13.534  0.00  0.00     0.004 A 
ATOM      7  C   UNL d   1       7.411   1.906 -14.200  0.00  0.00     0.060 A 
ATOM      8 BR   UNL d   1       6.881   0.135 -14.623  0.00  0.00    -0.047 Br
ATOM      9  C   UNL d   1       8.773   2.264 -14.384  0.00  0.00     0.137 A 
ATOM     10  O   UNL d   1       9.646   1.442 -15.040  0.00  0.00    -0.190 OA
ATOM     11  C   UNL d   1       9.252   3.481 -13.879  0.00  0.00     0.024 A 
ATOM     12  C   UNL d   1       8.402   4.309 -13.122  0.00  0.00    -0.018 A 
ATOM     13  C   UNL d   1       8.988   5.628 -12.609  0.00  0.00     0.078 C 
ATOM     14  C   UNL d   1       8.174   6.808 -13.091  0.00  0.00     0.259 C 
ENDROOT
BRANCH  13  15
ATOM     15  C   UNL d   1       9.381   5.742 -11.135  0.00  0.00    -0.016 A 
ATOM     16  C   UNL d   1       8.973   4.800 -10.182  0.00  0.00    -0.002 A 
ATOM     17  C   UNL d   1       9.324   4.907  -8.835  0.00  0.00     0.021 A 
ATOM     18  C   UNL d   1      10.164   5.967  -8.441  0.00  0.00     0.103 A 
ATOM     19  C   UNL d   1      10.623   6.894  -9.368  0.00  0.00     0.021 A 
ATOM     20  N   UNL d   1      10.584   6.075  -7.138  0.00  0.00    -0.148 N 
ATOM     21  C   UNL d   1      10.183   6.815 -10.688  0.00  0.00    -0.002 A 
ENDBRANCH  13  15
TORSDOF 1
