REMARK  6 active torsions:
REMARK  status: ('A' for Active; 'I' for Inactive)
REMARK    1  A    between atoms: C_2  and  N_3 
REMARK    2  A    between atoms: N_3  and  C_4 
REMARK       I    between atoms: N_3  and  C_11 
REMARK    3  A    between atoms: C_4  and  C_5 
REMARK    4  A    between atoms: C_11  and  C_13 
REMARK    5  A    between atoms: C_13  and  C_14 
REMARK    6  A    between atoms: C_13  and  C_16 
ROOT
ATOM      1  N   UNL d   1       6.492   5.527 -12.153  0.00  0.00    -0.297 N 
ATOM      2  C   UNL d   1       7.825   5.673 -12.232  0.00  0.00     0.244 C 
ATOM      3  O   UNL d   1       8.308   6.473 -13.026  0.00  0.00    -0.272 OA
ENDROOT
BRANCH   2   4
ATOM      4  C   UNL d   1       8.716   4.788 -11.348  0.00  0.00     0.135 C 
BRANCH   4   5
ATOM      5  C   UNL d   1       9.699   3.930 -12.163  0.00  0.00     0.196 C 
ATOM      6  O   UNL d   1      10.545   4.656 -13.040  0.00  0.00    -0.220 OA
ENDBRANCH   4   5
BRANCH   4   7
ATOM      7  C   UNL d   1       9.405   5.669 -10.293  0.00  0.00    -0.011 A 
ATOM      8  C   UNL d   1       9.464   5.233  -8.939  0.00  0.00    -0.004 A 
ATOM      9  C   UNL d   1      10.149   6.007  -7.964  0.00  0.00    -0.000 A 
ATOM     10  C   UNL d   1      10.748   7.230  -8.334  0.00  0.00    -0.000 A 
ATOM     11  C   UNL d   1      10.670   7.682  -9.674  0.00  0.00    -0.000 A 
ATOM     12  C   UNL d   1      10.000   6.908 -10.642  0.00  0.00    -0.004 A 
ENDBRANCH   4   7
ENDBRANCH   2   4
BRANCH   1  13
ATOM     13  C   UNL d   1       5.586   6.644 -12.423  0.00  0.00     0.052 C 
ATOM     14  C   UNL d   1       6.066   8.064 -12.821  0.00  0.00     0.051 C 
ENDBRANCH   1  13
BRANCH   1  15
ATOM     15  C   UNL d   1       5.779   4.223 -12.074  0.00  0.00     0.135 C 
BRANCH  15  16
ATOM     16  C   UNL d   1       6.148   3.193 -13.146  0.00  0.00     0.004 A 
ATOM     17  C   UNL d   1       5.466   1.966 -13.192  0.00  0.00     0.018 A 
ATOM     18  C   UNL d   1       5.846   0.962 -14.104  0.00  0.00     0.099 A 
ATOM     19  N   UNL d   1       6.868   1.132 -14.972  0.00  0.00    -0.243 NA
ATOM     20  C   UNL d   1       7.514   2.304 -14.957  0.00  0.00     0.099 A 
ATOM     21  C   UNL d   1       7.183   3.380 -14.113  0.00  0.00     0.018 A 
ENDBRANCH  15  16
ENDBRANCH   1  15
TORSDOF 6
