REMARK  6 active torsions:
REMARK  status: ('A' for Active; 'I' for Inactive)
REMARK    1  A    between atoms: C_8  and  O_9 
REMARK    2  A    between atoms: O_9  and  C_10 
REMARK    3  A    between atoms: C_10  and  C_11 
REMARK    4  A    between atoms: C_11  and  C_12 
REMARK    5  A    between atoms: C_12  and  N_13 
REMARK    6  A    between atoms: N_16  and  C_17 
ROOT
ATOM      1  N   UNL d   1       9.778   6.711 -11.479  0.00  0.00     0.141 N 
ATOM      2  C   UNL d   1       8.762   5.989 -10.727  0.00  0.00     0.274 C 
ATOM      3  C   UNL d   1       8.773   4.499 -11.143  0.00  0.00     0.137 C 
ATOM      4  N   UNL d   1       8.769   4.337 -12.590  0.00  0.00    -0.344 N 
ATOM      5  C   UNL d   1       9.692   5.165 -13.320  0.00  0.00     0.137 C 
ATOM      6  C   UNL d   1       9.457   6.593 -12.904  0.00  0.00     0.274 C 
ENDROOT
BRANCH   1   7
ATOM      7  C   UNL d   1       9.767   8.121 -11.147  0.00  0.00     0.253 C 
BRANCH   7   8
ATOM      8  C   UNL d   1      10.695   8.401  -9.952  0.00  0.00     0.068 C 
BRANCH   8   9
ATOM      9  C   UNL d   1       9.874   8.949  -8.765  0.00  0.00     0.151 C 
BRANCH   9  10
ATOM     10  O   UNL d   1      10.688   9.514  -7.747  0.00  0.00    -0.329 OA
BRANCH  10  11
ATOM     11  C   UNL d   1      11.042   8.701  -6.707  0.00  0.00     0.121 A 
ATOM     12  C   UNL d   1      11.221   7.305  -6.851  0.00  0.00     0.026 A 
ATOM     13  C   UNL d   1      11.620   6.522  -5.752  0.00  0.00    -0.000 A 
ATOM     14  C   UNL d   1      11.765   7.148  -4.505  0.00  0.00     0.009 A 
ATOM     15  C   UNL d   1      12.106   6.558  -3.162  0.00  0.00     0.156 A 
ATOM     16  C   UNL d   1      11.648   8.503  -4.382  0.00  0.00     0.085 A 
ATOM     17  N   UNL d   1      12.161   7.749  -2.317  0.00  0.00    -0.229 NA
ATOM     18  C   UNL d   1      11.947   8.893  -2.995  0.00  0.00     0.277 A 
ATOM     19  O   UNL d   1      11.910  10.013  -2.566  0.00  0.00    -0.266 OA
ATOM     20  C   UNL d   1      11.267   9.339  -5.458  0.00  0.00     0.167 A 
ATOM     21  F   UNL d   1      11.080  10.665  -5.293  0.00  0.00    -0.202 F 
ENDBRANCH  10  11
ENDBRANCH   9  10
ENDBRANCH   8   9
ENDBRANCH   7   8
ENDBRANCH   1   7
BRANCH   4  22
ATOM     22  C   UNL d   1       7.878   3.512 -13.247  0.00  0.00     0.058 A 
ATOM     23  C   UNL d   1       8.280   2.483 -14.191  0.00  0.00     0.043 A 
ATOM     24  C   UNL d   1       7.258   1.612 -14.708  0.00  0.00     0.004 A 
ATOM     25  C   UNL d   1       9.631   2.185 -14.566  0.00  0.00     0.141 A 
ATOM     26  C   UNL d   1       5.931   1.728 -14.241  0.00  0.00     0.000 A 
ATOM     27  C   UNL d   1       7.544   0.583 -15.645  0.00  0.00     0.000 A 
ATOM     28  C   UNL d   1       5.567   2.718 -13.316  0.00  0.00     0.002 A 
ATOM     29  C   UNL d   1       6.524   3.621 -12.848  0.00  0.00     0.017 A 
ATOM     30  C   UNL d   1       8.873   0.359 -16.060  0.00  0.00     0.002 A 
ATOM     31  C   UNL d   1       9.893   1.165 -15.505  0.00  0.00     0.030 A 
ATOM     32  F   UNL d   1      10.690   2.787 -13.968  0.00  0.00    -0.204 F 
ENDBRANCH   4  22
TORSDOF 6
