REMARK  6 active torsions:
REMARK  status: ('A' for Active; 'I' for Inactive)
REMARK    1  A    between atoms: C_2  and  C_3 
REMARK    2  A    between atoms: C_3  and  N_4 
REMARK    3  A    between atoms: N_4  and  C_5 
REMARK    4  A    between atoms: C_12  and  O_13 
REMARK    5  A    between atoms: O_13  and  S_14 
REMARK    6  A    between atoms: S_14  and  C_17 
ROOT
ATOM      1  C   UNL d   1       7.623   4.288 -12.709  0.00  0.00     0.261 C 
ATOM      2  C   UNL d   1       6.093   4.257 -12.597  0.00  0.00     0.041 C 
ATOM      3  C   UNL d   1       5.614   2.803 -12.671  0.00  0.00     0.028 C 
ATOM      4  C   UNL d   1       6.251   1.996 -13.791  0.00  0.00    -0.024 A 
ATOM      5  C   UNL d   1       5.661   0.773 -14.160  0.00  0.00    -0.004 A 
ATOM      6  C   UNL d   1       6.213  -0.005 -15.189  0.00  0.00     0.002 A 
ATOM      7  C   UNL d   1       7.388   0.428 -15.834  0.00  0.00     0.025 A 
ATOM      8  C   UNL d   1       8.019   1.633 -15.451  0.00  0.00     0.109 A 
ATOM      9  C   UNL d   1       7.439   2.437 -14.440  0.00  0.00    -0.000 A 
ATOM     10  C   UNL d   1       8.092   3.769 -14.059  0.00  0.00     0.064 C 
ENDROOT
BRANCH   8  11
ATOM     11  O   UNL d   1       9.163   2.034 -16.079  0.00  0.00    -0.225 OA
BRANCH  11  12
ATOM     12  S   UNL d   1      10.620   1.409 -15.492  0.00  0.00     0.374 S 
ATOM     13  O   UNL d   1      11.101   2.291 -14.415  0.00  0.00    -0.189 OA
ATOM     14  O   UNL d   1      10.441  -0.034 -15.264  0.00  0.00    -0.189 OA
BRANCH  12  15
ATOM     15  C   UNL d   1      11.681   1.665 -16.974  0.00  0.00     0.524 C 
ATOM     16  F   UNL d   1      12.665   2.502 -16.653  0.00  0.00    -0.155 F 
ATOM     17  F   UNL d   1      12.179   0.493 -17.367  0.00  0.00    -0.155 F 
ATOM     18  F   UNL d   1      10.948   2.196 -17.956  0.00  0.00    -0.155 F 
ENDBRANCH  12  15
ENDBRANCH  11  12
ENDBRANCH   8  11
BRANCH   1  19
ATOM     19  N   UNL d   1       8.163   5.629 -12.527  0.00  0.00     0.337 N 
BRANCH  19  20
ATOM     20  C   UNL d   1       8.178   6.054 -11.143  0.00  0.00     0.290 C 
BRANCH  20  21
ATOM     21  C   UNL d   1       9.316   5.394 -10.341  0.00  0.00     0.038 C 
ATOM     22  C   UNL d   1       9.229   5.673  -8.849  0.00  0.00     0.002 C 
ENDBRANCH  20  21
ENDBRANCH  19  20
ENDBRANCH   1  19
TORSDOF 6
