REMARK  5 active torsions:
REMARK  status: ('A' for Active; 'I' for Inactive)
REMARK       I    between atoms: N_4  and  C_5 
REMARK    1  A    between atoms: C_5  and  C_7 
REMARK    2  A    between atoms: C_10  and  C_11 
REMARK    3  A    between atoms: C_15  and  O_16 
REMARK    4  A    between atoms: O_16  and  C_17 
REMARK       I    between atoms: N_26  and  C_27 
REMARK    5  A    between atoms: C_27  and  C_29 
ROOT
ATOM      1  C   UNL d   1       9.227   4.787 -15.693  0.00  0.00     0.026 C 
ATOM      2  C   UNL d   1       8.444   4.149 -14.501  0.00  0.00     0.106 C 
ATOM      3  C   UNL d   1       8.338   2.649 -14.765  0.00  0.00     0.127 C 
ATOM      4  N   UNL d   1       9.651   2.014 -14.719  0.00  0.00    -0.313 N 
ATOM      5  C   UNL d   1      10.033   0.886 -15.418  0.00  0.00     0.257 C 
ATOM      6  O   UNL d   1      11.082   0.313 -15.201  0.00  0.00    -0.267 OA
ATOM      7  C   UNL d   1      10.620   2.667 -13.821  0.00  0.00     0.129 C 
ATOM      8  C   UNL d   1       9.944   3.501 -12.715  0.00  0.00     0.129 C 
ATOM      9  N   UNL d   1       9.033   4.513 -13.227  0.00  0.00    -0.315 N 
ATOM     10  C   UNL d   1       8.672   5.666 -12.612  0.00  0.00     0.257 C 
ATOM     11  O   UNL d   1       8.006   6.534 -13.179  0.00  0.00    -0.267 OA
ENDROOT
BRANCH   5  12
ATOM     12  C   UNL d   1       9.196   0.471 -16.610  0.00  0.00     0.056 A 
ATOM     13  C   UNL d   1       9.869   0.291 -17.841  0.00  0.00     0.005 A 
ATOM     14  C   UNL d   1       9.143  -0.054 -18.992  0.00  0.00     0.000 A 
ATOM     15  C   UNL d   1       7.752  -0.263 -18.912  0.00  0.00     0.000 A 
ATOM     16  C   UNL d   1       7.104  -0.112 -17.661  0.00  0.00     0.000 A 
ATOM     17  C   UNL d   1       7.829   0.199 -16.503  0.00  0.00     0.005 A 
BRANCH  15  18
ATOM     18  C   UNL d   1       6.970  -0.616 -20.108  0.00  0.00     0.002 A 
ATOM     19  C   UNL d   1       5.970  -1.604 -20.014  0.00  0.00     0.025 A 
ATOM     20  C   UNL d   1       5.220  -1.992 -21.145  0.00  0.00     0.102 A 
ATOM     21  C   UNL d   1       5.473  -1.355 -22.377  0.00  0.00     0.025 A 
ATOM     22  C   UNL d   1       6.457  -0.354 -22.480  0.00  0.00     0.002 A 
ATOM     23  C   UNL d   1       7.201   0.015 -21.348  0.00  0.00     0.000 A 
BRANCH  20  24
ATOM     24  O   UNL d   1       4.245  -2.964 -21.131  0.00  0.00    -0.253 OA
BRANCH  24  25
ATOM     25  C   UNL d   1       3.890  -3.614 -19.986  0.00  0.00     0.530 C 
ATOM     26  F   UNL d   1       4.918  -4.338 -19.485  0.00  0.00    -0.144 F 
ATOM     27  F   UNL d   1       3.458  -2.764 -19.018  0.00  0.00    -0.144 F 
ATOM     28  F   UNL d   1       2.885  -4.483 -20.265  0.00  0.00    -0.144 F 
ENDBRANCH  24  25
ENDBRANCH  20  24
ENDBRANCH  15  18
ENDBRANCH   5  12
BRANCH  10  29
ATOM     29  C   UNL d   1       9.090   5.857 -11.191  0.00  0.00     0.057 A 
ATOM     30  C   UNL d   1       9.833   6.982 -10.817  0.00  0.00     0.024 A 
ATOM     31  C   UNL d   1      10.239   7.129  -9.477  0.00  0.00     0.082 A 
ATOM     32  C   UNL d   1       9.884   6.171  -8.477  0.00  0.00     0.019 A 
ATOM     33  N   UNL d   1      10.960   8.103  -8.828  0.00  0.00    -0.244 NA
ATOM     34  C   UNL d   1       9.130   5.052  -8.879  0.00  0.00     0.002 A 
ATOM     35  C   UNL d   1      10.433   6.626  -7.223  0.00  0.00     0.022 A 
ATOM     36  C   UNL d   1       8.714   4.909 -10.219  0.00  0.00     0.005 A 
ATOM     37  C   UNL d   1      11.082   7.803  -7.474  0.00  0.00     0.099 A 
ENDBRANCH  10  29
TORSDOF 5
