REMARK  8 active torsions:
REMARK  status: ('A' for Active; 'I' for Inactive)
REMARK       I    between atoms: C_2  and  N_3 
REMARK    1  A    between atoms: C_2  and  C_23 
REMARK    2  A    between atoms: N_3  and  C_4 
REMARK    3  A    between atoms: C_4  and  C_5 
REMARK    4  A    between atoms: C_5  and  C_7 
REMARK    5  A    between atoms: C_7  and  C_8 
REMARK    6  A    between atoms: C_8  and  N_9 
REMARK    7  A    between atoms: N_12  and  C_13 
REMARK    8  A    between atoms: C_26  and  C_27 
ROOT
ATOM      1  C   UNL d   1       9.212   3.881 -13.126  0.00  0.00     0.178 C 
ATOM      2  O   UNL d   1      10.119   4.887 -13.536  0.00  0.00    -0.221 OA
ENDROOT
BRANCH   1   3
ATOM      3  C   UNL d   1       8.155   4.460 -12.139  0.00  0.00     0.162 C 
BRANCH   3   4
ATOM      4  N   UNL d   1       8.743   5.018 -10.922  0.00  0.00    -0.232 NA
ATOM      5  C   UNL d   1       9.246   6.254 -10.817  0.00  0.00     0.275 C 
ATOM      6  O   UNL d   1       9.331   7.022 -11.779  0.00  0.00    -0.266 OA
BRANCH   5   7
ATOM      7  C   UNL d   1       9.758   6.641  -9.456  0.00  0.00     0.058 A 
ATOM      8  C   UNL d   1       9.053   6.267  -8.289  0.00  0.00     0.005 A 
ATOM      9  C   UNL d   1       9.486   6.697  -7.021  0.00  0.00     0.002 A 
ATOM     10  C   UNL d   1      10.647   7.484  -6.886  0.00  0.00     0.018 A 
ATOM     11  C   UNL d   1      11.353   7.862  -8.050  0.00  0.00     0.002 A 
ATOM     12  C   UNL d   1      10.908   7.451  -9.322  0.00  0.00     0.005 A 
BRANCH  10  13
ATOM     13  C   UNL d   1      11.107   7.900  -5.556  0.00  0.00     0.081 A 
ATOM     14  N   UNL d   1      11.046   9.224  -5.303  0.00  0.00    -0.244 NA
ATOM     15  C   UNL d   1      11.465   9.657  -4.097  0.00  0.00     0.099 A 
ATOM     16  C   UNL d   1      11.982   8.810  -3.103  0.00  0.00     0.021 A 
ATOM     17  C   UNL d   1      12.051   7.429  -3.369  0.00  0.00     0.003 A 
ATOM     18  C   UNL d   1      11.591   6.966  -4.616  0.00  0.00     0.019 A 
ENDBRANCH  10  13
ENDBRANCH   5   7
ENDBRANCH   3   4
ENDBRANCH   1   3
BRANCH   1  19
ATOM     19  C   UNL d   1       8.583   3.371 -14.434  0.00  0.00     0.070 C 
BRANCH  19  20
ATOM     20  C   UNL d   1       7.807   2.060 -14.280  0.00  0.00     0.253 C 
BRANCH  20  21
ATOM     21  N   UNL d   1       7.278   1.610 -15.573  0.00  0.00     0.141 N 
ATOM     22  C   UNL d   1       6.094   0.794 -15.343  0.00  0.00     0.274 C 
ATOM     23  C   UNL d   1       5.499   0.331 -16.693  0.00  0.00     0.137 C 
ATOM     24  N   UNL d   1       6.499  -0.381 -17.486  0.00  0.00    -0.344 N 
ATOM     25  C   UNL d   1       7.773   0.316 -17.619  0.00  0.00     0.137 C 
ATOM     26  C   UNL d   1       8.290   0.802 -16.247  0.00  0.00     0.274 C 
BRANCH  24  27
ATOM     27  C   UNL d   1       6.246  -1.658 -18.035  0.00  0.00     0.068 A 
ATOM     28  C   UNL d   1       6.696  -2.034 -19.324  0.00  0.00     0.084 A 
ATOM     29  C   UNL d   1       6.441  -3.354 -19.813  0.00  0.00     0.070 A 
ATOM     30 CL   UNL d   1       7.510  -0.925 -20.380  0.00  0.00    -0.080 Cl
ATOM     31  C   UNL d   1       5.727  -4.264 -19.023  0.00  0.00     0.012 A 
ATOM     32 CL   UNL d   1       6.981  -3.848 -21.374  0.00  0.00    -0.081 Cl
ATOM     33  C   UNL d   1       5.262  -3.891 -17.760  0.00  0.00     0.002 A 
ATOM     34  C   UNL d   1       5.518  -2.588 -17.268  0.00  0.00     0.018 A 
ENDBRANCH  24  27
ENDBRANCH  20  21
ENDBRANCH  19  20
ENDBRANCH   1  19
TORSDOF 8
