REMARK  8 active torsions:
REMARK  status: ('A' for Active; 'I' for Inactive)
REMARK    1  A    between atoms: N_14  and  C_15 
REMARK    2  A    between atoms: C_15  and  C_16 
REMARK    3  A    between atoms: C_16  and  C_17 
REMARK    4  A    between atoms: C_17  and  C_18 
REMARK    5  A    between atoms: C_18  and  C_19 
REMARK    6  A    between atoms: C_19  and  C_20 
REMARK    7  A    between atoms: C_20  and  N_21 
REMARK    8  A    between atoms: N_24  and  C_25 
ROOT
ATOM      1  C   UNL d   1       9.931   0.229 -20.389  0.00  0.00     0.025 C 
ENDROOT
BRANCH   1   2
ATOM      2  C   UNL d   1       9.409  -1.200 -20.101  0.00  0.00     0.118 C 
BRANCH   2   3
ATOM      3  N   UNL d   1       7.946  -1.254 -19.974  0.00  0.00    -0.254 N 
ATOM      4  S   UNL d   1       7.002  -2.276 -20.969  0.00  0.00     0.268 S 
ATOM      5  O   UNL d   1       7.620  -3.615 -20.922  0.00  0.00    -0.200 OA
ATOM      6  O   UNL d   1       6.743  -1.545 -22.213  0.00  0.00    -0.200 OA
ATOM      7  C   UNL d   1       5.652  -2.144 -19.808  0.00  0.00     0.105 A 
ATOM      8  C   UNL d   1       5.980  -1.337 -18.708  0.00  0.00     0.029 A 
ATOM      9  C   UNL d   1       4.367  -2.714 -19.877  0.00  0.00     0.013 A 
ATOM     10  C   UNL d   1       5.091  -1.087 -17.641  0.00  0.00     0.002 A 
ATOM     11  C   UNL d   1       7.279  -0.815 -18.807  0.00  0.00     0.071 A 
ATOM     12  C   UNL d   1       3.809  -1.658 -17.722  0.00  0.00     0.000 A 
ATOM     13  C   UNL d   1       5.547  -0.268 -16.595  0.00  0.00     0.000 A 
ATOM     14  C   UNL d   1       3.449  -2.466 -18.829  0.00  0.00     0.001 A 
ATOM     15  C   UNL d   1       6.845   0.290 -16.660  0.00  0.00     0.002 A 
ATOM     16  C   UNL d   1       7.726   0.036 -17.762  0.00  0.00     0.018 A 
ENDBRANCH   2   3
ENDBRANCH   1   2
BRANCH   1  17
ATOM     17  C   UNL d   1      11.473   0.410 -20.238  0.00  0.00     0.002 C 
BRANCH  17  18
ATOM     18  C   UNL d   1      12.105  -0.022 -18.889  0.00  0.00     0.002 C 
BRANCH  18  19
ATOM     19  C   UNL d   1      11.284   0.349 -17.616  0.00  0.00     0.035 C 
BRANCH  19  20
ATOM     20  C   UNL d   1      11.022   1.873 -17.501  0.00  0.00     0.250 C 
BRANCH  20  21
ATOM     21  N   UNL d   1      10.789   2.224 -16.113  0.00  0.00     0.141 N 
ATOM     22  C   UNL d   1       9.458   1.807 -15.715  0.00  0.00     0.274 C 
ATOM     23  C   UNL d   1       9.171   2.118 -14.253  0.00  0.00     0.138 C 
ATOM     24  N   UNL d   1       9.364   3.542 -14.020  0.00  0.00    -0.330 N 
ATOM     25  C   UNL d   1      10.654   4.056 -14.494  0.00  0.00     0.138 C 
ATOM     26  C   UNL d   1      10.869   3.689 -15.976  0.00  0.00     0.274 C 
BRANCH  24  27
ATOM     27  C   UNL d   1       8.392   4.352 -13.407  0.00  0.00     0.140 A 
ATOM     28  N   UNL d   1       8.832   5.480 -12.808  0.00  0.00    -0.227 NA
ATOM     29  C   UNL d   1       7.938   6.274 -12.186  0.00  0.00     0.101 A 
ATOM     30  C   UNL d   1       6.563   5.994 -12.136  0.00  0.00     0.021 A 
ATOM     31  C   UNL d   1       6.101   4.831 -12.765  0.00  0.00     0.005 A 
ATOM     32  C   UNL d   1       7.020   3.997 -13.420  0.00  0.00     0.037 A 
ENDBRANCH  24  27
ENDBRANCH  20  21
ENDBRANCH  19  20
ENDBRANCH  18  19
ENDBRANCH  17  18
ENDBRANCH   1  17
TORSDOF 8
