REMARK  9 active torsions:
REMARK  status: ('A' for Active; 'I' for Inactive)
REMARK    1  A    between atoms: O_2  and  C_3 
REMARK    2  A    between atoms: C_8  and  N_9 
REMARK    3  A    between atoms: N_12  and  C_13 
REMARK    4  A    between atoms: C_13  and  C_14 
REMARK    5  A    between atoms: C_14  and  C_15 
REMARK    6  A    between atoms: C_15  and  C_16 
REMARK    7  A    between atoms: C_16  and  N_17 
REMARK       I    between atoms: N_17  and  C_18 
REMARK    8  A    between atoms: C_18  and  O_20 
REMARK    9  A    between atoms: O_20  and  C_21 
ROOT
ATOM      1  N   UNL d   1       7.443   3.420 -14.025  0.00  0.00    -0.343 N 
ATOM      2  C   UNL d   1       8.778   3.983 -13.950  0.00  0.00     0.137 C 
ATOM      3  C   UNL d   1       9.147   4.235 -12.479  0.00  0.00     0.274 C 
ATOM      4  N   UNL d   1       8.117   5.071 -11.838  0.00  0.00     0.141 N 
ATOM      5  C   UNL d   1       6.818   4.388 -11.870  0.00  0.00     0.274 C 
ATOM      6  C   UNL d   1       6.399   4.152 -13.327  0.00  0.00     0.137 C 
ENDROOT
BRANCH   4   7
ATOM      7  C   UNL d   1       8.448   5.329 -10.434  0.00  0.00     0.251 C 
BRANCH   7   8
ATOM      8  C   UNL d   1       9.597   6.342 -10.297  0.00  0.00     0.037 C 
BRANCH   8   9
ATOM      9  C   UNL d   1      10.021   6.594  -8.847  0.00  0.00     0.029 C 
BRANCH   9  10
ATOM     10  C   UNL d   1       8.964   7.400  -8.050  0.00  0.00     0.131 C 
BRANCH  10  11
ATOM     11  N   UNL d   1       9.381   7.794  -6.714  0.00  0.00    -0.212 NA
ATOM     12  C   UNL d   1      10.639   8.321  -6.423  0.00  0.00     0.383 C 
ATOM     13  O   UNL d   1      11.539   8.452  -7.238  0.00  0.00    -0.236 OA
BRANCH  12  14
ATOM     14  O   UNL d   1      10.714   8.661  -5.129  0.00  0.00    -0.289 OA
BRANCH  14  15
ATOM     15  C   UNL d   1      11.960   8.913  -4.448  0.00  0.00     0.103 C 
ATOM     16  C   UNL d   1      12.491   7.535  -3.999  0.00  0.00     0.030 C 
ATOM     17  C   UNL d   1      11.639   9.729  -3.181  0.00  0.00     0.030 C 
ATOM     18  C   UNL d   1      12.978   9.734  -5.297  0.00  0.00     0.030 C 
ENDBRANCH  14  15
ENDBRANCH  12  14
ENDBRANCH  10  11
ENDBRANCH   9  10
ENDBRANCH   8   9
ENDBRANCH   7   8
ENDBRANCH   4   7
BRANCH   1  19
ATOM     19  C   UNL d   1       7.190   2.197 -14.715  0.00  0.00     0.079 A 
ATOM     20  C   UNL d   1       6.379   1.209 -14.125  0.00  0.00     0.110 A 
ATOM     21  C   UNL d   1       6.120   0.004 -14.834  0.00  0.00     0.026 A 
ATOM     22  C   UNL d   1       6.653  -0.193 -16.115  0.00  0.00     0.002 A 
ATOM     23  C   UNL d   1       7.473   0.795 -16.692  0.00  0.00     0.002 A 
ATOM     24  C   UNL d   1       7.745   1.987 -15.983  0.00  0.00     0.019 A 
BRANCH  20  25
ATOM     25  O   UNL d   1       5.852   1.470 -12.873  0.00  0.00    -0.327 OA
ATOM     26  C   UNL d   1       5.458   0.385 -12.085  0.00  0.00     0.181 C 
ENDBRANCH  20  25
ENDBRANCH   1  19
TORSDOF 9
