REMARK  11 active torsions:
REMARK  status: ('A' for Active; 'I' for Inactive)
REMARK    1  A    between atoms: C_2  and  C_3 
REMARK    2  A    between atoms: C_3  and  N_4 
REMARK    3  A    between atoms: N_4  and  C_5 
REMARK    4  A    between atoms: N_4  and  C_22 
REMARK    5  A    between atoms: C_5  and  C_6 
REMARK    6  A    between atoms: C_6  and  C_7 
REMARK    7  A    between atoms: C_7  and  C_8 
REMARK    8  A    between atoms: C_8  and  N_9 
REMARK       I    between atoms: N_9  and  C_10 
REMARK    9  A    between atoms: C_10  and  C_12 
REMARK   10  A    between atoms: C_22  and  C_23 
REMARK   11  A    between atoms: C_25  and  C_26 
ROOT
ATOM      1  C   UNL d   1       9.688   3.656 -13.412  0.00  0.00     0.250 C 
ENDROOT
BRANCH   1   2
ATOM      2  N   UNL d   1       9.964   3.801 -14.851  0.00  0.00     0.137 N 
BRANCH   2   3
ATOM      3  C   UNL d   1      11.302   4.368 -15.022  0.00  0.00     0.250 C 
BRANCH   3   4
ATOM      4  C   UNL d   1      11.683   4.736 -16.480  0.00  0.00     0.035 C 
ATOM      5  C   UNL d   1      10.886   5.932 -17.018  0.00  0.00     0.002 C 
ENDBRANCH   3   4
ENDBRANCH   2   3
BRANCH   2   6
ATOM      6  C   UNL d   1       9.858   2.495 -15.500  0.00  0.00     0.251 C 
BRANCH   6   7
ATOM      7  C   UNL d   1       8.411   2.218 -15.873  0.00  0.00     0.038 A 
ATOM      8  C   UNL d   1       8.060   0.832 -16.349  0.00  0.00     0.024 A 
ATOM      9  C   UNL d   1       8.066   1.974 -17.332  0.00  0.00     0.007 A 
BRANCH   8  10
ATOM     10  C   UNL d   1       6.803   0.190 -15.943  0.00  0.00    -0.020 A 
ATOM     11  C   UNL d   1       6.333   0.357 -14.626  0.00  0.00     0.025 A 
ATOM     12  C   UNL d   1       5.112  -0.189 -14.251  0.00  0.00     0.140 A 
ATOM     13  C   UNL d   1       4.357  -0.959 -15.165  0.00  0.00     0.030 A 
ATOM     14  F   UNL d   1       4.657   0.084 -13.008  0.00  0.00    -0.204 F 
ATOM     15  C   UNL d   1       4.846  -1.161 -16.473  0.00  0.00     0.002 A 
ATOM     16  C   UNL d   1       6.064  -0.583 -16.861  0.00  0.00    -0.004 A 
ENDBRANCH   8  10
ENDBRANCH   6   7
ENDBRANCH   2   6
ENDBRANCH   1   2
BRANCH   1  17
ATOM     17  C   UNL d   1       9.008   4.892 -12.775  0.00  0.00     0.037 C 
BRANCH  17  18
ATOM     18  C   UNL d   1       9.626   5.298 -11.437  0.00  0.00     0.029 C 
BRANCH  18  19
ATOM     19  C   UNL d   1       8.759   6.211 -10.588  0.00  0.00     0.129 C 
BRANCH  19  20
ATOM     20  N   UNL d   1       9.523   6.658  -9.433  0.00  0.00    -0.234 NA
ATOM     21  C   UNL d   1      10.115   7.856  -9.286  0.00  0.00     0.275 C 
ATOM     22  O   UNL d   1      10.170   8.698 -10.180  0.00  0.00    -0.266 OA
BRANCH  21  23
ATOM     23  C   UNL d   1      10.683   8.130  -7.917  0.00  0.00     0.058 A 
ATOM     24  C   UNL d   1      10.618   7.205  -6.843  0.00  0.00     0.005 A 
ATOM     25  C   UNL d   1      11.170   7.537  -5.597  0.00  0.00     0.000 A 
ATOM     26  C   UNL d   1      11.773   8.796  -5.360  0.00  0.00     0.000 A 
ATOM     27  C   UNL d   1      11.160   6.575  -4.579  0.00  0.00     0.000 A 
ATOM     28  C   UNL d   1      11.834   9.718  -6.412  0.00  0.00     0.000 A 
ATOM     29  C   UNL d   1      12.347   9.059  -4.095  0.00  0.00     0.000 A 
ATOM     30  C   UNL d   1      11.310   9.366  -7.674  0.00  0.00     0.005 A 
ATOM     31  C   UNL d   1      12.316   8.087  -3.079  0.00  0.00     0.000 A 
ATOM     32  C   UNL d   1      11.734   6.842  -3.320  0.00  0.00     0.000 A 
ENDBRANCH  21  23
ENDBRANCH  19  20
ENDBRANCH  18  19
ENDBRANCH  17  18
ENDBRANCH   1  17
TORSDOF 11
