REMARK  4 active torsions:
REMARK  status: ('A' for Active; 'I' for Inactive)
REMARK    1  A    between atoms: S_2  and  C_4 
REMARK    2  A    between atoms: S_2  and  N_10 
REMARK    3  A    between atoms: C_16  and  N_17 
REMARK    4  A    between atoms: N_20  and  C_21 
ROOT
ATOM      1  N   UNL d   1      10.093   3.361 -14.253  0.00  0.00    -0.266 N 
ATOM      2  C   UNL d   1       8.678   3.192 -14.636  0.00  0.00     0.140 C 
ATOM      3  C   UNL d   1       7.928   4.019 -13.647  0.00  0.00    -0.000 A 
ATOM      4  C   UNL d   1       6.564   4.329 -13.634  0.00  0.00    -0.003 A 
ATOM      5  C   UNL d   1       6.099   5.156 -12.586  0.00  0.00     0.001 A 
ATOM      6  C   UNL d   1       6.982   5.593 -11.582  0.00  0.00     0.017 A 
ATOM      7  C   UNL d   1       8.337   5.233 -11.584  0.00  0.00     0.054 A 
ATOM      8  C   UNL d   1       8.786   4.468 -12.666  0.00  0.00     0.014 A 
ATOM      9  C   UNL d   1      10.155   3.963 -12.911  0.00  0.00     0.141 C 
ENDROOT
BRANCH   7  10
ATOM     10  N   UNL d   1       9.206   5.661 -10.576  0.00  0.00    -0.344 N 
ATOM     11  C   UNL d   1       9.263   5.018  -9.273  0.00  0.00     0.137 C 
ATOM     12  C   UNL d   1       9.173   6.100  -8.187  0.00  0.00     0.274 C 
ATOM     13  N   UNL d   1      10.232   7.105  -8.396  0.00  0.00     0.139 N 
ATOM     14  C   UNL d   1      10.015   7.810  -9.662  0.00  0.00     0.274 C 
ATOM     15  C   UNL d   1      10.096   6.787 -10.798  0.00  0.00     0.137 C 
BRANCH  13  16
ATOM     16  C   UNL d   1      10.218   8.075  -7.304  0.00  0.00     0.220 C 
ATOM     17  C   UNL d   1      10.534   7.628  -5.877  0.00  0.00     0.033 C 
ATOM     18  C   UNL d   1      11.263   8.955  -5.656  0.00  0.00     0.004 C 
ATOM     19  C   UNL d   1      11.360   9.087  -7.175  0.00  0.00     0.033 C 
ENDBRANCH  13  16
ENDBRANCH   7  10
BRANCH   1  20
ATOM     20  S   UNL d   1      11.251   3.837 -15.445  0.00  0.00     0.265 S 
ATOM     21  O   UNL d   1      12.537   3.993 -14.747  0.00  0.00    -0.200 OA
ATOM     22  O   UNL d   1      10.684   4.969 -16.193  0.00  0.00    -0.200 OA
BRANCH  20  23
ATOM     23  C   UNL d   1      11.360   2.404 -16.525  0.00  0.00     0.103 A 
ATOM     24  C   UNL d   1      12.116   2.495 -17.711  0.00  0.00     0.013 A 
ATOM     25  C   UNL d   1      12.178   1.385 -18.584  0.00  0.00     0.001 A 
ATOM     26  C   UNL d   1      11.473   0.199 -18.283  0.00  0.00     0.000 A 
ATOM     27  C   UNL d   1      10.715   0.117 -17.102  0.00  0.00     0.001 A 
ATOM     28  C   UNL d   1      10.682   1.202 -16.213  0.00  0.00     0.013 A 
ENDBRANCH  20  23
ENDBRANCH   1  20
TORSDOF 4
