REMARK  8 active torsions:
REMARK  status: ('A' for Active; 'I' for Inactive)
REMARK    1  A    between atoms: O_2  and  C_3 
REMARK    2  A    between atoms: C_7  and  C_8 
REMARK       I    between atoms: C_8  and  N_10 
REMARK    3  A    between atoms: N_10  and  C_11 
REMARK    4  A    between atoms: C_11  and  C_12 
REMARK    5  A    between atoms: C_12  and  C_13 
REMARK    6  A    between atoms: C_13  and  C_14 
REMARK    7  A    between atoms: C_14  and  N_15 
REMARK    8  A    between atoms: N_18  and  C_19 
ROOT
ATOM      1  N   UNL d   1       9.325   2.624 -15.323  0.00  0.00     0.141 N 
ATOM      2  C   UNL d   1       7.997   2.035 -15.131  0.00  0.00     0.274 C 
ATOM      3  C   UNL d   1       7.822   0.762 -15.940  0.00  0.00     0.138 C 
ATOM      4  N   UNL d   1       8.079   1.015 -17.344  0.00  0.00    -0.328 N 
ATOM      5  C   UNL d   1       9.340   1.696 -17.633  0.00  0.00     0.138 C 
ATOM      6  C   UNL d   1       9.488   2.956 -16.747  0.00  0.00     0.274 C 
ENDROOT
BRANCH   1   7
ATOM      7  C   UNL d   1       9.491   3.842 -14.522  0.00  0.00     0.251 C 
BRANCH   7   8
ATOM      8  C   UNL d   1       8.943   3.710 -13.084  0.00  0.00     0.037 C 
BRANCH   8   9
ATOM      9  C   UNL d   1       9.162   4.945 -12.223  0.00  0.00     0.029 C 
BRANCH   9  10
ATOM     10  C   UNL d   1       8.192   4.980 -11.026  0.00  0.00     0.129 C 
BRANCH  10  11
ATOM     11  N   UNL d   1       8.635   5.992 -10.099  0.00  0.00    -0.234 NA
ATOM     12  C   UNL d   1       9.349   5.755  -9.001  0.00  0.00     0.275 C 
ATOM     13  O   UNL d   1       9.463   4.638  -8.503  0.00  0.00    -0.266 OA
BRANCH  12  14
ATOM     14  C   UNL d   1      10.012   6.952  -8.400  0.00  0.00     0.059 A 
ATOM     15  C   UNL d   1      10.362   8.071  -9.186  0.00  0.00     0.005 A 
ATOM     16  C   UNL d   1      11.043   9.154  -8.600  0.00  0.00     0.002 A 
ATOM     17  C   UNL d   1      11.379   9.125  -7.231  0.00  0.00     0.024 A 
ATOM     18  C   UNL d   1      11.057   8.005  -6.435  0.00  0.00     0.094 A 
ATOM     19  C   UNL d   1      10.373   6.920  -7.036  0.00  0.00     0.029 A 
BRANCH  18  20
ATOM     20  O   UNL d   1      11.441   8.003  -5.110  0.00  0.00    -0.328 OA
ATOM     21  C   UNL d   1      11.296   6.778  -4.398  0.00  0.00     0.181 C 
ENDBRANCH  18  20
ENDBRANCH  12  14
ENDBRANCH  10  11
ENDBRANCH   9  10
ENDBRANCH   8   9
ENDBRANCH   7   8
ENDBRANCH   1   7
BRANCH   4  22
ATOM     22  C   UNL d   1       7.162   0.670 -18.340  0.00  0.00     0.169 A 
ATOM     23  C   UNL d   1       6.120  -0.294 -18.257  0.00  0.00     0.061 A 
ATOM     24  C   UNL d   1       5.434  -0.303 -19.476  0.00  0.00     0.128 A 
ATOM     25  C   UNL d   1       5.715  -1.190 -17.238  0.00  0.00     0.005 A 
ATOM     26  O   UNL d   1       6.079   0.635 -20.268  0.00  0.00    -0.210 OA
ATOM     27  C   UNL d   1       4.342  -1.153 -19.735  0.00  0.00     0.027 A 
ATOM     28  N   UNL d   1       7.153   1.228 -19.547  0.00  0.00    -0.109 NA
ATOM     29  C   UNL d   1       3.915  -2.016 -18.702  0.00  0.00     0.002 A 
ATOM     30  C   UNL d   1       4.599  -2.027 -17.465  0.00  0.00     0.000 A 
ENDBRANCH   4  22
TORSDOF 8
