REMARK  8 active torsions:
REMARK  status: ('A' for Active; 'I' for Inactive)
REMARK    1  A    between atoms: O_2  and  C_3 
REMARK    2  A    between atoms: C_9  and  C_10 
REMARK    3  A    between atoms: N_14  and  C_15 
REMARK    4  A    between atoms: C_15  and  C_16 
REMARK    5  A    between atoms: C_16  and  C_17 
REMARK    6  A    between atoms: C_17  and  C_18 
REMARK    7  A    between atoms: C_18  and  N_19 
REMARK    8  A    between atoms: C_22  and  C_23 
ROOT
ATOM      1  C   UNL d   1       9.727   3.780 -13.174  0.00  0.00     0.112 C 
ENDROOT
BRANCH   1   2
ATOM      2  N   UNL d   1      10.325   3.614 -14.503  0.00  0.00    -0.270 N 
ATOM      3  C   UNL d   1       9.742   2.939 -15.506  0.00  0.00     0.240 A 
ATOM      4  C   UNL d   1      10.627   2.928 -16.746  0.00  0.00     0.102 A 
ATOM      5  O   UNL d   1       8.639   2.392 -15.479  0.00  0.00    -0.272 OA
ATOM      6  C   UNL d   1      11.847   3.768 -16.314  0.00  0.00     0.113 A 
ATOM      7  C   UNL d   1      11.518   4.098 -14.861  0.00  0.00     0.243 A 
ATOM      8  O   UNL d   1      12.286   4.722 -14.122  0.00  0.00    -0.272 OA
BRANCH   6   9
ATOM      9  C   UNL d   1      12.060   5.027 -17.127  0.00  0.00     0.007 A 
ATOM     10  C   UNL d   1      11.073   5.788 -17.716  0.00  0.00     0.095 A 
ATOM     11  N   UNL d   1      11.652   6.826 -18.409  0.00  0.00    -0.244 NA
ATOM     12  C   UNL d   1      13.011   6.798 -18.264  0.00  0.00     0.081 A 
ATOM     13  C   UNL d   1      13.995   7.654 -18.770  0.00  0.00     0.021 A 
ATOM     14  C   UNL d   1      13.322   5.666 -17.459  0.00  0.00     0.018 A 
ATOM     15  C   UNL d   1      15.344   7.398 -18.487  0.00  0.00     0.026 A 
ATOM     16  C   UNL d   1      15.718   6.278 -17.686  0.00  0.00     0.094 A 
ATOM     17  C   UNL d   1      14.693   5.433 -17.190  0.00  0.00     0.025 A 
BRANCH  16  18
ATOM     18  O   UNL d   1      17.021   5.962 -17.361  0.00  0.00    -0.328 OA
ATOM     19  C   UNL d   1      18.043   6.790 -17.915  0.00  0.00     0.181 C 
ENDBRANCH  16  18
ENDBRANCH   6   9
ENDBRANCH   1   2
BRANCH   1  20
ATOM     20  C   UNL d   1       8.580   4.824 -13.150  0.00  0.00     0.027 C 
BRANCH  20  21
ATOM     21  C   UNL d   1       8.750   5.878 -12.048  0.00  0.00     0.037 C 
BRANCH  21  22
ATOM     22  C   UNL d   1       8.675   5.292 -10.621  0.00  0.00     0.250 C 
BRANCH  22  23
ATOM     23  N   UNL d   1       9.085   6.249  -9.589  0.00  0.00     0.137 N 
ATOM     24  C   UNL d   1       8.733   5.725  -8.268  0.00  0.00     0.251 C 
ATOM     25  C   UNL d   1       9.063   6.753  -7.165  0.00  0.00     0.040 C 
ATOM     26  C   UNL d   1      10.550   7.131  -7.195  0.00  0.00     0.028 C 
ATOM     27  C   UNL d   1      10.923   7.571  -8.613  0.00  0.00     0.040 C 
ATOM     28  C   UNL d   1      10.524   6.515  -9.637  0.00  0.00     0.251 C 
BRANCH  26  29
ATOM     29  C   UNL d   1      10.866   8.202  -6.186  0.00  0.00    -0.002 A 
ATOM     30  C   UNL d   1      11.404   8.045  -4.872  0.00  0.00     0.017 A 
ATOM     31  C   UNL d   1      11.509   9.339  -4.284  0.00  0.00     0.081 A 
ATOM     32  C   UNL d   1      11.797   6.937  -4.084  0.00  0.00     0.031 A 
ATOM     33  N   UNL d   1      11.060  10.226  -5.240  0.00  0.00    -0.244 NA
ATOM     34  C   UNL d   1      11.983   9.525  -2.979  0.00  0.00     0.021 A 
ATOM     35  C   UNL d   1      10.674   9.543  -6.372  0.00  0.00     0.095 A 
ATOM     36  C   UNL d   1      12.380   8.405  -2.226  0.00  0.00     0.031 A 
ATOM     37  C   UNL d   1      12.278   7.116  -2.773  0.00  0.00     0.140 A 
ATOM     38  F   UNL d   1      12.658   6.048  -2.040  0.00  0.00    -0.204 F 
ENDBRANCH  26  29
ENDBRANCH  22  23
ENDBRANCH  21  22
ENDBRANCH  20  21
ENDBRANCH   1  20
TORSDOF 8
