REMARK  6 active torsions:
REMARK  status: ('A' for Active; 'I' for Inactive)
REMARK    1  A    between atoms: C_2  and  C_3 
REMARK    2  A    between atoms: C_3  and  C_4 
REMARK    3  A    between atoms: C_4  and  N_5 
REMARK    4  A    between atoms: C_8  and  C_9 
REMARK    5  A    between atoms: C_9  and  O_10 
REMARK    6  A    between atoms: O_10  and  C_11 
ROOT
ATOM      1  N   UNL d   1       8.218   3.474 -14.450  0.00  0.00     0.137 N 
ATOM      2  C   UNL d   1       9.475   3.148 -13.789  0.00  0.00     0.250 C 
ATOM      3  C   UNL d   1       9.924   4.346 -12.973  0.00  0.00     0.038 C 
ATOM      4  C   UNL d   1       8.872   4.778 -11.930  0.00  0.00     0.034 C 
ATOM      5  C   UNL d   1       7.526   4.993 -12.625  0.00  0.00     0.038 C 
ATOM      6  C   UNL d   1       7.157   3.771 -13.478  0.00  0.00     0.250 C 
ENDROOT
BRANCH   4   7
ATOM      7  C   UNL d   1       9.333   6.018 -11.149  0.00  0.00     0.149 C 
BRANCH   7   8
ATOM      8  O   UNL d   1       8.939   5.992  -9.787  0.00  0.00    -0.331 OA
BRANCH   8   9
ATOM      9  C   UNL d   1       9.590   6.889  -8.965  0.00  0.00     0.094 A 
ATOM     10  C   UNL d   1       9.137   6.968  -7.635  0.00  0.00     0.025 A 
ATOM     11  C   UNL d   1       9.771   7.811  -6.699  0.00  0.00     0.009 A 
ATOM     12  C   UNL d   1      10.886   8.589  -7.090  0.00  0.00     0.035 A 
ATOM     13  C   UNL d   1      11.335   8.534  -8.417  0.00  0.00     0.009 A 
ATOM     14 BR   UNL d   1      11.755   9.738  -5.858  0.00  0.00    -0.049 Br
ATOM     15  C   UNL d   1      10.688   7.729  -9.361  0.00  0.00     0.025 A 
ENDBRANCH   8   9
ENDBRANCH   7   8
ENDBRANCH   4   7
BRANCH   1  16
ATOM     16  C   UNL d   1       7.788   2.377 -15.307  0.00  0.00     0.253 C 
BRANCH  16  17
ATOM     17  C   UNL d   1       8.645   2.264 -16.586  0.00  0.00     0.073 C 
BRANCH  17  18
ATOM     18  C   UNL d   1       8.154   1.143 -17.507  0.00  0.00     0.195 C 
ATOM     19  F   UNL d   1       6.951   1.436 -18.003  0.00  0.00    -0.234 F 
ENDBRANCH  17  18
ENDBRANCH  16  17
ENDBRANCH   1  16
TORSDOF 6
