REMARK  10 active torsions:
REMARK  status: ('A' for Active; 'I' for Inactive)
REMARK    1  A    between atoms: C_2  and  C_3 
REMARK    2  A    between atoms: C_3  and  N_4 
REMARK    3  A    between atoms: N_4  and  C_5 
REMARK    4  A    between atoms: N_4  and  C_24 
REMARK    5  A    between atoms: C_5  and  C_6 
REMARK    6  A    between atoms: C_6  and  C_7 
REMARK    7  A    between atoms: C_7  and  C_8 
REMARK    8  A    between atoms: C_8  and  N_9 
REMARK       I    between atoms: N_9  and  C_10 
REMARK    9  A    between atoms: C_10  and  C_12 
REMARK   10  A    between atoms: C_15  and  C_16 
ROOT
ATOM      1  C   UNL d   1       8.563   1.889 -16.239  0.00  0.00     0.224 C 
ATOM      2  C   UNL d   1       8.472   1.228 -17.632  0.00  0.00     0.038 C 
ATOM      3  C   UNL d   1       7.031   0.874 -17.991  0.00  0.00     0.029 C 
ATOM      4  C   UNL d   1       6.252   0.160 -16.885  0.00  0.00    -0.016 A 
ATOM      5  C   UNL d   1       5.049  -0.523 -17.174  0.00  0.00     0.064 A 
ATOM      6  C   UNL d   1       4.510  -0.569 -18.544  0.00  0.00     0.101 C 
ATOM      7  N   UNL d   1       4.101  -0.595 -19.614  0.00  0.00    -0.191 NA
ATOM      8  C   UNL d   1       4.330  -1.163 -16.143  0.00  0.00     0.010 A 
ATOM      9  C   UNL d   1       4.800  -1.110 -14.825  0.00  0.00     0.000 A 
ATOM     10  C   UNL d   1       5.996  -0.434 -14.522  0.00  0.00    -0.004 A 
ATOM     11  C   UNL d   1       6.722   0.197 -15.546  0.00  0.00    -0.024 A 
ATOM     12  C   UNL d   1       8.029   0.878 -15.189  0.00  0.00     0.059 C 
ENDROOT
BRANCH   1  13
ATOM     13  N   UNL d   1       9.934   2.352 -15.932  0.00  0.00     0.135 N 
BRANCH  13  14
ATOM     14  C   UNL d   1      10.376   3.447 -16.814  0.00  0.00     0.250 C 
BRANCH  14  15
ATOM     15  C   UNL d   1      11.891   3.725 -16.728  0.00  0.00     0.035 C 
ATOM     16  C   UNL d   1      12.695   2.598 -17.380  0.00  0.00     0.002 C 
ENDBRANCH  14  15
ENDBRANCH  13  14
BRANCH  13  17
ATOM     17  C   UNL d   1      10.127   2.678 -14.509  0.00  0.00     0.250 C 
BRANCH  17  18
ATOM     18  C   UNL d   1       9.236   3.846 -14.035  0.00  0.00     0.037 C 
BRANCH  18  19
ATOM     19  C   UNL d   1       9.592   4.293 -12.632  0.00  0.00     0.029 C 
BRANCH  19  20
ATOM     20  C   UNL d   1       8.726   5.479 -12.195  0.00  0.00     0.129 C 
BRANCH  20  21
ATOM     21  N   UNL d   1       9.143   5.947 -10.884  0.00  0.00    -0.234 NA
ATOM     22  C   UNL d   1       9.563   7.189 -10.594  0.00  0.00     0.275 C 
ATOM     23  O   UNL d   1       9.624   8.099 -11.423  0.00  0.00    -0.266 OA
BRANCH  22  24
ATOM     24  C   UNL d   1      10.037   7.396  -9.184  0.00  0.00     0.058 A 
ATOM     25  C   UNL d   1      11.069   8.319  -8.914  0.00  0.00     0.005 A 
ATOM     26  C   UNL d   1      11.504   8.537  -7.592  0.00  0.00     0.000 A 
ATOM     27  C   UNL d   1      10.918   7.844  -6.511  0.00  0.00     0.000 A 
ATOM     28  C   UNL d   1       9.875   6.933  -6.786  0.00  0.00     0.000 A 
ATOM     29  C   UNL d   1       9.433   6.712  -8.104  0.00  0.00     0.005 A 
BRANCH  27  30
ATOM     30  C   UNL d   1      11.383   8.070  -5.130  0.00  0.00     0.000 A 
ATOM     31  C   UNL d   1      11.449   9.375  -4.593  0.00  0.00     0.000 A 
ATOM     32  C   UNL d   1      11.867   9.584  -3.263  0.00  0.00     0.000 A 
ATOM     33  C   UNL d   1      12.259   8.493  -2.465  0.00  0.00     0.000 A 
ATOM     34  C   UNL d   1      12.201   7.188  -2.989  0.00  0.00     0.000 A 
ATOM     35  C   UNL d   1      11.757   6.984  -4.310  0.00  0.00     0.000 A 
ENDBRANCH  27  30
ENDBRANCH  22  24
ENDBRANCH  20  21
ENDBRANCH  19  20
ENDBRANCH  18  19
ENDBRANCH  17  18
ENDBRANCH  13  17
ENDBRANCH   1  13
TORSDOF 10
