REMARK  7 active torsions:
REMARK  status: ('A' for Active; 'I' for Inactive)
REMARK    1  A    between atoms: C_2  and  C_3 
REMARK    2  A    between atoms: N_13  and  C_14 
REMARK    3  A    between atoms: C_14  and  C_15 
REMARK    4  A    between atoms: C_15  and  C_17 
REMARK    5  A    between atoms: C_17  and  N_18 
REMARK    6  A    between atoms: C_21  and  O_22 
REMARK    7  A    between atoms: O_22  and  C_23 
ROOT
ATOM      1  C   UNL d   1      10.467   6.185 -10.275  0.00  0.00     0.148 C 
ENDROOT
BRANCH   1   2
ATOM      2  N   UNL d   1      10.290   7.169  -9.240  0.00  0.00    -0.247 N 
ATOM      3  C   UNL d   1      10.549   8.478  -9.342  0.00  0.00     0.348 A 
ATOM      4  N   UNL d   1      10.260   9.057  -8.175  0.00  0.00    -0.209 NA
ATOM      5  O   UNL d   1      11.004   9.087 -10.315  0.00  0.00    -0.245 OA
ATOM      6  C   UNL d   1       9.850   8.077  -7.175  0.00  0.00     0.179 A 
ATOM      7  C   UNL d   1       8.434   8.273  -6.741  0.00  0.00     0.039 C 
ATOM      8  C   UNL d   1       9.869   6.831  -8.019  0.00  0.00     0.265 A 
ATOM      9  O   UNL d   1       9.461   5.735  -7.650  0.00  0.00    -0.269 OA
BRANCH   6  10
ATOM     10  C   UNL d   1      10.781   8.030  -5.982  0.00  0.00     0.006 A 
ATOM     11  C   UNL d   1      11.511   9.191  -5.616  0.00  0.00     0.000 A 
ATOM     12  C   UNL d   1      12.348   9.151  -4.487  0.00  0.00     0.029 A 
ATOM     13  C   UNL d   1      12.420   7.983  -3.715  0.00  0.00     0.140 A 
ATOM     14  C   UNL d   1      11.709   6.830  -4.079  0.00  0.00     0.029 A 
ATOM     15  F   UNL d   1      13.152   7.977  -2.600  0.00  0.00    -0.204 F 
ATOM     16  C   UNL d   1      10.870   6.865  -5.190  0.00  0.00     0.000 A 
ENDBRANCH   6  10
ENDBRANCH   1   2
BRANCH   1  17
ATOM     17  C   UNL d   1       9.338   6.114 -11.319  0.00  0.00     0.208 C 
ATOM     18  O   UNL d   1       8.129   5.869 -10.637  0.00  0.00    -0.219 OA
BRANCH  17  19
ATOM     19  C   UNL d   1       9.460   4.885 -12.238  0.00  0.00     0.285 C 
BRANCH  19  20
ATOM     20  N   UNL d   1      10.241   5.063 -13.471  0.00  0.00     0.140 N 
ATOM     21  C   UNL d   1      11.219   3.987 -13.646  0.00  0.00     0.253 C 
ATOM     22  C   UNL d   1      12.164   4.228 -14.797  0.00  0.00     0.066 C 
ATOM     23  C   UNL d   1      11.362   4.355 -16.095  0.00  0.00     0.125 C 
ATOM     24  C   UNL d   1      10.144   5.294 -15.993  0.00  0.00     0.066 C 
ATOM     25  C   UNL d   1       9.374   5.074 -14.652  0.00  0.00     0.253 C 
BRANCH  23  26
ATOM     26  O   UNL d   1      12.227   4.701 -17.173  0.00  0.00    -0.333 OA
BRANCH  26  27
ATOM     27  C   UNL d   1      12.917   5.903 -17.227  0.00  0.00     0.094 A 
ATOM     28  C   UNL d   1      12.849   6.980 -16.290  0.00  0.00     0.024 A 
ATOM     29  C   UNL d   1      13.488   8.192 -16.552  0.00  0.00     0.002 A 
ATOM     30  C   UNL d   1      14.310   8.328 -17.693  0.00  0.00     0.000 A 
ATOM     31  C   UNL d   1      14.452   7.247 -18.580  0.00  0.00     0.002 A 
ATOM     32  C   UNL d   1      13.736   6.051 -18.361  0.00  0.00     0.024 A 
ENDBRANCH  26  27
ENDBRANCH  23  26
ENDBRANCH  19  20
ENDBRANCH  17  19
ENDBRANCH   1  17
TORSDOF 7
