REMARK  3 active torsions:
REMARK  status: ('A' for Active; 'I' for Inactive)
REMARK    1  A    between atoms: C_3  and  C_4 
REMARK    2  A    between atoms: N_16  and  C_17 
REMARK    3  A    between atoms: C_17  and  C_18 
ROOT
ATOM      1  O   UNL d   1       9.945   3.433 -12.923  0.00  0.00    -0.289 OA
ATOM      2  C   UNL d   1       8.848   3.986 -12.805  0.00  0.00     0.200 A 
ATOM      3  C   UNL d   1       7.607   3.716 -13.500  0.00  0.00     0.061 A 
ATOM      4  C   UNL d   1       6.699   4.537 -12.981  0.00  0.00     0.119 A 
ATOM      5  O   UNL d   1       7.176   5.364 -12.010  0.00  0.00    -0.326 OA
ATOM      6  C   UNL d   1       8.576   5.130 -11.842  0.00  0.00     0.157 A 
ATOM      7  C   UNL d   1       8.907   4.793 -10.390  0.00  0.00     0.071 C 
ATOM      8  C   UNL d   1       8.790   6.007  -9.485  0.00  0.00     0.253 C 
ATOM      9  N   UNL d   1       9.729   7.060  -9.919  0.00  0.00     0.137 N 
ATOM     10  C   UNL d   1       9.331   7.503 -11.266  0.00  0.00     0.253 C 
ATOM     11  C   UNL d   1       9.412   6.340 -12.252  0.00  0.00     0.071 C 
ENDROOT
BRANCH   3  12
ATOM     12  C   UNL d   1       7.388   2.581 -14.426  0.00  0.00     0.005 A 
ATOM     13  C   UNL d   1       8.318   2.378 -15.467  0.00  0.00     0.003 A 
ATOM     14  C   UNL d   1       8.092   1.361 -16.415  0.00  0.00     0.030 A 
ATOM     15  C   UNL d   1       6.960   0.536 -16.296  0.00  0.00     0.140 A 
ATOM     16  C   UNL d   1       6.068   0.704 -15.233  0.00  0.00     0.030 A 
ATOM     17  F   UNL d   1       6.736  -0.401 -17.231  0.00  0.00    -0.204 F 
ATOM     18  C   UNL d   1       6.269   1.726 -14.287  0.00  0.00     0.003 A 
ENDBRANCH   3  12
BRANCH   9  19
ATOM     19  C   UNL d   1       9.658   8.201  -8.989  0.00  0.00     0.250 C 
BRANCH  19  20
ATOM     20  C   UNL d   1      10.742   8.094  -7.886  0.00  0.00     0.033 C 
ATOM     21  C   UNL d   1      11.057   9.464  -7.265  0.00  0.00     0.002 C 
ATOM     22  C   UNL d   1      12.112   9.373  -6.152  0.00  0.00     0.000 C 
ATOM     23  C   UNL d   1      11.707   8.351  -5.064  0.00  0.00     0.000 C 
ATOM     24  C   UNL d   1      11.376   6.994  -5.671  0.00  0.00     0.000 C 
ATOM     25  C   UNL d   1      10.331   7.106  -6.765  0.00  0.00     0.002 C 
ENDBRANCH  19  20
ENDBRANCH   9  19
TORSDOF 3
