REMARK  8 active torsions:
REMARK  status: ('A' for Active; 'I' for Inactive)
REMARK    1  A    between atoms: C_4  and  C_5 
REMARK    2  A    between atoms: C_8  and  S_9 
REMARK    3  A    between atoms: S_9  and  C_10 
REMARK    4  A    between atoms: C_10  and  C_11 
REMARK    5  A    between atoms: C_11  and  C_12 
REMARK    6  A    between atoms: C_12  and  N_13 
REMARK    7  A    between atoms: N_18  and  C_19 
REMARK    8  A    between atoms: C_22  and  C_23 
ROOT
ATOM      1  N   UNL d   1      10.308   3.892 -14.636  0.00  0.00     0.139 N 
ATOM      2  C   UNL d   1       8.883   3.672 -14.909  0.00  0.00     0.252 C 
ATOM      3  C   UNL d   1       8.163   4.675 -14.010  0.00  0.00     0.058 C 
ATOM      4  C   UNL d   1       6.957   4.154 -13.226  0.00  0.00     0.028 C 
ATOM      5  C   UNL d   1       7.124   4.819 -11.849  0.00  0.00     0.102 C 
ATOM      6  N   UNL d   1       8.562   4.951 -11.669  0.00  0.00    -0.348 N 
ATOM      7  C   UNL d   1       9.186   5.072 -12.978  0.00  0.00     0.117 C 
ATOM      8  C   UNL d   1      10.329   4.083 -13.190  0.00  0.00     0.272 C 
ENDROOT
BRANCH   1   9
ATOM      9  C   UNL d   1      11.144   2.759 -15.026  0.00  0.00     0.251 C 
BRANCH   9  10
ATOM     10  C   UNL d   1      11.106   2.538 -16.548  0.00  0.00     0.047 C 
BRANCH  10  11
ATOM     11  C   UNL d   1      11.732   1.203 -16.968  0.00  0.00     0.067 C 
BRANCH  11  12
ATOM     12  S   UNL d   1      11.606   0.880 -18.758  0.00  0.00    -0.075 SA
BRANCH  12  13
ATOM     13  C   UNL d   1       9.857   1.014 -18.948  0.00  0.00     0.193 A 
ATOM     14  N   UNL d   1       9.270   2.089 -19.474  0.00  0.00    -0.122 NA
ATOM     15  N   UNL d   1       7.921   1.855 -19.372  0.00  0.00    -0.128 NA
ATOM     16  C   UNL d   1       7.794   0.644 -18.819  0.00  0.00     0.170 A 
ATOM     17  N   UNL d   1       8.987   0.068 -18.540  0.00  0.00    -0.289 N 
ATOM     18  C   UNL d   1       9.268  -1.229 -17.951  0.00  0.00     0.134 C 
BRANCH  16  19
ATOM     19  C   UNL d   1       6.476   0.071 -18.575  0.00  0.00     0.076 A 
ATOM     20  C   UNL d   1       6.097  -0.842 -17.633  0.00  0.00     0.100 A 
ATOM     21  N   UNL d   1       4.748  -1.056 -17.829  0.00  0.00    -0.247 N 
ATOM     22  C   UNL d   1       3.860  -1.928 -17.095  0.00  0.00     0.154 C 
ATOM     23  N   UNL d   1       4.258  -0.324 -18.855  0.00  0.00    -0.168 NA
ATOM     24  C   UNL d   1       5.294   0.366 -19.307  0.00  0.00     0.125 A 
ENDBRANCH  16  19
ENDBRANCH  12  13
ENDBRANCH  11  12
ENDBRANCH  10  11
ENDBRANCH   9  10
ENDBRANCH   1   9
BRANCH   6  25
ATOM     25  C   UNL d   1       9.026   5.686 -10.559  0.00  0.00     0.056 A 
ATOM     26  C   UNL d   1       9.856   6.821 -10.694  0.00  0.00     0.017 A 
ATOM     27  C   UNL d   1      10.335   7.515  -9.567  0.00  0.00     0.005 A 
ATOM     28  C   UNL d   1       9.981   7.096  -8.269  0.00  0.00     0.072 A 
ATOM     29  C   UNL d   1       9.123   5.989  -8.126  0.00  0.00     0.005 A 
ATOM     30  C   UNL d   1       8.664   5.278  -9.256  0.00  0.00     0.017 A 
BRANCH  28  31
ATOM     31  C   UNL d   1      10.505   7.835  -7.043  0.00  0.00     0.419 C 
ATOM     32  F   UNL d   1      10.910   6.970  -6.108  0.00  0.00    -0.166 F 
ATOM     33  F   UNL d   1      11.539   8.623  -7.347  0.00  0.00    -0.166 F 
ATOM     34  F   UNL d   1       9.531   8.587  -6.537  0.00  0.00    -0.166 F 
ENDBRANCH  28  31
ENDBRANCH   6  25
TORSDOF 8
