REMARK  8 active torsions:
REMARK  status: ('A' for Active; 'I' for Inactive)
REMARK    1  A    between atoms: N_3  and  C_4 
REMARK    2  A    between atoms: C_4  and  C_5 
REMARK    3  A    between atoms: C_5  and  C_6 
REMARK    4  A    between atoms: C_6  and  C_7 
REMARK    5  A    between atoms: C_7  and  C_8 
REMARK    6  A    between atoms: C_8  and  C_9 
REMARK    7  A    between atoms: C_9  and  N_10 
REMARK    8  A    between atoms: N_13  and  C_14 
ROOT
ATOM      1  C   UNL d   1       7.503   4.605 -11.704  0.00  0.00     0.035 C 
ENDROOT
BRANCH   1   2
ATOM      2  C   UNL d   1       6.127   4.633 -12.388  0.00  0.00     0.002 C 
BRANCH   2   3
ATOM      3  C   UNL d   1       5.673   3.232 -12.822  0.00  0.00     0.002 C 
BRANCH   3   4
ATOM      4  C   UNL d   1       6.493   2.698 -14.008  0.00  0.00     0.027 C 
BRANCH   4   5
ATOM      5  C   UNL d   1       6.268   1.206 -14.268  0.00  0.00     0.132 C 
BRANCH   5   6
ATOM      6  N   UNL d   1       7.136   0.729 -15.341  0.00  0.00    -0.201 N 
ATOM      7  C   UNL d   1       6.758   0.339 -16.565  0.00  0.00     0.352 A 
ATOM      8  O   UNL d   1       5.621   0.312 -17.036  0.00  0.00    -0.244 OA
ATOM      9  N   UNL d   1       7.895   0.006 -17.158  0.00  0.00    -0.241 N 
ATOM     10  C   UNL d   1       8.928   0.212 -16.260  0.00  0.00     0.171 A 
ATOM     11  C   UNL d   1       8.068  -0.504 -18.451  0.00  0.00     0.086 A 
ATOM     12  N   UNL d   1       8.483   0.659 -15.133  0.00  0.00    -0.147 NA
ATOM     13  C   UNL d   1      10.262  -0.119 -16.729  0.00  0.00     0.039 A 
ATOM     14  C   UNL d   1      10.433  -0.609 -17.982  0.00  0.00     0.005 A 
ATOM     15  C   UNL d   1       9.305  -0.811 -18.880  0.00  0.00     0.019 A 
ENDBRANCH   5   6
ENDBRANCH   4   5
ENDBRANCH   3   4
ENDBRANCH   2   3
ENDBRANCH   1   2
BRANCH   1  16
ATOM     16  C   UNL d   1       8.105   6.007 -11.538  0.00  0.00     0.250 C 
BRANCH  16  17
ATOM     17  N   UNL d   1       9.242   6.024 -10.614  0.00  0.00     0.141 N 
ATOM     18  C   UNL d   1       8.793   5.734  -9.243  0.00  0.00     0.274 C 
ATOM     19  C   UNL d   1       9.973   5.743  -8.278  0.00  0.00     0.137 C 
ATOM     20  N   UNL d   1      10.659   7.024  -8.334  0.00  0.00    -0.344 N 
ATOM     21  C   UNL d   1      11.041   7.459  -9.677  0.00  0.00     0.137 C 
ATOM     22  C   UNL d   1       9.825   7.378 -10.624  0.00  0.00     0.274 C 
BRANCH  20  23
ATOM     23  C   UNL d   1      10.914   7.758  -7.175  0.00  0.00     0.057 A 
ATOM     24  C   UNL d   1      11.207   7.101  -5.953  0.00  0.00     0.028 A 
ATOM     25  C   UNL d   1      11.460   7.837  -4.783  0.00  0.00     0.059 A 
ATOM     26  C   UNL d   1      11.415   9.241  -4.808  0.00  0.00     0.011 A 
ATOM     27 CL   UNL d   1      11.865   7.014  -3.324  0.00  0.00    -0.082 Cl
ATOM     28  C   UNL d   1      11.115   9.909  -6.008  0.00  0.00     0.002 A 
ATOM     29  C   UNL d   1      10.870   9.172  -7.183  0.00  0.00     0.017 A 
ENDBRANCH  20  23
ENDBRANCH  16  17
ENDBRANCH   1  16
TORSDOF 8
