REMARK  6 active torsions:
REMARK  status: ('A' for Active; 'I' for Inactive)
REMARK    1  A    between atoms: N_13  and  C_14 
REMARK    2  A    between atoms: C_14  and  C_15 
REMARK    3  A    between atoms: C_15  and  C_16 
REMARK    4  A    between atoms: C_16  and  C_17 
REMARK    5  A    between atoms: C_17  and  N_18 
REMARK    6  A    between atoms: N_21  and  C_22 
ROOT
ATOM      1  C   UNL d   1       9.552   5.907 -12.193  0.00  0.00     0.037 C 
ENDROOT
BRANCH   1   2
ATOM      2  C   UNL d   1      10.169   6.402 -10.858  0.00  0.00     0.027 C 
BRANCH   2   3
ATOM      3  C   UNL d   1       9.211   7.168 -10.003  0.00  0.00     0.112 C 
BRANCH   3   4
ATOM      4  N   UNL d   1       9.849   7.492  -8.737  0.00  0.00    -0.271 N 
ATOM      5  C   UNL d   1       9.901   6.615  -7.737  0.00  0.00     0.239 C 
ATOM      6  O   UNL d   1       9.357   5.533  -7.742  0.00  0.00    -0.272 OA
ATOM      7  C   UNL d   1      10.830   7.139  -6.655  0.00  0.00     0.091 C 
ATOM      8  C   UNL d   1      10.709   8.635  -6.908  0.00  0.00     0.091 C 
ATOM      9  C   UNL d   1      10.625   6.842  -5.172  0.00  0.00     0.045 C 
ATOM     10  C   UNL d   1      11.907   9.344  -6.309  0.00  0.00     0.045 C 
ATOM     11  C   UNL d   1      10.451   8.652  -8.420  0.00  0.00     0.239 C 
ATOM     12  C   UNL d   1      11.866   9.077  -4.779  0.00  0.00     0.183 C 
ATOM     13  C   UNL d   1      11.725   7.579  -4.377  0.00  0.00     0.183 C 
ATOM     14  O   UNL d   1      13.048   9.548  -4.205  0.00  0.00    -0.221 OA
ATOM     15  O   UNL d   1      11.496   7.476  -2.989  0.00  0.00    -0.221 OA
ATOM     16  O   UNL d   1      10.748   9.578  -9.184  0.00  0.00    -0.272 OA
ENDBRANCH   3   4
ENDBRANCH   2   3
ENDBRANCH   1   2
BRANCH   1  17
ATOM     17  C   UNL d   1       8.483   4.847 -11.946  0.00  0.00     0.251 C 
BRANCH  17  18
ATOM     18  N   UNL d   1       7.968   4.316 -13.196  0.00  0.00     0.141 N 
ATOM     19  C   UNL d   1       8.858   3.245 -13.704  0.00  0.00     0.274 C 
ATOM     20  C   UNL d   1       8.293   2.618 -14.989  0.00  0.00     0.137 C 
ATOM     21  N   UNL d   1       6.920   2.213 -14.757  0.00  0.00    -0.344 N 
ATOM     22  C   UNL d   1       6.051   3.190 -14.124  0.00  0.00     0.137 C 
ATOM     23  C   UNL d   1       6.643   3.787 -12.885  0.00  0.00     0.274 C 
BRANCH  21  24
ATOM     24  C   UNL d   1       6.428   0.951 -15.143  0.00  0.00     0.057 A 
ATOM     25  C   UNL d   1       6.604   0.454 -16.471  0.00  0.00     0.022 A 
ATOM     26  C   UNL d   1       6.080  -0.847 -16.772  0.00  0.00     0.031 A 
ATOM     27  C   UNL d   1       7.222   1.052 -17.634  0.00  0.00     0.009 A 
ATOM     28  C   UNL d   1       5.420  -1.623 -15.808  0.00  0.00     0.007 A 
ATOM     29  S   UNL d   1       6.440  -1.316 -18.430  0.00  0.00    -0.086 SA
ATOM     30  C   UNL d   1       5.245  -1.099 -14.520  0.00  0.00     0.002 A 
ATOM     31  C   UNL d   1       5.729   0.180 -14.192  0.00  0.00     0.017 A 
ATOM     32  C   UNL d   1       7.212   0.208 -18.718  0.00  0.00     0.035 A 
ENDBRANCH  21  24
ENDBRANCH  17  18
ENDBRANCH   1  17
TORSDOF 6
