REMARK  7 active torsions:
REMARK  status: ('A' for Active; 'I' for Inactive)
REMARK    1  A    between atoms: O_2  and  C_3 
REMARK    2  A    between atoms: C_8  and  N_9 
REMARK    3  A    between atoms: N_12  and  C_13 
REMARK    4  A    between atoms: C_13  and  C_14 
REMARK    5  A    between atoms: C_14  and  C_15 
REMARK       I    between atoms: C_15  and  N_17 
REMARK    6  A    between atoms: N_17  and  C_18 
REMARK    7  A    between atoms: C_26  and  O_27 
ROOT
ATOM      1  C   UNL d   1       8.366   4.703 -14.066  0.00  0.00     0.125 C 
ENDROOT
BRANCH   1   2
ATOM      2  C   UNL d   1       8.239   3.178 -13.891  0.00  0.00     0.260 C 
BRANCH   2   3
ATOM      3  N   UNL d   1       8.167   2.471 -15.166  0.00  0.00     0.142 N 
ATOM      4  C   UNL d   1       8.848   1.170 -15.037  0.00  0.00     0.274 C 
ATOM      5  C   UNL d   1       8.774   0.395 -16.394  0.00  0.00     0.137 C 
ATOM      6  N   UNL d   1       7.404   0.336 -16.907  0.00  0.00    -0.343 N 
ATOM      7  C   UNL d   1       6.663   1.575 -16.920  0.00  0.00     0.137 C 
ATOM      8  C   UNL d   1       6.770   2.232 -15.539  0.00  0.00     0.274 C 
BRANCH   6   9
ATOM      9  C   UNL d   1       6.746  -0.861 -17.248  0.00  0.00     0.079 A 
ATOM     10  C   UNL d   1       5.684  -1.380 -16.447  0.00  0.00     0.110 A 
ATOM     11  C   UNL d   1       5.110  -2.620 -16.801  0.00  0.00     0.026 A 
ATOM     12  C   UNL d   1       5.558  -3.344 -17.919  0.00  0.00     0.002 A 
ATOM     13  C   UNL d   1       6.589  -2.825 -18.720  0.00  0.00     0.002 A 
ATOM     14  C   UNL d   1       7.188  -1.591 -18.373  0.00  0.00     0.019 A 
BRANCH  10  15
ATOM     15  O   UNL d   1       5.227  -0.786 -15.293  0.00  0.00    -0.327 OA
ATOM     16  C   UNL d   1       6.061  -0.959 -14.152  0.00  0.00     0.181 C 
ENDBRANCH  10  15
ENDBRANCH   6   9
ENDBRANCH   2   3
ENDBRANCH   1   2
BRANCH   1  17
ATOM     17  C   UNL d   1       9.418   5.276 -13.122  0.00  0.00     0.253 C 
ATOM     18  O   UNL d   1      10.576   4.872 -13.217  0.00  0.00    -0.271 OA
ATOM     19  N   UNL d   1       8.999   6.195 -12.229  0.00  0.00    -0.240 NA
BRANCH  19  20
ATOM     20  C   UNL d   1       9.746   6.723 -11.086  0.00  0.00     0.111 C 
ATOM     21  C   UNL d   1       9.206   6.167  -9.775  0.00  0.00     0.051 C 
ATOM     22  C   UNL d   1       9.767   6.872  -8.545  0.00  0.00    -0.022 A 
ATOM     23  C   UNL d   1      10.396   8.130  -8.589  0.00  0.00    -0.004 A 
ATOM     24  C   UNL d   1       9.576   6.232  -7.318  0.00  0.00    -0.004 A 
ATOM     25  C   UNL d   1      10.621   8.821  -9.930  0.00  0.00     0.030 C 
ATOM     26  C   UNL d   1      10.834   8.733  -7.377  0.00  0.00     0.090 A 
ATOM     27  C   UNL d   1       9.732   8.254 -11.064  0.00  0.00     0.029 C 
ATOM     28  C   UNL d   1      10.673   8.049  -6.143  0.00  0.00     0.024 A 
ATOM     29  C   UNL d   1      10.045   6.809  -6.122  0.00  0.00     0.002 A 
BRANCH  26  30
ATOM     30  O   UNL d   1      11.407   9.961  -7.436  0.00  0.00    -0.328 OA
ATOM     31  C   UNL d   1      11.992  10.523  -6.270  0.00  0.00     0.181 C 
ENDBRANCH  26  30
ENDBRANCH  19  20
ENDBRANCH   1  17
TORSDOF 7
