REMARK  8 active torsions:
REMARK  status: ('A' for Active; 'I' for Inactive)
REMARK    1  A    between atoms: C_6  and  C_7 
REMARK    2  A    between atoms: C_7  and  O_8 
REMARK    3  A    between atoms: C_7  and  C_26 
REMARK    4  A    between atoms: O_8  and  C_9 
REMARK    5  A    between atoms: N_16  and  C_17 
REMARK    6  A    between atoms: C_17  and  C_18 
REMARK    7  A    between atoms: C_18  and  C_19 
REMARK    8  A    between atoms: C_19  and  C_20 
ROOT
ATOM      1  C   UNL d   1       9.848   5.540 -13.760  0.00  0.00     0.120 C 
ATOM      2  C   UNL d   1       9.423   6.715 -12.797  0.00  0.00     0.063 C 
ATOM      3  C   UNL d   1       8.467   6.219 -11.717  0.00  0.00     0.222 C 
ATOM      4  C   UNL d   1       7.241   5.453 -12.268  0.00  0.00     0.035 C 
ATOM      5  C   UNL d   1       7.712   3.992 -12.292  0.00  0.00     0.035 C 
ATOM      6  C   UNL d   1       9.161   4.095 -11.793  0.00  0.00     0.222 C 
ATOM      7  C   UNL d   1      10.160   4.266 -12.925  0.00  0.00     0.063 C 
ATOM      8  N   UNL d   1       9.229   5.258 -10.924  0.00  0.00     0.133 N 
ENDROOT
BRANCH   1   9
ATOM      9  O   UNL d   1      11.043   5.741 -14.555  0.00  0.00    -0.350 OA
BRANCH   9  10
ATOM     10  C   UNL d   1      10.966   5.365 -15.932  0.00  0.00     0.160 C 
BRANCH  10  11
ATOM     11  C   UNL d   1      10.809   3.847 -16.130  0.00  0.00     0.010 A 
ATOM     12  C   UNL d   1      11.862   3.043 -16.656  0.00  0.00    -0.002 A 
ATOM     13  C   UNL d   1      11.771   1.649 -16.664  0.00  0.00     0.001 A 
ATOM     14  C   UNL d   1      10.609   0.996 -16.189  0.00  0.00     0.011 A 
ATOM     15  C   UNL d   1       9.526   1.783 -15.722  0.00  0.00     0.058 A 
ATOM     16 CL   UNL d   1       8.132   1.001 -15.063  0.00  0.00    -0.082 Cl
ATOM     17  C   UNL d   1       9.606   3.182 -15.742  0.00  0.00     0.010 A 
ENDBRANCH  10  11
BRANCH  10  18
ATOM     18  C   UNL d   1      12.173   5.946 -16.703  0.00  0.00     0.009 A 
ATOM     19  C   UNL d   1      11.996   6.805 -17.794  0.00  0.00    -0.002 A 
ATOM     20  C   UNL d   1      13.123   7.259 -18.542  0.00  0.00    -0.000 A 
ATOM     21  C   UNL d   1      14.405   6.823 -18.179  0.00  0.00    -0.000 A 
ATOM     22  C   UNL d   1      14.598   5.985 -17.080  0.00  0.00    -0.000 A 
ATOM     23  C   UNL d   1      13.474   5.587 -16.314  0.00  0.00    -0.002 A 
ENDBRANCH  10  18
ENDBRANCH   9  10
ENDBRANCH   1   9
BRANCH   8  24
ATOM     24  C   UNL d   1       8.620   5.044  -9.621  0.00  0.00     0.251 C 
BRANCH  24  25
ATOM     25  C   UNL d   1       8.974   6.202  -8.672  0.00  0.00     0.040 C 
BRANCH  25  26
ATOM     26  C   UNL d   1      10.465   6.214  -8.322  0.00  0.00     0.028 C 
BRANCH  26  27
ATOM     27  C   UNL d   1      10.823   7.305  -7.333  0.00  0.00    -0.022 A 
ATOM     28  C   UNL d   1      11.045   6.994  -5.976  0.00  0.00    -0.004 A 
ATOM     29  C   UNL d   1      11.384   8.002  -5.055  0.00  0.00    -0.000 A 
ATOM     30  C   UNL d   1      11.496   9.334  -5.487  0.00  0.00    -0.000 A 
ATOM     31  C   UNL d   1      11.280   9.647  -6.841  0.00  0.00    -0.000 A 
ATOM     32  C   UNL d   1      10.940   8.640  -7.767  0.00  0.00    -0.004 A 
ENDBRANCH  26  27
ENDBRANCH  25  26
ENDBRANCH  24  25
ENDBRANCH   8  24
TORSDOF 8
