REMARK  6 active torsions:
REMARK  status: ('A' for Active; 'I' for Inactive)
REMARK    1  A    between atoms: C_10  and  S_11 
REMARK    2  A    between atoms: S_11  and  C_12 
REMARK    3  A    between atoms: C_12  and  C_13 
REMARK    4  A    between atoms: C_13  and  C_14 
REMARK    5  A    between atoms: C_14  and  N_15 
REMARK    6  A    between atoms: C_21  and  C_22 
ROOT
ATOM      1  C   UNL d   1      16.511   0.881 -21.045  0.00  0.00     0.067 C 
ENDROOT
BRANCH   1   2
ATOM      2  S   UNL d   1      17.277   1.874 -22.379  0.00  0.00    -0.075 SA
BRANCH   2   3
ATOM      3  C   UNL d   1      17.084   3.544 -21.828  0.00  0.00     0.193 A 
ATOM      4  N   UNL d   1      16.086   4.003 -21.080  0.00  0.00    -0.122 NA
ATOM      5  N   UNL d   1      16.285   5.323 -20.891  0.00  0.00    -0.128 NA
ATOM      6  C   UNL d   1      17.405   5.589 -21.548  0.00  0.00     0.167 A 
ATOM      7  C   UNL d   1      17.930   6.935 -21.591  0.00  0.00     0.037 A 
ATOM      8  N   UNL d   1      17.945   4.520 -22.171  0.00  0.00    -0.289 N 
ATOM      9  C   UNL d   1      18.317   7.619 -20.404  0.00  0.00     0.021 A 
ATOM     10  C   UNL d   1      17.990   7.570 -22.840  0.00  0.00     0.003 A 
ATOM     11  C   UNL d   1      18.247   7.015 -19.128  0.00  0.00     0.003 A 
ATOM     12  C   UNL d   1      18.791   8.959 -20.494  0.00  0.00     0.081 A 
ATOM     13  C   UNL d   1      18.658   7.741 -17.993  0.00  0.00     0.015 A 
ATOM     14  C   UNL d   1      19.120   9.056 -18.188  0.00  0.00     0.059 A 
ATOM     15  C   UNL d   1      19.583   9.890 -17.020  0.00  0.00     0.052 C 
ATOM     16  N   UNL d   1      19.181   9.654 -19.394  0.00  0.00    -0.250 NA
ATOM     17  C   UNL d   1      18.861   9.566 -21.764  0.00  0.00     0.019 A 
ATOM     18  C   UNL d   1      18.462   8.886 -22.935  0.00  0.00     0.002 A 
ATOM     19  C   UNL d   1      19.132   4.438 -23.009  0.00  0.00     0.134 C 
ENDBRANCH   2   3
ENDBRANCH   1   2
BRANCH   1  20
ATOM     20  C   UNL d   1      15.021   1.210 -20.825  0.00  0.00     0.047 C 
BRANCH  20  21
ATOM     21  C   UNL d   1      14.326   0.389 -19.741  0.00  0.00     0.251 C 
BRANCH  21  22
ATOM     22  N   UNL d   1      13.039   1.002 -19.376  0.00  0.00     0.138 N 
ATOM     23  C   UNL d   1      13.188   2.241 -18.577  0.00  0.00     0.255 C 
ATOM     24  C   UNL d   1      11.897   3.061 -18.450  0.00  0.00     0.061 C 
ATOM     25  C   UNL d   1      10.986   2.567 -17.347  0.00  0.00    -0.024 A 
ATOM     26  C   UNL d   1      10.460   1.256 -17.379  0.00  0.00    -0.024 A 
ATOM     27  C   UNL d   1      10.672   3.428 -16.273  0.00  0.00    -0.001 A 
ATOM     28  C   UNL d   1      10.784   0.305 -18.519  0.00  0.00     0.061 C 
ATOM     29  C   UNL d   1       9.612   0.826 -16.338  0.00  0.00    -0.004 A 
ATOM     30  C   UNL d   1      12.279  -0.017 -18.656  0.00  0.00     0.255 C 
ATOM     31  C   UNL d   1       9.290   1.690 -15.276  0.00  0.00     0.003 A 
ATOM     32  C   UNL d   1       9.828   2.994 -15.232  0.00  0.00     0.041 A 
BRANCH  32  33
ATOM     33  C   UNL d   1       9.495   3.892 -14.133  0.00  0.00     0.182 A 
ATOM     34  O   UNL d   1       8.302   3.719 -13.499  0.00  0.00    -0.292 OA
ATOM     35  C   UNL d   1       8.279   4.692 -12.536  0.00  0.00     0.099 A 
ATOM     36  C   UNL d   1       9.437   5.419 -12.606  0.00  0.00     0.121 A 
ATOM     37  C   UNL d   1       7.083   4.769 -11.647  0.00  0.00     0.060 C 
ATOM     38  N   UNL d   1      10.211   4.904 -13.639  0.00  0.00    -0.219 NA
ENDBRANCH  32  33
ENDBRANCH  21  22
ENDBRANCH  20  21
ENDBRANCH   1  20
TORSDOF 6
