REMARK  6 active torsions:
REMARK  status: ('A' for Active; 'I' for Inactive)
REMARK    1  A    between atoms: N_13  and  C_14 
REMARK    2  A    between atoms: C_14  and  C_15 
REMARK    3  A    between atoms: C_15  and  C_16 
REMARK    4  A    between atoms: C_16  and  S_17 
REMARK    5  A    between atoms: S_17  and  C_18 
REMARK    6  A    between atoms: C_21  and  C_22 
ROOT
ATOM      1  C   UNL d   1       8.267   5.407 -12.685  0.00  0.00     0.067 C 
ENDROOT
BRANCH   1   2
ATOM      2  C   UNL d   1       9.203   5.126 -11.500  0.00  0.00     0.047 C 
BRANCH   2   3
ATOM      3  C   UNL d   1       8.886   5.968 -10.270  0.00  0.00     0.251 C 
BRANCH   3   4
ATOM      4  N   UNL d   1      10.093   6.125  -9.454  0.00  0.00     0.138 N 
ATOM      5  C   UNL d   1       9.803   5.749  -8.073  0.00  0.00     0.257 C 
ATOM      6  C   UNL d   1      10.857   6.162  -7.026  0.00  0.00     0.081 C 
ATOM      7  C   UNL d   1      10.836   7.597  -6.711  0.00  0.00     0.058 A 
ATOM      8  C   UNL d   1      10.525   8.650  -7.521  0.00  0.00     0.075 A 
ATOM      9  N   UNL d   1      11.173   8.130  -5.478  0.00  0.00    -0.293 N 
ATOM     10  N   UNL d   1      10.670   9.843  -6.846  0.00  0.00    -0.231 NA
ATOM     11  C   UNL d   1      10.106   8.604  -8.957  0.00  0.00     0.082 C 
ATOM     12  C   UNL d   1      10.981   9.511  -5.602  0.00  0.00     0.147 A 
ATOM     13  C   UNL d   1      11.132  10.331  -4.469  0.00  0.00     0.037 A 
ATOM     14  C   UNL d   1      11.612   9.760  -3.310  0.00  0.00     0.000 A 
ATOM     15  C   UNL d   1      11.863   8.373  -3.231  0.00  0.00    -0.004 A 
ATOM     16  C   UNL d   1      12.366   7.789  -1.941  0.00  0.00     0.033 C 
ATOM     17  C   UNL d   1      11.611   7.561  -4.318  0.00  0.00     0.077 A 
ATOM     18  C   UNL d   1      10.752   7.420  -9.693  0.00  0.00     0.257 C 
ENDBRANCH   3   4
ENDBRANCH   2   3
ENDBRANCH   1   2
BRANCH   1  19
ATOM     19  S   UNL d   1       8.405   4.167 -14.027  0.00  0.00    -0.075 SA
BRANCH  19  20
ATOM     20  C   UNL d   1      10.094   4.315 -14.515  0.00  0.00     0.193 A 
ATOM     21  N   UNL d   1      10.484   4.566 -15.778  0.00  0.00    -0.289 N 
ATOM     22  C   UNL d   1      11.829   4.583 -15.652  0.00  0.00     0.167 A 
ATOM     23  C   UNL d   1       9.685   4.738 -16.980  0.00  0.00     0.134 C 
ATOM     24  N   UNL d   1      12.259   4.349 -14.418  0.00  0.00    -0.128 NA
ATOM     25  N   UNL d   1      11.121   4.144 -13.677  0.00  0.00    -0.122 NA
BRANCH  22  26
ATOM     26  C   UNL d   1      12.769   4.797 -16.732  0.00  0.00     0.037 A 
ATOM     27  C   UNL d   1      13.037   3.790 -17.693  0.00  0.00     0.021 A 
ATOM     28  C   UNL d   1      13.974   4.034 -18.739  0.00  0.00     0.081 A 
ATOM     29  C   UNL d   1      12.403   2.524 -17.646  0.00  0.00     0.003 A 
ATOM     30  C   UNL d   1      14.623   5.285 -18.781  0.00  0.00     0.019 A 
ATOM     31  N   UNL d   1      14.249   3.109 -19.688  0.00  0.00    -0.250 NA
ATOM     32  C   UNL d   1      14.378   6.276 -17.810  0.00  0.00     0.002 A 
ATOM     33  C   UNL d   1      13.453   6.026 -16.783  0.00  0.00     0.003 A 
ATOM     34  C   UNL d   1      13.615   1.919 -19.645  0.00  0.00     0.059 A 
ATOM     35  C   UNL d   1      13.963   0.950 -20.751  0.00  0.00     0.052 C 
ATOM     36  C   UNL d   1      12.687   1.576 -18.644  0.00  0.00     0.015 A 
ENDBRANCH  22  26
ENDBRANCH  19  20
ENDBRANCH   1  19
TORSDOF 6
