REMARK  5 active torsions:
REMARK  status: ('A' for Active; 'I' for Inactive)
REMARK       I    between atoms: C_2  and  N_3 
REMARK    1  A    between atoms: C_2  and  C_38 
REMARK    2  A    between atoms: N_3  and  N_4 
REMARK    3  A    between atoms: C_13  and  N_14 
REMARK    4  A    between atoms: N_17  and  C_18 
REMARK    5  A    between atoms: C_18  and  C_19 
ROOT
ATOM      1  N   UNL d   1       8.602   2.023 -19.478  0.00  0.00    -0.225 N 
ATOM      2  C   UNL d   1       8.667   3.281 -20.080  0.00  0.00     0.101 A 
ATOM      3  C   UNL d   1       8.215   3.419 -21.406  0.00  0.00     0.022 A 
ATOM      4  C   UNL d   1       8.288   4.662 -22.058  0.00  0.00     0.013 A 
ATOM      5  C   UNL d   1       8.821   5.774 -21.383  0.00  0.00     0.059 A 
ATOM      6 CL   UNL d   1       8.912   7.302 -22.177  0.00  0.00    -0.082 Cl
ATOM      7  C   UNL d   1       9.273   5.643 -20.057  0.00  0.00     0.032 A 
ATOM      8  C   UNL d   1       9.211   4.399 -19.389  0.00  0.00     0.101 A 
ATOM      9  N   UNL d   1       9.572   4.404 -18.035  0.00  0.00    -0.227 NA
ATOM     10  C   UNL d   1      10.126   3.418 -17.388  0.00  0.00     0.142 C 
ATOM     11  C   UNL d   1      10.544   2.117 -18.002  0.00  0.00     0.051 A 
ATOM     12  C   UNL d   1      11.757   1.525 -17.566  0.00  0.00     0.004 A 
ATOM     13  C   UNL d   1      12.142   0.260 -18.033  0.00  0.00     0.000 A 
ATOM     14  C   UNL d   1      11.314  -0.445 -18.913  0.00  0.00     0.002 A 
ATOM     15  C   UNL d   1      10.118   0.134 -19.374  0.00  0.00     0.019 A 
ATOM     16  C   UNL d   1       9.742   1.423 -18.939  0.00  0.00     0.086 A 
ENDROOT
BRANCH  10  17
ATOM     17  N   UNL d   1      10.368   3.495 -16.025  0.00  0.00    -0.330 N 
ATOM     18  C   UNL d   1      10.125   2.418 -15.064  0.00  0.00     0.138 C 
ATOM     19  C   UNL d   1       9.207   2.888 -13.923  0.00  0.00     0.275 C 
ATOM     20  N   UNL d   1       9.764   4.072 -13.246  0.00  0.00     0.145 N 
ATOM     21  C   UNL d   1       9.897   5.105 -14.270  0.00  0.00     0.275 C 
ATOM     22  C   UNL d   1      10.837   4.710 -15.397  0.00  0.00     0.138 C 
BRANCH  20  23
ATOM     23  C   UNL d   1       8.853   4.501 -12.170  0.00  0.00     0.279 C 
BRANCH  23  24
ATOM     24  C   UNL d   1       9.030   5.912 -11.630  0.00  0.00     0.035 C 
ATOM     25  C   UNL d   1       9.410   6.190 -10.304  0.00  0.00     0.122 A 
ATOM     26  C   UNL d   1       9.631   7.480  -9.871  0.00  0.00     0.124 A 
ATOM     27  O   UNL d   1       9.608   5.350  -9.256  0.00  0.00    -0.255 OA
ATOM     28  C   UNL d   1       9.501   8.569 -10.706  0.00  0.00     0.026 C 
ATOM     29  O   UNL d   1       9.938   7.492  -8.549  0.00  0.00    -0.255 OA
ATOM     30  C   UNL d   1       9.062   8.341 -12.033  0.00  0.00     0.002 C 
ATOM     31  C   UNL d   1       8.760   7.033 -12.468  0.00  0.00    -0.000 C 
ATOM     32  C   UNL d   1       9.860   6.170  -8.136  0.00  0.00     0.498 A 
ATOM     33  F   UNL d   1       8.895   5.985  -7.239  0.00  0.00    -0.147 F 
ATOM     34  F   UNL d   1      11.030   5.874  -7.580  0.00  0.00    -0.147 F 
ENDBRANCH  23  24
ENDBRANCH  20  23
ENDBRANCH  10  17
BRANCH   1  35
ATOM     35  N   UNL d   1       7.404   1.314 -19.466  0.00  0.00    -0.123 NA
ATOM     36  C   UNL d   1       6.666   1.182 -18.353  0.00  0.00     0.296 C 
ATOM     37  O   UNL d   1       6.820   1.897 -17.364  0.00  0.00    -0.264 OA
BRANCH  36  38
ATOM     38  C   UNL d   1       5.654   0.059 -18.384  0.00  0.00     0.070 A 
ATOM     39  C   UNL d   1       5.194  -0.588 -17.199  0.00  0.00     0.062 A 
ATOM     40  C   UNL d   1       4.262  -1.636 -17.287  0.00  0.00     0.012 A 
ATOM     41 CL   UNL d   1       5.754  -0.176 -15.612  0.00  0.00    -0.082 Cl
ATOM     42  C   UNL d   1       3.780  -2.071 -18.532  0.00  0.00     0.001 A 
ATOM     43  C   UNL d   1       4.230  -1.449 -19.706  0.00  0.00     0.000 A 
ATOM     44  C   UNL d   1       5.144  -0.387 -19.636  0.00  0.00     0.006 A 
ENDBRANCH  36  38
ENDBRANCH   1  35
TORSDOF 5
