REMARK  7 active torsions:
REMARK  status: ('A' for Active; 'I' for Inactive)
REMARK       I    between atoms: C_2  and  N_4 
REMARK    1  A    between atoms: N_4  and  C_5 
REMARK    2  A    between atoms: C_9  and  C_10 
REMARK    3  A    between atoms: N_13  and  C_14 
REMARK    4  A    between atoms: C_14  and  C_15 
REMARK    5  A    between atoms: C_15  and  C_16 
REMARK    6  A    between atoms: C_16  and  C_17 
REMARK    7  A    between atoms: C_17  and  C_19 
ROOT
ATOM      1  C   UNL d   1       6.872   0.280 -16.266  0.00  0.00     0.026 C 
ATOM      2  C   UNL d   1       6.132   0.607 -14.968  0.00  0.00     0.040 C 
ATOM      3  C   UNL d   1       7.040   1.366 -14.002  0.00  0.00     0.251 C 
ATOM      4  N   UNL d   1       7.612   2.573 -14.595  0.00  0.00     0.137 N 
ATOM      5  C   UNL d   1       8.464   2.204 -15.706  0.00  0.00     0.251 C 
ATOM      6  C   UNL d   1       7.600   1.546 -16.775  0.00  0.00     0.040 C 
ENDROOT
BRANCH   4   7
ATOM      7  C   UNL d   1       8.437   3.251 -13.600  0.00  0.00     0.251 C 
BRANCH   7   8
ATOM      8  C   UNL d   1       8.674   4.726 -13.905  0.00  0.00     0.043 C 
BRANCH   8   9
ATOM      9  C   UNL d   1       9.433   5.474 -12.795  0.00  0.00     0.071 C 
BRANCH   9  10
ATOM     10  C   UNL d   1       8.790   5.502 -11.381  0.00  0.00     0.173 C 
ATOM     11  O   UNL d   1       7.844   4.761 -11.110  0.00  0.00    -0.291 OA
BRANCH  10  12
ATOM     12  C   UNL d   1       9.364   6.416 -10.364  0.00  0.00     0.034 A 
ATOM     13  C   UNL d   1       9.083   6.187  -9.000  0.00  0.00    -0.002 A 
ATOM     14  C   UNL d   1       9.522   7.093  -8.014  0.00  0.00    -0.026 A 
ATOM     15  C   UNL d   1      10.282   8.225  -8.396  0.00  0.00    -0.026 A 
ATOM     16  C   UNL d   1       9.128   6.864  -6.571  0.00  0.00     0.031 C 
ATOM     17  C   UNL d   1      10.553   8.461  -9.758  0.00  0.00    -0.004 A 
ATOM     18  C   UNL d   1      10.761   9.207  -7.357  0.00  0.00     0.031 C 
ATOM     19  C   UNL d   1      10.059   7.588 -10.734  0.00  0.00     0.003 A 
ENDBRANCH  10  12
ENDBRANCH   9  10
ENDBRANCH   8   9
ENDBRANCH   7   8
ENDBRANCH   4   7
BRANCH   1  20
ATOM     20  C   UNL d   1       5.902  -0.304 -17.307  0.00  0.00    -0.021 A 
ATOM     21  C   UNL d   1       4.972  -1.302 -16.942  0.00  0.00    -0.004 A 
ATOM     22  C   UNL d   1       4.062  -1.800 -17.897  0.00  0.00     0.001 A 
ATOM     23  C   UNL d   1       4.097  -1.325 -19.222  0.00  0.00     0.019 A 
ATOM     24  C   UNL d   1       5.033  -0.347 -19.609  0.00  0.00     0.084 A 
ATOM     25  C   UNL d   1       5.923   0.164 -18.637  0.00  0.00     0.015 A 
BRANCH  24  26
ATOM     26  N   UNL d   1       5.039   0.088 -20.962  0.00  0.00    -0.212 NA
ATOM     27  C   UNL d   1       5.944   0.829 -21.637  0.00  0.00     0.256 C 
ATOM     28  C   UNL d   1       5.662   1.001 -23.118  0.00  0.00     0.100 C 
ATOM     29  O   UNL d   1       6.950   1.357 -21.164  0.00  0.00    -0.270 OA
ENDBRANCH  24  26
ENDBRANCH   1  20
TORSDOF 7
