REMARK  10 active torsions:
REMARK  status: ('A' for Active; 'I' for Inactive)
REMARK    1  A    between atoms: C_2  and  C_3 
REMARK    2  A    between atoms: C_3  and  N_4 
REMARK    3  A    between atoms: N_4  and  C_5 
REMARK    4  A    between atoms: N_4  and  C_23 
REMARK    5  A    between atoms: C_5  and  C_6 
REMARK    6  A    between atoms: C_6  and  C_7 
REMARK    7  A    between atoms: C_7  and  C_8 
REMARK    8  A    between atoms: C_8  and  N_9 
REMARK    9  A    between atoms: N_12  and  C_13 
REMARK   10  A    between atoms: C_23  and  C_24 
ROOT
ATOM      1  N   UNL d   1       8.702   2.629 -19.399  0.00  0.00     0.141 N 
ENDROOT
BRANCH   1   2
ATOM      2  C   UNL d   1       7.818   2.014 -20.409  0.00  0.00     0.251 C 
BRANCH   2   3
ATOM      3  C   UNL d   1       6.987   0.782 -19.956  0.00  0.00     0.035 C 
ATOM      4  C   UNL d   1       5.658   1.182 -19.295  0.00  0.00     0.002 C 
ENDBRANCH   2   3
ENDBRANCH   1   2
BRANCH   1   5
ATOM      5  C   UNL d   1       9.594   1.625 -18.785  0.00  0.00     0.251 C 
BRANCH   5   6
ATOM      6  C   UNL d   1      10.488   2.185 -17.660  0.00  0.00     0.037 C 
BRANCH   6   7
ATOM      7  C   UNL d   1       9.630   2.778 -16.537  0.00  0.00     0.037 C 
BRANCH   7   8
ATOM      8  C   UNL d   1      10.492   3.166 -15.344  0.00  0.00     0.251 C 
BRANCH   8   9
ATOM      9  N   UNL d   1       9.662   3.666 -14.256  0.00  0.00     0.141 N 
ATOM     10  C   UNL d   1      10.410   3.492 -13.020  0.00  0.00     0.274 C 
ATOM     11  C   UNL d   1       9.605   3.971 -11.816  0.00  0.00     0.137 C 
ATOM     12  N   UNL d   1       9.214   5.354 -11.972  0.00  0.00    -0.344 N 
ATOM     13  C   UNL d   1       8.541   5.631 -13.236  0.00  0.00     0.137 C 
ATOM     14  C   UNL d   1       9.388   5.095 -14.418  0.00  0.00     0.274 C 
BRANCH  12  15
ATOM     15  C   UNL d   1       9.380   6.323 -10.948  0.00  0.00     0.068 A 
ATOM     16  C   UNL d   1       9.223   6.076  -9.547  0.00  0.00     0.084 A 
ATOM     17  C   UNL d   1       9.463   7.095  -8.621  0.00  0.00     0.070 A 
ATOM     18 CL   UNL d   1       8.691   4.537  -8.917  0.00  0.00    -0.080 Cl
ATOM     19  C   UNL d   1       9.914   8.364  -9.041  0.00  0.00     0.012 A 
ATOM     20 CL   UNL d   1       9.243   6.858  -6.920  0.00  0.00    -0.081 Cl
ATOM     21  C   UNL d   1      10.105   8.598 -10.413  0.00  0.00     0.002 A 
ATOM     22  C   UNL d   1       9.788   7.618 -11.340  0.00  0.00     0.018 A 
ENDBRANCH  12  15
ENDBRANCH   8   9
ENDBRANCH   7   8
ENDBRANCH   6   7
ENDBRANCH   5   6
ENDBRANCH   1   5
BRANCH   1  23
ATOM     23  C   UNL d   1       9.495   3.706 -20.028  0.00  0.00     0.277 C 
BRANCH  23  24
ATOM     24  C   UNL d   1       8.708   4.957 -20.357  0.00  0.00     0.011 A 
ATOM     25  C   UNL d   1       8.026   5.066 -21.591  0.00  0.00    -0.006 A 
ATOM     26  C   UNL d   1       7.270   6.218 -21.831  0.00  0.00    -0.018 A 
ATOM     27  C   UNL d   1       7.188   7.251 -20.890  0.00  0.00    -0.004 A 
ATOM     28  C   UNL d   1       6.413   6.496 -23.048  0.00  0.00     0.053 A 
ATOM     29  C   UNL d   1       7.869   7.163 -19.664  0.00  0.00    -0.001 A 
ATOM     30  C   UNL d   1       6.311   8.279 -21.422  0.00  0.00    -0.004 A 
ATOM     31  C   UNL d   1       8.648   6.011 -19.411  0.00  0.00    -0.002 A 
ATOM     32  C   UNL d   1       5.861   7.861 -22.680  0.00  0.00    -0.018 A 
ATOM     33  C   UNL d   1       5.907   9.511 -20.882  0.00  0.00    -0.000 A 
ATOM     34  C   UNL d   1       5.000   8.655 -23.451  0.00  0.00    -0.004 A 
ATOM     35  C   UNL d   1       4.598   9.900 -22.926  0.00  0.00    -0.000 A 
ATOM     36  C   UNL d   1       5.043  10.321 -21.649  0.00  0.00    -0.000 A 
ENDBRANCH  23  24
ENDBRANCH   1  23
TORSDOF 10
