REMARK  6 active torsions:
REMARK  status: ('A' for Active; 'I' for Inactive)
REMARK    1  A    between atoms: N_11  and  C_12 
REMARK    2  A    between atoms: C_12  and  C_13 
REMARK    3  A    between atoms: C_13  and  C_14 
REMARK    4  A    between atoms: C_14  and  C_15 
REMARK    5  A    between atoms: C_15  and  N_16 
REMARK    6  A    between atoms: N_19  and  C_20 
ROOT
ATOM      1  N   UNL d   1       8.674   4.924 -12.949  0.00  0.00     0.141 N 
ATOM      2  C   UNL d   1       8.516   4.112 -11.753  0.00  0.00     0.274 C 
ATOM      3  C   UNL d   1       9.544   4.451 -10.707  0.00  0.00     0.137 C 
ATOM      4  N   UNL d   1       9.483   5.860 -10.409  0.00  0.00    -0.344 N 
ATOM      5  C   UNL d   1       9.408   6.772 -11.529  0.00  0.00     0.137 C 
ATOM      6  C   UNL d   1       8.373   6.312 -12.563  0.00  0.00     0.274 C 
ENDROOT
BRANCH   1   7
ATOM      7  C   UNL d   1       7.711   4.448 -13.925  0.00  0.00     0.251 C 
BRANCH   7   8
ATOM      8  C   UNL d   1       8.066   3.094 -14.588  0.00  0.00     0.037 C 
BRANCH   8   9
ATOM      9  C   UNL d   1       6.830   2.301 -15.051  0.00  0.00     0.027 C 
BRANCH   9  10
ATOM     10  C   UNL d   1       7.021   0.773 -14.952  0.00  0.00     0.112 C 
BRANCH  10  11
ATOM     11  N   UNL d   1       6.399   0.067 -16.077  0.00  0.00    -0.271 N 
ATOM     12  C   UNL d   1       5.207  -0.551 -16.044  0.00  0.00     0.239 C 
ATOM     13  O   UNL d   1       4.494  -0.726 -15.053  0.00  0.00    -0.272 OA
ATOM     14  C   UNL d   1       4.825  -0.941 -17.457  0.00  0.00     0.088 C 
ATOM     15  C   UNL d   1       6.175  -0.989 -18.145  0.00  0.00     0.088 C 
ATOM     16  C   UNL d   1       4.048  -2.214 -17.790  0.00  0.00     0.010 C 
ATOM     17  C   UNL d   1       5.992  -0.799 -19.650  0.00  0.00     0.010 C 
ATOM     18  C   UNL d   1       6.965  -0.015 -17.289  0.00  0.00     0.239 C 
ATOM     19  C   UNL d   1       5.142  -1.993 -20.151  0.00  0.00     0.001 C 
ATOM     20  C   UNL d   1       3.842  -2.228 -19.326  0.00  0.00     0.001 C 
ATOM     21  O   UNL d   1       7.988   0.548 -17.666  0.00  0.00    -0.272 OA
ENDBRANCH  10  11
ENDBRANCH   9  10
ENDBRANCH   8   9
ENDBRANCH   7   8
ENDBRANCH   1   7
BRANCH   4  22
ATOM     22  C   UNL d   1       9.477   6.325  -9.084  0.00  0.00     0.057 A 
ATOM     23  C   UNL d   1      10.443   7.248  -8.602  0.00  0.00     0.022 A 
ATOM     24  C   UNL d   1      10.284   7.684  -7.255  0.00  0.00     0.031 A 
ATOM     25  C   UNL d   1      11.588   7.852  -9.241  0.00  0.00     0.009 A 
ATOM     26  C   UNL d   1       9.242   7.235  -6.442  0.00  0.00     0.007 A 
ATOM     27  S   UNL d   1      11.538   8.820  -6.799  0.00  0.00    -0.086 SA
ATOM     28  C   UNL d   1       8.299   6.355  -6.976  0.00  0.00     0.002 A 
ATOM     29  C   UNL d   1       8.430   5.876  -8.275  0.00  0.00     0.017 A 
ATOM     30  C   UNL d   1      12.271   8.653  -8.361  0.00  0.00     0.035 A 
ENDBRANCH   4  22
TORSDOF 6
