REMARK  7 active torsions:
REMARK  status: ('A' for Active; 'I' for Inactive)
REMARK    1  A    between atoms: O_2  and  C_3 
REMARK    2  A    between atoms: C_6  and  C_7 
REMARK    3  A    between atoms: C_7  and  C_8 
REMARK    4  A    between atoms: C_8  and  C_9 
REMARK    5  A    between atoms: C_9  and  N_10 
REMARK    6  A    between atoms: N_13  and  C_14 
REMARK    7  A    between atoms: C_14  and  C_15 
ROOT
ATOM      1  N   UNL d   1       8.969   4.793 -11.165  0.00  0.00     0.141 N 
ATOM      2  C   UNL d   1       9.823   5.641 -11.984  0.00  0.00     0.285 C 
ATOM      3  C   UNL d   1      10.421   4.857 -13.165  0.00  0.00     0.286 C 
ATOM      4  N   UNL d   1       9.404   4.356 -14.061  0.00  0.00     0.148 N 
ATOM      5  C   UNL d   1       8.519   3.513 -13.261  0.00  0.00     0.286 C 
ATOM      6  C   UNL d   1       7.918   4.280 -12.053  0.00  0.00     0.285 C 
ENDROOT
BRANCH   1   7
ATOM      7  C   UNL d   1       8.398   5.541 -10.045  0.00  0.00     0.251 C 
BRANCH   7   8
ATOM      8  C   UNL d   1       9.384   5.981  -8.935  0.00  0.00     0.040 C 
BRANCH   8   9
ATOM      9  C   UNL d   1       8.887   7.198  -8.141  0.00  0.00     0.028 C 
BRANCH   9  10
ATOM     10  C   UNL d   1       9.899   7.724  -7.155  0.00  0.00    -0.022 A 
ATOM     11  C   UNL d   1      10.548   8.959  -7.345  0.00  0.00    -0.002 A 
ATOM     12  C   UNL d   1      11.465   9.426  -6.380  0.00  0.00     0.024 A 
ATOM     13  C   UNL d   1      11.720   8.670  -5.214  0.00  0.00     0.094 A 
ATOM     14  C   UNL d   1      11.097   7.409  -5.061  0.00  0.00     0.024 A 
ATOM     15  C   UNL d   1      10.187   6.948  -6.024  0.00  0.00    -0.002 A 
BRANCH  13  16
ATOM     16  O   UNL d   1      12.614   9.195  -4.311  0.00  0.00    -0.328 OA
ATOM     17  C   UNL d   1      12.661   8.605  -3.023  0.00  0.00     0.181 C 
ENDBRANCH  13  16
ENDBRANCH   9  10
ENDBRANCH   8   9
ENDBRANCH   7   8
ENDBRANCH   1   7
BRANCH   4  18
ATOM     18  C   UNL d   1      10.008   3.603 -15.165  0.00  0.00     0.301 C 
BRANCH  18  19
ATOM     19  C   UNL d   1      10.893   4.439 -16.036  0.00  0.00     0.111 A 
ATOM     20  O   UNL d   1      12.229   4.130 -16.052  0.00  0.00    -0.309 OA
ATOM     21  C   UNL d   1      12.837   5.040 -16.894  0.00  0.00     0.100 A 
ATOM     22  C   UNL d   1      11.866   5.942 -17.393  0.00  0.00     0.025 A 
ATOM     23  C   UNL d   1      14.200   5.112 -17.241  0.00  0.00     0.025 A 
ATOM     24  C   UNL d   1      10.614   5.529 -16.823  0.00  0.00     0.024 A 
ATOM     25  C   UNL d   1      12.316   6.957 -18.270  0.00  0.00     0.002 A 
ATOM     26  C   UNL d   1      13.679   7.050 -18.630  0.00  0.00     0.000 A 
ATOM     27  C   UNL d   1      14.619   6.130 -18.119  0.00  0.00     0.002 A 
ENDBRANCH  18  19
ENDBRANCH   4  18
TORSDOF 7
