REMARK  7 active torsions:
REMARK  status: ('A' for Active; 'I' for Inactive)
REMARK    1  A    between atoms: O_2  and  C_3 
REMARK    2  A    between atoms: C_8  and  N_9 
REMARK    3  A    between atoms: N_12  and  C_13 
REMARK    4  A    between atoms: C_13  and  C_14 
REMARK    5  A    between atoms: C_14  and  C_16 
REMARK    6  A    between atoms: C_16  and  N_17 
REMARK    7  A    between atoms: C_21  and  C_23 
ROOT
ATOM      1  C   UNL d   1       7.193   0.343 -20.704  0.00  0.00     0.208 C 
ATOM      2  O   UNL d   1       6.679   0.898 -21.896  0.00  0.00    -0.219 OA
ENDROOT
BRANCH   1   3
ATOM      3  C   UNL d   1       7.533   1.517 -19.777  0.00  0.00     0.285 C 
BRANCH   3   4
ATOM      4  N   UNL d   1       7.604   1.175 -18.390  0.00  0.00     0.144 N 
ATOM      5  C   UNL d   1       6.285   1.055 -17.794  0.00  0.00     0.274 C 
ATOM      6  C   UNL d   1       6.334   0.657 -16.335  0.00  0.00     0.137 C 
ATOM      7  N   UNL d   1       7.112   1.621 -15.605  0.00  0.00    -0.343 N 
ATOM      8  C   UNL d   1       8.349   1.916 -16.239  0.00  0.00     0.137 C 
ATOM      9  C   UNL d   1       8.314   2.206 -17.684  0.00  0.00     0.274 C 
BRANCH   7  10
ATOM     10  C   UNL d   1       6.780   2.238 -14.410  0.00  0.00     0.079 A 
ATOM     11  C   UNL d   1       5.854   1.645 -13.498  0.00  0.00     0.110 A 
ATOM     12  C   UNL d   1       5.453   2.386 -12.379  0.00  0.00     0.026 A 
ATOM     13  C   UNL d   1       5.969   3.676 -12.119  0.00  0.00     0.002 A 
ATOM     14  C   UNL d   1       6.902   4.243 -12.992  0.00  0.00     0.002 A 
ATOM     15  C   UNL d   1       7.307   3.522 -14.102  0.00  0.00     0.019 A 
BRANCH  11  16
ATOM     16  O   UNL d   1       5.332   0.383 -13.689  0.00  0.00    -0.327 OA
ATOM     17  C   UNL d   1       6.256  -0.713 -13.669  0.00  0.00     0.181 C 
ENDBRANCH  11  16
ENDBRANCH   7  10
ENDBRANCH   3   4
ENDBRANCH   1   3
BRANCH   1  18
ATOM     18  C   UNL d   1       8.406  -0.551 -21.073  0.00  0.00     0.148 C 
BRANCH  18  19
ATOM     19  N   UNL d   1       9.663  -0.163 -20.408  0.00  0.00    -0.247 N 
ATOM     20  C   UNL d   1      10.107  -0.637 -19.269  0.00  0.00     0.265 A 
ATOM     21  C   UNL d   1      11.323   0.121 -18.794  0.00  0.00     0.179 A 
ATOM     22  O   UNL d   1       9.590  -1.631 -18.631  0.00  0.00    -0.269 OA
ATOM     23  N   UNL d   1      11.413   1.042 -19.918  0.00  0.00    -0.209 NA
ATOM     24  C   UNL d   1      12.574  -0.764 -18.775  0.00  0.00     0.039 C 
ATOM     25  C   UNL d   1      10.439   0.860 -20.823  0.00  0.00     0.348 A 
ATOM     26  O   UNL d   1      10.249   1.573 -21.809  0.00  0.00    -0.245 OA
BRANCH  21  27
ATOM     27  C   UNL d   1      11.164   0.795 -17.419  0.00  0.00     0.009 A 
ATOM     28  C   UNL d   1      11.436   2.171 -17.231  0.00  0.00     0.028 A 
ATOM     29  C   UNL d   1      11.225   2.778 -15.936  0.00  0.00     0.140 A 
ATOM     30  C   UNL d   1      10.837   2.010 -14.856  0.00  0.00     0.030 A 
ATOM     31  F   UNL d   1      11.279   4.136 -15.863  0.00  0.00    -0.204 F 
ATOM     32  C   UNL d   1      10.597   0.604 -15.040  0.00  0.00     0.002 A 
ATOM     33  C   UNL d   1      10.739   0.033 -16.258  0.00  0.00    -0.002 A 
ENDBRANCH  21  27
ENDBRANCH  18  19
ENDBRANCH   1  18
TORSDOF 7
