REMARK  4 active torsions:
REMARK  status: ('A' for Active; 'I' for Inactive)
REMARK    1  A    between atoms: N_5  and  C_6 
REMARK    2  A    between atoms: C_18  and  C_19 
REMARK    3  A    between atoms: C_19  and  N_20 
REMARK       I    between atoms: N_20  and  C_21 
REMARK    4  A    between atoms: C_21  and  C_23 
ROOT
ATOM      1  C   UNL d   1       7.471   0.407 -18.181  0.00  0.00     0.246 C 
ATOM      2  C   UNL d   1       7.241  -0.554 -19.372  0.00  0.00     0.065 C 
ATOM      3  C   UNL d   1       6.825  -1.960 -19.029  0.00  0.00    -0.014 A 
ATOM      4  C   UNL d   1       7.772  -2.980 -19.167  0.00  0.00    -0.004 A 
ATOM      5  C   UNL d   1       7.420  -4.327 -18.944  0.00  0.00    -0.000 A 
ATOM      6  C   UNL d   1       6.103  -4.639 -18.555  0.00  0.00     0.001 A 
ATOM      7  C   UNL d   1       5.136  -3.597 -18.409  0.00  0.00     0.006 A 
ATOM      8  C   UNL d   1       5.518  -2.265 -18.668  0.00  0.00     0.025 A 
ATOM      9  S   UNL d   1       4.423  -0.922 -18.449  0.00  0.00    -0.087 SA
ATOM     10  C   UNL d   1       5.197  -0.349 -16.990  0.00  0.00     0.027 C 
ATOM     11  C   UNL d   1       4.400  -0.428 -15.826  0.00  0.00     0.006 C 
ATOM     12  C   UNL d   1       4.827   0.154 -14.647  0.00  0.00    -0.002 C 
ATOM     13  C   UNL d   1       6.122   0.718 -14.628  0.00  0.00     0.002 C 
ATOM     14  C   UNL d   1       6.984   0.682 -15.730  0.00  0.00    -0.004 C 
ATOM     15  C   UNL d   1       6.519   0.217 -16.970  0.00  0.00     0.015 C 
ENDROOT
BRANCH  13  16
ATOM     16  C   UNL d   1       6.605   1.377 -13.405  0.00  0.00     0.155 C 
BRANCH  16  17
ATOM     17  N   UNL d   1       6.442   2.843 -13.337  0.00  0.00    -0.233 NA
ATOM     18  C   UNL d   1       7.419   3.767 -13.145  0.00  0.00     0.251 C 
ATOM     19  O   UNL d   1       8.613   3.482 -13.198  0.00  0.00    -0.271 OA
BRANCH  18  20
ATOM     20  C   UNL d   1       6.993   5.221 -12.862  0.00  0.00     0.073 C 
ATOM     21  C   UNL d   1       7.177   5.713 -11.454  0.00  0.00     0.009 C 
ATOM     22  C   UNL d   1       5.491   5.405 -13.219  0.00  0.00     0.009 C 
ATOM     23  C   UNL d   1       7.994   6.073 -13.641  0.00  0.00     0.009 C 
ENDBRANCH  18  20
ENDBRANCH  16  17
ENDBRANCH  13  16
BRANCH   1  24
ATOM     24  N   UNL d   1       7.634   1.839 -18.599  0.00  0.00     0.144 N 
ATOM     25  C   UNL d   1       8.259   2.042 -19.940  0.00  0.00     0.286 C 
ATOM     26  C   UNL d   1       9.759   1.675 -19.924  0.00  0.00     0.286 C 
ATOM     27  N   UNL d   1      10.488   2.493 -18.957  0.00  0.00     0.143 N 
ATOM     28  C   UNL d   1      11.906   2.156 -18.949  0.00  0.00     0.285 C 
ATOM     29  C   UNL d   1       9.884   2.353 -17.624  0.00  0.00     0.286 C 
ATOM     30  C   UNL d   1       8.367   2.712 -17.638  0.00  0.00     0.286 C 
ENDBRANCH   1  24
TORSDOF 4
