REMARK  5 active torsions:
REMARK  status: ('A' for Active; 'I' for Inactive)
REMARK       I    between atoms: C_2  and  N_3 
REMARK       I    between atoms: C_2  and  N_27 
REMARK    1  A    between atoms: N_3  and  C_4 
REMARK    2  A    between atoms: C_7  and  C_8 
REMARK    3  A    between atoms: C_8  and  C_9 
REMARK    4  A    between atoms: C_9  and  N_10 
REMARK    5  A    between atoms: C_13  and  C_14 
ROOT
ATOM      1  C   UNL d   1       9.359   1.788 -15.764  0.00  0.00     0.108 C 
ATOM      2  C   UNL d   1      10.365   2.941 -15.982  0.00  0.00     0.025 C 
ATOM      3  C   UNL d   1      10.845   3.544 -14.678  0.00  0.00     0.002 C 
ATOM      4  C   UNL d   1       9.637   4.017 -13.845  0.00  0.00     0.002 C 
ATOM      5  C   UNL d   1       8.658   2.871 -13.593  0.00  0.00     0.002 C 
ATOM      6  C   UNL d   1       8.169   2.209 -14.877  0.00  0.00     0.025 C 
ENDROOT
BRANCH   4   7
ATOM      7  C   UNL d   1      10.160   4.550 -12.521  0.00  0.00     0.035 C 
BRANCH   7   8
ATOM      8  C   UNL d   1       9.124   5.255 -11.661  0.00  0.00     0.250 C 
BRANCH   8   9
ATOM      9  N   UNL d   1       9.819   5.987 -10.607  0.00  0.00     0.137 N 
ATOM     10  C   UNL d   1       8.920   7.080 -10.280  0.00  0.00     0.251 C 
ATOM     11  C   UNL d   1       9.481   8.039  -9.227  0.00  0.00     0.040 C 
ATOM     12  C   UNL d   1       9.720   7.299  -7.889  0.00  0.00     0.028 C 
ATOM     13  C   UNL d   1      10.509   6.059  -8.260  0.00  0.00     0.040 C 
ATOM     14  C   UNL d   1       9.872   5.195  -9.372  0.00  0.00     0.251 C 
BRANCH  12  15
ATOM     15  C   UNL d   1      10.496   8.170  -6.893  0.00  0.00     0.002 A 
ATOM     16  C   UNL d   1      10.929   7.642  -5.655  0.00  0.00     0.115 A 
ATOM     17  C   UNL d   1      11.606   8.416  -4.745  0.00  0.00     0.119 A 
ATOM     18  O   UNL d   1      10.783   6.397  -5.149  0.00  0.00    -0.300 OA
ATOM     19  C   UNL d   1      11.896   9.758  -4.984  0.00  0.00     0.026 A 
ATOM     20  O   UNL d   1      11.916   7.690  -3.646  0.00  0.00    -0.300 OA
ATOM     21  C   UNL d   1      11.517  10.315  -6.223  0.00  0.00     0.002 A 
ATOM     22  C   UNL d   1      10.839   9.517  -7.167  0.00  0.00    -0.002 A 
ATOM     23  C   UNL d   1      11.406   6.420  -3.889  0.00  0.00     0.304 A 
ENDBRANCH  12  15
ENDBRANCH   8   9
ENDBRANCH   7   8
ENDBRANCH   4   7
BRANCH   1  24
ATOM     24  N   UNL d   1       8.892   1.253 -17.037  0.00  0.00    -0.221 NA
ATOM     25  C   UNL d   1       8.379   1.964 -18.046  0.00  0.00     0.346 C 
ATOM     26  O   UNL d   1       8.359   3.190 -18.077  0.00  0.00    -0.245 OA
ATOM     27  N   UNL d   1       7.819   1.205 -19.039  0.00  0.00    -0.281 N 
ATOM     28  C   UNL d   1       6.736   0.379 -18.801  0.00  0.00     0.060 A 
ATOM     29  C   UNL d   1       7.791   1.735 -20.409  0.00  0.00     0.115 A 
ATOM     30  C   UNL d   1       5.969   0.262 -19.954  0.00  0.00    -0.004 A 
ATOM     31  C   UNL d   1       6.301  -0.257 -17.604  0.00  0.00     0.017 A 
ATOM     32  C   UNL d   1       6.580   1.052 -21.089  0.00  0.00     0.052 A 
ATOM     33  C   UNL d   1       4.770  -0.480 -19.978  0.00  0.00    -0.003 A 
ATOM     34  C   UNL d   1       4.337  -1.117 -18.788  0.00  0.00    -0.000 A 
ATOM     35  C   UNL d   1       5.099  -1.004 -17.606  0.00  0.00     0.002 A 
ENDBRANCH   1  24
TORSDOF 5
