REMARK  6 active torsions:
REMARK  status: ('A' for Active; 'I' for Inactive)
REMARK    1  A    between atoms: O_2  and  C_3 
REMARK    2  A    between atoms: C_8  and  C_9 
REMARK    3  A    between atoms: C_9  and  C_10 
REMARK    4  A    between atoms: C_10  and  N_11 
REMARK    5  A    between atoms: N_14  and  C_15 
REMARK    6  A    between atoms: C_15  and  C_16 
ROOT
ATOM      1  N   UNL d   1       9.353   3.296 -14.964  0.00  0.00     0.142 N 
ATOM      2  C   UNL d   1      10.268   3.829 -13.968  0.00  0.00     0.285 C 
ATOM      3  C   UNL d   1       9.590   4.907 -13.113  0.00  0.00     0.286 C 
ATOM      4  N   UNL d   1       8.425   4.392 -12.402  0.00  0.00     0.148 N 
ATOM      5  C   UNL d   1       7.495   3.845 -13.385  0.00  0.00     0.286 C 
ATOM      6  C   UNL d   1       8.177   2.772 -14.269  0.00  0.00     0.285 C 
ENDROOT
BRANCH   1   7
ATOM      7  C   UNL d   1       9.983   2.250 -15.757  0.00  0.00     0.255 C 
BRANCH   7   8
ATOM      8  C   UNL d   1      11.131   2.700 -16.684  0.00  0.00     0.064 C 
BRANCH   8   9
ATOM      9  C   UNL d   1      11.669   1.614 -17.616  0.00  0.00     0.002 A 
ATOM     10  C   UNL d   1      12.795   1.877 -18.437  0.00  0.00     0.090 A 
ATOM     11  C   UNL d   1      13.299   0.851 -19.281  0.00  0.00     0.024 A 
ATOM     12  C   UNL d   1      12.680  -0.412 -19.322  0.00  0.00     0.002 A 
ATOM     13  C   UNL d   1      11.559  -0.666 -18.526  0.00  0.00    -0.000 A 
ATOM     14  C   UNL d   1      11.057   0.330 -17.675  0.00  0.00    -0.002 A 
BRANCH  10  15
ATOM     15  O   UNL d   1      13.380   3.132 -18.360  0.00  0.00    -0.328 OA
ATOM     16  C   UNL d   1      14.538   3.392 -19.154  0.00  0.00     0.181 C 
ENDBRANCH  10  15
ENDBRANCH   8   9
ENDBRANCH   7   8
ENDBRANCH   1   7
BRANCH   4  17
ATOM     17  C   UNL d   1       7.787   5.420 -11.568  0.00  0.00     0.301 C 
BRANCH  17  18
ATOM     18  C   UNL d   1       8.661   5.915 -10.464  0.00  0.00     0.111 A 
ATOM     19  O   UNL d   1       9.557   6.907 -10.786  0.00  0.00    -0.309 OA
ATOM     20  C   UNL d   1      10.252   7.207  -9.634  0.00  0.00     0.100 A 
ATOM     21  C   UNL d   1       9.764   6.408  -8.571  0.00  0.00     0.025 A 
ATOM     22  C   UNL d   1      11.294   8.137  -9.489  0.00  0.00     0.025 A 
ATOM     23  C   UNL d   1       8.745   5.570  -9.136  0.00  0.00     0.024 A 
ATOM     24  C   UNL d   1      10.363   6.598  -7.307  0.00  0.00     0.002 A 
ATOM     25  C   UNL d   1      11.408   7.534  -7.128  0.00  0.00     0.000 A 
ATOM     26  C   UNL d   1      11.877   8.301  -8.217  0.00  0.00     0.002 A 
ENDBRANCH  17  18
ENDBRANCH   4  17
TORSDOF 6
