REMARK  10 active torsions:
REMARK  status: ('A' for Active; 'I' for Inactive)
REMARK    1  A    between atoms: C_2  and  C_5 
REMARK    2  A    between atoms: C_7  and  N_8 
REMARK    3  A    between atoms: N_11  and  C_12 
REMARK    4  A    between atoms: C_12  and  C_13 
REMARK    5  A    between atoms: C_13  and  C_14 
REMARK    6  A    between atoms: C_14  and  C_15 
REMARK    7  A    between atoms: C_15  and  N_16 
REMARK       I    between atoms: N_16  and  C_17 
REMARK    8  A    between atoms: C_17  and  C_19 
REMARK    9  A    between atoms: C_22  and  C_23 
REMARK   10  A    between atoms: C_33  and  C_34 
ROOT
ATOM      1  N   UNL d   1       6.273  -1.033 -17.718  0.00  0.00    -0.330 N 
ATOM      2  C   UNL d   1       7.285  -0.029 -18.017  0.00  0.00     0.138 C 
ATOM      3  C   UNL d   1       8.035   0.359 -16.729  0.00  0.00     0.274 C 
ATOM      4  N   UNL d   1       7.087   0.808 -15.694  0.00  0.00     0.141 N 
ATOM      5  C   UNL d   1       6.168  -0.295 -15.377  0.00  0.00     0.274 C 
ATOM      6  C   UNL d   1       5.365  -0.689 -16.630  0.00  0.00     0.138 C 
ENDROOT
BRANCH   4   7
ATOM      7  C   UNL d   1       7.812   1.198 -14.490  0.00  0.00     0.251 C 
BRANCH   7   8
ATOM      8  C   UNL d   1       8.383   2.622 -14.627  0.00  0.00     0.037 C 
BRANCH   8   9
ATOM      9  C   UNL d   1       9.637   2.866 -13.772  0.00  0.00     0.029 C 
BRANCH   9  10
ATOM     10  C   UNL d   1      10.069   4.335 -13.760  0.00  0.00     0.129 C 
BRANCH  10  11
ATOM     11  N   UNL d   1      10.330   4.828 -15.105  0.00  0.00    -0.233 NA
ATOM     12  C   UNL d   1      11.533   5.084 -15.636  0.00  0.00     0.294 C 
ATOM     13  O   UNL d   1      12.590   4.834 -15.056  0.00  0.00    -0.264 OA
BRANCH  12  14
ATOM     14  C   UNL d   1      11.461   5.783 -16.956  0.00  0.00     0.158 A 
ATOM     15  N   UNL d   1      12.561   6.370 -17.569  0.00  0.00    -0.222 NA
ATOM     16  C   UNL d   1      12.113   6.904 -18.707  0.00  0.00     0.148 A 
ATOM     17  N   UNL d   1      10.723   6.673 -18.845  0.00  0.00    -0.290 N 
ATOM     18  C   UNL d   1      12.768   7.620 -19.743  0.00  0.00     0.037 A 
ATOM     19  C   UNL d   1      10.337   5.954 -17.728  0.00  0.00     0.105 A 
ATOM     20  C   UNL d   1      10.016   7.122 -19.930  0.00  0.00     0.076 A 
ATOM     21  C   UNL d   1      10.664   7.810 -20.929  0.00  0.00     0.016 A 
ATOM     22  C   UNL d   1      12.052   8.062 -20.834  0.00  0.00     0.004 A 
BRANCH  20  23
ATOM     23  C   UNL d   1       8.526   6.829 -20.002  0.00  0.00     0.226 C 
ATOM     24  O   UNL d   1       8.261   5.513 -20.433  0.00  0.00    -0.214 OA
ENDBRANCH  20  23
ENDBRANCH  12  14
ENDBRANCH  10  11
ENDBRANCH   9  10
ENDBRANCH   8   9
ENDBRANCH   7   8
ENDBRANCH   4   7
BRANCH   1  25
ATOM     25  C   UNL d   1       6.200  -2.257 -18.405  0.00  0.00     0.143 A 
ATOM     26  N   UNL d   1       6.627  -2.286 -19.688  0.00  0.00    -0.214 NA
ATOM     27  C   UNL d   1       6.541  -3.439 -20.358  0.00  0.00     0.140 A 
ATOM     28  N   UNL d   1       6.019  -4.568 -19.871  0.00  0.00    -0.227 NA
ATOM     29  C   UNL d   1       5.632  -4.581 -18.576  0.00  0.00     0.157 A 
ATOM     30  C   UNL d   1       5.698  -3.420 -17.789  0.00  0.00     0.060 A 
BRANCH  27  31
ATOM     31  C   UNL d   1       6.883  -3.420 -21.861  0.00  0.00     0.052 C 
ATOM     32  C   UNL d   1       7.547  -4.757 -22.275  0.00  0.00     0.008 C 
ATOM     33  C   UNL d   1       7.896  -2.298 -22.196  0.00  0.00     0.008 C 
ATOM     34  C   UNL d   1       5.609  -3.191 -22.690  0.00  0.00     0.008 C 
ENDBRANCH  27  31
BRANCH  29  35
ATOM     35  C   UNL d   1       5.103  -5.899 -18.015  0.00  0.00     0.435 C 
ATOM     36  F   UNL d   1       3.880  -6.115 -18.493  0.00  0.00    -0.165 F 
ATOM     37  F   UNL d   1       5.892  -6.911 -18.383  0.00  0.00    -0.165 F 
ATOM     38  F   UNL d   1       5.059  -5.892 -16.685  0.00  0.00    -0.165 F 
ENDBRANCH  29  35
ENDBRANCH   1  25
TORSDOF 10
