REMARK  5 active torsions:
REMARK  status: ('A' for Active; 'I' for Inactive)
REMARK    1  A    between atoms: C_5  and  N_6 
REMARK    2  A    between atoms: N_9  and  C_10 
REMARK    3  A    between atoms: C_10  and  C_11 
REMARK    4  A    between atoms: C_11  and  C_12 
REMARK    5  A    between atoms: C_12  and  N_13 
ROOT
ATOM      1  C   UNL d   1      10.305   7.117 -10.706  0.00  0.00     0.252 C 
ENDROOT
BRANCH   1   2
ATOM      2  N   UNL d   1       9.863   7.525  -9.383  0.00  0.00     0.141 N 
ATOM      3  C   UNL d   1      10.681   8.658  -8.956  0.00  0.00     0.274 C 
ATOM      4  C   UNL d   1      10.194   9.172  -7.598  0.00  0.00     0.137 C 
ATOM      5  N   UNL d   1      10.204   8.086  -6.624  0.00  0.00    -0.344 N 
ATOM      6  C   UNL d   1       9.476   6.891  -7.043  0.00  0.00     0.137 C 
ATOM      7  C   UNL d   1       9.986   6.429  -8.415  0.00  0.00     0.274 C 
BRANCH   5   8
ATOM      8  C   UNL d   1      10.885   8.194  -5.397  0.00  0.00     0.056 A 
ATOM      9  C   UNL d   1      11.360   7.046  -4.709  0.00  0.00     0.017 A 
ATOM     10  C   UNL d   1      11.995   7.168  -3.458  0.00  0.00    -0.003 A 
ATOM     11  C   UNL d   1      12.196   8.442  -2.892  0.00  0.00    -0.022 A 
ATOM     12  C   UNL d   1      12.877   8.602  -1.564  0.00  0.00     0.031 C 
ATOM     13  C   UNL d   1      11.733   9.582  -3.566  0.00  0.00    -0.003 A 
ATOM     14  C   UNL d   1      11.077   9.463  -4.802  0.00  0.00     0.017 A 
ENDBRANCH   5   8
ENDBRANCH   1   2
BRANCH   1  15
ATOM     15  C   UNL d   1       9.458   5.974 -11.283  0.00  0.00     0.060 C 
BRANCH  15  16
ATOM     16  C   UNL d   1       9.326   6.033 -12.819  0.00  0.00     0.111 C 
BRANCH  16  17
ATOM     17  N   UNL d   1       9.253   4.692 -13.433  0.00  0.00    -0.299 N 
ATOM     18  C   UNL d   1       8.002   3.983 -13.379  0.00  0.00     0.058 A 
ATOM     19  C   UNL d   1       7.818   2.800 -14.139  0.00  0.00    -0.006 A 
ATOM     20  C   UNL d   1       6.930   4.443 -12.573  0.00  0.00     0.017 A 
ATOM     21  C   UNL d   1       8.943   2.323 -15.038  0.00  0.00     0.038 C 
ATOM     22  C   UNL d   1       6.601   2.087 -14.070  0.00  0.00    -0.003 A 
ATOM     23  C   UNL d   1      10.321   2.698 -14.475  0.00  0.00     0.093 C 
ATOM     24  C   UNL d   1      10.378   4.145 -13.973  0.00  0.00     0.238 C 
ATOM     25  O   UNL d   1      11.458   4.740 -14.038  0.00  0.00    -0.272 OA
ATOM     26  C   UNL d   1       5.560   2.540 -13.233  0.00  0.00    -0.000 A 
ATOM     27  C   UNL d   1       5.733   3.719 -12.491  0.00  0.00     0.002 A 
ENDBRANCH  16  17
ENDBRANCH  15  16
ENDBRANCH   1  15
TORSDOF 5
