REMARK  8 active torsions:
REMARK  status: ('A' for Active; 'I' for Inactive)
REMARK    1  A    between atoms: C_2  and  C_3 
REMARK    2  A    between atoms: C_7  and  N_8 
REMARK    3  A    between atoms: N_11  and  C_12 
REMARK    4  A    between atoms: C_12  and  C_13 
REMARK    5  A    between atoms: C_13  and  C_14 
REMARK    6  A    between atoms: C_14  and  C_15 
REMARK    7  A    between atoms: C_15  and  N_16 
REMARK       I    between atoms: N_16  and  C_17 
REMARK    8  A    between atoms: C_17  and  C_19 
ROOT
ATOM      1  C   UNL d   1       7.822   2.407 -15.436  0.00  0.00     0.251 C 
ENDROOT
BRANCH   1   2
ATOM      2  N   UNL d   1       8.025   2.829 -14.048  0.00  0.00     0.141 N 
ATOM      3  C   UNL d   1       7.123   3.949 -13.746  0.00  0.00     0.274 C 
ATOM      4  C   UNL d   1       7.286   4.405 -12.282  0.00  0.00     0.137 C 
ATOM      5  N   UNL d   1       8.679   4.707 -12.021  0.00  0.00    -0.344 N 
ATOM      6  C   UNL d   1       9.655   3.705 -12.406  0.00  0.00     0.137 C 
ATOM      7  C   UNL d   1       9.420   3.248 -13.855  0.00  0.00     0.274 C 
BRANCH   5   8
ATOM      8  C   UNL d   1       9.060   5.902 -11.412  0.00  0.00     0.067 A 
ATOM      9  C   UNL d   1       9.050   7.074 -12.187  0.00  0.00     0.018 A 
ATOM     10  C   UNL d   1       9.448   8.298 -11.624  0.00  0.00     0.001 A 
ATOM     11  C   UNL d   1       9.871   8.357 -10.284  0.00  0.00    -0.003 A 
ATOM     12  C   UNL d   1       9.873   7.187  -9.491  0.00  0.00    -0.010 A 
ATOM     13  C   UNL d   1       9.459   5.960 -10.053  0.00  0.00     0.069 A 
ATOM     14 CL   UNL d   1       9.414   4.527  -9.078  0.00  0.00    -0.081 Cl
BRANCH  12  15
ATOM     15  C   UNL d   1      10.306   7.292  -8.036  0.00  0.00     0.027 C 
ATOM     16  C   UNL d   1       9.118   7.473  -7.082  0.00  0.00     0.005 C 
ENDBRANCH  12  15
ENDBRANCH   5   8
ENDBRANCH   1   2
BRANCH   1  17
ATOM     17  C   UNL d   1       8.402   1.008 -15.708  0.00  0.00     0.037 C 
BRANCH  17  18
ATOM     18  C   UNL d   1       7.600   0.219 -16.753  0.00  0.00     0.029 C 
BRANCH  18  19
ATOM     19  C   UNL d   1       6.161  -0.134 -16.295  0.00  0.00     0.129 C 
BRANCH  19  20
ATOM     20  N   UNL d   1       5.497  -1.085 -17.179  0.00  0.00    -0.233 NA
ATOM     21  C   UNL d   1       5.215  -0.883 -18.476  0.00  0.00     0.298 C 
ATOM     22  O   UNL d   1       5.499   0.150 -19.080  0.00  0.00    -0.263 OA
BRANCH  21  23
ATOM     23  C   UNL d   1       4.573  -2.023 -19.154  0.00  0.00     0.157 A 
ATOM     24  O   UNL d   1       4.718  -2.129 -20.515  0.00  0.00    -0.302 OA
ATOM     25  C   UNL d   1       4.014  -3.241 -20.917  0.00  0.00     0.100 A 
ATOM     26  C   UNL d   1       3.410  -3.844 -19.792  0.00  0.00     0.025 A 
ATOM     27  C   UNL d   1       3.865  -3.728 -22.227  0.00  0.00     0.025 A 
ATOM     28  C   UNL d   1       3.783  -3.039 -18.670  0.00  0.00     0.032 A 
ATOM     29  C   UNL d   1       2.613  -4.987 -20.022  0.00  0.00     0.002 A 
ATOM     30  C   UNL d   1       2.444  -5.499 -21.330  0.00  0.00     0.000 A 
ATOM     31  C   UNL d   1       3.071  -4.873 -22.429  0.00  0.00     0.002 A 
ENDBRANCH  21  23
ENDBRANCH  19  20
ENDBRANCH  18  19
ENDBRANCH  17  18
ENDBRANCH   1  17
TORSDOF 8
