REMARK  7 active torsions:
REMARK  status: ('A' for Active; 'I' for Inactive)
REMARK    1  A    between atoms: C_2  and  C_3 
REMARK       I    between atoms: C_2  and  N_10 
REMARK    2  A    between atoms: C_3  and  C_4 
REMARK    3  A    between atoms: N_10  and  C_11 
REMARK    4  A    between atoms: C_14  and  C_15 
REMARK    5  A    between atoms: C_15  and  C_16 
REMARK    6  A    between atoms: C_16  and  N_17 
REMARK    7  A    between atoms: C_20  and  C_21 
ROOT
ATOM      1  C   UNL d   1       9.194   6.447 -11.492  0.00  0.00     0.035 C 
ENDROOT
BRANCH   1   2
ATOM      2  C   UNL d   1       9.448   7.555 -10.474  0.00  0.00     0.002 C 
ATOM      3  C   UNL d   1       9.161   7.088  -9.027  0.00  0.00     0.002 C 
ATOM      4  C   UNL d   1       9.374   8.237  -8.062  0.00  0.00     0.024 C 
ATOM      5  C   UNL d   1      10.851   8.719  -8.145  0.00  0.00     0.106 C 
ATOM      6  C   UNL d   1      11.146   9.194  -9.566  0.00  0.00     0.024 C 
ATOM      7  C   UNL d   1      10.892   8.057 -10.537  0.00  0.00     0.002 C 
BRANCH   5   8
ATOM      8  N   UNL d   1      11.085   9.794  -7.225  0.00  0.00    -0.240 NA
ATOM      9  C   UNL d   1      11.032   9.722  -5.900  0.00  0.00     0.251 C 
ATOM     10  O   UNL d   1      11.009  10.764  -5.212  0.00  0.00    -0.271 OA
BRANCH   9  11
ATOM     11  C   UNL d   1      10.931   8.355  -5.242  0.00  0.00     0.090 C 
BRANCH  11  12
ATOM     12  C   UNL d   1      11.950   8.147  -4.133  0.00  0.00     0.014 C 
ATOM     13  C   UNL d   1      11.832   9.140  -2.973  0.00  0.00     0.033 C 
ATOM     14  C   UNL d   1      12.834   8.813  -1.884  0.00  0.00     0.142 C 
ATOM     15  O   UNL d   1      12.648   7.476  -1.441  0.00  0.00    -0.354 OA
ATOM     16  C   UNL d   1      12.816   6.498  -2.456  0.00  0.00     0.142 C 
ATOM     17  C   UNL d   1      11.844   6.704  -3.614  0.00  0.00     0.033 C 
ENDBRANCH  11  12
ENDBRANCH   9  11
ENDBRANCH   5   8
ENDBRANCH   1   2
BRANCH   1  18
ATOM     18  C   UNL d   1       7.720   5.993 -11.572  0.00  0.00     0.250 C 
BRANCH  18  19
ATOM     19  N   UNL d   1       7.487   5.068 -12.703  0.00  0.00     0.137 N 
ATOM     20  C   UNL d   1       8.450   3.982 -12.626  0.00  0.00     0.251 C 
ATOM     21  C   UNL d   1       8.238   3.007 -13.787  0.00  0.00     0.040 C 
ATOM     22  C   UNL d   1       6.806   2.453 -13.875  0.00  0.00     0.028 C 
ATOM     23  C   UNL d   1       5.793   3.595 -13.737  0.00  0.00     0.040 C 
ATOM     24  C   UNL d   1       6.137   4.537 -12.562  0.00  0.00     0.251 C 
BRANCH  22  25
ATOM     25  C   UNL d   1       6.617   1.591 -15.134  0.00  0.00     0.002 A 
ATOM     26  C   UNL d   1       5.760   0.470 -15.110  0.00  0.00     0.115 A 
ATOM     27  C   UNL d   1       5.507  -0.268 -16.247  0.00  0.00     0.119 A 
ATOM     28  O   UNL d   1       4.994  -0.010 -14.092  0.00  0.00    -0.300 OA
ATOM     29  C   UNL d   1       6.117   0.038 -17.478  0.00  0.00     0.026 A 
ATOM     30  O   UNL d   1       4.580  -1.229 -15.982  0.00  0.00    -0.300 OA
ATOM     31  C   UNL d   1       7.002   1.138 -17.514  0.00  0.00     0.002 A 
ATOM     32  C   UNL d   1       7.240   1.911 -16.353  0.00  0.00    -0.002 A 
ATOM     33  C   UNL d   1       4.276  -1.095 -14.623  0.00  0.00     0.304 A 
ENDBRANCH  22  25
ENDBRANCH  18  19
ENDBRANCH   1  18
TORSDOF 7
