REMARK  6 active torsions:
REMARK  status: ('A' for Active; 'I' for Inactive)
REMARK       I    between atoms: C_2  and  N_3 
REMARK    1  A    between atoms: C_2  and  C_22 
REMARK    2  A    between atoms: N_3  and  C_4 
REMARK    3  A    between atoms: C_4  and  C_5 
REMARK    4  A    between atoms: C_5  and  C_6 
REMARK    5  A    between atoms: C_6  and  C_7 
REMARK    6  A    between atoms: C_7  and  N_8 
ROOT
ATOM      1  N   UNL d   1       8.658   5.295 -11.936  0.00  0.00     0.143 N 
ATOM      2  C   UNL d   1       7.373   5.039 -11.290  0.00  0.00     0.282 C 
ATOM      3  C   UNL d   1       6.266   4.644 -12.281  0.00  0.00     0.178 C 
ATOM      4  O   UNL d   1       6.676   3.537 -13.068  0.00  0.00    -0.348 OA
ATOM      5  C   UNL d   1       7.908   3.769 -13.743  0.00  0.00     0.173 C 
ATOM      6  C   UNL d   1       8.301   2.604 -14.633  0.00  0.00     0.029 A 
ATOM      7  C   UNL d   1       7.304   1.893 -15.333  0.00  0.00     0.000 A 
ATOM      8  C   UNL d   1       7.656   0.818 -16.170  0.00  0.00    -0.000 A 
ATOM      9  C   UNL d   1       9.006   0.449 -16.302  0.00  0.00     0.002 A 
ATOM     10  C   UNL d   1      10.006   1.157 -15.606  0.00  0.00     0.024 A 
ATOM     11  C   UNL d   1       9.664   2.249 -14.780  0.00  0.00     0.092 A 
ATOM     12  O   UNL d   1      10.675   2.917 -14.118  0.00  0.00    -0.329 OA
ATOM     13  C   UNL d   1      10.352   4.167 -13.510  0.00  0.00     0.185 C 
ATOM     14  C   UNL d   1       9.023   4.104 -12.728  0.00  0.00     0.280 C 
ENDROOT
BRANCH   1  15
ATOM     15  C   UNL d   1       9.671   5.653 -10.936  0.00  0.00     0.251 C 
BRANCH  15  16
ATOM     16  C   UNL d   1       9.302   6.785  -9.964  0.00  0.00     0.037 C 
BRANCH  16  17
ATOM     17  C   UNL d   1      10.285   6.949  -8.802  0.00  0.00     0.029 C 
BRANCH  17  18
ATOM     18  C   UNL d   1       9.817   8.008  -7.793  0.00  0.00     0.129 C 
BRANCH  18  19
ATOM     19  N   UNL d   1      10.501   7.848  -6.515  0.00  0.00    -0.233 NA
ATOM     20  C   UNL d   1      11.034   8.829  -5.778  0.00  0.00     0.298 C 
ATOM     21  O   UNL d   1      11.060  10.008  -6.130  0.00  0.00    -0.263 OA
BRANCH  20  22
ATOM     22  C   UNL d   1      11.551   8.430  -4.453  0.00  0.00     0.157 A 
ATOM     23  O   UNL d   1      11.801   9.405  -3.533  0.00  0.00    -0.300 OA
ATOM     24  C   UNL d   1      12.261   8.788  -2.413  0.00  0.00     0.123 A 
ATOM     25  C   UNL d   1      12.307   7.434  -2.597  0.00  0.00     0.029 A 
ATOM     26  C   UNL d   1      11.858   7.203  -3.926  0.00  0.00     0.032 A 
ENDBRANCH  20  22
ENDBRANCH  18  19
ENDBRANCH  17  18
ENDBRANCH  16  17
ENDBRANCH  15  16
ENDBRANCH   1  15
TORSDOF 6
