REMARK  3 active torsions:
REMARK  status: ('A' for Active; 'I' for Inactive)
REMARK    1  A    between atoms: C_13  and  N_14 
REMARK    2  A    between atoms: N_17  and  C_18 
REMARK    3  A    between atoms: C_18  and  C_19 
ROOT
ATOM      1  C   UNL d   1      13.119   7.329 -16.357  0.00  0.00     0.025 C 
ATOM      2  C   UNL d   1      13.119   6.395 -17.586  0.00  0.00     0.093 A 
ATOM      3  C   UNL d   1      12.956   7.169 -18.887  0.00  0.00     0.050 A 
ATOM      4  C   UNL d   1      11.701   6.640 -19.519  0.00  0.00    -0.005 A 
ATOM      5  C   UNL d   1      11.098   7.013 -20.733  0.00  0.00    -0.003 A 
ATOM      6  C   UNL d   1       9.909   6.371 -21.127  0.00  0.00    -0.001 A 
ATOM      7  C   UNL d   1       9.332   5.383 -20.307  0.00  0.00    -0.003 A 
ATOM      8  C   UNL d   1       9.931   4.987 -19.090  0.00  0.00    -0.006 A 
ATOM      9  C   UNL d   1      11.144   5.638 -18.709  0.00  0.00     0.054 A 
ATOM     10  N   UNL d   1      12.000   5.433 -17.569  0.00  0.00    -0.300 N 
ATOM     11  C   UNL d   1      12.076   4.402 -16.682  0.00  0.00     0.269 C 
ATOM     12  O   UNL d   1      13.129   4.167 -16.083  0.00  0.00    -0.270 OA
ATOM     13  C   UNL d   1      10.886   3.512 -16.290  0.00  0.00     0.297 C 
ATOM     14  C   UNL d   1      10.191   2.951 -17.527  0.00  0.00     0.048 C 
ATOM     15  C   UNL d   1       9.279   3.987 -18.166  0.00  0.00     0.030 C 
ENDROOT
BRANCH  13  16
ATOM     16  N   UNL d   1       9.980   4.114 -15.275  0.00  0.00     0.148 N 
ATOM     17  C   UNL d   1       9.075   3.142 -14.645  0.00  0.00     0.286 C 
ATOM     18  C   UNL d   1       8.128   3.805 -13.611  0.00  0.00     0.286 C 
ATOM     19  N   UNL d   1       8.880   4.470 -12.550  0.00  0.00     0.146 N 
ATOM     20  C   UNL d   1       9.757   5.422 -13.186  0.00  0.00     0.286 C 
ATOM     21  C   UNL d   1      10.697   4.801 -14.206  0.00  0.00     0.286 C 
BRANCH  19  22
ATOM     22  C   UNL d   1       8.011   5.132 -11.560  0.00  0.00     0.277 C 
BRANCH  22  23
ATOM     23  C   UNL d   1       8.762   5.835 -10.421  0.00  0.00     0.011 A 
ATOM     24  C   UNL d   1       9.457   7.042 -10.650  0.00  0.00    -0.002 A 
ATOM     25  C   UNL d   1      10.165   7.678  -9.591  0.00  0.00     0.011 A 
ATOM     26  C   UNL d   1      10.096   7.154  -8.293  0.00  0.00     0.058 A 
ATOM     27  C   UNL d   1       9.351   5.985  -8.046  0.00  0.00     0.011 A 
ATOM     28 CL   UNL d   1      10.918   7.957  -7.001  0.00  0.00    -0.082 Cl
ATOM     29  C   UNL d   1       8.698   5.317  -9.106  0.00  0.00    -0.002 A 
ENDBRANCH  22  23
ENDBRANCH  19  22
ENDBRANCH  13  16
TORSDOF 3
