REMARK  5 active torsions:
REMARK  status: ('A' for Active; 'I' for Inactive)
REMARK    1  A    between atoms: C_2  and  N_3 
REMARK    2  A    between atoms: C_7  and  C_8 
REMARK    3  A    between atoms: C_8  and  N_9 
REMARK       I    between atoms: N_9  and  C_10 
REMARK    4  A    between atoms: C_10  and  C_12 
REMARK    5  A    between atoms: C_20  and  O_21 
ROOT
ATOM      1  C   UNL d   1       9.073   3.754 -13.558  0.00  0.00     0.093 A 
ATOM      2  C   UNL d   1       7.792   3.172 -13.733  0.00  0.00     0.075 A 
ATOM      3 CL   UNL d   1       6.351   3.865 -13.066  0.00  0.00    -0.081 Cl
ATOM      4  C   UNL d   1       7.676   1.960 -14.461  0.00  0.00     0.071 A 
ATOM      5 CL   UNL d   1       6.175   1.128 -14.590  0.00  0.00    -0.081 Cl
ATOM      6  C   UNL d   1       8.803   1.387 -15.062  0.00  0.00     0.042 A 
ATOM      7  C   UNL d   1      10.060   1.986 -14.937  0.00  0.00     0.154 A 
ATOM      8  O   UNL d   1      11.127   1.381 -15.526  0.00  0.00    -0.188 OA
ATOM      9  C   UNL d   1      10.212   3.171 -14.185  0.00  0.00     0.125 A 
ENDROOT
BRANCH   1  10
ATOM     10  C   UNL d   1       9.244   4.993 -12.740  0.00  0.00     0.278 C 
ATOM     11  N   UNL d   1       8.711   4.957 -11.505  0.00  0.00    -0.232 NA
ATOM     12  O   UNL d   1       9.848   5.965 -13.190  0.00  0.00    -0.265 OA
BRANCH  11  13
ATOM     13  C   UNL d   1       8.591   6.115 -10.635  0.00  0.00     0.162 C 
BRANCH  13  14
ATOM     14  C   UNL d   1       9.835   6.271  -9.735  0.00  0.00     0.243 C 
ATOM     15  N   UNL d   1       9.910   7.564  -9.058  0.00  0.00     0.137 N 
ATOM     16  C   UNL d   1      10.854   7.360  -7.962  0.00  0.00     0.250 C 
ATOM     17  C   UNL d   1      10.505   5.992  -7.413  0.00  0.00     0.037 C 
ATOM     18  C   UNL d   1       9.842   5.259  -8.579  0.00  0.00     0.037 C 
BRANCH  15  19
ATOM     19  C   UNL d   1      10.243   8.674  -9.943  0.00  0.00     0.250 C 
ATOM     20  C   UNL d   1      11.756   8.896 -10.123  0.00  0.00     0.037 C 
ENDBRANCH  15  19
ENDBRANCH  13  14
ENDBRANCH  11  13
ENDBRANCH   1  10
BRANCH   9  21
ATOM     21  O   UNL d   1      11.463   3.724 -14.049  0.00  0.00    -0.326 OA
ATOM     22  C   UNL d   1      11.914   4.414 -15.206  0.00  0.00     0.181 C 
ENDBRANCH   9  21
TORSDOF 5
