REMARK  0 active torsions:
REMARK  status: ('A' for Active; 'I' for Inactive)
ROOT
ATOM      1  C   UNL d   1      12.737   9.116  -6.930  0.00  0.00     0.031 C 
ATOM      2  C   UNL d   1      11.603   8.146  -7.144  0.00  0.00    -0.026 A 
ATOM      3  C   UNL d   1      10.925   7.742  -6.019  0.00  0.00    -0.005 A 
ATOM      4  C   UNL d   1       9.828   6.898  -6.148  0.00  0.00    -0.005 A 
ATOM      5  C   UNL d   1       9.359   6.446  -7.414  0.00  0.00    -0.021 A 
ATOM      6  C   UNL d   1       8.127   5.620  -7.513  0.00  0.00     0.031 C 
ATOM      7  C   UNL d   1      10.102   6.836  -8.573  0.00  0.00     0.011 A 
ATOM      8  C   UNL d   1      11.242   7.693  -8.432  0.00  0.00    -0.025 A 
ATOM      9  C   UNL d   1      12.024   8.060  -9.658  0.00  0.00     0.026 C 
ATOM     10  C   UNL d   1      11.324   9.104 -10.534  0.00  0.00     0.009 C 
ATOM     11  C   UNL d   1       9.861   8.767 -10.985  0.00  0.00     0.030 C 
ATOM     12  C   UNL d   1       9.552   7.312 -11.023  0.00  0.00     0.018 A 
ATOM     13  C   UNL d   1       9.126   6.508 -12.048  0.00  0.00     0.119 A 
ATOM     14  N   UNL d   1       9.044   5.233 -11.537  0.00  0.00    -0.147 NA
ATOM     15  N   UNL d   1       9.380   5.170 -10.234  0.00  0.00    -0.148 NA
ATOM     16  C   UNL d   1       9.661   6.434  -9.916  0.00  0.00     0.100 A 
ENDROOT
TORSDOF 0
