REMARK  3 active torsions:
REMARK  status: ('A' for Active; 'I' for Inactive)
REMARK    1  A    between atoms: C_2  and  C_4 
REMARK    2  A    between atoms: C_4  and  N_5 
REMARK    3  A    between atoms: N_8  and  C_9 
ROOT
ATOM      1  N   UNL d   1      11.272   8.470  -5.975  0.00  0.00     0.144 N 
ATOM      2  C   UNL d   1      11.783   9.024  -7.229  0.00  0.00     0.274 C 
ATOM      3  C   UNL d   1      11.845   7.977  -8.356  0.00  0.00     0.137 C 
ATOM      4  N   UNL d   1      10.547   7.321  -8.502  0.00  0.00    -0.344 N 
ATOM      5  C   UNL d   1       9.946   6.810  -7.278  0.00  0.00     0.137 C 
ATOM      6  C   UNL d   1       9.947   7.894  -6.199  0.00  0.00     0.274 C 
ENDROOT
BRANCH   4   7
ATOM      7  C   UNL d   1       9.890   7.216  -9.746  0.00  0.00     0.068 A 
ATOM      8  C   UNL d   1       9.275   6.012 -10.194  0.00  0.00     0.084 A 
ATOM      9  C   UNL d   1       8.645   5.973 -11.459  0.00  0.00     0.070 A 
ATOM     10 CL   UNL d   1       9.341   4.551  -9.256  0.00  0.00    -0.080 Cl
ATOM     11  C   UNL d   1       8.629   7.111 -12.281  0.00  0.00     0.012 A 
ATOM     12 CL   UNL d   1       7.902   4.537 -12.049  0.00  0.00    -0.081 Cl
ATOM     13  C   UNL d   1       9.227   8.301 -11.848  0.00  0.00     0.002 A 
ATOM     14  C   UNL d   1       9.859   8.352 -10.593  0.00  0.00     0.018 A 
ENDBRANCH   4   7
BRANCH   1  15
ATOM     15  C   UNL d   1      11.249   9.455  -4.901  0.00  0.00     0.283 C 
BRANCH  15  16
ATOM     16  C   UNL d   1      12.281   9.190  -3.804  0.00  0.00     0.186 C 
ATOM     17  C   UNL d   1      12.356   7.726  -3.335  0.00  0.00     0.038 C 
ATOM     18  O   UNL d   1      11.861   9.989  -2.723  0.00  0.00    -0.221 OA
ENDBRANCH  15  16
ENDBRANCH   1  15
TORSDOF 3
