REMARK  4 active torsions:
REMARK  status: ('A' for Active; 'I' for Inactive)
REMARK    1  A    between atoms: C_8  and  N_9 
REMARK    2  A    between atoms: N_9  and  C_10 
REMARK    3  A    between atoms: C_10  and  C_11 
REMARK    4  A    between atoms: C_11  and  C_12 
ROOT
ATOM      1  C   UNL d   1       4.833   3.042 -12.617  0.00  0.00     0.031 C 
ATOM      2  C   UNL d   1       6.164   2.942 -13.274  0.00  0.00    -0.022 A 
ATOM      3  C   UNL d   1       6.429   1.910 -14.186  0.00  0.00    -0.003 A 
ATOM      4  C   UNL d   1       7.719   1.778 -14.748  0.00  0.00     0.019 A 
ATOM      5  C   UNL d   1       8.742   2.674 -14.364  0.00  0.00     0.086 A 
ATOM      6  C   UNL d   1       8.481   3.697 -13.407  0.00  0.00     0.053 A 
ATOM      7  C   UNL d   1       7.168   3.852 -12.911  0.00  0.00     0.000 A 
ATOM      8  C   UNL d   1       9.553   4.582 -12.827  0.00  0.00     0.160 C 
ATOM      9  N   UNL d   1      10.521   5.105 -13.515  0.00  0.00    -0.224 NA
ATOM     10  C   UNL d   1      10.818   4.843 -14.851  0.00  0.00     0.119 A 
ATOM     11  C   UNL d   1      11.493   5.859 -15.547  0.00  0.00     0.024 A 
ATOM     12  C   UNL d   1      11.886   5.661 -16.878  0.00  0.00     0.022 A 
ATOM     13  C   UNL d   1      11.647   4.407 -17.456  0.00  0.00     0.101 A 
ATOM     14  N   UNL d   1      11.047   3.399 -16.796  0.00  0.00    -0.224 NA
ATOM     15  C   UNL d   1      10.636   3.616 -15.536  0.00  0.00     0.180 A 
ATOM     16  N   UNL d   1       9.989   2.518 -14.972  0.00  0.00    -0.225 NA
ENDROOT
BRANCH   8  17
ATOM     17  N   UNL d   1       9.444   4.773 -11.454  0.00  0.00    -0.253 NA
BRANCH  17  18
ATOM     18  C   UNL d   1       9.758   6.018 -10.752  0.00  0.00     0.134 C 
BRANCH  18  19
ATOM     19  C   UNL d   1       9.816   5.822  -9.223  0.00  0.00     0.072 C 
BRANCH  19  20
ATOM     20  C   UNL d   1      10.246   7.087  -8.511  0.00  0.00     0.061 A 
ATOM     21  N   UNL d   1      11.447   7.603  -8.848  0.00  0.00    -0.248 NA
ATOM     22  C   UNL d   1      11.882   8.697  -8.205  0.00  0.00     0.099 A 
ATOM     23  C   UNL d   1      11.153   9.315  -7.174  0.00  0.00     0.021 A 
ATOM     24  C   UNL d   1       9.924   8.750  -6.795  0.00  0.00     0.003 A 
ATOM     25  C   UNL d   1       9.456   7.623  -7.480  0.00  0.00     0.015 A 
ENDBRANCH  19  20
ENDBRANCH  18  19
ENDBRANCH  17  18
ENDBRANCH   8  17
TORSDOF 4
