REMARK  7 active torsions:
REMARK  status: ('A' for Active; 'I' for Inactive)
REMARK    1  A    between atoms: C_1  and  C_9 
REMARK    2  A    between atoms: C_2  and  C_3 
REMARK    3  A    between atoms: C_9  and  O_10 
REMARK    4  A    between atoms: O_10  and  C_11 
REMARK    5  A    between atoms: C_11  and  C_12 
REMARK    6  A    between atoms: N_15  and  C_16 
REMARK    7  A    between atoms: C_16  and  C_17 
ROOT
ATOM      1  C   UNL d   1       9.731   6.130 -10.555  0.00  0.00     0.034 C 
ATOM      2  C   UNL d   1       8.809   6.798 -11.578  0.00  0.00     0.038 C 
ATOM      3  C   UNL d   1       8.960   6.162 -12.965  0.00  0.00     0.251 C 
ATOM      4  N   UNL d   1       8.678   4.732 -12.920  0.00  0.00     0.141 N 
ATOM      5  C   UNL d   1       9.624   4.070 -12.040  0.00  0.00     0.251 C 
ATOM      6  C   UNL d   1       9.455   4.619 -10.607  0.00  0.00     0.038 C 
ENDROOT
BRANCH   1   7
ATOM      7  C   UNL d   1       9.489   6.667  -9.139  0.00  0.00     0.144 C 
BRANCH   7   8
ATOM      8  O   UNL d   1       9.879   8.030  -9.104  0.00  0.00    -0.341 OA
BRANCH   8   9
ATOM      9  C   UNL d   1       9.285   8.786  -8.071  0.00  0.00     0.218 C 
BRANCH   9  10
ATOM     10  C   UNL d   1      10.007   8.618  -6.813  0.00  0.00    -0.054 C 
ATOM     11  C   UNL d   1      10.643   8.468  -5.784  0.00  0.00    -0.062 C 
BRANCH  11  12
ATOM     12  C   UNL d   1      11.364   8.284  -4.546  0.00  0.00     0.042 A 
ATOM     13  C   UNL d   1      11.752   6.988  -4.147  0.00  0.00     0.008 A 
ATOM     14  C   UNL d   1      12.354   6.794  -2.891  0.00  0.00     0.001 A 
ATOM     15  C   UNL d   1      12.544   7.898  -2.036  0.00  0.00     0.000 A 
ATOM     16  C   UNL d   1      12.142   9.186  -2.432  0.00  0.00     0.001 A 
ATOM     17  C   UNL d   1      11.540   9.384  -3.682  0.00  0.00     0.008 A 
ENDBRANCH  11  12
ENDBRANCH   9  10
ENDBRANCH   8   9
ENDBRANCH   7   8
ENDBRANCH   1   7
BRANCH   4  18
ATOM     18  C   UNL d   1       8.788   4.171 -14.274  0.00  0.00     0.277 C 
BRANCH  18  19
ATOM     19  C   UNL d   1       8.184   2.787 -14.396  0.00  0.00     0.011 A 
ATOM     20  C   UNL d   1       8.984   1.695 -14.796  0.00  0.00    -0.002 A 
ATOM     21  C   UNL d   1       8.417   0.409 -14.904  0.00  0.00    -0.000 A 
ATOM     22  C   UNL d   1       7.056   0.207 -14.615  0.00  0.00    -0.000 A 
ATOM     23  C   UNL d   1       6.255   1.298 -14.211  0.00  0.00    -0.000 A 
ATOM     24  C   UNL d   1       6.823   2.584 -14.108  0.00  0.00    -0.002 A 
ENDBRANCH  18  19
ENDBRANCH   4  18
TORSDOF 7
