REMARK  9 active torsions:
REMARK  status: ('A' for Active; 'I' for Inactive)
REMARK    1  A    between atoms: C_3  and  S_4 
REMARK    2  A    between atoms: S_4  and  C_5 
REMARK    3  A    between atoms: C_5  and  C_6 
REMARK    4  A    between atoms: C_6  and  C_7 
REMARK    5  A    between atoms: C_7  and  N_8 
REMARK    6  A    between atoms: C_12  and  C_13 
REMARK    7  A    between atoms: C_16  and  C_17 
REMARK    8  A    between atoms: C_26  and  C_27 
REMARK    9  A    between atoms: C_30  and  S_31 
ROOT
ATOM      1  C   UNL d   1       8.040   4.212 -13.419  0.00  0.00     0.067 C 
ENDROOT
BRANCH   1   2
ATOM      2  S   UNL d   1       8.242   5.953 -12.883  0.00  0.00    -0.075 SA
BRANCH   2   3
ATOM      3  C   UNL d   1       8.937   5.811 -11.263  0.00  0.00     0.193 A 
ATOM      4  N   UNL d   1       9.450   6.864 -10.597  0.00  0.00    -0.289 N 
ATOM      5  C   UNL d   1       9.528   8.246 -11.032  0.00  0.00     0.134 C 
ATOM      6  C   UNL d   1       9.737   6.324  -9.401  0.00  0.00     0.167 A 
ATOM      7  N   UNL d   1       9.473   5.016  -9.325  0.00  0.00    -0.128 NA
ATOM      8  N   UNL d   1       8.994   4.679 -10.570  0.00  0.00    -0.122 NA
BRANCH   6   9
ATOM      9  C   UNL d   1      10.264   7.032  -8.257  0.00  0.00     0.036 A 
ATOM     10  C   UNL d   1      11.284   7.996  -8.407  0.00  0.00     0.004 A 
ATOM     11  C   UNL d   1      11.771   8.681  -7.279  0.00  0.00     0.013 A 
ATOM     12  C   UNL d   1      11.248   8.369  -6.003  0.00  0.00     0.107 A 
ATOM     13  C   UNL d   1      10.262   7.382  -5.851  0.00  0.00     0.013 A 
ATOM     14  C   UNL d   1       9.743   6.742  -6.980  0.00  0.00     0.004 A 
BRANCH  12  15
ATOM     15  S   UNL d   1      11.847   9.202  -4.571  0.00  0.00     0.302 S 
ATOM     16  N   UNL d   1      11.873   7.987  -3.369  0.00  0.00    -0.043 N 
ATOM     17  O   UNL d   1      13.243   9.580  -4.820  0.00  0.00    -0.197 OA
ATOM     18  O   UNL d   1      10.842  10.209  -4.175  0.00  0.00    -0.197 OA
ENDBRANCH  12  15
ENDBRANCH   6   9
ENDBRANCH   2   3
ENDBRANCH   1   2
BRANCH   1  19
ATOM     19  C   UNL d   1       8.909   3.748 -14.606  0.00  0.00     0.047 C 
BRANCH  19  20
ATOM     20  C   UNL d   1       9.723   4.825 -15.340  0.00  0.00     0.251 C 
BRANCH  20  21
ATOM     21  N   UNL d   1      10.604   4.351 -16.411  0.00  0.00     0.143 N 
ATOM     22  C   UNL d   1      11.216   5.504 -17.079  0.00  0.00     0.284 C 
ATOM     23  C   UNL d   1      12.225   5.082 -18.160  0.00  0.00     0.171 C 
ATOM     24  O   UNL d   1      13.210   4.222 -17.593  0.00  0.00    -0.348 OA
ATOM     25  C   UNL d   1      12.638   3.069 -16.980  0.00  0.00     0.178 C 
ATOM     26  C   UNL d   1      11.667   3.503 -15.884  0.00  0.00     0.282 C 
BRANCH  23  27
ATOM     27  C   UNL d   1      12.896   6.293 -18.791  0.00  0.00     0.007 A 
ATOM     28  C   UNL d   1      14.023   6.884 -18.171  0.00  0.00    -0.002 A 
ATOM     29  C   UNL d   1      14.638   8.004 -18.753  0.00  0.00     0.004 A 
ATOM     30  C   UNL d   1      14.137   8.554 -19.953  0.00  0.00     0.071 A 
ATOM     31  C   UNL d   1      13.007   7.966 -20.566  0.00  0.00     0.004 A 
ATOM     32  C   UNL d   1      12.390   6.846 -19.984  0.00  0.00    -0.002 A 
BRANCH  30  33
ATOM     33  C   UNL d   1      14.816   9.766 -20.567  0.00  0.00     0.419 C 
ATOM     34  F   UNL d   1      14.727  10.790 -19.717  0.00  0.00    -0.166 F 
ATOM     35  F   UNL d   1      16.103   9.486 -20.774  0.00  0.00    -0.166 F 
ATOM     36  F   UNL d   1      14.271  10.131 -21.731  0.00  0.00    -0.166 F 
ENDBRANCH  30  33
ENDBRANCH  23  27
ENDBRANCH  20  21
ENDBRANCH  19  20
ENDBRANCH   1  19
TORSDOF 9
