REMARK  3 active torsions:
REMARK  status: ('A' for Active; 'I' for Inactive)
REMARK    1  A    between atoms: C_9  and  N_10 
REMARK    2  A    between atoms: N_13  and  C_14 
REMARK    3  A    between atoms: C_14  and  C_15 
ROOT
ATOM      1  N   UNL d   1       9.517   5.524 -10.810  0.00  0.00    -0.330 N 
ATOM      2  C   UNL d   1       9.056   4.714  -9.685  0.00  0.00     0.138 C 
ATOM      3  C   UNL d   1       8.451   5.624  -8.610  0.00  0.00     0.275 C 
ATOM      4  N   UNL d   1       9.449   6.598  -8.188  0.00  0.00     0.145 N 
ATOM      5  C   UNL d   1       9.849   7.434  -9.314  0.00  0.00     0.275 C 
ATOM      6  C   UNL d   1      10.465   6.538 -10.350  0.00  0.00     0.138 C 
ENDROOT
BRANCH   1   7
ATOM      7  C   UNL d   1       9.346   5.192 -12.163  0.00  0.00     0.142 C 
ATOM      8  N   UNL d   1      10.312   5.158 -13.018  0.00  0.00    -0.227 NA
ATOM      9  C   UNL d   1      10.229   4.825 -14.397  0.00  0.00     0.101 A 
ATOM     10  C   UNL d   1       9.404   3.806 -14.956  0.00  0.00     0.099 A 
ATOM     11  C   UNL d   1      11.108   5.514 -15.275  0.00  0.00     0.032 A 
ATOM     12  C   UNL d   1       9.464   3.510 -16.335  0.00  0.00     0.021 A 
ATOM     13  N   UNL d   1       8.460   3.114 -14.199  0.00  0.00    -0.244 NA
ATOM     14  C   UNL d   1      10.328   4.222 -17.190  0.00  0.00     0.013 A 
ATOM     15  C   UNL d   1      11.157   5.231 -16.654  0.00  0.00     0.059 A 
ATOM     16 CL   UNL d   1      12.193   6.139 -17.696  0.00  0.00    -0.082 Cl
ATOM     17  C   UNL d   1       7.544   3.817 -13.426  0.00  0.00     0.084 A 
ATOM     18  C   UNL d   1       7.944   4.869 -12.556  0.00  0.00     0.051 A 
ATOM     19  C   UNL d   1       6.181   3.492 -13.546  0.00  0.00     0.019 A 
ATOM     20  C   UNL d   1       6.965   5.617 -11.895  0.00  0.00     0.004 A 
ATOM     21  C   UNL d   1       5.633   5.260 -11.961  0.00  0.00     0.000 A 
ATOM     22  C   UNL d   1       5.221   4.206 -12.799  0.00  0.00     0.002 A 
ENDBRANCH   1   7
BRANCH   4  23
ATOM     23  C   UNL d   1       8.873   7.486  -7.209  0.00  0.00     0.277 C 
BRANCH  23  24
ATOM     24  C   UNL d   1       9.962   8.012  -6.319  0.00  0.00     0.013 A 
ATOM     25  C   UNL d   1      10.519   7.159  -5.373  0.00  0.00     0.024 A 
ATOM     26  C   UNL d   1      11.430   7.652  -4.434  0.00  0.00     0.116 A 
ATOM     27  C   UNL d   1      11.775   9.020  -4.447  0.00  0.00     0.116 A 
ATOM     28  O   UNL d   1      11.786   6.797  -3.427  0.00  0.00    -0.326 OA
ATOM     29  C   UNL d   1      11.263   9.866  -5.464  0.00  0.00     0.026 A 
ATOM     30  O   UNL d   1      12.487   9.586  -3.418  0.00  0.00    -0.326 OA
ATOM     31  C   UNL d   1      10.376   9.359  -6.429  0.00  0.00    -0.000 A 
ATOM     32  C   UNL d   1      12.611   8.774  -2.244  0.00  0.00     0.181 C 
ATOM     33  C   UNL d   1      12.821   7.300  -2.636  0.00  0.00     0.181 C 
ENDBRANCH  23  24
ENDBRANCH   4  23
TORSDOF 3
