REMARK  6 active torsions:
REMARK  status: ('A' for Active; 'I' for Inactive)
REMARK    1  A    between atoms: C_2  and  C_3 
REMARK    2  A    between atoms: C_3  and  C_4 
REMARK    3  A    between atoms: C_4  and  C_5 
REMARK    4  A    between atoms: C_4  and  N_15 
REMARK    5  A    between atoms: C_5  and  C_7 
REMARK    6  A    between atoms: C_10  and  O_11 
ROOT
ATOM      1  C   UNL d   1       8.658   4.822 -13.108  0.00  0.00     0.204 C 
ATOM      2  O   UNL d   1       9.673   5.124 -13.762  0.00  0.00    -0.289 OA
ENDROOT
BRANCH   1   3
ATOM      3  C   UNL d   1       8.275   5.691 -11.866  0.00  0.00     0.280 C 
BRANCH   3   4
ATOM      4  C   UNL d   1       6.863   6.350 -11.998  0.00  0.00     0.041 C 
BRANCH   4   5
ATOM      5  C   UNL d   1       6.853   7.681 -12.757  0.00  0.00     0.003 C 
ATOM      6  C   UNL d   1       5.398   7.904 -13.225  0.00  0.00     0.000 C 
ENDBRANCH   4   5
ENDBRANCH   3   4
BRANCH   3   7
ATOM      7  N   UNL d   1       8.449   4.941 -10.578  0.00  0.00     0.142 N 
ATOM      8  C   UNL d   1       9.809   4.505 -10.339  0.00  0.00     0.251 C 
ATOM      9  C   UNL d   1       9.862   4.143  -8.868  0.00  0.00     0.037 C 
ATOM     10  C   UNL d   1       8.810   5.004  -8.236  0.00  0.00     0.037 C 
ATOM     11  C   UNL d   1       8.281   5.784  -9.410  0.00  0.00     0.251 C 
ENDBRANCH   3   7
ENDBRANCH   1   3
BRANCH   1  12
ATOM     12  C   UNL d   1       7.790   3.620 -13.445  0.00  0.00     0.037 C 
ATOM     13  C   UNL d   1       8.293   2.623 -14.354  0.00  0.00     0.005 C 
ATOM     14  C   UNL d   1       7.501   1.492 -14.655  0.00  0.00     0.024 C 
ATOM     15  C   UNL d   1       6.184   1.359 -14.136  0.00  0.00     0.094 C 
ATOM     16  C   UNL d   1       5.705   2.364 -13.262  0.00  0.00     0.024 C 
ATOM     17  C   UNL d   1       6.516   3.409 -12.865  0.00  0.00     0.005 C 
BRANCH  15  18
ATOM     18  O   UNL d   1       5.301   0.322 -14.363  0.00  0.00    -0.328 OA
ATOM     19  C   UNL d   1       5.796  -0.762 -15.090  0.00  0.00     0.181 C 
ENDBRANCH  15  18
ENDBRANCH   1  12
TORSDOF 6
