REMARK  0 active torsions:
REMARK  status: ('A' for Active; 'I' for Inactive)
ROOT
ATOM      1  C   UNL d   1      11.146   7.151  -5.284  0.00  0.00     0.075 C 
ATOM      2  C   UNL d   1      10.756   7.184  -6.739  0.00  0.00     0.152 C 
ATOM      3  N   UNL d   1      10.254   6.109  -7.250  0.00  0.00    -0.229 NA
ATOM      4  C   UNL d   1       9.839   6.036  -8.586  0.00  0.00     0.095 A 
ATOM      5  C   UNL d   1       9.039   4.941  -8.977  0.00  0.00     0.021 A 
ATOM      6  C   UNL d   1       8.562   4.839 -10.300  0.00  0.00     0.013 A 
ATOM      7  C   UNL d   1       8.896   5.818 -11.251  0.00  0.00     0.059 A 
ATOM      8 CL   UNL d   1       8.312   5.663 -12.868  0.00  0.00    -0.082 Cl
ATOM      9  C   UNL d   1       9.704   6.907 -10.882  0.00  0.00     0.026 A 
ATOM     10  C   UNL d   1      10.176   7.001  -9.562  0.00  0.00     0.124 A 
ATOM     11  S   UNL d   1      11.219   8.355  -9.085  0.00  0.00     0.288 S 
ATOM     12  O   UNL d   1      12.622   7.988  -9.312  0.00  0.00    -0.198 OA
ATOM     13  O   UNL d   1      10.669   9.586  -9.639  0.00  0.00    -0.198 OA
ATOM     14  N   UNL d   1      10.962   8.394  -7.401  0.00  0.00    -0.143 NA
ENDROOT
TORSDOF 0
