REMARK  9 active torsions:
REMARK  status: ('A' for Active; 'I' for Inactive)
REMARK    1  A    between atoms: C_6  and  C_7 
REMARK    2  A    between atoms: C_10  and  S_11 
REMARK    3  A    between atoms: S_11  and  C_12 
REMARK    4  A    between atoms: C_12  and  C_13 
REMARK    5  A    between atoms: C_13  and  C_14 
REMARK    6  A    between atoms: C_14  and  N_15 
REMARK    7  A    between atoms: C_19  and  C_20 
REMARK    8  A    between atoms: C_23  and  O_24 
REMARK    9  A    between atoms: O_24  and  C_25 
ROOT
ATOM      1  N   UNL d   1       9.877   5.058 -13.127  0.00  0.00     0.137 N 
ATOM      2  C   UNL d   1       9.009   4.072 -12.480  0.00  0.00     0.251 C 
ATOM      3  C   UNL d   1       8.626   4.718 -11.194  0.00  0.00     0.039 A 
ATOM      4  C   UNL d   1       7.436   5.631 -11.057  0.00  0.00     0.008 A 
ATOM      5  C   UNL d   1       8.803   6.190 -11.388  0.00  0.00     0.052 A 
ATOM      6  C   UNL d   1       9.264   6.343 -12.816  0.00  0.00     0.254 C 
ENDROOT
BRANCH   1   7
ATOM      7  C   UNL d   1      10.006   4.885 -14.578  0.00  0.00     0.251 C 
BRANCH   7   8
ATOM      8  C   UNL d   1      10.402   3.447 -14.942  0.00  0.00     0.047 C 
BRANCH   8   9
ATOM      9  C   UNL d   1      10.189   3.120 -16.429  0.00  0.00     0.067 C 
BRANCH   9  10
ATOM     10  S   UNL d   1      10.172   1.318 -16.744  0.00  0.00    -0.075 SA
BRANCH  10  11
ATOM     11  C   UNL d   1       8.799   0.815 -15.740  0.00  0.00     0.193 A 
ATOM     12  N   UNL d   1       8.868   0.633 -14.427  0.00  0.00    -0.122 NA
ATOM     13  N   UNL d   1       7.567   0.319 -14.021  0.00  0.00    -0.126 NA
ATOM     14  C   UNL d   1       6.853   0.199 -15.169  0.00  0.00     0.191 A 
ATOM     15  N   UNL d   1       7.574   0.553 -16.283  0.00  0.00    -0.287 N 
ATOM     16  C   UNL d   1       7.206   0.476 -17.703  0.00  0.00     0.134 C 
BRANCH  14  17
ATOM     17  C   UNL d   1       5.471  -0.295 -15.132  0.00  0.00     0.151 A 
ATOM     18  C   UNL d   1       4.719  -1.121 -15.929  0.00  0.00     0.087 A 
ATOM     19  C   UNL d   1       5.060  -1.817 -17.248  0.00  0.00     0.054 C 
ATOM     20  N   UNL d   1       3.446  -1.209 -15.371  0.00  0.00    -0.221 NA
ATOM     21  C   UNL d   1       3.500  -0.457 -14.284  0.00  0.00     0.225 A 
ATOM     22  O   UNL d   1       4.710   0.116 -14.059  0.00  0.00    -0.282 OA
ENDBRANCH  14  17
ENDBRANCH  10  11
ENDBRANCH   9  10
ENDBRANCH   8   9
ENDBRANCH   7   8
ENDBRANCH   1   7
BRANCH   5  23
ATOM     23  C   UNL d   1       9.576   6.968 -10.338  0.00  0.00    -0.021 A 
ATOM     24  C   UNL d   1       9.583   6.509  -9.003  0.00  0.00    -0.002 A 
ATOM     25  C   UNL d   1      10.257   7.197  -7.996  0.00  0.00     0.024 A 
ATOM     26  C   UNL d   1      10.978   8.377  -8.282  0.00  0.00     0.102 A 
ATOM     27  C   UNL d   1      10.962   8.866  -9.602  0.00  0.00     0.024 A 
ATOM     28  C   UNL d   1      10.257   8.179 -10.607  0.00  0.00    -0.002 A 
BRANCH  26  29
ATOM     29  O   UNL d   1      11.729   9.054  -7.344  0.00  0.00    -0.253 OA
BRANCH  29  30
ATOM     30  C   UNL d   1      11.475   8.950  -6.013  0.00  0.00     0.530 C 
ATOM     31  F   UNL d   1      10.272   9.490  -5.682  0.00  0.00    -0.144 F 
ATOM     32  F   UNL d   1      11.540   7.674  -5.559  0.00  0.00    -0.144 F 
ATOM     33  F   UNL d   1      12.426   9.644  -5.337  0.00  0.00    -0.144 F 
ENDBRANCH  29  30
ENDBRANCH  26  29
ENDBRANCH   5  23
TORSDOF 9
