REMARK  10 active torsions:
REMARK  status: ('A' for Active; 'I' for Inactive)
REMARK    1  A    between atoms: C_2  and  N_3 
REMARK    2  A    between atoms: N_3  and  C_4 
REMARK    3  A    between atoms: N_3  and  C_19 
REMARK    4  A    between atoms: C_4  and  C_5 
REMARK    5  A    between atoms: C_5  and  C_6 
REMARK    6  A    between atoms: C_6  and  O_7 
REMARK    7  A    between atoms: O_7  and  C_8 
REMARK    8  A    between atoms: C_19  and  C_20 
REMARK    9  A    between atoms: C_22  and  C_23 
REMARK   10  A    between atoms: C_29  and  O_30 
ROOT
ATOM      1  N   UNL d   1      10.787   2.515 -14.822  0.00  0.00     0.137 N 
ENDROOT
BRANCH   1   2
ATOM      2  C   UNL d   1      10.621   1.065 -14.998  0.00  0.00     0.250 C 
ATOM      3  C   UNL d   1       9.242   0.653 -15.572  0.00  0.00     0.037 C 
ENDBRANCH   1   2
BRANCH   1   4
ATOM      4  C   UNL d   1       9.798   3.059 -13.897  0.00  0.00     0.253 C 
BRANCH   4   5
ATOM      5  C   UNL d   1      10.120   4.492 -13.449  0.00  0.00     0.068 C 
BRANCH   5   6
ATOM      6  C   UNL d   1       8.963   5.032 -12.610  0.00  0.00     0.151 C 
BRANCH   6   7
ATOM      7  O   UNL d   1       9.384   6.278 -12.048  0.00  0.00    -0.331 OA
BRANCH   7   8
ATOM      8  C   UNL d   1       9.472   6.392 -10.679  0.00  0.00     0.096 A 
ATOM      9  C   UNL d   1      10.200   7.490 -10.147  0.00  0.00     0.043 A 
ATOM     10  C   UNL d   1      10.331   7.649  -8.750  0.00  0.00     0.082 A 
ATOM     11  C   UNL d   1       9.749   6.701  -7.889  0.00  0.00    -0.004 A 
ATOM     12  N   UNL d   1      11.053   8.751  -8.209  0.00  0.00    -0.212 NA
ATOM     13  C   UNL d   1       9.015   5.622  -8.414  0.00  0.00    -0.001 A 
ATOM     14  C   UNL d   1       9.924   6.845  -6.395  0.00  0.00     0.038 C 
ATOM     15  C   UNL d   1       8.858   5.480  -9.788  0.00  0.00     0.024 A 
ATOM     16  C   UNL d   1      10.053   8.323  -5.992  0.00  0.00     0.095 C 
ATOM     17  C   UNL d   1      11.007   9.105  -6.904  0.00  0.00     0.256 C 
ATOM     18  O   UNL d   1      11.675  10.027  -6.441  0.00  0.00    -0.270 OA
ENDBRANCH   7   8
ENDBRANCH   6   7
ENDBRANCH   5   6
ENDBRANCH   4   5
ENDBRANCH   1   4
BRANCH   1  19
ATOM     19  C   UNL d   1      10.785   3.223 -16.103  0.00  0.00     0.251 C 
BRANCH  19  20
ATOM     20  C   UNL d   1      12.197   3.436 -16.588  0.00  0.00     0.038 A 
ATOM     21  C   UNL d   1      12.391   4.087 -17.938  0.00  0.00     0.026 A 
ATOM     22  C   UNL d   1      12.713   2.622 -17.751  0.00  0.00     0.007 A 
BRANCH  21  23
ATOM     23  C   UNL d   1      13.490   5.068 -18.185  0.00  0.00     0.002 A 
ATOM     24  C   UNL d   1      13.583   6.300 -17.483  0.00  0.00     0.090 A 
ATOM     25  C   UNL d   1      14.681   7.152 -17.753  0.00  0.00     0.026 A 
ATOM     26  C   UNL d   1      15.666   6.789 -18.691  0.00  0.00     0.032 A 
ATOM     27  C   UNL d   1      15.553   5.578 -19.391  0.00  0.00     0.140 A 
ATOM     28  C   UNL d   1      14.467   4.729 -19.141  0.00  0.00     0.027 A 
ATOM     29  F   UNL d   1      16.505   5.217 -20.282  0.00  0.00    -0.204 F 
BRANCH  24  30
ATOM     30  O   UNL d   1      12.597   6.608 -16.565  0.00  0.00    -0.328 OA
ATOM     31  C   UNL d   1      12.701   7.843 -15.863  0.00  0.00     0.181 C 
ENDBRANCH  24  30
ENDBRANCH  21  23
ENDBRANCH  19  20
ENDBRANCH   1  19
TORSDOF 10
