REMARK  11 active torsions:
REMARK  status: ('A' for Active; 'I' for Inactive)
REMARK    1  A    between atoms: C_2  and  O_3 
REMARK    2  A    between atoms: O_3  and  C_4 
REMARK    3  A    between atoms: C_9  and  O_10 
REMARK    4  A    between atoms: O_10  and  C_11 
REMARK    5  A    between atoms: C_11  and  C_12 
REMARK    6  A    between atoms: C_12  and  N_13 
REMARK    7  A    between atoms: N_13  and  C_14 
REMARK    8  A    between atoms: C_14  and  C_16 
REMARK    9  A    between atoms: C_16  and  C_17 
REMARK   10  A    between atoms: C_20  and  O_21 
REMARK   11  A    between atoms: C_23  and  S_24 
ROOT
ATOM      1  C   UNL d   1       8.487   5.254 -11.380  0.00  0.00     0.261 C 
ATOM      2  C   UNL d   1       8.705   6.547 -12.185  0.00  0.00     0.038 C 
ENDROOT
BRANCH   1   3
ATOM      3  N   UNL d   1       8.281   5.594  -9.985  0.00  0.00     0.340 N 
BRANCH   3   4
ATOM      4  C   UNL d   1       9.564   5.683  -9.310  0.00  0.00     0.322 C 
BRANCH   4   5
ATOM      5  C   UNL d   1       9.371   5.962  -7.821  0.00  0.00     0.187 C 
BRANCH   5   6
ATOM      6  O   UNL d   1       9.618   7.330  -7.554  0.00  0.00    -0.327 OA
BRANCH   6   7
ATOM      7  C   UNL d   1      10.471   7.654  -6.526  0.00  0.00     0.116 A 
ATOM      8  C   UNL d   1      11.195   8.848  -6.634  0.00  0.00     0.116 A 
ATOM      9  C   UNL d   1      12.027   9.303  -5.593  0.00  0.00     0.026 A 
ATOM     10  C   UNL d   1      12.170   8.531  -4.423  0.00  0.00     0.002 A 
ATOM     11  C   UNL d   1      11.477   7.311  -4.308  0.00  0.00     0.002 A 
ATOM     12  C   UNL d   1      10.633   6.899  -5.346  0.00  0.00     0.026 A 
BRANCH   8  13
ATOM     13  O   UNL d   1      11.168   9.608  -7.778  0.00  0.00    -0.329 OA
BRANCH  13  14
ATOM     14  C   UNL d   1      11.594   9.009  -8.987  0.00  0.00     0.149 C 
ATOM     15  C   UNL d   1      12.991   8.378  -8.838  0.00  0.00     0.035 C 
ENDBRANCH  13  14
ENDBRANCH   8  13
ENDBRANCH   6   7
ENDBRANCH   5   6
ENDBRANCH   4   5
ENDBRANCH   3   4
ENDBRANCH   1   3
BRANCH   1  16
ATOM     16  C   UNL d   1       7.272   4.456 -11.907  0.00  0.00     0.062 C 
BRANCH  16  17
ATOM     17  C   UNL d   1       7.525   3.676 -13.206  0.00  0.00    -0.019 A 
ATOM     18  C   UNL d   1       8.809   3.601 -13.790  0.00  0.00     0.011 A 
ATOM     19  C   UNL d   1       9.028   2.810 -14.922  0.00  0.00     0.129 A 
ATOM     20  C   UNL d   1       7.986   2.041 -15.494  0.00  0.00     0.106 A 
ATOM     21  C   UNL d   1       6.707   2.084 -14.883  0.00  0.00     0.025 A 
ATOM     22  C   UNL d   1       6.481   2.902 -13.756  0.00  0.00    -0.002 A 
BRANCH  19  23
ATOM     23  S   UNL d   1      10.686   2.801 -15.593  0.00  0.00     0.304 S 
ATOM     24  N   UNL d   1      11.051   1.139 -15.667  0.00  0.00    -0.043 N 
ATOM     25  O   UNL d   1      10.613   3.297 -16.974  0.00  0.00    -0.197 OA
ATOM     26  O   UNL d   1      11.608   3.412 -14.623  0.00  0.00    -0.197 OA
ENDBRANCH  19  23
BRANCH  20  27
ATOM     27  O   UNL d   1       8.274   1.322 -16.632  0.00  0.00    -0.327 OA
ATOM     28  C   UNL d   1       7.233   0.587 -17.250  0.00  0.00     0.181 C 
ENDBRANCH  20  27
ENDBRANCH  16  17
ENDBRANCH   1  16
TORSDOF 11
