REMARK  6 active torsions:
REMARK  status: ('A' for Active; 'I' for Inactive)
REMARK    1  A    between atoms: C_5  and  N_6 
REMARK    2  A    between atoms: N_9  and  C_10 
REMARK    3  A    between atoms: C_10  and  C_11 
REMARK    4  A    between atoms: C_11  and  C_12 
REMARK    5  A    between atoms: C_15  and  N_16 
REMARK       I    between atoms: N_16  and  C_17 
REMARK    6  A    between atoms: C_17  and  C_19 
ROOT
ATOM      1  C   UNL d   1       7.607   5.349 -11.700  0.00  0.00     0.035 C 
ENDROOT
BRANCH   1   2
ATOM      2  C   UNL d   1       9.049   5.577 -11.187  0.00  0.00     0.250 C 
BRANCH   2   3
ATOM      3  N   UNL d   1       9.094   6.640 -10.197  0.00  0.00     0.141 N 
ATOM      4  C   UNL d   1      10.428   7.214 -10.121  0.00  0.00     0.274 C 
ATOM      5  C   UNL d   1      10.482   8.384  -9.126  0.00  0.00     0.137 C 
ATOM      6  N   UNL d   1      10.023   7.931  -7.818  0.00  0.00    -0.344 N 
ATOM      7  C   UNL d   1       8.725   7.307  -7.785  0.00  0.00     0.137 C 
ATOM      8  C   UNL d   1       8.665   6.184  -8.863  0.00  0.00     0.274 C 
BRANCH   6   9
ATOM      9  C   UNL d   1      10.742   8.162  -6.644  0.00  0.00     0.056 A 
ATOM     10  C   UNL d   1      11.521   9.319  -6.517  0.00  0.00     0.017 A 
ATOM     11  C   UNL d   1      12.270   9.534  -5.336  0.00  0.00    -0.003 A 
ATOM     12  C   UNL d   1      12.210   8.594  -4.290  0.00  0.00    -0.026 A 
ATOM     13  C   UNL d   1      12.957   8.826  -3.009  0.00  0.00     0.031 C 
ATOM     14  C   UNL d   1      11.454   7.429  -4.434  0.00  0.00    -0.024 A 
ATOM     15  C   UNL d   1      10.701   7.225  -5.603  0.00  0.00     0.012 A 
ATOM     16  C   UNL d   1      11.418   6.435  -3.321  0.00  0.00     0.031 C 
ENDBRANCH   6   9
ENDBRANCH   2   3
ENDBRANCH   1   2
BRANCH   1  17
ATOM     17  C   UNL d   1       7.482   4.027 -12.473  0.00  0.00     0.002 C 
ATOM     18  C   UNL d   1       8.088   4.031 -13.876  0.00  0.00     0.002 C 
ATOM     19  C   UNL d   1       7.958   2.641 -14.528  0.00  0.00     0.024 C 
ATOM     20  C   UNL d   1       6.501   2.133 -14.545  0.00  0.00     0.106 C 
ATOM     21  C   UNL d   1       5.818   2.144 -13.150  0.00  0.00     0.024 C 
ATOM     22  C   UNL d   1       6.020   3.510 -12.471  0.00  0.00     0.002 C 
BRANCH  20  23
ATOM     23  N   UNL d   1       6.434   0.834 -15.236  0.00  0.00    -0.240 NA
ATOM     24  C   UNL d   1       5.343   0.060 -15.422  0.00  0.00     0.251 C 
ATOM     25  O   UNL d   1       4.380   0.047 -14.664  0.00  0.00    -0.271 OA
BRANCH  24  26
ATOM     26  C   UNL d   1       5.324  -0.785 -16.707  0.00  0.00     0.081 C 
ATOM     27  C   UNL d   1       4.059  -1.675 -16.755  0.00  0.00     0.009 C 
ATOM     28  C   UNL d   1       4.053  -2.551 -18.009  0.00  0.00     0.001 C 
ATOM     29  C   UNL d   1       4.140  -1.695 -19.281  0.00  0.00     0.000 C 
ATOM     30  C   UNL d   1       5.360  -0.757 -19.249  0.00  0.00     0.001 C 
ATOM     31  C   UNL d   1       5.356   0.106 -17.981  0.00  0.00     0.009 C 
ENDBRANCH  24  26
ENDBRANCH  20  23
ENDBRANCH   1  17
TORSDOF 6
