REMARK  0 active torsions:
REMARK  status: ('A' for Active; 'I' for Inactive)
ROOT
ATOM      1  C   UNL d   1       7.202   6.240 -12.027  0.00  0.00     0.286 C 
ATOM      2  N   UNL d   1       6.806   5.093 -12.838  0.00  0.00     0.142 N 
ATOM      3  C   UNL d   1       5.907   4.260 -12.037  0.00  0.00     0.255 C 
ATOM      4  C   UNL d   1       5.268   3.160 -12.907  0.00  0.00     0.061 C 
ATOM      5  C   UNL d   1       6.255   2.328 -13.709  0.00  0.00    -0.022 A 
ATOM      6  C   UNL d   1       6.121   1.017 -14.246  0.00  0.00    -0.004 A 
ATOM      7  C   UNL d   1       7.191   0.391 -14.955  0.00  0.00     0.003 A 
ATOM      8  C   UNL d   1       8.413   1.079 -15.166  0.00  0.00     0.039 A 
ATOM      9  C   UNL d   1       8.486   2.370 -14.654  0.00  0.00     0.000 A 
ATOM     10  C   UNL d   1       7.470   2.982 -13.944  0.00  0.00     0.005 A 
ATOM     11  C   UNL d   1       7.950   4.269 -13.259  0.00  0.00     0.246 C 
ATOM     12  C   UNL d   1       9.022   5.073 -14.068  0.00  0.00     0.064 C 
ATOM     13  C   UNL d   1      10.149   4.245 -14.690  0.00  0.00    -0.020 A 
ATOM     14  C   UNL d   1      11.442   4.613 -15.118  0.00  0.00    -0.004 A 
ATOM     15  C   UNL d   1      12.255   3.663 -15.795  0.00  0.00    -0.000 A 
ATOM     16  C   UNL d   1      11.788   2.350 -16.073  0.00  0.00     0.003 A 
ATOM     17  C   UNL d   1      10.498   1.966 -15.655  0.00  0.00     0.039 A 
ATOM     18  C   UNL d   1       9.768   2.938 -14.979  0.00  0.00    -0.001 A 
ATOM     19  C   UNL d   1       9.696   0.728 -15.812  0.00  0.00     0.196 A 
ATOM     20  O   UNL d   1      10.018  -0.329 -16.357  0.00  0.00    -0.287 OA
ENDROOT
TORSDOF 0
