REMARK  10 active torsions:
REMARK  status: ('A' for Active; 'I' for Inactive)
REMARK    1  A    between atoms: O_2  and  C_3 
REMARK    2  A    between atoms: C_9  and  C_10 
REMARK    3  A    between atoms: C_12  and  C_13 
REMARK    4  A    between atoms: C_13  and  N_14 
REMARK    5  A    between atoms: N_14  and  C_15 
REMARK    6  A    between atoms: C_15  and  C_16 
REMARK    7  A    between atoms: C_16  and  C_17 
REMARK    8  A    between atoms: C_17  and  S_18 
REMARK    9  A    between atoms: S_18  and  C_19 
REMARK   10  A    between atoms: C_22  and  C_23 
ROOT
ATOM      1  C   UNL d   1      10.525   4.083 -15.181  0.00  0.00     0.291 C 
ENDROOT
BRANCH   1   2
ATOM      2  N   UNL d   1       9.803   3.183 -16.074  0.00  0.00     0.339 N 
BRANCH   2   3
ATOM      3  C   UNL d   1      10.406   3.106 -17.402  0.00  0.00     0.290 C 
BRANCH   3   4
ATOM      4  C   UNL d   1      11.642   2.206 -17.374  0.00  0.00     0.041 A 
ATOM      5  C   UNL d   1      11.567   0.734 -17.732  0.00  0.00     0.026 A 
ATOM      6  C   UNL d   1      12.251   1.719 -18.664  0.00  0.00     0.007 A 
BRANCH   5   7
ATOM      7  C   UNL d   1      10.256   0.102 -18.102  0.00  0.00     0.002 A 
ATOM      8  C   UNL d   1       9.214  -0.014 -17.148  0.00  0.00     0.090 A 
ATOM      9  C   UNL d   1       7.937  -0.464 -17.588  0.00  0.00     0.026 A 
ATOM     10  C   UNL d   1       7.744  -0.883 -18.916  0.00  0.00     0.032 A 
ATOM     11  C   UNL d   1       8.803  -0.835 -19.834  0.00  0.00     0.140 A 
ATOM     12  F   UNL d   1       8.627  -1.247 -21.111  0.00  0.00    -0.204 F 
ATOM     13  C   UNL d   1      10.053  -0.332 -19.428  0.00  0.00     0.027 A 
BRANCH   8  14
ATOM     14  O   UNL d   1       9.483   0.341 -15.839  0.00  0.00    -0.328 OA
ATOM     15  C   UNL d   1       8.383   0.514 -14.951  0.00  0.00     0.181 C 
ENDBRANCH   8  14
ENDBRANCH   5   7
ENDBRANCH   3   4
ENDBRANCH   2   3
ENDBRANCH   1   2
BRANCH   1  16
ATOM     16  C   UNL d   1       9.919   4.021 -13.776  0.00  0.00     0.050 C 
BRANCH  16  17
ATOM     17  C   UNL d   1       8.470   4.526 -13.741  0.00  0.00     0.067 C 
BRANCH  17  18
ATOM     18  S   UNL d   1       7.768   4.585 -12.061  0.00  0.00    -0.075 SA
BRANCH  18  19
ATOM     19  C   UNL d   1       8.684   5.940 -11.403  0.00  0.00     0.193 A 
ATOM     20  N   UNL d   1       9.080   5.992 -10.118  0.00  0.00    -0.289 N 
ATOM     21  C   UNL d   1       9.695   7.188 -10.059  0.00  0.00     0.167 A 
ATOM     22  C   UNL d   1       8.864   5.017  -9.058  0.00  0.00     0.134 C 
ATOM     23  N   UNL d   1       9.715   7.823 -11.235  0.00  0.00    -0.128 NA
ATOM     24  N   UNL d   1       9.055   7.005 -12.118  0.00  0.00    -0.122 NA
BRANCH  21  25
ATOM     25  C   UNL d   1      10.280   7.778  -8.858  0.00  0.00     0.036 A 
ATOM     26  C   UNL d   1      11.620   8.214  -8.858  0.00  0.00     0.003 A 
ATOM     27  C   UNL d   1      12.180   8.784  -7.701  0.00  0.00     0.000 A 
ATOM     28  C   UNL d   1      11.401   8.919  -6.535  0.00  0.00     0.000 A 
ATOM     29  C   UNL d   1      10.061   8.490  -6.527  0.00  0.00     0.000 A 
ATOM     30  C   UNL d   1       9.497   7.919  -7.688  0.00  0.00     0.003 A 
ENDBRANCH  21  25
ENDBRANCH  18  19
ENDBRANCH  17  18
ENDBRANCH  16  17
ENDBRANCH   1  16
TORSDOF 10
