REMARK  5 active torsions:
REMARK  status: ('A' for Active; 'I' for Inactive)
REMARK    1  A    between atoms: O_2  and  C_3 
REMARK    2  A    between atoms: C_6  and  N_7 
REMARK    3  A    between atoms: N_10  and  C_11 
REMARK    4  A    between atoms: C_11  and  C_12 
REMARK    5  A    between atoms: C_12  and  C_13 
ROOT
ATOM      1  N   UNL d   1       8.459   5.185 -11.996  0.00  0.00    -0.344 N 
ATOM      2  C   UNL d   1       7.639   4.646 -10.912  0.00  0.00     0.137 C 
ATOM      3  C   UNL d   1       8.441   4.644  -9.593  0.00  0.00     0.274 C 
ATOM      4  N   UNL d   1       8.889   5.987  -9.264  0.00  0.00     0.141 N 
ATOM      5  C   UNL d   1       9.773   6.463 -10.336  0.00  0.00     0.274 C 
ATOM      6  C   UNL d   1       9.020   6.504 -11.683  0.00  0.00     0.137 C 
ENDROOT
BRANCH   4   7
ATOM      7  C   UNL d   1       9.602   5.952  -7.996  0.00  0.00     0.253 C 
BRANCH   7   8
ATOM      8  C   UNL d   1       9.649   7.352  -7.367  0.00  0.00     0.064 C 
BRANCH   8   9
ATOM      9  C   UNL d   1      11.087   7.803  -7.043  0.00  0.00     0.131 A 
ATOM     10  C   UNL d   1      11.425   7.752  -5.567  0.00  0.00     0.005 A 
ATOM     11  C   UNL d   1      11.731   9.026  -5.128  0.00  0.00     0.055 A 
ATOM     12  C   UNL d   1      11.458   6.651  -4.696  0.00  0.00    -0.002 A 
ATOM     13  C   UNL d   1      11.626   9.966  -6.271  0.00  0.00     0.275 A 
ATOM     14  C   UNL d   1      12.089   9.276  -3.787  0.00  0.00     0.004 A 
ATOM     15  N   UNL d   1      11.252   9.230  -7.326  0.00  0.00    -0.232 NA
ATOM     16  O   UNL d   1      11.857  11.162  -6.269  0.00  0.00    -0.266 OA
ATOM     17  C   UNL d   1      12.147   8.180  -2.897  0.00  0.00     0.000 A 
ATOM     18  C   UNL d   1      11.837   6.873  -3.351  0.00  0.00    -0.000 A 
ENDBRANCH   8   9
ENDBRANCH   7   8
ENDBRANCH   4   7
BRANCH   1  19
ATOM     19  C   UNL d   1       8.686   4.493 -13.207  0.00  0.00     0.056 A 
ATOM     20  C   UNL d   1       9.813   4.781 -14.014  0.00  0.00     0.019 A 
ATOM     21  C   UNL d   1      10.042   4.088 -15.214  0.00  0.00     0.026 A 
ATOM     22  C   UNL d   1       9.177   3.070 -15.641  0.00  0.00     0.094 A 
ATOM     23  C   UNL d   1       8.051   2.762 -14.839  0.00  0.00     0.026 A 
ATOM     24  C   UNL d   1       7.797   3.483 -13.653  0.00  0.00     0.019 A 
BRANCH  22  25
ATOM     25  O   UNL d   1       9.486   2.452 -16.832  0.00  0.00    -0.328 OA
ATOM     26  C   UNL d   1       8.655   1.389 -17.259  0.00  0.00     0.181 C 
ENDBRANCH  22  25
ENDBRANCH   1  19
TORSDOF 5
