REMARK  7 active torsions:
REMARK  status: ('A' for Active; 'I' for Inactive)
REMARK    1  A    between atoms: S_2  and  N_4 
REMARK    2  A    between atoms: S_2  and  C_23 
REMARK    3  A    between atoms: N_4  and  C_5 
REMARK    4  A    between atoms: C_5  and  C_6 
REMARK    5  A    between atoms: C_6  and  C_7 
REMARK    6  A    between atoms: C_7  and  N_8 
REMARK    7  A    between atoms: N_11  and  C_12 
ROOT
ATOM      1  C   UNL d   1       8.826   4.689 -10.033  0.00  0.00     0.253 C 
ENDROOT
BRANCH   1   2
ATOM      2  C   UNL d   1       9.238   6.082  -9.561  0.00  0.00     0.062 C 
BRANCH   2   3
ATOM      3  C   UNL d   1       9.083   6.265  -8.041  0.00  0.00     0.141 C 
BRANCH   3   4
ATOM      4  N   UNL d   1       9.318   7.658  -7.669  0.00  0.00    -0.183 NA
BRANCH   4   5
ATOM      5  S   UNL d   1      10.907   8.305  -7.628  0.00  0.00     0.298 S 
ATOM      6  O   UNL d   1      11.861   7.196  -7.716  0.00  0.00    -0.197 OA
ATOM      7  O   UNL d   1      10.971   9.437  -8.562  0.00  0.00    -0.197 OA
BRANCH   5   8
ATOM      8  C   UNL d   1      11.061   8.970  -5.991  0.00  0.00     0.191 A 
ATOM      9  N   UNL d   1      11.462   8.241  -4.873  0.00  0.00    -0.279 N 
ATOM     10  C   UNL d   1      11.467   9.172  -3.793  0.00  0.00     0.148 A 
ATOM     11  C   UNL d   1      11.808   6.936  -4.692  0.00  0.00     0.082 A 
ATOM     12  N   UNL d   1      11.050  10.362  -4.207  0.00  0.00    -0.224 NA
ATOM     13  C   UNL d   1      11.888   8.707  -2.514  0.00  0.00     0.037 A 
ATOM     14  C   UNL d   1      10.844  10.242  -5.569  0.00  0.00     0.131 A 
ATOM     15  C   UNL d   1      12.266   7.400  -2.358  0.00  0.00     0.005 A 
ATOM     16  C   UNL d   1      12.239   6.522  -3.455  0.00  0.00     0.019 A 
ENDBRANCH   5   8
ENDBRANCH   4   5
ENDBRANCH   3   4
ENDBRANCH   2   3
ENDBRANCH   1   2
BRANCH   1  17
ATOM     17  N   UNL d   1       8.602   4.694 -11.478  0.00  0.00     0.141 N 
ATOM     18  C   UNL d   1       7.236   4.233 -11.793  0.00  0.00     0.274 C 
ATOM     19  C   UNL d   1       7.021   4.232 -13.315  0.00  0.00     0.138 C 
ATOM     20  N   UNL d   1       8.053   3.462 -14.006  0.00  0.00    -0.329 N 
ATOM     21  C   UNL d   1       9.405   3.861 -13.652  0.00  0.00     0.138 C 
ATOM     22  C   UNL d   1       9.588   3.836 -12.145  0.00  0.00     0.274 C 
BRANCH  20  23
ATOM     23  C   UNL d   1       7.774   2.417 -14.920  0.00  0.00     0.148 A 
ATOM     24  C   UNL d   1       8.622   2.140 -16.077  0.00  0.00     0.042 A 
ATOM     25  C   UNL d   1       8.050   1.065 -16.826  0.00  0.00     0.050 A 
ATOM     26  C   UNL d   1       9.813   2.710 -16.602  0.00  0.00     0.004 A 
ATOM     27  S   UNL d   1       6.581   0.566 -16.014  0.00  0.00     0.015 SA
ATOM     28  C   UNL d   1       8.633   0.579 -18.010  0.00  0.00     0.008 A 
ATOM     29  N   UNL d   1       6.681   1.691 -14.780  0.00  0.00    -0.192 NA
ATOM     30  C   UNL d   1       9.835   1.147 -18.478  0.00  0.00     0.001 A 
ATOM     31  C   UNL d   1      10.422   2.212 -17.767  0.00  0.00     0.000 A 
ENDBRANCH  20  23
ENDBRANCH   1  17
TORSDOF 7
