REMARK  7 active torsions:
REMARK  status: ('A' for Active; 'I' for Inactive)
REMARK    1  A    between atoms: O_2  and  C_3 
REMARK    2  A    between atoms: C_8  and  N_9 
REMARK    3  A    between atoms: N_12  and  C_13 
REMARK    4  A    between atoms: C_13  and  C_14 
REMARK    5  A    between atoms: C_14  and  C_16 
REMARK    6  A    between atoms: C_16  and  N_17 
REMARK    7  A    between atoms: C_21  and  C_23 
ROOT
ATOM      1  C   UNL d   1       8.960   5.911 -11.365  0.00  0.00     0.208 C 
ATOM      2  O   UNL d   1       7.662   5.896 -10.851  0.00  0.00    -0.219 OA
ENDROOT
BRANCH   1   3
ATOM      3  C   UNL d   1       8.996   4.683 -12.314  0.00  0.00     0.285 C 
BRANCH   3   4
ATOM      4  N   UNL d   1      10.188   4.500 -13.127  0.00  0.00     0.144 N 
ATOM      5  C   UNL d   1      10.288   5.569 -14.102  0.00  0.00     0.274 C 
ATOM      6  C   UNL d   1      11.546   5.456 -14.988  0.00  0.00     0.137 C 
ATOM      7  N   UNL d   1      11.613   4.129 -15.584  0.00  0.00    -0.343 N 
ATOM      8  C   UNL d   1      11.421   2.998 -14.683  0.00  0.00     0.137 C 
ATOM      9  C   UNL d   1      10.156   3.215 -13.834  0.00  0.00     0.274 C 
BRANCH   7  10
ATOM     10  C   UNL d   1      11.749   3.949 -16.972  0.00  0.00     0.079 A 
ATOM     11  C   UNL d   1      10.887   4.612 -17.877  0.00  0.00     0.110 A 
ATOM     12  C   UNL d   1      11.085   4.418 -19.275  0.00  0.00     0.026 A 
ATOM     13  C   UNL d   1      12.112   3.587 -19.745  0.00  0.00     0.002 A 
ATOM     14  C   UNL d   1      12.954   2.929 -18.837  0.00  0.00     0.002 A 
ATOM     15  C   UNL d   1      12.767   3.105 -17.450  0.00  0.00     0.019 A 
BRANCH  11  16
ATOM     16  O   UNL d   1       9.886   5.408 -17.368  0.00  0.00    -0.327 OA
ATOM     17  C   UNL d   1       8.994   6.032 -18.276  0.00  0.00     0.181 C 
ENDBRANCH  11  16
ENDBRANCH   7  10
ENDBRANCH   3   4
ENDBRANCH   1   3
BRANCH   1  18
ATOM     18  C   UNL d   1      10.026   5.786 -10.261  0.00  0.00     0.148 C 
BRANCH  18  19
ATOM     19  N   UNL d   1       9.743   6.427  -8.992  0.00  0.00    -0.247 N 
ATOM     20  C   UNL d   1      10.324   7.544  -8.517  0.00  0.00     0.265 A 
ATOM     21  C   UNL d   1       9.722   7.826  -7.151  0.00  0.00     0.181 A 
ATOM     22  O   UNL d   1      11.153   8.263  -9.075  0.00  0.00    -0.269 OA
ATOM     23  N   UNL d   1       8.836   6.677  -7.048  0.00  0.00    -0.209 NA
ATOM     24  C   UNL d   1       8.855   9.059  -7.248  0.00  0.00     0.039 C 
ATOM     25  C   UNL d   1       8.924   5.871  -8.101  0.00  0.00     0.348 A 
ATOM     26  O   UNL d   1       8.367   4.780  -8.226  0.00  0.00    -0.245 OA
BRANCH  21  27
ATOM     27  C   UNL d   1      10.775   7.923  -6.029  0.00  0.00     0.034 A 
ATOM     28  C   UNL d   1      11.569   9.080  -5.817  0.00  0.00     0.138 A 
ATOM     29  C   UNL d   1      12.470   9.125  -4.736  0.00  0.00     0.029 A 
ATOM     30  F   UNL d   1      11.502  10.154  -6.639  0.00  0.00    -0.204 F 
ATOM     31  C   UNL d   1      12.622   8.018  -3.874  0.00  0.00     0.002 A 
ATOM     32  C   UNL d   1      11.859   6.862  -4.094  0.00  0.00    -0.000 A 
ATOM     33  C   UNL d   1      10.941   6.830  -5.154  0.00  0.00     0.000 A 
ENDBRANCH  21  27
ENDBRANCH  18  19
ENDBRANCH   1  18
TORSDOF 7
