REMARK  10 active torsions:
REMARK  status: ('A' for Active; 'I' for Inactive)
REMARK    1  A    between atoms: C_2  and  C_3 
REMARK    2  A    between atoms: C_3  and  N_4 
REMARK    3  A    between atoms: N_4  and  C_5 
REMARK    4  A    between atoms: N_4  and  C_21 
REMARK    5  A    between atoms: C_5  and  C_6 
REMARK    6  A    between atoms: C_6  and  C_7 
REMARK    7  A    between atoms: C_7  and  C_8 
REMARK    8  A    between atoms: C_8  and  N_9 
REMARK       I    between atoms: N_9  and  C_10 
REMARK    9  A    between atoms: C_10  and  C_12 
REMARK   10  A    between atoms: C_13  and  C_14 
ROOT
ATOM      1  C   UNL d   1       9.089   6.976  -9.115  0.00  0.00     0.037 C 
ENDROOT
BRANCH   1   2
ATOM      2  C   UNL d   1      10.580   7.085  -9.441  0.00  0.00     0.250 C 
BRANCH   2   3
ATOM      3  N   UNL d   1      11.330   8.114  -8.683  0.00  0.00     0.136 N 
BRANCH   3   4
ATOM      4  C   UNL d   1      12.690   7.629  -8.340  0.00  0.00     0.250 C 
BRANCH   4   5
ATOM      5  C   UNL d   1      13.530   7.277  -9.632  0.00  0.00     0.035 C 
ATOM      6  C   UNL d   1      14.158   8.349 -10.389  0.00  0.00     0.002 C 
ENDBRANCH   4   5
ENDBRANCH   3   4
BRANCH   3   7
ATOM      7  C   UNL d   1      10.620   8.561  -7.482  0.00  0.00     0.228 C 
ATOM      8  C   UNL d   1      10.292   7.336  -6.559  0.00  0.00     0.060 C 
ATOM      9  C   UNL d   1      11.168   7.552  -5.399  0.00  0.00    -0.024 A 
ATOM     10  C   UNL d   1      11.819   8.795  -5.410  0.00  0.00    -0.024 A 
ATOM     11  C   UNL d   1      11.418   6.575  -4.427  0.00  0.00    -0.004 A 
ATOM     12  C   UNL d   1      11.418   9.587  -6.637  0.00  0.00     0.060 C 
ATOM     13  C   UNL d   1      12.736   9.120  -4.412  0.00  0.00    -0.004 A 
ATOM     14  C   UNL d   1      12.954   8.169  -3.372  0.00  0.00    -0.000 A 
ATOM     15  C   UNL d   1      12.327   6.872  -3.404  0.00  0.00    -0.000 A 
ENDBRANCH   3   7
ENDBRANCH   2   3
ENDBRANCH   1   2
BRANCH   1  16
ATOM     16  C   UNL d   1       8.374   5.947  -9.954  0.00  0.00     0.029 C 
BRANCH  16  17
ATOM     17  C   UNL d   1       8.422   6.240 -11.467  0.00  0.00     0.129 C 
BRANCH  17  18
ATOM     18  N   UNL d   1       7.703   5.206 -12.206  0.00  0.00    -0.234 NA
ATOM     19  C   UNL d   1       8.252   4.526 -13.218  0.00  0.00     0.275 C 
ATOM     20  O   UNL d   1       9.379   4.761 -13.657  0.00  0.00    -0.266 OA
BRANCH  19  21
ATOM     21  C   UNL d   1       7.351   3.495 -13.681  0.00  0.00     0.062 C 
ATOM     22  C   UNL d   1       7.692   2.702 -14.693  0.00  0.00     0.005 C 
BRANCH  22  23
ATOM     23  C   UNL d   1       6.873   1.601 -15.223  0.00  0.00     0.000 A 
ATOM     24  C   UNL d   1       5.891   0.984 -14.392  0.00  0.00     0.002 A 
ATOM     25  C   UNL d   1       5.082  -0.044 -14.907  0.00  0.00     0.030 A 
ATOM     26  C   UNL d   1       5.231  -0.468 -16.235  0.00  0.00     0.140 A 
ATOM     27  C   UNL d   1       6.197   0.141 -17.064  0.00  0.00     0.030 A 
ATOM     28  F   UNL d   1       4.453  -1.459 -16.729  0.00  0.00    -0.204 F 
ATOM     29  C   UNL d   1       7.010   1.174 -16.546  0.00  0.00     0.002 A 
ENDBRANCH  22  23
ENDBRANCH  19  21
ENDBRANCH  17  18
ENDBRANCH  16  17
ENDBRANCH   1  16
TORSDOF 10
