REMARK  9 active torsions:
REMARK  status: ('A' for Active; 'I' for Inactive)
REMARK    1  A    between atoms: C_6  and  C_7 
REMARK    2  A    between atoms: C_10  and  S_11 
REMARK    3  A    between atoms: S_11  and  C_12 
REMARK    4  A    between atoms: C_12  and  C_13 
REMARK    5  A    between atoms: C_13  and  C_14 
REMARK    6  A    between atoms: C_14  and  N_15 
REMARK    7  A    between atoms: C_19  and  C_20 
REMARK    8  A    between atoms: C_24  and  O_25 
REMARK    9  A    between atoms: O_25  and  C_26 
ROOT
ATOM      1  N   UNL d   1       4.978  -1.349 -16.689  0.00  0.00     0.137 N 
ATOM      2  C   UNL d   1       3.593  -1.605 -17.119  0.00  0.00     0.251 C 
ATOM      3  C   UNL d   1       3.732  -2.599 -18.250  0.00  0.00     0.039 A 
ATOM      4  C   UNL d   1       3.985  -2.182 -19.686  0.00  0.00     0.008 A 
ATOM      5  C   UNL d   1       5.128  -2.461 -18.741  0.00  0.00     0.052 A 
ATOM      6  C   UNL d   1       5.778  -1.383 -17.919  0.00  0.00     0.254 C 
ENDROOT
BRANCH   1   7
ATOM      7  C   UNL d   1       5.102  -0.100 -15.924  0.00  0.00     0.251 C 
BRANCH   7   8
ATOM      8  C   UNL d   1       6.462   0.050 -15.196  0.00  0.00     0.047 C 
BRANCH   8   9
ATOM      9  C   UNL d   1       7.673   0.194 -16.133  0.00  0.00     0.067 C 
BRANCH   9  10
ATOM     10  S   UNL d   1       9.251   0.473 -15.295  0.00  0.00    -0.075 SA
BRANCH  10  11
ATOM     11  C   UNL d   1      10.313   0.194 -16.686  0.00  0.00     0.193 A 
ATOM     12  N   UNL d   1      10.251  -0.862 -17.498  0.00  0.00    -0.122 NA
ATOM     13  N   UNL d   1      11.264  -0.689 -18.413  0.00  0.00    -0.126 NA
ATOM     14  C   UNL d   1      11.847   0.476 -18.101  0.00  0.00     0.191 A 
ATOM     15  N   UNL d   1      11.281   1.063 -17.022  0.00  0.00    -0.287 N 
ATOM     16  C   UNL d   1      11.627   2.300 -16.352  0.00  0.00     0.134 C 
BRANCH  14  17
ATOM     17  C   UNL d   1      12.991   1.004 -18.846  0.00  0.00     0.151 A 
ATOM     18  C   UNL d   1      13.929   0.411 -19.660  0.00  0.00     0.087 A 
ATOM     19  C   UNL d   1      14.082  -1.023 -20.066  0.00  0.00     0.054 C 
ATOM     20  N   UNL d   1      14.815   1.388 -20.094  0.00  0.00    -0.221 NA
ATOM     21  C   UNL d   1      14.367   2.513 -19.545  0.00  0.00     0.225 A 
ATOM     22  O   UNL d   1      13.277   2.343 -18.754  0.00  0.00    -0.282 OA
ENDBRANCH  14  17
ENDBRANCH  10  11
ENDBRANCH   9  10
ENDBRANCH   8   9
ENDBRANCH   7   8
ENDBRANCH   1   7
BRANCH   5  23
ATOM     23  C   UNL d   1       6.008  -3.671 -18.896  0.00  0.00    -0.019 A 
ATOM     24  C   UNL d   1       6.666  -3.907 -20.121  0.00  0.00     0.020 A 
ATOM     25  C   UNL d   1       7.464  -5.062 -20.311  0.00  0.00     0.102 A 
ATOM     26  C   UNL d   1       7.618  -5.964 -19.238  0.00  0.00     0.025 A 
ATOM     27  C   UNL d   1       6.999  -5.716 -17.997  0.00  0.00     0.002 A 
ATOM     28  C   UNL d   1       6.201  -4.571 -17.829  0.00  0.00    -0.004 A 
BRANCH  25  29
ATOM     29  O   UNL d   1       8.099  -5.395 -21.490  0.00  0.00    -0.254 OA
BRANCH  29  30
ATOM     30  C   UNL d   1       8.021  -4.584 -22.581  0.00  0.00     0.530 C 
ATOM     31  F   UNL d   1       8.732  -5.128 -23.599  0.00  0.00    -0.144 F 
ATOM     32  F   UNL d   1       6.745  -4.446 -23.021  0.00  0.00    -0.144 F 
ATOM     33  F   UNL d   1       8.554  -3.361 -22.337  0.00  0.00    -0.144 F 
ENDBRANCH  29  30
ENDBRANCH  25  29
ENDBRANCH   5  23
TORSDOF 9
