REMARK  7 active torsions:
REMARK  status: ('A' for Active; 'I' for Inactive)
REMARK    1  A    between atoms: O_2  and  C_3 
REMARK    2  A    between atoms: C_3  and  C_4 
REMARK       I    between atoms: C_4  and  N_6 
REMARK    3  A    between atoms: N_6  and  C_7 
REMARK    4  A    between atoms: C_10  and  C_11 
REMARK    5  A    between atoms: C_11  and  C_12 
REMARK    6  A    between atoms: C_12  and  N_13 
REMARK    7  A    between atoms: N_16  and  C_17 
ROOT
ATOM      1  N   UNL d   1       7.932   5.198 -11.790  0.00  0.00     0.141 N 
ATOM      2  C   UNL d   1       6.641   4.496 -11.722  0.00  0.00     0.274 C 
ATOM      3  C   UNL d   1       6.134   4.151 -13.131  0.00  0.00     0.137 C 
ATOM      4  N   UNL d   1       7.151   3.391 -13.852  0.00  0.00    -0.343 N 
ATOM      5  C   UNL d   1       8.482   3.990 -13.856  0.00  0.00     0.137 C 
ATOM      6  C   UNL d   1       8.916   4.319 -12.427  0.00  0.00     0.274 C 
ENDROOT
BRANCH   1   7
ATOM      7  C   UNL d   1       8.388   5.532 -10.447  0.00  0.00     0.250 C 
BRANCH   7   8
ATOM      8  C   UNL d   1       9.482   6.617 -10.481  0.00  0.00     0.035 C 
BRANCH   8   9
ATOM      9  C   UNL d   1      10.191   6.796  -9.133  0.00  0.00     0.002 C 
ATOM     10  C   UNL d   1      11.310   7.851  -9.271  0.00  0.00     0.002 C 
ATOM     11  C   UNL d   1      12.016   8.101  -7.936  0.00  0.00     0.024 C 
ATOM     12  C   UNL d   1      10.998   8.515  -6.857  0.00  0.00     0.106 C 
ATOM     13  C   UNL d   1       9.924   7.426  -6.689  0.00  0.00     0.024 C 
ATOM     14  C   UNL d   1       9.204   7.173  -8.011  0.00  0.00     0.002 C 
BRANCH  12  15
ATOM     15  N   UNL d   1      11.695   8.692  -5.598  0.00  0.00    -0.238 NA
ATOM     16  C   UNL d   1      11.451   9.628  -4.674  0.00  0.00     0.282 C 
ATOM     17  O   UNL d   1      10.668  10.553  -4.841  0.00  0.00    -0.268 OA
BRANCH  16  18
ATOM     18  C   UNL d   1      12.227   9.495  -3.361  0.00  0.00     0.232 C 
BRANCH  18  19
ATOM     19  O   UNL d   1      11.858   8.286  -2.686  0.00  0.00    -0.342 OA
ATOM     20  C   UNL d   1      12.413   7.068  -3.174  0.00  0.00     0.175 C 
ENDBRANCH  18  19
ENDBRANCH  16  18
ENDBRANCH  12  15
ENDBRANCH   8   9
ENDBRANCH   7   8
ENDBRANCH   1   7
BRANCH   4  21
ATOM     21  C   UNL d   1       6.886   2.159 -14.473  0.00  0.00     0.081 A 
ATOM     22  C   UNL d   1       7.600   1.740 -15.624  0.00  0.00     0.135 A 
ATOM     23  C   UNL d   1       7.330   0.544 -16.254  0.00  0.00     0.121 A 
ATOM     24  O   UNL d   1       8.592   2.385 -16.293  0.00  0.00    -0.298 OA
ATOM     25  C   UNL d   1       6.330  -0.326 -15.800  0.00  0.00     0.026 A 
ATOM     26  O   UNL d   1       8.154   0.401 -17.327  0.00  0.00    -0.299 OA
ATOM     27  C   UNL d   1       5.603   0.054 -14.649  0.00  0.00     0.004 A 
ATOM     28  C   UNL d   1       5.881   1.275 -13.993  0.00  0.00     0.019 A 
ATOM     29  C   UNL d   1       8.962   1.547 -17.351  0.00  0.00     0.304 A 
ENDBRANCH   4  21
TORSDOF 7
