REMARK  7 active torsions:
REMARK  status: ('A' for Active; 'I' for Inactive)
REMARK       I    between atoms: C_2  and  N_4 
REMARK    1  A    between atoms: N_4  and  C_5 
REMARK    2  A    between atoms: C_9  and  C_10 
REMARK    3  A    between atoms: N_13  and  C_14 
REMARK    4  A    between atoms: C_14  and  C_15 
REMARK    5  A    between atoms: C_15  and  C_16 
REMARK    6  A    between atoms: C_16  and  C_17 
REMARK    7  A    between atoms: C_17  and  C_19 
ROOT
ATOM      1  C   UNL d   1       8.280   6.040 -12.237  0.00  0.00     0.026 C 
ATOM      2  C   UNL d   1       7.018   5.320 -11.704  0.00  0.00     0.040 C 
ATOM      3  C   UNL d   1       6.296   4.529 -12.788  0.00  0.00     0.251 C 
ATOM      4  N   UNL d   1       7.218   3.560 -13.360  0.00  0.00     0.137 N 
ATOM      5  C   UNL d   1       8.352   4.225 -14.004  0.00  0.00     0.251 C 
ATOM      6  C   UNL d   1       9.168   5.043 -12.998  0.00  0.00     0.040 C 
ENDROOT
BRANCH   4   7
ATOM      7  C   UNL d   1       6.510   2.710 -14.302  0.00  0.00     0.251 C 
BRANCH   7   8
ATOM      8  C   UNL d   1       6.607   1.215 -13.955  0.00  0.00     0.043 C 
BRANCH   8   9
ATOM      9  C   UNL d   1       5.842   0.306 -14.939  0.00  0.00     0.071 C 
BRANCH   9  10
ATOM     10  C   UNL d   1       6.340   0.338 -16.397  0.00  0.00     0.173 C 
ATOM     11  O   UNL d   1       7.261   1.085 -16.728  0.00  0.00    -0.291 OA
BRANCH  10  12
ATOM     12  C   UNL d   1       5.682  -0.570 -17.377  0.00  0.00     0.035 A 
ATOM     13  C   UNL d   1       4.585  -1.395 -17.032  0.00  0.00     0.004 A 
ATOM     14  C   UNL d   1       4.016  -2.251 -17.997  0.00  0.00     0.011 A 
ATOM     15  C   UNL d   1       4.537  -2.300 -19.303  0.00  0.00     0.058 A 
ATOM     16  C   UNL d   1       5.619  -1.471 -19.662  0.00  0.00     0.011 A 
ATOM     17 CL   UNL d   1       3.866  -3.385 -20.465  0.00  0.00    -0.082 Cl
ATOM     18  C   UNL d   1       6.179  -0.610 -18.702  0.00  0.00     0.004 A 
ENDBRANCH  10  12
ENDBRANCH   9  10
ENDBRANCH   8   9
ENDBRANCH   7   8
ENDBRANCH   4   7
BRANCH   1  19
ATOM     19  C   UNL d   1       9.071   6.783 -11.169  0.00  0.00    -0.021 A 
ATOM     20  C   UNL d   1       9.715   7.984 -11.525  0.00  0.00    -0.004 A 
ATOM     21  C   UNL d   1      10.461   8.706 -10.572  0.00  0.00     0.001 A 
ATOM     22  C   UNL d   1      10.516   8.297  -9.247  0.00  0.00     0.019 A 
ATOM     23  C   UNL d   1       9.859   7.099  -8.866  0.00  0.00     0.084 A 
ATOM     24  C   UNL d   1       9.156   6.339  -9.822  0.00  0.00     0.015 A 
BRANCH  23  25
ATOM     25  N   UNL d   1       9.825   6.644  -7.536  0.00  0.00    -0.212 NA
ATOM     26  C   UNL d   1      10.763   6.896  -6.602  0.00  0.00     0.256 C 
ATOM     27  C   UNL d   1      10.472   6.474  -5.176  0.00  0.00     0.100 C 
ATOM     28  O   UNL d   1      11.850   7.405  -6.848  0.00  0.00    -0.270 OA
ENDBRANCH  23  25
ENDBRANCH   1  19
TORSDOF 7
