REMARK  3 active torsions:
REMARK  status: ('A' for Active; 'I' for Inactive)
REMARK    1  A    between atoms: C_2  and  N_3 
REMARK    2  A    between atoms: N_6  and  C_7 
REMARK    3  A    between atoms: C_9  and  C_10 
ROOT
ATOM      1  C   UNL d   1       8.650   5.051 -12.244  0.00  0.00     0.140 A 
ATOM      2  C   UNL d   1       9.738   4.920 -13.122  0.00  0.00     0.036 A 
ATOM      3  C   UNL d   1       9.628   4.161 -14.296  0.00  0.00     0.000 A 
ATOM      4  C   UNL d   1       8.381   3.521 -14.547  0.00  0.00    -0.009 A 
ATOM      5  C   UNL d   1       7.320   3.753 -13.605  0.00  0.00     0.057 A 
ATOM      6  N   UNL d   1       7.466   4.479 -12.481  0.00  0.00    -0.233 NA
ATOM      7  C   UNL d   1       5.925   3.186 -13.792  0.00  0.00     0.048 C 
ATOM      8  C   UNL d   1       5.760   1.745 -13.294  0.00  0.00     0.039 C 
ATOM      9  C   UNL d   1       6.316   0.625 -14.189  0.00  0.00     0.153 C 
ATOM     10  O   UNL d   1       5.927  -0.613 -13.633  0.00  0.00    -0.223 OA
ATOM     11  C   UNL d   1       7.850   0.595 -14.320  0.00  0.00     0.033 C 
ATOM     12  C   UNL d   1       8.365   1.134 -15.643  0.00  0.00     0.007 C 
ATOM     13  C   UNL d   1       8.153   2.653 -15.803  0.00  0.00     0.028 C 
ENDROOT
BRANCH   1  14
ATOM     14  N   UNL d   1       8.806   5.781 -11.042  0.00  0.00    -0.330 N 
ATOM     15  C   UNL d   1       8.298   5.272  -9.785  0.00  0.00     0.138 C 
ATOM     16  C   UNL d   1       9.424   5.314  -8.731  0.00  0.00     0.274 C 
ATOM     17  N   UNL d   1       9.989   6.666  -8.604  0.00  0.00     0.141 N 
ATOM     18  C   UNL d   1      10.552   7.065  -9.902  0.00  0.00     0.274 C 
ATOM     19  C   UNL d   1       9.469   7.068 -11.004  0.00  0.00     0.138 C 
BRANCH  17  20
ATOM     20  C   UNL d   1      11.032   6.666  -7.582  0.00  0.00     0.251 C 
ATOM     21  C   UNL d   1      10.468   7.043  -6.206  0.00  0.00     0.037 C 
ENDBRANCH  17  20
ENDBRANCH   1  14
BRANCH   3  22
ATOM     22  C   UNL d   1      10.815   4.015 -15.188  0.00  0.00    -0.000 C 
ATOM     23  C   UNL d   1      11.567   5.163 -15.597  0.00  0.00     0.002 C 
ATOM     24  C   UNL d   1      12.696   4.989 -16.439  0.00  0.00     0.030 C 
ATOM     25  C   UNL d   1      13.043   3.717 -16.944  0.00  0.00     0.140 C 
ATOM     26  C   UNL d   1      12.274   2.592 -16.529  0.00  0.00     0.030 C 
ATOM     27  F   UNL d   1      14.136   3.555 -17.743  0.00  0.00    -0.204 F 
ATOM     28  C   UNL d   1      11.275   2.756 -15.578  0.00  0.00     0.002 C 
ENDBRANCH   3  22
TORSDOF 3
