REMARK  8 active torsions:
REMARK  status: ('A' for Active; 'I' for Inactive)
REMARK    1  A    between atoms: O_2  and  C_3 
REMARK    2  A    between atoms: C_6  and  C_7 
REMARK    3  A    between atoms: N_11  and  C_12 
REMARK    4  A    between atoms: C_12  and  C_13 
REMARK    5  A    between atoms: C_13  and  C_14 
REMARK    6  A    between atoms: C_14  and  S_15 
REMARK    7  A    between atoms: S_15  and  C_16 
REMARK    8  A    between atoms: C_19  and  C_20 
ROOT
ATOM      1  C   UNL d   1       6.096  -0.349 -16.611  0.00  0.00     0.251 C 
ENDROOT
BRANCH   1   2
ATOM      2  N   UNL d   1       5.779   0.607 -15.559  0.00  0.00     0.137 N 
ATOM      3  C   UNL d   1       4.745   0.075 -14.678  0.00  0.00     0.251 C 
ATOM      4  C   UNL d   1       4.863   0.943 -13.461  0.00  0.00     0.039 A 
ATOM      5  C   UNL d   1       6.239   1.566 -13.509  0.00  0.00     0.052 A 
ATOM      6  C   UNL d   1       5.844   0.679 -12.349  0.00  0.00     0.008 A 
ATOM      7  C   UNL d   1       6.915   0.986 -14.708  0.00  0.00     0.254 C 
BRANCH   5   8
ATOM      8  C   UNL d   1       6.477   3.066 -13.307  0.00  0.00    -0.020 A 
ATOM      9  C   UNL d   1       5.399   3.940 -13.136  0.00  0.00    -0.002 A 
ATOM     10  C   UNL d   1       5.649   5.301 -12.873  0.00  0.00     0.025 A 
ATOM     11  C   UNL d   1       6.940   5.829 -12.772  0.00  0.00     0.105 A 
ATOM     12  C   UNL d   1       8.026   4.957 -12.923  0.00  0.00     0.080 A 
ATOM     13  C   UNL d   1       7.796   3.588 -13.230  0.00  0.00     0.009 A 
ATOM     14 CL   UNL d   1       9.623   5.568 -12.727  0.00  0.00    -0.080 Cl
BRANCH  11  15
ATOM     15  O   UNL d   1       7.200   7.171 -12.610  0.00  0.00    -0.327 OA
ATOM     16  C   UNL d   1       6.082   8.037 -12.473  0.00  0.00     0.181 C 
ENDBRANCH  11  15
ENDBRANCH   5   8
ENDBRANCH   1   2
BRANCH   1  17
ATOM     17  C   UNL d   1       7.091   0.259 -17.617  0.00  0.00     0.047 C 
BRANCH  17  18
ATOM     18  C   UNL d   1       7.786  -0.810 -18.481  0.00  0.00     0.067 C 
BRANCH  18  19
ATOM     19  S   UNL d   1       9.232  -0.169 -19.400  0.00  0.00    -0.075 SA
BRANCH  19  20
ATOM     20  C   UNL d   1      10.158   0.596 -18.096  0.00  0.00     0.193 A 
ATOM     21  N   UNL d   1      10.778   1.786 -18.262  0.00  0.00    -0.287 N 
ATOM     22  C   UNL d   1      11.246   2.040 -17.018  0.00  0.00     0.191 A 
ATOM     23  C   UNL d   1      10.892   2.600 -19.464  0.00  0.00     0.134 C 
ATOM     24  N   UNL d   1      10.925   1.081 -16.139  0.00  0.00    -0.126 NA
ATOM     25  N   UNL d   1      10.256   0.111 -16.859  0.00  0.00    -0.122 NA
BRANCH  22  26
ATOM     26  C   UNL d   1      12.024   3.217 -16.629  0.00  0.00     0.151 A 
ATOM     27  C   UNL d   1      12.210   3.844 -15.425  0.00  0.00     0.087 A 
ATOM     28  N   UNL d   1      13.067   4.921 -15.608  0.00  0.00    -0.221 NA
ATOM     29  C   UNL d   1      11.619   3.518 -14.099  0.00  0.00     0.054 C 
ATOM     30  C   UNL d   1      13.380   4.876 -16.899  0.00  0.00     0.225 A 
ATOM     31  O   UNL d   1      12.762   3.875 -17.578  0.00  0.00    -0.282 OA
ENDBRANCH  22  26
ENDBRANCH  19  20
ENDBRANCH  18  19
ENDBRANCH  17  18
ENDBRANCH   1  17
TORSDOF 8
