REMARK  7 active torsions:
REMARK  status: ('A' for Active; 'I' for Inactive)
REMARK    1  A    between atoms: O_2  and  C_3 
REMARK    2  A    between atoms: C_8  and  N_9 
REMARK    3  A    between atoms: N_12  and  C_13 
REMARK    4  A    between atoms: C_13  and  C_14 
REMARK    5  A    between atoms: C_14  and  C_15 
REMARK    6  A    between atoms: C_15  and  N_16 
REMARK       I    between atoms: N_16  and  C_17 
REMARK    7  A    between atoms: C_17  and  C_19 
ROOT
ATOM      1  N   UNL d   1       9.553   3.881 -14.161  0.00  0.00    -0.343 N 
ATOM      2  C   UNL d   1      10.234   3.475 -12.957  0.00  0.00     0.137 C 
ATOM      3  C   UNL d   1       9.493   4.024 -11.729  0.00  0.00     0.274 C 
ATOM      4  N   UNL d   1       9.409   5.488 -11.803  0.00  0.00     0.141 N 
ATOM      5  C   UNL d   1       8.631   5.839 -12.997  0.00  0.00     0.274 C 
ATOM      6  C   UNL d   1       9.335   5.305 -14.255  0.00  0.00     0.137 C 
ENDROOT
BRANCH   4   7
ATOM      7  C   UNL d   1       8.723   6.022 -10.633  0.00  0.00     0.253 C 
BRANCH   7   8
ATOM      8  C   UNL d   1       9.645   6.006  -9.402  0.00  0.00     0.062 C 
BRANCH   8   9
ATOM      9  C   UNL d   1       8.984   6.646  -8.174  0.00  0.00     0.131 C 
BRANCH   9  10
ATOM     10  N   UNL d   1       9.850   6.699  -7.003  0.00  0.00    -0.234 NA
ATOM     11  C   UNL d   1      10.885   7.539  -6.858  0.00  0.00     0.275 C 
ATOM     12  O   UNL d   1      11.372   8.170  -7.798  0.00  0.00    -0.266 OA
BRANCH  11  13
ATOM     13  C   UNL d   1      11.336   7.748  -5.437  0.00  0.00     0.063 A 
ATOM     14  C   UNL d   1      11.658   9.039  -4.937  0.00  0.00     0.035 A 
ATOM     15  C   UNL d   1      12.102   9.186  -3.609  0.00  0.00     0.006 A 
ATOM     16  I   UNL d   1      11.469  10.778  -6.069  0.00  0.00    -0.043 I 
ATOM     17  C   UNL d   1      12.235   8.069  -2.761  0.00  0.00     0.000 A 
ATOM     18  C   UNL d   1      11.897   6.796  -3.241  0.00  0.00     0.000 A 
ATOM     19  C   UNL d   1      11.468   6.634  -4.571  0.00  0.00     0.005 A 
ENDBRANCH  11  13
ENDBRANCH   9  10
ENDBRANCH   8   9
ENDBRANCH   7   8
ENDBRANCH   4   7
BRANCH   1  20
ATOM     20  C   UNL d   1       9.213   2.989 -15.189  0.00  0.00     0.079 A 
ATOM     21  C   UNL d   1       9.464   3.305 -16.546  0.00  0.00     0.110 A 
ATOM     22  C   UNL d   1       9.018   2.402 -17.544  0.00  0.00     0.026 A 
ATOM     23  C   UNL d   1       8.363   1.205 -17.194  0.00  0.00     0.002 A 
ATOM     24  C   UNL d   1       8.149   0.890 -15.847  0.00  0.00     0.002 A 
ATOM     25  C   UNL d   1       8.577   1.779 -14.843  0.00  0.00     0.019 A 
BRANCH  21  26
ATOM     26  O   UNL d   1      10.129   4.485 -16.834  0.00  0.00    -0.327 OA
ATOM     27  C   UNL d   1      10.244   4.886 -18.189  0.00  0.00     0.181 C 
ENDBRANCH  21  26
ENDBRANCH   1  20
TORSDOF 7
