REMARK  8 active torsions:
REMARK  status: ('A' for Active; 'I' for Inactive)
REMARK    1  A    between atoms: O_2  and  C_3 
REMARK    2  A    between atoms: C_8  and  N_9 
REMARK    3  A    between atoms: N_12  and  C_13 
REMARK    4  A    between atoms: C_13  and  C_14 
REMARK    5  A    between atoms: C_14  and  C_15 
REMARK    6  A    between atoms: C_15  and  C_16 
REMARK    7  A    between atoms: C_16  and  N_17 
REMARK    8  A    between atoms: C_22  and  C_23 
ROOT
ATOM      1  C   UNL d   1       8.550   5.649 -12.808  0.00  0.00     0.104 C 
ENDROOT
BRANCH   1   2
ATOM      2  C   UNL d   1       9.748   5.225 -13.668  0.00  0.00     0.026 C 
BRANCH   2   3
ATOM      3  C   UNL d   1       9.258   4.791 -15.042  0.00  0.00     0.037 C 
BRANCH   3   4
ATOM      4  C   UNL d   1      10.416   4.476 -16.033  0.00  0.00     0.251 C 
BRANCH   4   5
ATOM      5  N   UNL d   1      10.095   3.463 -17.041  0.00  0.00     0.141 N 
ATOM      6  C   UNL d   1       9.439   2.281 -16.453  0.00  0.00     0.274 C 
ATOM      7  C   UNL d   1       9.233   1.173 -17.489  0.00  0.00     0.137 C 
ATOM      8  N   UNL d   1       8.456   1.729 -18.588  0.00  0.00    -0.343 N 
ATOM      9  C   UNL d   1       9.012   2.919 -19.211  0.00  0.00     0.137 C 
ATOM     10  C   UNL d   1       9.286   4.005 -18.140  0.00  0.00     0.274 C 
BRANCH   8  11
ATOM     11  C   UNL d   1       7.213   1.171 -19.009  0.00  0.00     0.079 A 
ATOM     12  C   UNL d   1       6.243   0.718 -18.084  0.00  0.00     0.110 A 
ATOM     13  C   UNL d   1       5.054   0.116 -18.566  0.00  0.00     0.026 A 
ATOM     14  C   UNL d   1       4.808   0.016 -19.951  0.00  0.00     0.002 A 
ATOM     15  C   UNL d   1       5.758   0.497 -20.864  0.00  0.00     0.002 A 
ATOM     16  C   UNL d   1       6.957   1.072 -20.395  0.00  0.00     0.019 A 
BRANCH  12  17
ATOM     17  O   UNL d   1       6.463   0.924 -16.733  0.00  0.00    -0.327 OA
ATOM     18  C   UNL d   1       5.749   0.132 -15.799  0.00  0.00     0.181 C 
ENDBRANCH  12  17
ENDBRANCH   8  11
ENDBRANCH   4   5
ENDBRANCH   3   4
ENDBRANCH   2   3
ENDBRANCH   1   2
BRANCH   1  19
ATOM     19  N   UNL d   1       8.984   5.946 -11.444  0.00  0.00    -0.316 N 
ATOM     20  C   UNL d   1       9.456   7.183 -11.116  0.00  0.00     0.257 C 
ATOM     21  C   UNL d   1       9.906   7.375  -9.715  0.00  0.00     0.052 A 
ATOM     22  O   UNL d   1       9.464   8.120 -11.924  0.00  0.00    -0.267 OA
ATOM     23  C   UNL d   1       9.520   6.481  -8.693  0.00  0.00    -0.016 A 
ATOM     24  C   UNL d   1      10.681   8.508  -9.377  0.00  0.00     0.004 A 
ATOM     25  C   UNL d   1       8.669   5.281  -9.043  0.00  0.00     0.051 C 
ATOM     26  C   UNL d   1       9.889   6.722  -7.363  0.00  0.00    -0.004 A 
ATOM     27  C   UNL d   1       8.906   4.824 -10.489  0.00  0.00     0.109 C 
ATOM     28  C   UNL d   1      10.665   7.849  -7.021  0.00  0.00    -0.000 A 
ATOM     29  C   UNL d   1      11.059   8.731  -8.050  0.00  0.00     0.000 A 
BRANCH  28  30
ATOM     30  C   UNL d   1      11.064   8.096  -5.625  0.00  0.00    -0.000 A 
ATOM     31  C   UNL d   1      11.457   7.024  -4.793  0.00  0.00    -0.000 A 
ATOM     32  C   UNL d   1      11.865   7.251  -3.460  0.00  0.00    -0.000 A 
ATOM     33  C   UNL d   1      11.863   8.561  -2.947  0.00  0.00     0.000 A 
ATOM     34  C   UNL d   1      11.463   9.631  -3.762  0.00  0.00    -0.000 A 
ATOM     35  C   UNL d   1      11.072   9.402  -5.098  0.00  0.00    -0.000 A 
ENDBRANCH  28  30
ENDBRANCH   1  19
TORSDOF 8
