REMARK  4 active torsions:
REMARK  status: ('A' for Active; 'I' for Inactive)
REMARK    1  A    between atoms: C_3  and  C_4 
REMARK    2  A    between atoms: N_7  and  C_8 
REMARK    3  A    between atoms: C_8  and  C_9 
REMARK    4  A    between atoms: C_19  and  C_20 
ROOT
ATOM      1  C   UNL d   1       9.011   5.521  -8.431  0.00  0.00     0.034 C 
ATOM      2  C   UNL d   1       9.865   6.609  -9.037  0.00  0.00     0.013 A 
ATOM      3  C   UNL d   1       9.999   6.945 -10.368  0.00  0.00     0.078 A 
ATOM      4  N   UNL d   1      10.854   8.028 -10.353  0.00  0.00    -0.153 NA
ATOM      5  N   UNL d   1      11.317   8.372  -9.170  0.00  0.00    -0.149 NA
ATOM      6  C   UNL d   1      10.718   7.524  -8.353  0.00  0.00     0.100 A 
ENDROOT
BRANCH   3   7
ATOM      7  C   UNL d   1       9.382   6.387 -11.605  0.00  0.00     0.046 C 
ATOM      8  C   UNL d   1       9.600   4.866 -11.820  0.00  0.00     0.041 C 
ATOM      9  C   UNL d   1       8.778   4.273 -12.942  0.00  0.00     0.251 C 
ATOM     10  N   UNL d   1       7.350   4.543 -12.774  0.00  0.00     0.141 N 
ATOM     11  C   UNL d   1       7.179   5.999 -12.797  0.00  0.00     0.251 C 
ATOM     12  C   UNL d   1       7.882   6.678 -11.651  0.00  0.00     0.041 C 
BRANCH  10  13
ATOM     13  C   UNL d   1       6.645   3.926 -13.893  0.00  0.00     0.277 C 
BRANCH  13  14
ATOM     14  C   UNL d   1       6.530   2.426 -13.814  0.00  0.00     0.011 A 
ATOM     15  C   UNL d   1       5.506   1.838 -13.042  0.00  0.00    -0.002 A 
ATOM     16  C   UNL d   1       5.443   0.435 -12.926  0.00  0.00    -0.000 A 
ATOM     17  C   UNL d   1       6.377  -0.382 -13.594  0.00  0.00    -0.000 A 
ATOM     18  C   UNL d   1       7.395   0.206 -14.371  0.00  0.00    -0.000 A 
ATOM     19  C   UNL d   1       7.466   1.605 -14.481  0.00  0.00    -0.002 A 
ENDBRANCH  13  14
ENDBRANCH  10  13
ENDBRANCH   3   7
BRANCH   6  20
ATOM     20  C   UNL d   1      11.042   7.614  -6.936  0.00  0.00     0.019 A 
ATOM     21  C   UNL d   1      10.947   8.845  -6.252  0.00  0.00     0.002 A 
ATOM     22  C   UNL d   1      11.256   8.916  -4.875  0.00  0.00     0.011 A 
ATOM     23  C   UNL d   1      11.656   7.750  -4.189  0.00  0.00     0.058 A 
ATOM     24  C   UNL d   1      11.742   6.524  -4.864  0.00  0.00     0.011 A 
ATOM     25 CL   UNL d   1      12.046   7.822  -2.509  0.00  0.00    -0.082 Cl
ATOM     26  C   UNL d   1      11.451   6.464  -6.249  0.00  0.00     0.002 A 
ENDBRANCH   6  20
TORSDOF 4
