REMARK  4 active torsions:
REMARK  status: ('A' for Active; 'I' for Inactive)
REMARK    1  A    between atoms: O_2  and  C_3 
REMARK    2  A    between atoms: C_9  and  C_10 
REMARK    3  A    between atoms: N_17  and  S_18 
REMARK    4  A    between atoms: S_18  and  C_21 
ROOT
ATOM      1  C   UNL d   1      10.884   3.386 -15.309  0.00  0.00     0.094 A 
ATOM      2  C   UNL d   1      10.980   4.631 -14.650  0.00  0.00     0.026 A 
ATOM      3  C   UNL d   1       9.912   5.102 -13.877  0.00  0.00     0.020 A 
ATOM      4  C   UNL d   1       8.737   4.345 -13.769  0.00  0.00     0.075 A 
ATOM      5  C   UNL d   1       8.589   3.073 -14.398  0.00  0.00     0.022 A 
ATOM      6  C   UNL d   1       9.701   2.618 -15.171  0.00  0.00     0.026 A 
ATOM      7  C   UNL d   1       7.270   2.574 -14.046  0.00  0.00     0.039 A 
ATOM      8  C   UNL d   1       6.692   3.537 -13.262  0.00  0.00     0.093 A 
ATOM      9  N   UNL d   1       7.564   4.602 -13.092  0.00  0.00    -0.231 N 
ENDROOT
BRANCH   9  10
ATOM     10  S   UNL d   1       7.241   5.990 -12.129  0.00  0.00     0.271 S 
ATOM     11  O   UNL d   1       7.597   7.156 -12.941  0.00  0.00    -0.200 OA
ATOM     12  O   UNL d   1       5.870   5.801 -11.640  0.00  0.00    -0.200 OA
BRANCH  10  13
ATOM     13  C   UNL d   1       8.409   5.869 -10.797  0.00  0.00     0.104 A 
ATOM     14  C   UNL d   1       8.278   4.828  -9.870  0.00  0.00     0.013 A 
ATOM     15  C   UNL d   1       9.165   4.763  -8.784  0.00  0.00     0.001 A 
ATOM     16  C   UNL d   1      10.176   5.736  -8.631  0.00  0.00     0.000 A 
ATOM     17  C   UNL d   1      10.312   6.774  -9.574  0.00  0.00     0.001 A 
ATOM     18  C   UNL d   1       9.430   6.835 -10.666  0.00  0.00     0.013 A 
ENDBRANCH  10  13
ENDBRANCH   9  10
BRANCH   7  19
ATOM     19  C   UNL d   1       6.708   1.287 -14.467  0.00  0.00     0.105 A 
ATOM     20  N   UNL d   1       5.458   0.856 -13.980  0.00  0.00    -0.213 NA
ATOM     21  C   UNL d   1       5.247  -0.308 -14.575  0.00  0.00     0.238 A 
ATOM     22  N   UNL d   1       6.249  -0.673 -15.371  0.00  0.00    -0.211 NA
ATOM     23  N   UNL d   1       4.128  -1.109 -14.445  0.00  0.00    -0.060 NA
ATOM     24  C   UNL d   1       7.206   0.322 -15.325  0.00  0.00     0.121 A 
ENDBRANCH   7  19
BRANCH   1  25
ATOM     25  O   UNL d   1      11.895   2.877 -16.099  0.00  0.00    -0.328 OA
ATOM     26  C   UNL d   1      13.019   3.716 -16.351  0.00  0.00     0.181 C 
ENDBRANCH   1  25
TORSDOF 4
