REMARK  0 active torsions:
REMARK  status: ('A' for Active; 'I' for Inactive)
ROOT
ATOM      1  C   UNL d   1       9.919   3.440 -18.983  0.00  0.00     0.285 C 
ATOM      2  N   UNL d   1      10.115   2.656 -17.767  0.00  0.00     0.142 N 
ATOM      3  C   UNL d   1      10.521   1.278 -18.073  0.00  0.00     0.283 C 
ATOM      4  C   UNL d   1       9.394   0.370 -18.607  0.00  0.00     0.184 C 
ATOM      5  O   UNL d   1       8.688  -0.155 -17.488  0.00  0.00    -0.329 OA
ATOM      6  C   UNL d   1       7.328  -0.345 -17.592  0.00  0.00     0.092 A 
ATOM      7  C   UNL d   1       6.676  -0.582 -18.827  0.00  0.00     0.051 A 
ATOM      8  C   UNL d   1       5.285  -0.784 -18.873  0.00  0.00     0.133 A 
ATOM      9  O   UNL d   1       4.644  -0.987 -20.059  0.00  0.00    -0.190 OA
ATOM     10  C   UNL d   1       4.534  -0.780 -17.686  0.00  0.00     0.027 A 
ATOM     11  C   UNL d   1       5.169  -0.550 -16.454  0.00  0.00     0.000 A 
ATOM     12  C   UNL d   1       6.562  -0.330 -16.400  0.00  0.00     0.005 A 
ATOM     13  C   UNL d   1       7.226  -0.133 -15.042  0.00  0.00     0.054 C 
ATOM     14  C   UNL d   1       7.005   1.252 -14.440  0.00  0.00    -0.022 A 
ATOM     15  C   UNL d   1       5.859   1.436 -13.637  0.00  0.00    -0.004 A 
ATOM     16  C   UNL d   1       5.582   2.678 -13.039  0.00  0.00    -0.000 A 
ATOM     17  C   UNL d   1       6.463   3.756 -13.235  0.00  0.00    -0.000 A 
ATOM     18  C   UNL d   1       7.616   3.582 -14.025  0.00  0.00    -0.004 A 
ATOM     19  C   UNL d   1       7.902   2.339 -14.633  0.00  0.00    -0.024 A 
ATOM     20  C   UNL d   1       9.165   2.236 -15.482  0.00  0.00     0.061 C 
ATOM     21  C   UNL d   1       8.939   2.779 -16.904  0.00  0.00     0.255 C 
ENDROOT
TORSDOF 0
