REMARK  7 active torsions:
REMARK  status: ('A' for Active; 'I' for Inactive)
REMARK       I    between atoms: C_2  and  N_4 
REMARK    1  A    between atoms: N_4  and  C_5 
REMARK    2  A    between atoms: C_8  and  O_9 
REMARK    3  A    between atoms: O_9  and  C_10 
REMARK    4  A    between atoms: C_10  and  C_11 
REMARK    5  A    between atoms: C_11  and  C_12 
REMARK    6  A    between atoms: C_12  and  N_13 
REMARK    7  A    between atoms: N_16  and  C_17 
ROOT
ATOM      1  N   UNL d   1       8.421   4.975 -11.540  0.00  0.00     0.141 N 
ATOM      2  C   UNL d   1       9.420   4.098 -12.142  0.00  0.00     0.274 C 
ATOM      3  C   UNL d   1       9.159   3.922 -13.628  0.00  0.00     0.138 C 
ATOM      4  N   UNL d   1       7.812   3.439 -13.881  0.00  0.00    -0.329 N 
ATOM      5  C   UNL d   1       6.771   4.205 -13.188  0.00  0.00     0.138 C 
ATOM      6  C   UNL d   1       7.096   4.376 -11.693  0.00  0.00     0.274 C 
ENDROOT
BRANCH   1   7
ATOM      7  C   UNL d   1       8.700   5.143 -10.121  0.00  0.00     0.253 C 
BRANCH   7   8
ATOM      8  C   UNL d   1       9.921   6.045  -9.902  0.00  0.00     0.068 C 
BRANCH   8   9
ATOM      9  C   UNL d   1       9.490   7.471  -9.541  0.00  0.00     0.151 C 
BRANCH   9  10
ATOM     10  O   UNL d   1      10.582   8.263  -9.112  0.00  0.00    -0.331 OA
BRANCH  10  11
ATOM     11  C   UNL d   1      10.861   8.281  -7.767  0.00  0.00     0.094 A 
ATOM     12  C   UNL d   1      11.348   9.489  -7.245  0.00  0.00     0.026 A 
ATOM     13  C   UNL d   1      11.640   9.633  -5.884  0.00  0.00     0.021 A 
ATOM     14  C   UNL d   1      11.500   8.527  -5.026  0.00  0.00     0.085 A 
ATOM     15  C   UNL d   1      11.042   7.290  -5.543  0.00  0.00     0.021 A 
ATOM     16  C   UNL d   1      10.706   7.172  -6.901  0.00  0.00     0.026 A 
BRANCH  14  17
ATOM     17  N   UNL d   1      11.804   8.732  -3.660  0.00  0.00    -0.212 NA
ATOM     18  C   UNL d   1      12.336   7.843  -2.808  0.00  0.00     0.256 C 
ATOM     19  C   UNL d   1      12.732   8.401  -1.458  0.00  0.00     0.100 C 
ATOM     20  O   UNL d   1      12.545   6.657  -3.050  0.00  0.00    -0.270 OA
ENDBRANCH  14  17
ENDBRANCH  10  11
ENDBRANCH   9  10
ENDBRANCH   8   9
ENDBRANCH   7   8
ENDBRANCH   1   7
BRANCH   4  21
ATOM     21  C   UNL d   1       7.543   2.290 -14.652  0.00  0.00     0.148 A 
ATOM     22  C   UNL d   1       8.416   1.816 -15.732  0.00  0.00     0.042 A 
ATOM     23  C   UNL d   1       7.854   0.636 -16.303  0.00  0.00     0.050 A 
ATOM     24  C   UNL d   1       9.632   2.271 -16.306  0.00  0.00     0.004 A 
ATOM     25  S   UNL d   1       6.343   0.296 -15.482  0.00  0.00     0.015 SA
ATOM     26  C   UNL d   1       8.473  -0.062 -17.357  0.00  0.00     0.008 A 
ATOM     27  N   UNL d   1       6.444   1.598 -14.433  0.00  0.00    -0.192 NA
ATOM     28  C   UNL d   1       9.704   0.393 -17.863  0.00  0.00     0.001 A 
ATOM     29  C   UNL d   1      10.278   1.558 -17.331  0.00  0.00     0.000 A 
ENDBRANCH   4  21
TORSDOF 7
