REMARK  7 active torsions:
REMARK  status: ('A' for Active; 'I' for Inactive)
REMARK    1  A    between atoms: N_13  and  C_14 
REMARK    2  A    between atoms: C_14  and  C_15 
REMARK    3  A    between atoms: C_15  and  C_16 
REMARK    4  A    between atoms: C_16  and  C_17 
REMARK    5  A    between atoms: C_17  and  S_18 
REMARK    6  A    between atoms: S_18  and  C_19 
REMARK    7  A    between atoms: C_22  and  C_23 
ROOT
ATOM      1  C   UNL d   1      12.007   3.210 -16.370  0.00  0.00     0.250 C 
ENDROOT
BRANCH   1   2
ATOM      2  N   UNL d   1      11.623   1.800 -16.398  0.00  0.00     0.138 N 
ATOM      3  C   UNL d   1      11.050   1.390 -15.116  0.00  0.00     0.255 C 
ATOM      4  C   UNL d   1       9.685   2.025 -14.758  0.00  0.00     0.061 C 
ATOM      5  C   UNL d   1       8.509   1.406 -15.487  0.00  0.00    -0.022 A 
ATOM      6  C   UNL d   1       8.414   1.413 -16.905  0.00  0.00    -0.022 A 
ATOM      7  C   UNL d   1       7.485   0.802 -14.719  0.00  0.00     0.022 A 
ATOM      8  C   UNL d   1       7.305   0.821 -17.548  0.00  0.00     0.017 A 
ATOM      9  C   UNL d   1       9.511   2.020 -17.765  0.00  0.00     0.061 C 
ATOM     10  C   UNL d   1       6.278   0.211 -16.789  0.00  0.00     0.106 A 
ATOM     11  N   UNL d   1       5.117  -0.428 -17.146  0.00  0.00    -0.224 NA
ATOM     12  C   UNL d   1       6.406   0.225 -15.383  0.00  0.00     0.119 A 
ATOM     13  C   UNL d   1       4.593  -0.769 -15.961  0.00  0.00     0.159 A 
ATOM     14  C   UNL d   1       3.296  -1.447 -15.762  0.00  0.00     0.080 C 
ATOM     15  O   UNL d   1       5.300  -0.413 -14.848  0.00  0.00    -0.292 OA
ATOM     16  C   UNL d   1      10.873   1.330 -17.567  0.00  0.00     0.255 C 
ENDBRANCH   1   2
BRANCH   1  17
ATOM     17  C   UNL d   1      12.743   3.664 -17.636  0.00  0.00     0.036 C 
BRANCH  17  18
ATOM     18  C   UNL d   1      12.767   5.177 -17.757  0.00  0.00     0.014 C 
BRANCH  18  19
ATOM     19  C   UNL d   1      13.726   5.850 -16.759  0.00  0.00     0.065 C 
BRANCH  19  20
ATOM     20  S   UNL d   1      13.726   7.654 -16.893  0.00  0.00    -0.076 SA
BRANCH  20  21
ATOM     21  C   UNL d   1      14.463   7.876 -18.486  0.00  0.00     0.193 A 
ATOM     22  N   UNL d   1      14.752   9.090 -18.990  0.00  0.00    -0.287 N 
ATOM     23  C   UNL d   1      15.196   8.783 -20.230  0.00  0.00     0.191 A 
ATOM     24  C   UNL d   1      14.661  10.403 -18.345  0.00  0.00     0.134 C 
ATOM     25  N   UNL d   1      15.228   7.453 -20.455  0.00  0.00    -0.126 NA
ATOM     26  N   UNL d   1      14.797   6.883 -19.306  0.00  0.00    -0.122 NA
BRANCH  23  27
ATOM     27  C   UNL d   1      15.672   9.714 -21.239  0.00  0.00     0.151 A 
ATOM     28  C   UNL d   1      16.409   9.531 -22.386  0.00  0.00     0.087 A 
ATOM     29  N   UNL d   1      16.627  10.757 -22.985  0.00  0.00    -0.221 NA
ATOM     30  C   UNL d   1      16.952   8.254 -22.976  0.00  0.00     0.054 C 
ATOM     31  C   UNL d   1      16.005  11.619 -22.195  0.00  0.00     0.225 A 
ATOM     32  O   UNL d   1      15.440  11.060 -21.095  0.00  0.00    -0.282 OA
ENDBRANCH  23  27
ENDBRANCH  20  21
ENDBRANCH  19  20
ENDBRANCH  18  19
ENDBRANCH  17  18
ENDBRANCH   1  17
TORSDOF 7
