REMARK  9 active torsions:
REMARK  status: ('A' for Active; 'I' for Inactive)
REMARK    1  A    between atoms: N_11  and  C_12 
REMARK    2  A    between atoms: C_12  and  C_13 
REMARK    3  A    between atoms: C_13  and  C_14 
REMARK    4  A    between atoms: C_14  and  N_15 
REMARK    5  A    between atoms: C_18  and  C_19 
REMARK    6  A    between atoms: C_19  and  C_20 
REMARK    7  A    between atoms: C_20  and  C_21 
REMARK    8  A    between atoms: C_21  and  C_22 
REMARK    9  A    between atoms: C_22  and  C_23 
ROOT
ATOM      1  C   UNL d   1       8.197   4.452 -12.439  0.00  0.00     0.060 C 
ENDROOT
BRANCH   1   2
ATOM      2  C   UNL d   1       7.146   4.310 -13.554  0.00  0.00     0.111 C 
BRANCH   2   3
ATOM      3  N   UNL d   1       6.995   2.897 -13.973  0.00  0.00    -0.299 N 
ATOM      4  C   UNL d   1       5.904   2.192 -13.552  0.00  0.00     0.238 C 
ATOM      5  O   UNL d   1       5.054   2.630 -12.795  0.00  0.00    -0.272 OA
ATOM      6  C   UNL d   1       5.751   0.741 -14.036  0.00  0.00     0.093 C 
ATOM      7  C   UNL d   1       7.092   0.011 -14.145  0.00  0.00     0.038 C 
ATOM      8  C   UNL d   1       8.137   0.865 -14.839  0.00  0.00    -0.006 A 
ATOM      9  C   UNL d   1       8.075   2.283 -14.709  0.00  0.00     0.058 A 
ATOM     10  C   UNL d   1       9.184   0.263 -15.572  0.00  0.00    -0.003 A 
ATOM     11  C   UNL d   1       9.115   3.044 -15.294  0.00  0.00     0.017 A 
ATOM     12  C   UNL d   1      10.153   2.432 -16.030  0.00  0.00     0.002 A 
ATOM     13  C   UNL d   1      10.185   1.038 -16.179  0.00  0.00    -0.000 A 
ENDBRANCH   2   3
ENDBRANCH   1   2
BRANCH   1  14
ATOM     14  C   UNL d   1       8.524   5.929 -12.152  0.00  0.00     0.252 C 
BRANCH  14  15
ATOM     15  N   UNL d   1       9.375   6.099 -10.980  0.00  0.00     0.137 N 
ATOM     16  C   UNL d   1       9.771   7.512 -10.914  0.00  0.00     0.250 C 
ATOM     17  C   UNL d   1      10.724   7.737  -9.728  0.00  0.00     0.035 C 
ATOM     18  C   UNL d   1      10.075   7.333  -8.397  0.00  0.00     0.004 C 
ATOM     19  C   UNL d   1       9.518   5.910  -8.520  0.00  0.00     0.035 C 
ATOM     20  C   UNL d   1       8.633   5.755  -9.755  0.00  0.00     0.250 C 
BRANCH  18  21
ATOM     21  C   UNL d   1      11.068   7.443  -7.220  0.00  0.00     0.000 C 
BRANCH  21  22
ATOM     22  C   UNL d   1      10.427   8.011  -5.948  0.00  0.00     0.000 C 
BRANCH  22  23
ATOM     23  C   UNL d   1      11.426   8.130  -4.790  0.00  0.00     0.003 C 
BRANCH  23  24
ATOM     24  C   UNL d   1      11.676   6.796  -4.058  0.00  0.00     0.036 C 
BRANCH  24  25
ATOM     25  C   UNL d   1      12.657   6.924  -2.883  0.00  0.00     0.182 C 
ATOM     26  O   UNL d   1      12.244   7.918  -1.969  0.00  0.00    -0.221 OA
ENDBRANCH  24  25
ENDBRANCH  23  24
ENDBRANCH  22  23
ENDBRANCH  21  22
ENDBRANCH  18  21
ENDBRANCH  14  15
ENDBRANCH   1  14
TORSDOF 9
