REMARK  7 active torsions:
REMARK  status: ('A' for Active; 'I' for Inactive)
REMARK    1  A    between atoms: C_6  and  C_7 
REMARK    2  A    between atoms: C_10  and  S_11 
REMARK    3  A    between atoms: S_11  and  C_12 
REMARK    4  A    between atoms: C_12  and  C_13 
REMARK    5  A    between atoms: C_13  and  C_14 
REMARK    6  A    between atoms: C_14  and  N_15 
REMARK    7  A    between atoms: N_20  and  C_21 
ROOT
ATOM      1  C   UNL d   1       6.739   0.966 -13.658  0.00  0.00     0.251 C 
ENDROOT
BRANCH   1   2
ATOM      2  C   UNL d   1       6.829   2.518 -13.733  0.00  0.00     0.047 C 
BRANCH   2   3
ATOM      3  C   UNL d   1       5.723   3.132 -12.849  0.00  0.00     0.067 C 
BRANCH   3   4
ATOM      4  S   UNL d   1       5.817   4.963 -12.804  0.00  0.00    -0.075 SA
BRANCH   4   5
ATOM      5  C   UNL d   1       7.225   5.242 -11.780  0.00  0.00     0.193 A 
ATOM      6  N   UNL d   1       7.628   4.391 -10.875  0.00  0.00    -0.122 NA
ATOM      7  N   UNL d   1       8.671   4.940 -10.212  0.00  0.00    -0.126 NA
ATOM      8  C   UNL d   1       8.824   6.142 -10.759  0.00  0.00     0.191 A 
ATOM      9  N   UNL d   1       7.974   6.368 -11.784  0.00  0.00    -0.287 N 
ATOM     10  C   UNL d   1       7.882   7.543 -12.637  0.00  0.00     0.134 C 
BRANCH   8  11
ATOM     11  C   UNL d   1       9.813   7.048 -10.194  0.00  0.00     0.151 A 
ATOM     12  C   UNL d   1      10.469   7.040  -8.986  0.00  0.00     0.087 A 
ATOM     13  C   UNL d   1      10.354   6.108  -7.817  0.00  0.00     0.054 C 
ATOM     14  N   UNL d   1      11.385   8.079  -8.976  0.00  0.00    -0.221 NA
ATOM     15  C   UNL d   1      11.157   8.699 -10.130  0.00  0.00     0.225 A 
ATOM     16  O   UNL d   1      10.189   8.145 -10.897  0.00  0.00    -0.282 OA
ENDBRANCH   8  11
ENDBRANCH   4   5
ENDBRANCH   3   4
ENDBRANCH   2   3
ENDBRANCH   1   2
BRANCH   1  17
ATOM     17  N   UNL d   1       6.022   0.408 -14.802  0.00  0.00     0.139 N 
ATOM     18  C   UNL d   1       6.736   0.587 -16.077  0.00  0.00     0.272 C 
ATOM     19  C   UNL d   1       6.232  -0.535 -16.989  0.00  0.00     0.117 C 
ATOM     20  C   UNL d   1       5.453  -1.478 -16.077  0.00  0.00     0.058 C 
ATOM     21  N   UNL d   1       5.309  -0.061 -18.021  0.00  0.00    -0.348 N 
ATOM     22  C   UNL d   1       5.833  -1.038 -14.664  0.00  0.00     0.252 C 
ATOM     23  C   UNL d   1       3.981  -1.240 -16.434  0.00  0.00     0.028 C 
ATOM     24  C   UNL d   1       4.062  -0.813 -17.909  0.00  0.00     0.102 C 
BRANCH  21  25
ATOM     25  C   UNL d   1       5.797   0.342 -19.283  0.00  0.00     0.056 A 
ATOM     26  C   UNL d   1       7.120   0.829 -19.432  0.00  0.00     0.019 A 
ATOM     27  C   UNL d   1       7.615   1.202 -20.696  0.00  0.00     0.031 A 
ATOM     28  C   UNL d   1       6.797   1.096 -21.835  0.00  0.00     0.140 A 
ATOM     29  C   UNL d   1       5.479   0.626 -21.704  0.00  0.00     0.031 A 
ATOM     30  F   UNL d   1       7.281   1.433 -23.052  0.00  0.00    -0.204 F 
ATOM     31  C   UNL d   1       4.983   0.261 -20.438  0.00  0.00     0.019 A 
ENDBRANCH  21  25
ENDBRANCH   1  17
TORSDOF 7
