REMARK  3 active torsions:
REMARK  status: ('A' for Active; 'I' for Inactive)
REMARK    1  A    between atoms: C_7  and  C_8 
REMARK    2  A    between atoms: C_8  and  N_9 
REMARK    3  A    between atoms: N_12  and  C_13 
ROOT
ATOM      1  N   UNL d   1       7.458   3.624 -13.194  0.00  0.00     0.147 N 
ATOM      2  C   UNL d   1       8.246   3.097 -14.317  0.00  0.00     0.275 C 
ATOM      3  C   UNL d   1       8.110   1.567 -14.440  0.00  0.00     0.137 C 
ATOM      4  N   UNL d   1       6.694   1.189 -14.486  0.00  0.00    -0.344 N 
ATOM      5  C   UNL d   1       5.857   1.733 -13.420  0.00  0.00     0.137 C 
ATOM      6  C   UNL d   1       6.040   3.264 -13.334  0.00  0.00     0.275 C 
ENDROOT
BRANCH   1   7
ATOM      7  C   UNL d   1       7.615   5.072 -13.054  0.00  0.00     0.297 C 
BRANCH   7   8
ATOM      8  C   UNL d   1       8.325   5.614 -11.857  0.00  0.00     0.113 A 
ATOM      9  N   UNL d   1       9.133   6.737 -11.966  0.00  0.00    -0.228 NA
ATOM     10  C   UNL d   1       9.565   6.989 -10.732  0.00  0.00     0.164 A 
ATOM     11  C   UNL d   1      10.403   7.986 -10.173  0.00  0.00     0.041 A 
ATOM     12  N   UNL d   1       9.063   6.029  -9.822  0.00  0.00    -0.209 N 
ATOM     13  C   UNL d   1      10.665   7.938  -8.826  0.00  0.00     0.036 A 
ATOM     14  C   UNL d   1      10.089   6.913  -8.040  0.00  0.00     0.159 A 
ATOM     15 CL   UNL d   1      10.463   6.924  -6.357  0.00  0.00    -0.060 Cl
ATOM     16  N   UNL d   1       9.297   5.939  -8.483  0.00  0.00    -0.152 NA
ATOM     17  C   UNL d   1       8.278   5.169 -10.563  0.00  0.00     0.119 A 
ENDBRANCH   7   8
ENDBRANCH   1   7
BRANCH   4  18
ATOM     18  C   UNL d   1       6.160   0.368 -15.495  0.00  0.00     0.057 A 
ATOM     19  C   UNL d   1       6.706   0.378 -16.800  0.00  0.00     0.029 A 
ATOM     20  C   UNL d   1       6.175  -0.449 -17.807  0.00  0.00     0.070 A 
ATOM     21  C   UNL d   1       5.082  -1.293 -17.527  0.00  0.00     0.068 A 
ATOM     22 CL   UNL d   1       6.883  -0.387 -19.381  0.00  0.00    -0.081 Cl
ATOM     23  C   UNL d   1       4.532  -1.309 -16.235  0.00  0.00     0.014 A 
ATOM     24 CL   UNL d   1       4.404  -2.302 -18.751  0.00  0.00    -0.082 Cl
ATOM     25  C   UNL d   1       5.064  -0.487 -15.223  0.00  0.00     0.018 A 
ENDBRANCH   4  18
TORSDOF 3
