REMARK  8 active torsions:
REMARK  status: ('A' for Active; 'I' for Inactive)
REMARK    1  A    between atoms: C_3  and  S_4 
REMARK    2  A    between atoms: S_4  and  C_5 
REMARK    3  A    between atoms: C_5  and  C_6 
REMARK    4  A    between atoms: C_6  and  C_7 
REMARK    5  A    between atoms: C_7  and  N_8 
REMARK    6  A    between atoms: N_13  and  C_14 
REMARK    7  A    between atoms: C_20  and  C_21 
REMARK    8  A    between atoms: C_29  and  C_30 
ROOT
ATOM      1  N   UNL d   1      10.435   2.616 -15.467  0.00  0.00     0.138 N 
ATOM      2  C   UNL d   1      11.325   1.654 -16.117  0.00  0.00     0.252 C 
ATOM      3  C   UNL d   1      11.251   2.037 -17.602  0.00  0.00     0.052 C 
ATOM      4  C   UNL d   1      12.574   2.083 -18.373  0.00  0.00     0.021 C 
ATOM      5  C   UNL d   1      12.441   3.356 -19.221  0.00  0.00     0.077 C 
ATOM      6  N   UNL d   1      11.714   4.286 -18.374  0.00  0.00    -0.252 NA
ATOM      7  C   UNL d   1      10.779   3.482 -17.590  0.00  0.00     0.097 C 
ATOM      8  C   UNL d   1      10.740   3.881 -16.130  0.00  0.00     0.266 C 
ENDROOT
BRANCH   1   9
ATOM      9  C   UNL d   1      10.659   2.661 -14.026  0.00  0.00     0.251 C 
BRANCH   9  10
ATOM     10  C   UNL d   1       9.586   3.464 -13.268  0.00  0.00     0.047 C 
BRANCH  10  11
ATOM     11  C   UNL d   1       9.746   4.995 -13.379  0.00  0.00     0.067 C 
BRANCH  11  12
ATOM     12  S   UNL d   1       8.363   5.893 -12.625  0.00  0.00    -0.075 SA
BRANCH  12  13
ATOM     13  C   UNL d   1       8.942   5.938 -10.973  0.00  0.00     0.193 A 
ATOM     14  N   UNL d   1       9.465   7.046 -10.407  0.00  0.00    -0.287 N 
ATOM     15  C   UNL d   1       9.645   8.365 -11.005  0.00  0.00     0.134 C 
ATOM     16  C   UNL d   1       9.750   6.606  -9.152  0.00  0.00     0.186 A 
ATOM     17  N   UNL d   1       9.453   5.309  -8.989  0.00  0.00    -0.127 NA
ATOM     18  N   UNL d   1       8.934   4.874 -10.178  0.00  0.00    -0.122 NA
BRANCH  16  19
ATOM     19  C   UNL d   1      10.323   7.393  -8.050  0.00  0.00     0.136 A 
ATOM     20  N   UNL d   1      10.662   8.688  -8.256  0.00  0.00    -0.238 NA
ATOM     21  C   UNL d   1      11.191   9.362  -7.213  0.00  0.00     0.120 A 
ATOM     22  C   UNL d   1      11.387   8.756  -5.956  0.00  0.00     0.120 A 
ATOM     23  N   UNL d   1      11.057   7.466  -5.737  0.00  0.00    -0.239 NA
ATOM     24  C   UNL d   1      10.524   6.795  -6.779  0.00  0.00     0.121 A 
ENDBRANCH  16  19
ENDBRANCH  12  13
ENDBRANCH  11  12
ENDBRANCH  10  11
ENDBRANCH   9  10
ENDBRANCH   1   9
BRANCH   6  25
ATOM     25  C   UNL d   1      11.203   5.419 -19.032  0.00  0.00     0.041 A 
ATOM     26  C   UNL d   1      11.878   6.672 -18.956  0.00  0.00     0.084 A 
ATOM     27  C   UNL d   1      11.341   7.789 -19.639  0.00  0.00     0.035 A 
ATOM     28  C   UNL d   1      10.154   7.680 -20.390  0.00  0.00     0.140 A 
ATOM     29  C   UNL d   1       9.488   6.445 -20.462  0.00  0.00     0.031 A 
ATOM     30  F   UNL d   1       9.654   8.758 -21.035  0.00  0.00    -0.204 F 
ATOM     31  C   UNL d   1      10.012   5.325 -19.796  0.00  0.00     0.013 A 
BRANCH  26  32
ATOM     32  C   UNL d   1      13.164   6.837 -18.139  0.00  0.00     0.420 C 
ATOM     33  F   UNL d   1      13.680   8.059 -18.273  0.00  0.00    -0.166 F 
ATOM     34  F   UNL d   1      12.911   6.638 -16.845  0.00  0.00    -0.166 F 
ATOM     35  F   UNL d   1      14.094   5.971 -18.538  0.00  0.00    -0.166 F 
ENDBRANCH  26  32
ENDBRANCH   6  25
TORSDOF 8
