REMARK  12 active torsions:
REMARK  status: ('A' for Active; 'I' for Inactive)
REMARK    1  A    between atoms: C_2  and  C_3 
REMARK    2  A    between atoms: C_3  and  N_4 
REMARK    3  A    between atoms: N_4  and  C_5 
REMARK    4  A    between atoms: N_4  and  C_24 
REMARK    5  A    between atoms: C_5  and  C_6 
REMARK    6  A    between atoms: C_6  and  C_7 
REMARK    7  A    between atoms: C_7  and  C_8 
REMARK    8  A    between atoms: C_8  and  N_9 
REMARK       I    between atoms: N_9  and  C_10 
REMARK    9  A    between atoms: C_10  and  C_12 
REMARK   10  A    between atoms: C_15  and  C_16 
REMARK   11  A    between atoms: C_24  and  C_25 
REMARK   12  A    between atoms: C_27  and  C_28 
ROOT
ATOM      1  C   UNL d   1       8.351   3.862 -13.710  0.00  0.00     0.037 C 
ENDROOT
BRANCH   1   2
ATOM      2  C   UNL d   1       9.244   2.892 -14.510  0.00  0.00     0.250 C 
BRANCH   2   3
ATOM      3  N   UNL d   1       8.556   2.330 -15.678  0.00  0.00     0.137 N 
BRANCH   3   4
ATOM      4  C   UNL d   1       7.348   1.560 -15.352  0.00  0.00     0.250 C 
BRANCH   4   5
ATOM      5  C   UNL d   1       7.620   0.292 -14.512  0.00  0.00     0.035 C 
ATOM      6  C   UNL d   1       6.336  -0.402 -14.055  0.00  0.00     0.002 C 
ENDBRANCH   4   5
ENDBRANCH   3   4
BRANCH   3   7
ATOM      7  C   UNL d   1       9.468   1.523 -16.490  0.00  0.00     0.251 C 
BRANCH   7   8
ATOM      8  C   UNL d   1      10.434   2.352 -17.315  0.00  0.00     0.038 A 
ATOM      9  C   UNL d   1      11.916   2.351 -17.004  0.00  0.00     0.024 A 
ATOM     10  C   UNL d   1      11.408   1.625 -18.224  0.00  0.00     0.007 A 
BRANCH   9  11
ATOM     11  C   UNL d   1      12.729   3.598 -17.159  0.00  0.00    -0.022 A 
ATOM     12  C   UNL d   1      12.382   4.786 -16.481  0.00  0.00     0.007 A 
ATOM     13  C   UNL d   1      13.157   5.951 -16.651  0.00  0.00     0.057 A 
ATOM     14  C   UNL d   1      14.282   5.932 -17.497  0.00  0.00     0.011 A 
ATOM     15 CL   UNL d   1      12.715   7.415 -15.857  0.00  0.00    -0.082 Cl
ATOM     16  C   UNL d   1      14.637   4.748 -18.172  0.00  0.00     0.001 A 
ATOM     17  C   UNL d   1      13.858   3.590 -18.005  0.00  0.00    -0.004 A 
ENDBRANCH   9  11
ENDBRANCH   7   8
ENDBRANCH   3   7
ENDBRANCH   2   3
ENDBRANCH   1   2
BRANCH   1  18
ATOM     18  C   UNL d   1       9.047   4.422 -12.469  0.00  0.00     0.029 C 
BRANCH  18  19
ATOM     19  C   UNL d   1       8.094   5.266 -11.612  0.00  0.00     0.129 C 
BRANCH  19  20
ATOM     20  N   UNL d   1       8.750   5.689 -10.387  0.00  0.00    -0.234 NA
ATOM     21  C   UNL d   1       9.511   6.788 -10.268  0.00  0.00     0.275 C 
ATOM     22  O   UNL d   1       9.818   7.505 -11.221  0.00  0.00    -0.266 OA
BRANCH  21  23
ATOM     23  C   UNL d   1      10.013   7.096  -8.883  0.00  0.00     0.058 A 
ATOM     24  C   UNL d   1       9.420   6.508  -7.740  0.00  0.00     0.005 A 
ATOM     25  C   UNL d   1       9.897   6.823  -6.454  0.00  0.00     0.002 A 
ATOM     26  C   UNL d   1      10.966   7.718  -6.272  0.00  0.00     0.018 A 
ATOM     27  C   UNL d   1      11.533   8.331  -7.408  0.00  0.00     0.002 A 
ATOM     28  C   UNL d   1      11.065   8.019  -8.702  0.00  0.00     0.005 A 
BRANCH  26  29
ATOM     29  C   UNL d   1      11.459   8.023  -4.917  0.00  0.00     0.081 A 
ATOM     30  N   UNL d   1      11.753   6.960  -4.133  0.00  0.00    -0.244 NA
ATOM     31  C   UNL d   1      12.214   7.184  -2.884  0.00  0.00     0.099 A 
ATOM     32  C   UNL d   1      12.403   8.477  -2.361  0.00  0.00     0.021 A 
ATOM     33  C   UNL d   1      12.090   9.581  -3.174  0.00  0.00     0.003 A 
ATOM     34  C   UNL d   1      11.615   9.352  -4.477  0.00  0.00     0.019 A 
ENDBRANCH  26  29
ENDBRANCH  21  23
ENDBRANCH  19  20
ENDBRANCH  18  19
ENDBRANCH   1  18
TORSDOF 12
