REMARK  3 active torsions:
REMARK  status: ('A' for Active; 'I' for Inactive)
REMARK    1  A    between atoms: C_2  and  C_3 
REMARK    2  A    between atoms: C_3  and  N_4 
REMARK    3  A    between atoms: C_7  and  C_8 
ROOT
ATOM      1  C   UNL d   1      10.394   8.221  -6.772  0.00  0.00    -0.022 A 
ATOM      2  C   UNL d   1      10.662   9.576  -6.491  0.00  0.00    -0.004 A 
ATOM      3  C   UNL d   1      11.274   9.979  -5.302  0.00  0.00    -0.000 A 
ATOM      4  C   UNL d   1      11.674   8.998  -4.379  0.00  0.00    -0.000 A 
ATOM      5  C   UNL d   1      12.263   9.356  -3.162  0.00  0.00    -0.000 A 
ATOM      6  C   UNL d   1      12.654   8.372  -2.228  0.00  0.00    -0.000 A 
ATOM      7  C   UNL d   1      12.403   7.011  -2.500  0.00  0.00    -0.000 A 
ATOM      8  C   UNL d   1      11.801   6.647  -3.723  0.00  0.00    -0.000 A 
ATOM      9  C   UNL d   1      11.451   7.637  -4.655  0.00  0.00    -0.000 A 
ATOM     10  C   UNL d   1      10.788   7.247  -5.827  0.00  0.00    -0.004 A 
ENDROOT
BRANCH   1  11
ATOM     11  C   UNL d   1       9.700   7.838  -8.087  0.00  0.00     0.026 C 
ATOM     12  C   UNL d   1       9.499   6.317  -8.256  0.00  0.00     0.040 C 
ATOM     13  C   UNL d   1       8.934   5.925  -9.609  0.00  0.00     0.251 C 
ATOM     14  N   UNL d   1       9.847   6.374 -10.664  0.00  0.00     0.137 N 
ATOM     15  C   UNL d   1       9.885   7.838 -10.648  0.00  0.00     0.251 C 
ATOM     16  C   UNL d   1      10.473   8.354  -9.318  0.00  0.00     0.040 C 
BRANCH  14  17
ATOM     17  C   UNL d   1       9.336   5.928 -11.954  0.00  0.00     0.250 C 
BRANCH  17  18
ATOM     18  C   UNL d   1       9.618   4.431 -12.195  0.00  0.00     0.035 C 
ATOM     19  C   UNL d   1       8.723   3.843 -13.287  0.00  0.00     0.002 C 
ENDBRANCH  17  18
ENDBRANCH  14  17
ENDBRANCH   1  11
TORSDOF 3
