REMARK  4 active torsions:
REMARK  status: ('A' for Active; 'I' for Inactive)
REMARK    1  A    between atoms: C_2  and  O_3 
REMARK    2  A    between atoms: O_3  and  C_4 
REMARK       I    between atoms: C_4  and  N_6 
REMARK    3  A    between atoms: C_9  and  N_10 
REMARK    4  A    between atoms: C_13  and  N_14 
ROOT
ATOM      1  N   UNL d   1       9.245   6.874  -9.051  0.00  0.00     0.135 N 
ATOM      2  C   UNL d   1      10.697   7.066  -9.084  0.00  0.00     0.252 C 
ATOM      3  C   UNL d   1      11.178   7.936  -7.954  0.00  0.00     0.058 C 
ATOM      4  C   UNL d   1      10.753   7.361  -6.593  0.00  0.00     0.094 C 
ATOM      5  C   UNL d   1       9.247   7.098  -6.591  0.00  0.00     0.058 C 
ATOM      6  C   UNL d   1       8.839   6.233  -7.791  0.00  0.00     0.252 C 
ENDROOT
BRANCH   1   7
ATOM      7  C   UNL d   1       8.689   6.173 -10.227  0.00  0.00     0.223 C 
ATOM      8  C   UNL d   1       9.307   4.786 -10.367  0.00  0.00     0.058 C 
ATOM      9  C   UNL d   1       8.948   4.094 -11.669  0.00  0.00     0.108 C 
ATOM     10  N   UNL d   1       9.110   4.942 -12.830  0.00  0.00    -0.297 N 
ATOM     11  C   UNL d   1       9.732   4.554 -14.016  0.00  0.00     0.365 C 
ATOM     12  C   UNL d   1       8.338   6.175 -12.747  0.00  0.00     0.108 C 
ATOM     13  O   UNL d   1       9.576   5.064 -15.121  0.00  0.00    -0.238 OA
ATOM     14  C   UNL d   1       8.857   6.980 -11.555  0.00  0.00     0.058 C 
BRANCH  11  15
ATOM     15  O   UNL d   1      10.575   3.538 -13.762  0.00  0.00    -0.285 OA
BRANCH  15  16
ATOM     16  C   UNL d   1      11.365   2.978 -14.799  0.00  0.00     0.154 C 
ATOM     17  C   UNL d   1      12.463   3.954 -15.267  0.00  0.00     0.035 C 
ENDBRANCH  15  16
ENDBRANCH  11  15
ENDBRANCH   1   7
BRANCH   4  18
ATOM     18  N   UNL d   1      11.124   8.253  -5.495  0.00  0.00    -0.281 N 
ATOM     19  C   UNL d   1      11.627   7.806  -4.256  0.00  0.00     0.082 A 
ATOM     20  C   UNL d   1      11.850   8.934  -3.492  0.00  0.00     0.102 A 
ATOM     21  C   UNL d   1      11.873   6.530  -3.737  0.00  0.00     0.019 A 
ATOM     22  N   UNL d   1      11.446   9.999  -4.224  0.00  0.00    -0.191 NA
ATOM     23  C   UNL d   1      12.356   8.908  -2.198  0.00  0.00     0.021 A 
ATOM     24  C   UNL d   1      11.043   9.611  -5.423  0.00  0.00     0.350 A 
ATOM     25  O   UNL d   1      10.684  10.383  -6.297  0.00  0.00    -0.244 OA
ATOM     26  C   UNL d   1      12.654   7.654  -1.677  0.00  0.00     0.002 A 
ATOM     27  C   UNL d   1      12.408   6.480  -2.421  0.00  0.00     0.002 A 
ENDBRANCH   4  18
TORSDOF 4
