REMARK  5 active torsions:
REMARK  status: ('A' for Active; 'I' for Inactive)
REMARK    1  A    between atoms: C_2  and  C_3 
REMARK    2  A    between atoms: C_3  and  N_4 
REMARK    3  A    between atoms: C_19  and  O_20 
REMARK    4  A    between atoms: O_20  and  C_21 
REMARK       I    between atoms: C_21  and  N_23 
REMARK    5  A    between atoms: N_23  and  C_24 
ROOT
ATOM      1  N   UNL d   1      10.515   0.441 -20.201  0.00  0.00     0.140 N 
ATOM      2  C   UNL d   1       9.121   0.109 -19.905  0.00  0.00     0.255 C 
ATOM      3  C   UNL d   1       9.056  -0.604 -18.575  0.00  0.00     0.061 C 
ATOM      4  C   UNL d   1       9.813   0.092 -17.454  0.00  0.00    -0.022 A 
ATOM      5  C   UNL d   1       9.604  -0.144 -16.109  0.00  0.00    -0.004 A 
ATOM      6  C   UNL d   1      10.300   0.547 -15.119  0.00  0.00    -0.000 A 
ATOM      7  C   UNL d   1      11.211   1.536 -15.499  0.00  0.00    -0.000 A 
ATOM      8  C   UNL d   1      11.451   1.900 -16.852  0.00  0.00    -0.001 A 
ATOM      9  C   UNL d   1      10.755   1.076 -17.788  0.00  0.00     0.005 A 
ATOM     10  C   UNL d   1      10.991   1.449 -19.246  0.00  0.00     0.245 C 
ATOM     11  C   UNL d   1      12.500   1.713 -19.432  0.00  0.00     0.064 C 
ATOM     12  C   UNL d   1      12.987   2.821 -18.515  0.00  0.00    -0.018 C 
ATOM     13  C   UNL d   1      13.992   3.697 -18.952  0.00  0.00    -0.004 C 
ATOM     14  C   UNL d   1      14.397   4.765 -18.131  0.00  0.00     0.002 C 
ATOM     15  C   UNL d   1      13.738   4.984 -16.904  0.00  0.00     0.025 C 
ATOM     16  C   UNL d   1      12.711   4.122 -16.469  0.00  0.00     0.104 C 
ATOM     17  C   UNL d   1      12.388   2.964 -17.248  0.00  0.00     0.019 C 
ENDROOT
BRANCH  16  18
ATOM     18  O   UNL d   1      12.105   4.410 -15.258  0.00  0.00    -0.258 OA
BRANCH  18  19
ATOM     19  C   UNL d   1      10.795   4.789 -15.208  0.00  0.00     0.392 C 
ATOM     20  O   UNL d   1      10.122   5.106 -16.185  0.00  0.00    -0.236 OA
ATOM     21  N   UNL d   1      10.359   4.722 -13.891  0.00  0.00    -0.186 NA
BRANCH  21  22
ATOM     22  C   UNL d   1       8.997   4.787 -13.470  0.00  0.00     0.087 A 
ATOM     23  C   UNL d   1       8.045   3.749 -13.719  0.00  0.00     0.018 A 
ATOM     24  C   UNL d   1       6.730   3.833 -13.168  0.00  0.00     0.002 A 
ATOM     25  C   UNL d   1       8.360   2.615 -14.487  0.00  0.00     0.002 A 
ATOM     26  C   UNL d   1       6.341   4.973 -12.414  0.00  0.00     0.000 A 
ATOM     27  C   UNL d   1       5.771   2.789 -13.336  0.00  0.00     0.000 A 
ATOM     28  C   UNL d   1       7.292   6.004 -12.188  0.00  0.00     0.002 A 
ATOM     29  C   UNL d   1       8.616   5.907 -12.687  0.00  0.00     0.019 A 
ATOM     30  C   UNL d   1       6.162   1.642 -14.088  0.00  0.00     0.000 A 
ATOM     31  C   UNL d   1       7.443   1.555 -14.674  0.00  0.00     0.000 A 
ENDBRANCH  21  22
ENDBRANCH  18  19
ENDBRANCH  16  18
BRANCH   1  32
ATOM     32  C   UNL d   1      10.636   0.854 -21.611  0.00  0.00     0.251 C 
BRANCH  32  33
ATOM     33  C   UNL d   1       9.831   2.139 -21.933  0.00  0.00     0.035 C 
ATOM     34  C   UNL d   1       9.941   2.552 -23.387  0.00  0.00     0.002 C 
ENDBRANCH  32  33
ENDBRANCH   1  32
TORSDOF 5
