REMARK  7 active torsions:
REMARK  status: ('A' for Active; 'I' for Inactive)
REMARK    1  A    between atoms: C_3  and  S_4 
REMARK    2  A    between atoms: S_4  and  C_5 
REMARK    3  A    between atoms: C_5  and  C_6 
REMARK    4  A    between atoms: C_6  and  C_7 
REMARK    5  A    between atoms: C_7  and  N_8 
REMARK    6  A    between atoms: N_16  and  C_17 
REMARK    7  A    between atoms: C_28  and  C_29 
ROOT
ATOM      1  N   UNL d   1       6.738   3.058 -14.343  0.00  0.00     0.137 N 
ATOM      2  C   UNL d   1       5.928   3.404 -13.172  0.00  0.00     0.250 C 
ATOM      3  C   UNL d   1       6.047   4.901 -12.837  0.00  0.00     0.035 C 
ATOM      4  C   UNL d   1       7.527   5.302 -12.576  0.00  0.00     0.008 C 
ATOM      5  C   UNL d   1       8.366   4.835 -13.792  0.00  0.00     0.035 C 
ATOM      6  C   UNL d   1       8.164   3.346 -14.097  0.00  0.00     0.250 C 
ATOM      7  C   UNL d   1       7.634   6.835 -12.388  0.00  0.00     0.024 C 
ATOM      8  C   UNL d   1       9.061   7.283 -11.961  0.00  0.00     0.102 C 
ATOM      9  N   UNL d   1       9.512   6.494 -10.814  0.00  0.00    -0.346 N 
ATOM     10  C   UNL d   1       9.422   5.050 -10.856  0.00  0.00     0.102 C 
ATOM     11  C   UNL d   1       7.999   4.668 -11.256  0.00  0.00     0.024 C 
ENDROOT
BRANCH   1  12
ATOM     12  C   UNL d   1       6.521   1.651 -14.662  0.00  0.00     0.251 C 
BRANCH  12  13
ATOM     13  C   UNL d   1       6.932   1.396 -16.124  0.00  0.00     0.047 C 
BRANCH  13  14
ATOM     14  C   UNL d   1       6.745  -0.095 -16.507  0.00  0.00     0.067 C 
BRANCH  14  15
ATOM     15  S   UNL d   1       7.474  -0.505 -18.130  0.00  0.00    -0.075 SA
BRANCH  15  16
ATOM     16  C   UNL d   1       9.186  -0.193 -17.870  0.00  0.00     0.193 C 
ATOM     17  N   UNL d   1      10.061  -0.177 -18.904  0.00  0.00    -0.289 N 
ATOM     18  C   UNL d   1       9.839  -0.561 -20.291  0.00  0.00     0.134 C 
ATOM     19  C   UNL d   1      11.185   0.295 -18.312  0.00  0.00     0.167 C 
ATOM     20  N   UNL d   1      11.028   0.518 -17.000  0.00  0.00    -0.128 NA
ATOM     21  N   UNL d   1       9.750   0.116 -16.696  0.00  0.00    -0.122 NA
BRANCH  19  22
ATOM     22  C   UNL d   1      12.461   0.480 -18.961  0.00  0.00     0.036 A 
ATOM     23  C   UNL d   1      13.077   1.746 -18.972  0.00  0.00     0.003 A 
ATOM     24  C   UNL d   1      14.341   1.900 -19.580  0.00  0.00     0.000 A 
ATOM     25  C   UNL d   1      14.981   0.785 -20.161  0.00  0.00     0.000 A 
ATOM     26  C   UNL d   1      14.372  -0.483 -20.125  0.00  0.00     0.000 A 
ATOM     27  C   UNL d   1      13.114  -0.634 -19.517  0.00  0.00     0.003 A 
ENDBRANCH  19  22
ENDBRANCH  15  16
ENDBRANCH  14  15
ENDBRANCH  13  14
ENDBRANCH  12  13
ENDBRANCH   1  12
BRANCH   9  28
ATOM     28  C   UNL d   1       9.899   7.135  -9.617  0.00  0.00     0.082 A 
ATOM     29  C   UNL d   1       9.307   6.856  -8.359  0.00  0.00     0.146 A 
ATOM     30  C   UNL d   1       9.751   7.531  -7.210  0.00  0.00     0.029 A 
ATOM     31  O   UNL d   1       8.258   5.985  -8.204  0.00  0.00    -0.189 OA
ATOM     32  C   UNL d   1      10.799   8.463  -7.293  0.00  0.00     0.002 A 
ATOM     33  C   UNL d   1      11.396   8.727  -8.532  0.00  0.00     0.002 A 
ATOM     34  C   UNL d   1      10.943   8.086  -9.696  0.00  0.00     0.019 A 
ENDBRANCH   9  28
TORSDOF 7
