REMARK  12 active torsions:
REMARK  status: ('A' for Active; 'I' for Inactive)
REMARK    1  A    between atoms: O_2  and  C_3 
REMARK    2  A    between atoms: C_7  and  C_8 
REMARK    3  A    between atoms: C_8  and  C_9 
REMARK    4  A    between atoms: C_9  and  C_10 
REMARK    5  A    between atoms: C_15  and  O_16 
REMARK    6  A    between atoms: O_16  and  C_17 
REMARK    7  A    between atoms: C_17  and  C_18 
REMARK    8  A    between atoms: C_18  and  C_19 
REMARK    9  A    between atoms: C_19  and  C_20 
REMARK   10  A    between atoms: C_20  and  C_21 
REMARK   11  A    between atoms: C_21  and  N_22 
REMARK   12  A    between atoms: N_25  and  C_26 
ROOT
ATOM      1  C   UNL d   1       8.812   2.761 -14.731  0.00  0.00     0.149 C 
ENDROOT
BRANCH   1   2
ATOM      2  O   UNL d   1      10.167   2.731 -15.152  0.00  0.00    -0.331 OA
BRANCH   2   3
ATOM      3  C   UNL d   1      10.557   1.820 -16.112  0.00  0.00     0.090 A 
ATOM      4  C   UNL d   1      11.685   2.146 -16.907  0.00  0.00     0.001 A 
ATOM      5  C   UNL d   1      12.157   1.235 -17.881  0.00  0.00    -0.002 A 
ATOM      6  C   UNL d   1      11.523  -0.011 -18.055  0.00  0.00    -0.000 A 
ATOM      7  C   UNL d   1      10.409  -0.341 -17.264  0.00  0.00     0.002 A 
ATOM      8  C   UNL d   1       9.932   0.561 -16.296  0.00  0.00     0.024 A 
BRANCH   4   9
ATOM      9  C   UNL d   1      12.391   3.485 -16.739  0.00  0.00     0.033 C 
BRANCH   9  10
ATOM     10  C   UNL d   1      11.588   4.631 -17.359  0.00  0.00     0.031 C 
BRANCH  10  11
ATOM     11  C   UNL d   1      12.348   5.933 -17.314  0.00  0.00    -0.020 A 
ATOM     12  C   UNL d   1      12.330   6.776 -16.192  0.00  0.00    -0.004 A 
ATOM     13  C   UNL d   1      13.066   7.985 -16.223  0.00  0.00     0.002 A 
ATOM     14  C   UNL d   1      13.812   8.326 -17.371  0.00  0.00     0.024 A 
ATOM     15  C   UNL d   1      13.849   7.493 -18.492  0.00  0.00     0.094 A 
ATOM     16  C   UNL d   1      13.103   6.277 -18.454  0.00  0.00     0.020 A 
BRANCH  15  17
ATOM     17  O   UNL d   1      14.610   7.896 -19.576  0.00  0.00    -0.328 OA
ATOM     18  C   UNL d   1      14.623   7.033 -20.716  0.00  0.00     0.181 C 
ENDBRANCH  15  17
ENDBRANCH  10  11
ENDBRANCH   9  10
ENDBRANCH   4   9
ENDBRANCH   2   3
ENDBRANCH   1   2
BRANCH   1  19
ATOM     19  C   UNL d   1       8.718   3.409 -13.351  0.00  0.00     0.033 C 
BRANCH  19  20
ATOM     20  C   UNL d   1       8.888   4.927 -13.331  0.00  0.00     0.005 C 
BRANCH  20  21
ATOM     21  C   UNL d   1       8.354   5.542 -12.022  0.00  0.00     0.035 C 
BRANCH  21  22
ATOM     22  C   UNL d   1       9.161   5.107 -10.786  0.00  0.00     0.250 C 
BRANCH  22  23
ATOM     23  N   UNL d   1       9.014   6.075  -9.716  0.00  0.00     0.141 N 
ATOM     24  C   UNL d   1       9.979   7.164  -9.866  0.00  0.00     0.274 C 
ATOM     25  C   UNL d   1       9.786   8.233  -8.781  0.00  0.00     0.137 C 
ATOM     26  N   UNL d   1       9.868   7.621  -7.442  0.00  0.00    -0.344 N 
ATOM     27  C   UNL d   1       8.935   6.496  -7.281  0.00  0.00     0.137 C 
ATOM     28  C   UNL d   1       9.165   5.458  -8.402  0.00  0.00     0.274 C 
BRANCH  26  29
ATOM     29  C   UNL d   1      10.695   8.086  -6.426  0.00  0.00     0.057 A 
ATOM     30  C   UNL d   1      11.021   7.306  -5.266  0.00  0.00     0.028 A 
ATOM     31  C   UNL d   1      11.856   7.802  -4.251  0.00  0.00     0.059 A 
ATOM     32  C   UNL d   1      12.447   9.073  -4.382  0.00  0.00     0.011 A 
ATOM     33 CL   UNL d   1      12.229   6.835  -2.865  0.00  0.00    -0.082 Cl
ATOM     34  C   UNL d   1      12.180   9.837  -5.533  0.00  0.00     0.002 A 
ATOM     35  C   UNL d   1      11.297   9.377  -6.509  0.00  0.00     0.017 A 
ENDBRANCH  26  29
ENDBRANCH  22  23
ENDBRANCH  21  22
ENDBRANCH  20  21
ENDBRANCH  19  20
ENDBRANCH   1  19
TORSDOF 12
