REMARK  1 active torsions:
REMARK  status: ('A' for Active; 'I' for Inactive)
REMARK    1  A    between atoms: C_2  and  N_4 
ROOT
ATOM      1  N   UNL d   1       7.757   4.855 -13.228  0.00  0.00     0.138 N 
ATOM      2  C   UNL d   1       6.942   4.258 -12.175  0.00  0.00     0.255 C 
ATOM      3  C   UNL d   1       5.868   3.380 -12.818  0.00  0.00     0.061 C 
ATOM      4  C   UNL d   1       6.415   2.322 -13.771  0.00  0.00    -0.022 A 
ATOM      5  C   UNL d   1       5.731   1.148 -14.143  0.00  0.00    -0.004 A 
ATOM      6  C   UNL d   1       6.266   0.310 -15.127  0.00  0.00    -0.000 A 
ATOM      7  C   UNL d   1       7.536   0.577 -15.671  0.00  0.00    -0.000 A 
ATOM      8  C   UNL d   1       8.342   1.666 -15.239  0.00  0.00    -0.001 A 
ATOM      9  C   UNL d   1       7.716   2.541 -14.302  0.00  0.00     0.005 A 
ATOM     10  C   UNL d   1       8.551   3.772 -13.845  0.00  0.00     0.245 C 
ATOM     11  C   UNL d   1       9.411   4.333 -15.007  0.00  0.00     0.064 C 
ATOM     12  C   UNL d   1      10.197   3.255 -15.719  0.00  0.00    -0.018 A 
ATOM     13  C   UNL d   1      11.441   3.598 -16.273  0.00  0.00    -0.004 A 
ATOM     14  C   UNL d   1      12.249   2.614 -16.860  0.00  0.00     0.002 A 
ATOM     15  C   UNL d   1      11.807   1.281 -16.875  0.00  0.00     0.027 A 
ATOM     16  C   UNL d   1      10.559   0.929 -16.327  0.00  0.00     0.131 A 
ATOM     17  O   UNL d   1      10.237  -0.397 -16.296  0.00  0.00    -0.190 OA
ATOM     18  C   UNL d   1       9.697   1.934 -15.782  0.00  0.00     0.021 A 
ENDROOT
BRANCH   1  19
ATOM     19  C   UNL d   1       8.514   6.010 -12.713  0.00  0.00     0.220 C 
ATOM     20  C   UNL d   1       9.364   5.712 -11.463  0.00  0.00     0.035 C 
ATOM     21  C   UNL d   1       7.567   7.182 -12.457  0.00  0.00     0.035 C 
ENDBRANCH   1  19
TORSDOF 1
