REMARK  5 active torsions:
REMARK  status: ('A' for Active; 'I' for Inactive)
REMARK    1  A    between atoms: C_2  and  C_4 
REMARK    2  A    between atoms: C_4  and  C_5 
REMARK    3  A    between atoms: C_5  and  C_6 
REMARK    4  A    between atoms: C_6  and  C_7 
REMARK    5  A    between atoms: C_7  and  N_8 
ROOT
ATOM      1  N   UNL d   1       8.492   5.610 -12.902  0.00  0.00    -0.248 N 
ATOM      2  C   UNL d   1       9.456   4.844 -13.499  0.00  0.00     0.283 A 
ATOM      3  O   UNL d   1      10.638   5.174 -13.639  0.00  0.00    -0.265 OA
ATOM      4  C   UNL d   1       8.978   3.559 -14.007  0.00  0.00     0.153 A 
ATOM      5  C   UNL d   1       7.689   3.157 -13.908  0.00  0.00     0.170 A 
ATOM      6  N   UNL d   1       7.514   1.898 -14.470  0.00  0.00    -0.206 NA
ATOM      7  C   UNL d   1       8.748   1.603 -14.884  0.00  0.00     0.180 A 
ATOM      8  N   UNL d   1       9.680   2.549 -14.654  0.00  0.00    -0.302 N 
ATOM      9  C   UNL d   1      11.084   2.506 -15.012  0.00  0.00     0.132 C 
ATOM     10  N   UNL d   1       6.774   3.993 -13.226  0.00  0.00    -0.263 N 
ATOM     11  C   UNL d   1       5.379   3.559 -13.086  0.00  0.00     0.137 C 
ATOM     12  C   UNL d   1       7.173   5.206 -12.713  0.00  0.00     0.335 A 
ATOM     13  O   UNL d   1       6.353   5.916 -12.131  0.00  0.00    -0.246 OA
ENDROOT
BRANCH   1  14
ATOM     14  C   UNL d   1       8.912   6.945 -12.403  0.00  0.00     0.114 C 
BRANCH  14  15
ATOM     15  C   UNL d   1       9.397   6.820 -10.950  0.00  0.00     0.025 C 
BRANCH  15  16
ATOM     16  C   UNL d   1       9.914   8.135 -10.336  0.00  0.00     0.010 C 
BRANCH  16  17
ATOM     17  C   UNL d   1      10.578   7.944  -8.954  0.00  0.00     0.065 C 
BRANCH  17  18
ATOM     18  C   UNL d   1       9.640   7.553  -7.828  0.00  0.00     0.151 C 
ATOM     19  C   UNL d   1       8.985   6.176  -7.876  0.00  0.00     0.072 C 
ATOM     20  O   UNL d   1       9.460   8.331  -6.884  0.00  0.00    -0.296 OA
ENDBRANCH  17  18
ENDBRANCH  16  17
ENDBRANCH  15  16
ENDBRANCH  14  15
ENDBRANCH   1  14
TORSDOF 5
