REMARK  5 active torsions:
REMARK  status: ('A' for Active; 'I' for Inactive)
REMARK    1  A    between atoms: C_2  and  C_3 
REMARK    2  A    between atoms: C_3  and  O_4 
REMARK    3  A    between atoms: C_3  and  C_13 
REMARK    4  A    between atoms: O_4  and  C_5 
REMARK    5  A    between atoms: C_18  and  N_19 
ROOT
ATOM      1  C   UNL d   1       8.364   5.649 -12.975  0.00  0.00     0.203 A 
ATOM      2  N   UNL d   1       9.666   5.625 -13.292  0.00  0.00    -0.039 NA
ATOM      3  C   UNL d   1      10.001   4.609 -14.072  0.00  0.00     0.785 A 
ATOM      4  N   UNL d   1      11.307   4.577 -14.492  0.00  0.00     0.063 N 
ATOM      5  N   UNL d   1       9.232   3.618 -14.496  0.00  0.00     0.134 NA
ATOM      6  C   UNL d   1       7.982   3.712 -14.019  0.00  0.00     0.744 A 
ATOM      7  N   UNL d   1       7.473   4.694 -13.276  0.00  0.00    -0.043 NA
ENDROOT
BRANCH   1   8
ATOM      8  C   UNL d   1       7.870   6.840 -12.150  0.00  0.00     0.180 C 
BRANCH   8   9
ATOM      9  C   UNL d   1       7.040   7.874 -12.922  0.00  0.00     0.038 C 
ATOM     10  C   UNL d   1       5.546   7.947 -12.626  0.00  0.00     0.003 C 
ENDBRANCH   8   9
BRANCH   8  11
ATOM     11  O   UNL d   1       8.979   7.527 -11.517  0.00  0.00    -0.326 OA
BRANCH  11  12
ATOM     12  C   UNL d   1       9.469   6.962 -10.376  0.00  0.00     0.096 A 
ATOM     13  C   UNL d   1      10.287   7.705  -9.502  0.00  0.00     0.036 A 
ATOM     14  C   UNL d   1      10.746   7.138  -8.307  0.00  0.00     0.061 A 
ATOM     15  C   UNL d   1      10.377   5.848  -7.967  0.00  0.00     0.023 A 
ATOM     16 CL   UNL d   1      11.811   8.005  -7.288  0.00  0.00    -0.082 Cl
ATOM     17  C   UNL d   1       9.521   5.162  -8.827  0.00  0.00     0.061 A 
ATOM     18  C   UNL d   1       9.070   5.681  -9.997  0.00  0.00     0.036 A 
ATOM     19 CL   UNL d   1       9.000   3.605  -8.440  0.00  0.00    -0.082 Cl
ENDBRANCH  11  12
ENDBRANCH   8  11
ENDBRANCH   1   8
BRANCH   6  20
ATOM     20  N   UNL d   1       7.115   2.696 -14.413  0.00  0.00    -0.178 N 
ATOM     21  C   UNL d   1       6.031   2.218 -13.563  0.00  0.00     0.155 C 
ATOM     22  C   UNL d   1       6.110   0.680 -13.405  0.00  0.00     0.275 C 
ATOM     23  N   UNL d   1       6.085   0.051 -14.722  0.00  0.00     0.143 N 
ATOM     24  C   UNL d   1       7.273   0.478 -15.473  0.00  0.00     0.275 C 
ATOM     25  C   UNL d   1       6.166  -1.388 -14.514  0.00  0.00     0.286 C 
ATOM     26  C   UNL d   1       7.218   1.997 -15.692  0.00  0.00     0.155 C 
ENDBRANCH   6  20
TORSDOF 5
