REMARK  10 active torsions:
REMARK  status: ('A' for Active; 'I' for Inactive)
REMARK    1  A    between atoms: O_2  and  C_3 
REMARK    2  A    between atoms: C_8  and  N_9 
REMARK    3  A    between atoms: N_12  and  C_13 
REMARK    4  A    between atoms: C_13  and  C_14 
REMARK    5  A    between atoms: C_14  and  C_15 
REMARK    6  A    between atoms: C_15  and  C_16 
REMARK    7  A    between atoms: C_16  and  C_17 
REMARK    8  A    between atoms: C_17  and  C_18 
REMARK       I    between atoms: C_18  and  N_20 
REMARK    9  A    between atoms: N_20  and  C_21 
REMARK   10  A    between atoms: C_21  and  C_22 
ROOT
ATOM      1  C   UNL d   1       8.747   5.026 -12.905  0.00  0.00     0.250 C 
ENDROOT
BRANCH   1   2
ATOM      2  N   UNL d   1       9.485   4.141 -13.807  0.00  0.00     0.141 N 
ATOM      3  C   UNL d   1       9.928   4.838 -15.026  0.00  0.00     0.274 C 
ATOM      4  C   UNL d   1      10.685   3.893 -15.956  0.00  0.00     0.137 C 
ATOM      5  N   UNL d   1       9.855   2.746 -16.273  0.00  0.00    -0.343 N 
ATOM      6  C   UNL d   1       9.302   2.053 -15.116  0.00  0.00     0.137 C 
ATOM      7  C   UNL d   1       8.582   3.054 -14.201  0.00  0.00     0.274 C 
BRANCH   5   8
ATOM      8  C   UNL d   1       9.629   2.337 -17.597  0.00  0.00     0.079 A 
ATOM      9  C   UNL d   1       9.693   0.968 -17.957  0.00  0.00     0.110 A 
ATOM     10  C   UNL d   1       9.457   0.605 -19.307  0.00  0.00     0.026 A 
ATOM     11  C   UNL d   1       9.182   1.581 -20.280  0.00  0.00     0.002 A 
ATOM     12  C   UNL d   1       9.135   2.935 -19.921  0.00  0.00     0.002 A 
ATOM     13  C   UNL d   1       9.355   3.313 -18.584  0.00  0.00     0.019 A 
BRANCH   9  14
ATOM     14  O   UNL d   1      10.011   0.057 -16.972  0.00  0.00    -0.327 OA
ATOM     15  C   UNL d   1      10.048  -1.314 -17.312  0.00  0.00     0.181 C 
ENDBRANCH   9  14
ENDBRANCH   5   8
ENDBRANCH   1   2
BRANCH   1  16
ATOM     16  C   UNL d   1       9.622   6.176 -12.411  0.00  0.00     0.035 C 
BRANCH  16  17
ATOM     17  C   UNL d   1       8.940   7.036 -11.353  0.00  0.00     0.003 C 
BRANCH  17  18
ATOM     18  C   UNL d   1       9.635   8.412 -11.169  0.00  0.00     0.010 C 
BRANCH  18  19
ATOM     19  C   UNL d   1       9.657   8.951  -9.729  0.00  0.00     0.090 C 
BRANCH  19  20
ATOM     20  C   UNL d   1      10.275   7.965  -8.743  0.00  0.00     0.252 C 
ATOM     21  O   UNL d   1      11.474   7.692  -8.800  0.00  0.00    -0.271 OA
ATOM     22  N   UNL d   1       9.448   7.471  -7.814  0.00  0.00    -0.233 NA
BRANCH  22  23
ATOM     23  C   UNL d   1       9.876   6.708  -6.652  0.00  0.00     0.155 C 
BRANCH  23  24
ATOM     24  C   UNL d   1      10.689   7.508  -5.640  0.00  0.00     0.005 A 
ATOM     25  C   UNL d   1      10.686   8.918  -5.636  0.00  0.00     0.018 A 
ATOM     26  C   UNL d   1      11.457   9.596  -4.683  0.00  0.00     0.099 A 
ATOM     27  N   UNL d   1      12.194   8.978  -3.740  0.00  0.00    -0.243 NA
ATOM     28  C   UNL d   1      12.189   7.628  -3.731  0.00  0.00     0.099 A 
ATOM     29  C   UNL d   1      11.459   6.851  -4.652  0.00  0.00     0.018 A 
ENDBRANCH  23  24
ENDBRANCH  22  23
ENDBRANCH  19  20
ENDBRANCH  18  19
ENDBRANCH  17  18
ENDBRANCH  16  17
ENDBRANCH   1  16
TORSDOF 10
