REMARK  8 active torsions:
REMARK  status: ('A' for Active; 'I' for Inactive)
REMARK    1  A    between atoms: C_2  and  C_3 
REMARK    2  A    between atoms: C_3  and  C_4 
REMARK    3  A    between atoms: C_4  and  O_5 
REMARK    4  A    between atoms: O_5  and  C_6 
REMARK    5  A    between atoms: C_10  and  C_11 
REMARK    6  A    between atoms: C_11  and  N_12 
REMARK    7  A    between atoms: N_15  and  C_16 
REMARK    8  A    between atoms: C_16  and  C_17 
ROOT
ATOM      1  N   UNL d   1       8.872   3.161 -14.360  0.00  0.00     0.146 N 
ATOM      2  C   UNL d   1       7.641   3.965 -14.295  0.00  0.00     0.286 C 
ATOM      3  C   UNL d   1       7.177   4.208 -12.839  0.00  0.00     0.286 C 
ATOM      4  N   UNL d   1       8.216   4.904 -12.111  0.00  0.00     0.148 N 
ATOM      5  C   UNL d   1       9.441   4.125 -12.187  0.00  0.00     0.286 C 
ATOM      6  C   UNL d   1       9.903   3.877 -13.628  0.00  0.00     0.286 C 
ENDROOT
BRANCH   1   7
ATOM      7  C   UNL d   1       9.275   2.909 -15.748  0.00  0.00     0.277 C 
BRANCH   7   8
ATOM      8  C   UNL d   1       8.348   1.985 -16.509  0.00  0.00     0.013 A 
ATOM      9  C   UNL d   1       8.310   2.053 -17.911  0.00  0.00    -0.002 A 
ATOM     10  C   UNL d   1       7.472   1.165 -18.626  0.00  0.00     0.002 A 
ATOM     11  C   UNL d   1       6.697   0.214 -17.944  0.00  0.00     0.024 A 
ATOM     12  C   UNL d   1       6.700   0.166 -16.523  0.00  0.00     0.094 A 
ATOM     13  C   UNL d   1       7.544   1.039 -15.821  0.00  0.00     0.022 A 
BRANCH  12  14
ATOM     14  O   UNL d   1       5.902  -0.663 -15.768  0.00  0.00    -0.331 OA
BRANCH  14  15
ATOM     15  C   UNL d   1       5.167  -1.683 -16.424  0.00  0.00     0.152 C 
BRANCH  15  16
ATOM     16  C   UNL d   1       3.954  -1.110 -17.193  0.00  0.00     0.071 C 
BRANCH  16  17
ATOM     17  C   UNL d   1       3.488  -2.053 -18.307  0.00  0.00     0.196 C 
ATOM     18  F   UNL d   1       4.441  -2.206 -19.225  0.00  0.00    -0.234 F 
ENDBRANCH  16  17
ENDBRANCH  15  16
ENDBRANCH  14  15
ENDBRANCH  12  14
ENDBRANCH   7   8
ENDBRANCH   1   7
BRANCH   4  19
ATOM     19  C   UNL d   1       7.822   5.179 -10.729  0.00  0.00     0.301 C 
BRANCH  19  20
ATOM     20  C   UNL d   1       8.807   5.985  -9.942  0.00  0.00     0.111 A 
ATOM     21  O   UNL d   1       8.719   5.917  -8.576  0.00  0.00    -0.309 OA
ATOM     22  C   UNL d   1       9.683   6.767  -8.072  0.00  0.00     0.100 A 
ATOM     23  C   UNL d   1      10.410   7.337  -9.148  0.00  0.00     0.025 A 
ATOM     24  C   UNL d   1       9.961   7.048  -6.727  0.00  0.00     0.025 A 
ATOM     25  C   UNL d   1       9.826   6.825 -10.344  0.00  0.00     0.024 A 
ATOM     26  C   UNL d   1      11.474   8.213  -8.820  0.00  0.00     0.002 A 
ATOM     27  C   UNL d   1      11.780   8.497  -7.476  0.00  0.00     0.000 A 
ATOM     28  C   UNL d   1      11.028   7.920  -6.429  0.00  0.00     0.002 A 
ENDBRANCH  19  20
ENDBRANCH   4  19
TORSDOF 8
