REMARK  6 active torsions:
REMARK  status: ('A' for Active; 'I' for Inactive)
REMARK       I    between atoms: C_2  and  N_3 
REMARK    1  A    between atoms: C_2  and  C_22 
REMARK    2  A    between atoms: N_3  and  C_4 
REMARK    3  A    between atoms: C_4  and  C_5 
REMARK    4  A    between atoms: C_6  and  C_7 
REMARK    5  A    between atoms: C_7  and  N_8 
REMARK    6  A    between atoms: N_11  and  C_12 
ROOT
ATOM      1  C   UNL d   1      13.167   1.096 -20.319  0.00  0.00     0.155 C 
ENDROOT
BRANCH   1   2
ATOM      2  N   UNL d   1      13.383   2.512 -20.611  0.00  0.00    -0.229 NA
ATOM      3  C   UNL d   1      14.271   3.320 -20.001  0.00  0.00     0.275 C 
ATOM      4  O   UNL d   1      15.025   2.969 -19.096  0.00  0.00    -0.266 OA
BRANCH   3   5
ATOM      5  C   UNL d   1      14.325   4.704 -20.567  0.00  0.00     0.057 A 
ATOM      6  C   UNL d   1      14.059   5.870 -19.801  0.00  0.00     0.001 A 
ATOM      7  C   UNL d   1      14.123   7.125 -20.427  0.00  0.00    -0.018 A 
ATOM      8  C   UNL d   1      13.680   6.101 -18.395  0.00  0.00    -0.004 A 
ATOM      9  C   UNL d   1      14.497   7.276 -21.775  0.00  0.00    -0.004 A 
ATOM     10  C   UNL d   1      13.765   8.262 -19.488  0.00  0.00     0.053 A 
ATOM     11  C   UNL d   1      14.788   6.119 -22.524  0.00  0.00    -0.000 A 
ATOM     12  C   UNL d   1      14.692   4.848 -21.924  0.00  0.00     0.005 A 
ATOM     13  C   UNL d   1      13.511   7.484 -18.214  0.00  0.00    -0.018 A 
ATOM     14  C   UNL d   1      13.140   8.041 -16.974  0.00  0.00    -0.004 A 
ATOM     15  C   UNL d   1      12.956   7.170 -15.882  0.00  0.00    -0.000 A 
ATOM     16  C   UNL d   1      13.146   5.775 -16.045  0.00  0.00    -0.000 A 
ATOM     17  C   UNL d   1      13.508   5.231 -17.295  0.00  0.00    -0.000 A 
ENDBRANCH   3   5
ENDBRANCH   1   2
BRANCH   1  18
ATOM     18  C   UNL d   1      12.682   0.873 -18.893  0.00  0.00    -0.003 C 
ATOM     19  C   UNL d   1      11.525   0.290 -18.548  0.00  0.00     0.006 C 
BRANCH  19  20
ATOM     20  C   UNL d   1      11.102   0.080 -17.117  0.00  0.00     0.276 C 
BRANCH  20  21
ATOM     21  N   UNL d   1       9.836   0.736 -16.808  0.00  0.00     0.145 N 
ATOM     22  C   UNL d   1      10.040   2.185 -16.773  0.00  0.00     0.275 C 
ATOM     23  C   UNL d   1       8.716   2.896 -16.454  0.00  0.00     0.137 C 
ATOM     24  N   UNL d   1       8.145   2.390 -15.209  0.00  0.00    -0.344 N 
ATOM     25  C   UNL d   1       8.009   0.933 -15.157  0.00  0.00     0.137 C 
ATOM     26  C   UNL d   1       9.364   0.279 -15.496  0.00  0.00     0.275 C 
BRANCH  24  27
ATOM     27  C   UNL d   1       7.806   3.215 -14.129  0.00  0.00     0.068 A 
ATOM     28  C   UNL d   1       8.730   4.108 -13.523  0.00  0.00     0.084 A 
ATOM     29  C   UNL d   1       8.310   4.944 -12.452  0.00  0.00     0.070 A 
ATOM     30 CL   UNL d   1      10.392   4.187 -14.015  0.00  0.00    -0.080 Cl
ATOM     31  C   UNL d   1       6.988   4.902 -12.008  0.00  0.00     0.012 A 
ATOM     32 CL   UNL d   1       9.423   6.019 -11.686  0.00  0.00    -0.081 Cl
ATOM     33  C   UNL d   1       6.075   4.015 -12.575  0.00  0.00     0.002 A 
ATOM     34  C   UNL d   1       6.480   3.170 -13.644  0.00  0.00     0.018 A 
ENDBRANCH  24  27
ENDBRANCH  20  21
ENDBRANCH  19  20
ENDBRANCH   1  18
TORSDOF 6
