REMARK  6 active torsions:
REMARK  status: ('A' for Active; 'I' for Inactive)
REMARK    1  A    between atoms: C_4  and  C_5 
REMARK    2  A    between atoms: C_16  and  O_17 
REMARK    3  A    between atoms: O_17  and  C_18 
REMARK    4  A    between atoms: C_18  and  C_19 
REMARK    5  A    between atoms: C_19  and  C_20 
REMARK    6  A    between atoms: C_20  and  N_21 
ROOT
ATOM      1  N   UNL d   1      10.660   0.398 -15.494  0.00  0.00     0.062 N 
ATOM      2  C   UNL d   1       9.551   1.044 -15.043  0.00  0.00     0.768 A 
ATOM      3  N   UNL d   1       8.404   0.386 -15.196  0.00  0.00    -0.058 NA
ATOM      4  C   UNL d   1       7.258   0.975 -14.789  0.00  0.00     0.098 A 
ATOM      5  C   UNL d   1       7.349   2.266 -14.236  0.00  0.00     0.019 A 
ATOM      6  C   UNL d   1       8.611   2.854 -14.128  0.00  0.00     0.097 A 
ATOM      7  N   UNL d   1       9.751   2.260 -14.529  0.00  0.00    -0.058 NA
ATOM      8  C   UNL d   1       8.469   4.170 -13.517  0.00  0.00     0.016 A 
ATOM      9  C   UNL d   1       9.398   5.165 -13.200  0.00  0.00     0.025 A 
ATOM     10  C   UNL d   1       8.940   6.390 -12.622  0.00  0.00     0.094 A 
ATOM     11  C   UNL d   1       7.524   6.564 -12.428  0.00  0.00     0.024 A 
ATOM     12  C   UNL d   1       6.610   5.541 -12.704  0.00  0.00    -0.002 A 
ATOM     13  C   UNL d   1       7.106   4.359 -13.262  0.00  0.00    -0.016 A 
ATOM     14  C   UNL d   1       6.263   3.175 -13.689  0.00  0.00     0.056 A 
ENDROOT
BRANCH  10  15
ATOM     15  O   UNL d   1       9.843   7.359 -12.311  0.00  0.00    -0.331 OA
BRANCH  15  16
ATOM     16  C   UNL d   1       9.570   8.253 -11.220  0.00  0.00     0.151 C 
BRANCH  16  17
ATOM     17  C   UNL d   1       9.919   7.525  -9.917  0.00  0.00     0.068 C 
BRANCH  17  18
ATOM     18  C   UNL d   1       9.741   8.422  -8.681  0.00  0.00     0.253 C 
BRANCH  18  19
ATOM     19  N   UNL d   1      10.516   7.918  -7.544  0.00  0.00     0.137 N 
ATOM     20  C   UNL d   1      10.688   8.925  -6.504  0.00  0.00     0.250 C 
ATOM     21  C   UNL d   1      11.143   8.121  -5.289  0.00  0.00     0.037 C 
ATOM     22  C   UNL d   1      10.583   6.723  -5.530  0.00  0.00     0.037 C 
ATOM     23  C   UNL d   1       9.840   6.823  -6.861  0.00  0.00     0.250 C 
ENDBRANCH  18  19
ENDBRANCH  17  18
ENDBRANCH  16  17
ENDBRANCH  15  16
ENDBRANCH  10  15
BRANCH   4  24
ATOM     24  C   UNL d   1       6.001   0.219 -14.964  0.00  0.00     0.018 A 
ATOM     25  C   UNL d   1       5.805  -0.581 -16.113  0.00  0.00     0.002 A 
ATOM     26  C   UNL d   1       4.607  -1.296 -16.303  0.00  0.00     0.000 A 
ATOM     27  C   UNL d   1       3.576  -1.213 -15.353  0.00  0.00     0.000 A 
ATOM     28  C   UNL d   1       3.749  -0.421 -14.205  0.00  0.00     0.000 A 
ATOM     29  C   UNL d   1       4.960   0.268 -14.005  0.00  0.00     0.002 A 
ENDBRANCH   4  24
TORSDOF 6
