REMARK  4 active torsions:
REMARK  status: ('A' for Active; 'I' for Inactive)
REMARK    1  A    between atoms: O_2  and  C_3 
REMARK    2  A    between atoms: C_6  and  N_7 
REMARK       I    between atoms: N_7  and  C_8 
REMARK       I    between atoms: C_8  and  N_10 
REMARK    3  A    between atoms: N_13  and  C_14 
REMARK    4  A    between atoms: C_24  and  N_25 
ROOT
ATOM      1  N   UNL d   1       9.853   5.209 -12.967  0.00  0.00    -0.193 NA
ATOM      2  C   UNL d   1       8.905   5.073 -12.027  0.00  0.00     0.346 C 
ATOM      3  O   UNL d   1       7.969   4.282 -12.091  0.00  0.00    -0.245 OA
ATOM      4  N   UNL d   1       9.165   5.839 -10.935  0.00  0.00    -0.297 N 
ATOM      5  C   UNL d   1       8.715   5.460  -9.596  0.00  0.00     0.130 C 
ATOM      6  C   UNL d   1       9.917   5.487  -8.633  0.00  0.00     0.126 C 
ATOM      7  N   UNL d   1      10.609   6.787  -8.697  0.00  0.00    -0.344 N 
ATOM      8  C   UNL d   1      10.992   7.231 -10.041  0.00  0.00     0.126 C 
ATOM      9  C   UNL d   1       9.773   7.181 -10.977  0.00  0.00     0.130 C 
ENDROOT
BRANCH   1  10
ATOM     10  C   UNL d   1      10.006   4.546 -14.220  0.00  0.00     0.088 A 
ATOM     11  C   UNL d   1      10.686   5.188 -15.271  0.00  0.00     0.021 A 
ATOM     12  C   UNL d   1      10.802   4.590 -16.538  0.00  0.00     0.027 A 
ATOM     13  C   UNL d   1      10.270   3.292 -16.771  0.00  0.00     0.110 A 
ATOM     14  C   UNL d   1       9.641   2.605 -15.695  0.00  0.00     0.080 A 
ATOM     15  C   UNL d   1       9.547   3.231 -14.428  0.00  0.00     0.038 A 
BRANCH  13  16
ATOM     16  O   UNL d   1      10.388   2.648 -17.988  0.00  0.00    -0.327 OA
ATOM     17  C   UNL d   1      11.025   3.329 -19.060  0.00  0.00     0.181 C 
ENDBRANCH  13  16
BRANCH  14  18
ATOM     18  N   UNL d   1       9.150   1.296 -15.887  0.00  0.00    -0.343 N 
ATOM     19  C   UNL d   1       8.037   1.120 -16.822  0.00  0.00     0.137 C 
ATOM     20  C   UNL d   1       6.684   1.302 -16.105  0.00  0.00     0.274 C 
ATOM     21  N   UNL d   1       6.565   0.357 -14.988  0.00  0.00     0.143 N 
ATOM     22  C   UNL d   1       7.643   0.618 -14.041  0.00  0.00     0.274 C 
ATOM     23  C   UNL d   1       5.298   0.569 -14.305  0.00  0.00     0.286 C 
ATOM     24  C   UNL d   1       9.013   0.431 -14.722  0.00  0.00     0.137 C 
ENDBRANCH  14  18
ENDBRANCH   1  10
BRANCH   7  25
ATOM     25  C   UNL d   1      10.781   7.598  -7.568  0.00  0.00     0.056 A 
ATOM     26  C   UNL d   1      10.904   7.028  -6.274  0.00  0.00     0.019 A 
ATOM     27  C   UNL d   1      11.094   7.826  -5.138  0.00  0.00     0.031 A 
ATOM     28  C   UNL d   1      11.170   9.218  -5.261  0.00  0.00     0.140 A 
ATOM     29  C   UNL d   1      11.059   9.810  -6.528  0.00  0.00     0.031 A 
ATOM     30  F   UNL d   1      11.326   9.986  -4.158  0.00  0.00    -0.204 F 
ATOM     31  C   UNL d   1      10.861   9.011  -7.671  0.00  0.00     0.019 A 
ENDBRANCH   7  25
TORSDOF 4
