REMARK  7 active torsions:
REMARK  status: ('A' for Active; 'I' for Inactive)
REMARK    1  A    between atoms: S_2  and  N_4 
REMARK    2  A    between atoms: S_2  and  C_28 
REMARK    3  A    between atoms: N_4  and  C_5 
REMARK    4  A    between atoms: C_8  and  C_9 
REMARK    5  A    between atoms: C_9  and  C_10 
REMARK    6  A    between atoms: C_10  and  N_11 
REMARK    7  A    between atoms: N_14  and  C_15 
ROOT
ATOM      1  C   UNL d   1       7.909   2.428 -15.232  0.00  0.00     0.035 C 
ENDROOT
BRANCH   1   2
ATOM      2  C   UNL d   1       7.088   1.567 -16.200  0.00  0.00     0.002 C 
ATOM      3  C   UNL d   1       7.969   1.064 -17.354  0.00  0.00     0.002 C 
ATOM      4  C   UNL d   1       7.152   0.227 -18.347  0.00  0.00     0.025 C 
ATOM      5  C   UNL d   1       6.451  -0.945 -17.643  0.00  0.00     0.116 C 
ATOM      6  C   UNL d   1       5.573  -0.463 -16.477  0.00  0.00     0.025 C 
ATOM      7  C   UNL d   1       6.387   0.390 -15.490  0.00  0.00     0.002 C 
BRANCH   5   8
ATOM      8  N   UNL d   1       5.659  -1.694 -18.620  0.00  0.00    -0.187 NA
BRANCH   8   9
ATOM      9  S   UNL d   1       6.379  -2.971 -19.520  0.00  0.00     0.281 S 
ATOM     10  O   UNL d   1       5.704  -3.016 -20.820  0.00  0.00    -0.199 OA
ATOM     11  O   UNL d   1       7.843  -2.812 -19.443  0.00  0.00    -0.199 OA
BRANCH   9  12
ATOM     12  C   UNL d   1       5.932  -4.438 -18.595  0.00  0.00     0.105 A 
ATOM     13  C   UNL d   1       6.867  -5.073 -17.752  0.00  0.00     0.013 A 
ATOM     14  C   UNL d   1       6.500  -6.242 -17.056  0.00  0.00     0.001 A 
ATOM     15  C   UNL d   1       5.202  -6.772 -17.206  0.00  0.00     0.000 A 
ATOM     16  C   UNL d   1       4.270  -6.134 -18.047  0.00  0.00     0.001 A 
ATOM     17  C   UNL d   1       4.633  -4.963 -18.744  0.00  0.00     0.013 A 
ENDBRANCH   9  12
ENDBRANCH   8   9
ENDBRANCH   5   8
ENDBRANCH   1   2
BRANCH   1  18
ATOM     18  C   UNL d   1       7.073   3.032 -14.081  0.00  0.00     0.250 C 
BRANCH  18  19
ATOM     19  N   UNL d   1       7.663   4.261 -13.561  0.00  0.00     0.141 N 
ATOM     20  C   UNL d   1       8.980   4.035 -12.948  0.00  0.00     0.274 C 
ATOM     21  C   UNL d   1       9.578   5.372 -12.493  0.00  0.00     0.137 C 
ATOM     22  N   UNL d   1       8.691   6.006 -11.536  0.00  0.00    -0.343 N 
ATOM     23  C   UNL d   1       7.316   6.155 -11.999  0.00  0.00     0.137 C 
ATOM     24  C   UNL d   1       6.769   4.817 -12.532  0.00  0.00     0.274 C 
BRANCH  22  25
ATOM     25  C   UNL d   1       9.089   6.334 -10.225  0.00  0.00     0.081 A 
ATOM     26  C   UNL d   1       9.998   7.382  -9.959  0.00  0.00     0.135 A 
ATOM     27  C   UNL d   1      10.393   7.700  -8.666  0.00  0.00     0.121 A 
ATOM     28  O   UNL d   1      10.584   8.240 -10.825  0.00  0.00    -0.298 OA
ATOM     29  C   UNL d   1       9.856   7.079  -7.537  0.00  0.00     0.026 A 
ATOM     30  O   UNL d   1      11.319   8.692  -8.707  0.00  0.00    -0.299 OA
ATOM     31  C   UNL d   1       8.905   6.065  -7.769  0.00  0.00     0.004 A 
ATOM     32  C   UNL d   1       8.580   5.657  -9.089  0.00  0.00     0.019 A 
ATOM     33  C   UNL d   1      11.510   8.969 -10.065  0.00  0.00     0.304 C 
ENDBRANCH  22  25
ENDBRANCH  18  19
ENDBRANCH   1  18
TORSDOF 7
