REMARK  6 active torsions:
REMARK  status: ('A' for Active; 'I' for Inactive)
REMARK    1  A    between atoms: C_2  and  C_3 
REMARK    2  A    between atoms: C_6  and  O_7 
REMARK    3  A    between atoms: C_9  and  C_10 
REMARK       I    between atoms: C_10  and  N_12 
REMARK    4  A    between atoms: N_12  and  C_13 
REMARK    5  A    between atoms: C_13  and  C_14 
REMARK    6  A    between atoms: N_18  and  C_19 
ROOT
ATOM      1  C   UNL d   1       9.070   2.549 -15.070  0.00  0.00    -0.016 A 
ATOM      2  C   UNL d   1       7.701   2.209 -15.080  0.00  0.00    -0.002 A 
ATOM      3  C   UNL d   1       6.808   2.779 -14.151  0.00  0.00     0.024 A 
ATOM      4  C   UNL d   1       7.289   3.709 -13.204  0.00  0.00     0.099 A 
ATOM      5  C   UNL d   1       8.657   4.032 -13.177  0.00  0.00     0.086 A 
ATOM      6  C   UNL d   1       9.558   3.461 -14.110  0.00  0.00     0.037 A 
ATOM      7 BR   UNL d   1      11.421   3.906 -14.104  0.00  0.00    -0.049 Br
ENDROOT
BRANCH   5   8
ATOM      8  C   UNL d   1       9.164   5.031 -12.181  0.00  0.00     0.277 C 
ATOM      9  O   UNL d   1       9.849   5.988 -12.550  0.00  0.00    -0.266 OA
ATOM     10  N   UNL d   1       8.880   4.794 -10.893  0.00  0.00    -0.232 NA
BRANCH  10  11
ATOM     11  C   UNL d   1       9.566   5.362  -9.736  0.00  0.00     0.162 C 
BRANCH  11  12
ATOM     12  C   UNL d   1       9.143   6.786  -9.372  0.00  0.00     0.243 C 
ATOM     13  N   UNL d   1       9.839   7.331  -8.214  0.00  0.00     0.137 N 
ATOM     14  C   UNL d   1       9.538   8.759  -8.282  0.00  0.00     0.250 C 
ATOM     15  C   UNL d   1       9.734   9.113  -9.749  0.00  0.00     0.037 C 
ATOM     16  C   UNL d   1       9.480   7.796 -10.478  0.00  0.00     0.037 C 
BRANCH  13  17
ATOM     17  C   UNL d   1       9.328   6.756  -6.958  0.00  0.00     0.250 C 
ATOM     18  C   UNL d   1      10.221   7.159  -5.785  0.00  0.00     0.037 C 
ENDBRANCH  13  17
ENDBRANCH  11  12
ENDBRANCH  10  11
ENDBRANCH   5   8
BRANCH   4  19
ATOM     19  O   UNL d   1       6.470   4.341 -12.299  0.00  0.00    -0.328 OA
ATOM     20  C   UNL d   1       5.155   3.865 -12.111  0.00  0.00     0.181 C 
ENDBRANCH   4  19
BRANCH   1  21
ATOM     21  C   UNL d   1      10.005   1.915 -16.090  0.00  0.00     0.027 C 
ATOM     22  C   UNL d   1      10.636   0.628 -15.549  0.00  0.00     0.005 C 
ENDBRANCH   1  21
TORSDOF 6
