REMARK  6 active torsions:
REMARK  status: ('A' for Active; 'I' for Inactive)
REMARK    1  A    between atoms: S_2  and  C_4 
REMARK    2  A    between atoms: S_2  and  N_14 
REMARK    3  A    between atoms: C_18  and  C_19 
REMARK    4  A    between atoms: C_19  and  C_20 
REMARK    5  A    between atoms: C_20  and  N_21 
REMARK    6  A    between atoms: N_24  and  C_25 
ROOT
ATOM      1  N   UNL d   1       5.075  -4.450 -19.480  0.00  0.00    -0.276 N 
ATOM      2  C   UNL d   1       5.924  -5.442 -18.826  0.00  0.00     0.113 C 
ATOM      3  C   UNL d   1       7.327  -4.905 -18.911  0.00  0.00     0.027 C 
ATOM      4  C   UNL d   1       7.134  -3.402 -18.802  0.00  0.00     0.025 C 
ATOM      5  C   UNL d   1       5.726  -3.131 -19.368  0.00  0.00     0.094 C 
ENDROOT
BRANCH   5   6
ATOM      6  C   UNL d   1       4.888  -2.231 -18.437  0.00  0.00     0.058 C 
BRANCH   6   7
ATOM      7  C   UNL d   1       5.354  -0.752 -18.417  0.00  0.00     0.252 C 
BRANCH   7   8
ATOM      8  N   UNL d   1       6.173  -0.408 -17.255  0.00  0.00     0.141 N 
ATOM      9  C   UNL d   1       6.670   0.959 -17.439  0.00  0.00     0.274 C 
ATOM     10  C   UNL d   1       7.550   1.386 -16.255  0.00  0.00     0.138 C 
ATOM     11  N   UNL d   1       6.841   1.241 -14.993  0.00  0.00    -0.329 N 
ATOM     12  C   UNL d   1       6.248  -0.069 -14.806  0.00  0.00     0.138 C 
ATOM     13  C   UNL d   1       5.381  -0.441 -16.016  0.00  0.00     0.274 C 
BRANCH  11  14
ATOM     14  C   UNL d   1       6.699   2.305 -14.041  0.00  0.00     0.148 A 
ATOM     15  C   UNL d   1       7.697   3.337 -13.862  0.00  0.00     0.042 A 
ATOM     16  C   UNL d   1       7.253   4.242 -12.842  0.00  0.00     0.050 A 
ATOM     17  C   UNL d   1       8.977   3.620 -14.425  0.00  0.00     0.004 A 
ATOM     18  S   UNL d   1       5.710   3.674 -12.261  0.00  0.00     0.015 SA
ATOM     19  C   UNL d   1       8.007   5.351 -12.428  0.00  0.00     0.008 A 
ATOM     20  N   UNL d   1       5.658   2.318 -13.246  0.00  0.00    -0.192 NA
ATOM     21  C   UNL d   1       9.252   5.601 -13.032  0.00  0.00     0.001 A 
ATOM     22  C   UNL d   1       9.726   4.738 -14.037  0.00  0.00     0.000 A 
ENDBRANCH  11  14
ENDBRANCH   7   8
ENDBRANCH   6   7
ENDBRANCH   5   6
BRANCH   1  23
ATOM     23  S   UNL d   1       4.257  -4.864 -20.950  0.00  0.00     0.264 S 
ATOM     24  O   UNL d   1       5.199  -5.646 -21.758  0.00  0.00    -0.200 OA
ATOM     25  O   UNL d   1       3.717  -3.600 -21.483  0.00  0.00    -0.200 OA
BRANCH  23  26
ATOM     26  C   UNL d   1       2.876  -5.941 -20.459  0.00  0.00     0.105 A 
ATOM     27  C   UNL d   1       1.628  -5.992 -21.160  0.00  0.00     0.030 A 
ATOM     28  C   UNL d   1       0.579  -6.860 -20.693  0.00  0.00     0.082 A 
ATOM     29  C   UNL d   1       1.359  -5.219 -22.329  0.00  0.00     0.004 A 
ATOM     30  C   UNL d   1       0.813  -7.682 -19.576  0.00  0.00     0.019 A 
ATOM     31  N   UNL d   1      -0.629  -6.931 -21.297  0.00  0.00    -0.244 NA
ATOM     32  C   UNL d   1       2.046  -7.645 -18.910  0.00  0.00     0.002 A 
ATOM     33  C   UNL d   1       3.074  -6.780 -19.333  0.00  0.00     0.013 A 
ATOM     34  C   UNL d   1      -0.868  -6.179 -22.381  0.00  0.00     0.099 A 
ATOM     35  C   UNL d   1       0.088  -5.311 -22.937  0.00  0.00     0.021 A 
ENDBRANCH  23  26
ENDBRANCH   1  23
TORSDOF 6
