REMARK  5 active torsions:
REMARK  status: ('A' for Active; 'I' for Inactive)
REMARK    1  A    between atoms: C_2  and  C_3 
REMARK    2  A    between atoms: C_3  and  N_4 
REMARK    3  A    between atoms: N_4  and  C_5 
REMARK    4  A    between atoms: N_4  and  C_8 
REMARK    5  A    between atoms: C_5  and  C_6 
ROOT
ATOM      1  C   UNL d   1       7.777   4.522 -13.457  0.00  0.00     0.253 C 
ATOM      2  C   UNL d   1       8.860   3.711 -14.196  0.00  0.00     0.182 C 
ATOM      3  O   UNL d   1       8.320   2.834 -15.196  0.00  0.00    -0.328 OA
ATOM      4  C   UNL d   1       7.252   2.057 -14.828  0.00  0.00     0.108 A 
ATOM      5  C   UNL d   1       6.451   2.378 -13.700  0.00  0.00     0.004 A 
ATOM      6  C   UNL d   1       5.411   1.556 -13.281  0.00  0.00    -0.002 A 
ATOM      7  C   UNL d   1       5.053   0.420 -14.046  0.00  0.00     0.008 A 
ATOM      8  C   UNL d   1       5.790   0.131 -15.188  0.00  0.00     0.051 A 
ATOM      9  S   UNL d   1       5.445  -1.183 -16.302  0.00  0.00    -0.052 SA
ATOM     10  C   UNL d   1       6.826  -0.668 -17.247  0.00  0.00     0.181 A 
ATOM     11  N   UNL d   1       7.149  -1.403 -18.370  0.00  0.00    -0.072 NA
ATOM     12  N   UNL d   1       7.497   0.426 -16.809  0.00  0.00    -0.223 NA
ATOM     13  C   UNL d   1       6.904   0.906 -15.632  0.00  0.00     0.111 A 
ATOM     14  C   UNL d   1       6.726   3.599 -12.832  0.00  0.00     0.064 C 
ENDROOT
BRANCH   1  15
ATOM     15  N   UNL d   1       8.303   5.525 -12.504  0.00  0.00     0.138 N 
BRANCH  15  16
ATOM     16  C   UNL d   1       9.164   4.929 -11.472  0.00  0.00     0.250 C 
BRANCH  16  17
ATOM     17  C   UNL d   1       9.725   5.895 -10.407  0.00  0.00     0.035 C 
ATOM     18  C   UNL d   1       9.778   5.229  -9.034  0.00  0.00     0.002 C 
ENDBRANCH  16  17
ENDBRANCH  15  16
BRANCH  15  19
ATOM     19  C   UNL d   1       7.248   6.331 -11.871  0.00  0.00     0.250 C 
BRANCH  19  20
ATOM     20  C   UNL d   1       6.279   7.058 -12.801  0.00  0.00     0.035 C 
ATOM     21  C   UNL d   1       5.431   8.133 -12.114  0.00  0.00     0.002 C 
ENDBRANCH  19  20
ENDBRANCH  15  19
ENDBRANCH   1  15
TORSDOF 5
