REMARK  3 active torsions:
REMARK  status: ('A' for Active; 'I' for Inactive)
REMARK    1  A    between atoms: C_3  and  C_4 
REMARK    2  A    between atoms: C_4  and  N_5 
REMARK    3  A    between atoms: N_8  and  C_9 
ROOT
ATOM      1  N   UNL d   1       9.268   6.983 -10.277  0.00  0.00     0.149 N 
ATOM      2  C   UNL d   1       9.706   5.926  -9.382  0.00  0.00     0.275 C 
ATOM      3  C   UNL d   1       9.149   6.237  -8.004  0.00  0.00     0.139 C 
ATOM      4  N   UNL d   1       9.685   7.506  -7.513  0.00  0.00    -0.325 N 
ATOM      5  C   UNL d   1       9.337   8.591  -8.399  0.00  0.00     0.139 C 
ATOM      6  C   UNL d   1       9.793   8.271  -9.828  0.00  0.00     0.275 C 
ENDROOT
BRANCH   1   7
ATOM      7  C   UNL d   1       9.582   6.725 -11.679  0.00  0.00     0.314 C 
BRANCH   7   8
ATOM      8  C   UNL d   1       8.907   5.591 -12.350  0.00  0.00     0.154 A 
ATOM      9  N   UNL d   1       7.578   5.352 -12.309  0.00  0.00    -0.312 N 
ATOM     10  C   UNL d   1       6.550   6.079 -11.632  0.00  0.00     0.132 C 
ATOM     11  C   UNL d   1       7.370   4.197 -13.014  0.00  0.00     0.079 A 
ATOM     12  C   UNL d   1       8.652   3.827 -13.494  0.00  0.00     0.099 A 
ATOM     13  C   UNL d   1       6.219   3.417 -13.268  0.00  0.00     0.019 A 
ATOM     14  N   UNL d   1       9.613   4.728 -13.077  0.00  0.00    -0.229 NA
ATOM     15  C   UNL d   1       8.757   2.655 -14.270  0.00  0.00     0.021 A 
ATOM     16  C   UNL d   1       7.609   1.873 -14.537  0.00  0.00     0.002 A 
ATOM     17  C   UNL d   1       6.339   2.255 -14.041  0.00  0.00     0.002 A 
ENDBRANCH   7   8
ENDBRANCH   1   7
BRANCH   4  18
ATOM     18  C   UNL d   1      10.439   7.742  -6.386  0.00  0.00     0.172 C 
ATOM     19  S   UNL d   1      11.429   6.487  -5.691  0.00  0.00    -0.049 SA
ATOM     20  C   UNL d   1      11.782   7.561  -4.347  0.00  0.00     0.050 A 
ATOM     21  C   UNL d   1      11.214   8.842  -4.631  0.00  0.00     0.089 A 
ATOM     22  C   UNL d   1      12.471   7.286  -3.162  0.00  0.00     0.008 A 
ATOM     23  N   UNL d   1      10.512   8.944  -5.799  0.00  0.00    -0.222 NA
ATOM     24  C   UNL d   1      11.374   9.837  -3.657  0.00  0.00     0.020 A 
ATOM     25  C   UNL d   1      12.087   9.582  -2.482  0.00  0.00     0.002 A 
ATOM     26  C   UNL d   1      12.642   8.316  -2.221  0.00  0.00     0.001 A 
ENDBRANCH   4  18
TORSDOF 3
