REMARK  8 active torsions:
REMARK  status: ('A' for Active; 'I' for Inactive)
REMARK    1  A    between atoms: C_6  and  C_7 
REMARK    2  A    between atoms: C_10  and  S_11 
REMARK    3  A    between atoms: S_11  and  C_12 
REMARK    4  A    between atoms: C_12  and  C_13 
REMARK    5  A    between atoms: C_13  and  C_14 
REMARK    6  A    between atoms: C_14  and  N_15 
REMARK    7  A    between atoms: N_20  and  C_21 
REMARK    8  A    between atoms: C_24  and  C_25 
ROOT
ATOM      1  N   UNL d   1      11.792   5.070 -15.028  0.00  0.00     0.138 N 
ATOM      2  C   UNL d   1      13.057   4.501 -15.485  0.00  0.00     0.252 C 
ATOM      3  C   UNL d   1      13.398   5.347 -16.715  0.00  0.00     0.052 C 
ATOM      4  C   UNL d   1      14.011   4.593 -17.900  0.00  0.00     0.021 C 
ATOM      5  C   UNL d   1      13.272   5.190 -19.097  0.00  0.00     0.077 C 
ATOM      6  N   UNL d   1      11.922   5.431 -18.603  0.00  0.00    -0.250 NA
ATOM      7  C   UNL d   1      12.050   5.851 -17.214  0.00  0.00     0.097 C 
ATOM      8  C   UNL d   1      11.034   5.208 -16.268  0.00  0.00     0.266 C 
ENDROOT
BRANCH   1   9
ATOM      9  C   UNL d   1      11.140   4.188 -14.067  0.00  0.00     0.251 C 
BRANCH   9  10
ATOM     10  C   UNL d   1       9.932   4.874 -13.412  0.00  0.00     0.047 C 
BRANCH  10  11
ATOM     11  C   UNL d   1       9.242   3.963 -12.393  0.00  0.00     0.067 C 
BRANCH  11  12
ATOM     12  S   UNL d   1       7.831   4.789 -11.602  0.00  0.00    -0.075 SA
BRANCH  12  13
ATOM     13  C   UNL d   1       8.628   5.270 -10.109  0.00  0.00     0.193 A 
ATOM     14  N   UNL d   1       8.665   4.513  -9.016  0.00  0.00    -0.122 NA
ATOM     15  N   UNL d   1       9.379   5.237  -8.094  0.00  0.00    -0.126 NA
ATOM     16  C   UNL d   1       9.749   6.362  -8.703  0.00  0.00     0.191 A 
ATOM     17  N   UNL d   1       9.278   6.440  -9.966  0.00  0.00    -0.287 N 
ATOM     18  C   UNL d   1       9.416   7.517 -10.920  0.00  0.00     0.134 C 
BRANCH  16  19
ATOM     19  C   UNL d   1      10.541   7.364  -8.003  0.00  0.00     0.151 A 
ATOM     20  C   UNL d   1      11.617   8.146  -8.363  0.00  0.00     0.087 A 
ATOM     21  C   UNL d   1      12.382   8.233  -9.644  0.00  0.00     0.054 C 
ATOM     22  N   UNL d   1      11.966   8.928  -7.271  0.00  0.00    -0.221 NA
ATOM     23  C   UNL d   1      11.115   8.583  -6.314  0.00  0.00     0.225 A 
ATOM     24  O   UNL d   1      10.222   7.635  -6.699  0.00  0.00    -0.282 OA
ENDBRANCH  16  19
ENDBRANCH  12  13
ENDBRANCH  11  12
ENDBRANCH  10  11
ENDBRANCH   9  10
ENDBRANCH   1   9
BRANCH   6  25
ATOM     25  C   UNL d   1      11.022   6.184 -19.379  0.00  0.00     0.064 A 
ATOM     26  C   UNL d   1       9.641   5.871 -19.340  0.00  0.00     0.150 A 
ATOM     27  C   UNL d   1       8.719   6.606 -20.104  0.00  0.00     0.035 A 
ATOM     28  F   UNL d   1       9.188   4.841 -18.582  0.00  0.00    -0.203 F 
ATOM     29  C   UNL d   1       9.154   7.665 -20.927  0.00  0.00     0.074 A 
ATOM     30  C   UNL d   1      10.526   7.991 -20.960  0.00  0.00     0.005 A 
ATOM     31  C   UNL d   1      11.452   7.259 -20.194  0.00  0.00     0.013 A 
BRANCH  29  32
ATOM     32  C   UNL d   1       8.171   8.460 -21.768  0.00  0.00     0.419 C 
ATOM     33  F   UNL d   1       6.971   7.879 -21.808  0.00  0.00    -0.166 F 
ATOM     34  F   UNL d   1       8.035   9.677 -21.241  0.00  0.00    -0.166 F 
ATOM     35  F   UNL d   1       8.627   8.577 -23.015  0.00  0.00    -0.166 F 
ENDBRANCH  29  32
ENDBRANCH   6  25
TORSDOF 8
