REMARK  6 active torsions:
REMARK  status: ('A' for Active; 'I' for Inactive)
REMARK    1  A    between atoms: C_2  and  C_3 
REMARK    2  A    between atoms: C_5  and  N_6 
REMARK       I    between atoms: N_6  and  C_7 
REMARK    3  A    between atoms: C_11  and  C_12 
REMARK    4  A    between atoms: N_14  and  S_15 
REMARK    5  A    between atoms: S_15  and  C_18 
REMARK    6  A    between atoms: C_27  and  O_28 
ROOT
ATOM      1  C   UNL d   1      11.628   3.995 -17.077  0.00  0.00     0.039 A 
ATOM      2  C   UNL d   1      11.476   2.728 -17.582  0.00  0.00     0.093 A 
ATOM      3  N   UNL d   1      10.739   1.949 -16.706  0.00  0.00    -0.231 N 
ATOM      4  C   UNL d   1      10.392   2.704 -15.601  0.00  0.00     0.075 A 
ATOM      5  C   UNL d   1       9.641   2.391 -14.460  0.00  0.00     0.020 A 
ATOM      6  C   UNL d   1       9.446   3.362 -13.472  0.00  0.00     0.026 A 
ATOM      7  C   UNL d   1      10.011   4.648 -13.600  0.00  0.00     0.094 A 
ATOM      8  C   UNL d   1      10.760   4.950 -14.762  0.00  0.00     0.026 A 
ATOM      9  C   UNL d   1      10.954   3.998 -15.800  0.00  0.00     0.022 A 
ENDROOT
BRANCH   1  10
ATOM     10  C   UNL d   1      12.342   5.135 -17.650  0.00  0.00     0.115 A 
ATOM     11  C   UNL d   1      11.875   6.280 -18.271  0.00  0.00     0.096 A 
ATOM     12  N   UNL d   1      12.998   7.012 -18.625  0.00  0.00    -0.062 NA
ATOM     13  C   UNL d   1      14.059   6.301 -18.222  0.00  0.00     0.752 A 
ATOM     14  N   UNL d   1      13.734   5.160 -17.633  0.00  0.00    -0.058 NA
BRANCH  11  15
ATOM     15  C   UNL d   1      10.486   6.732 -18.577  0.00  0.00     0.048 C 
ATOM     16  C   UNL d   1       9.800   5.845 -19.624  0.00  0.00     0.007 C 
ENDBRANCH  11  15
BRANCH  13  17
ATOM     17  N   UNL d   1      15.382   6.772 -18.422  0.00  0.00    -0.023 NA
ATOM     18  C   UNL d   1      16.528   6.317 -17.890  0.00  0.00     0.273 C 
ATOM     19  O   UNL d   1      17.614   6.782 -18.232  0.00  0.00    -0.270 OA
ATOM     20  C   UNL d   1      16.495   5.213 -16.831  0.00  0.00     0.101 C 
ENDBRANCH  13  17
ENDBRANCH   1  10
BRANCH   3  21
ATOM     21  S   UNL d   1      10.287   0.307 -16.988  0.00  0.00     0.271 S 
ATOM     22  O   UNL d   1      11.176  -0.179 -18.059  0.00  0.00    -0.200 OA
ATOM     23  O   UNL d   1      10.258  -0.348 -15.672  0.00  0.00    -0.200 OA
BRANCH  21  24
ATOM     24  C   UNL d   1       8.616   0.450 -17.621  0.00  0.00     0.104 A 
ATOM     25  C   UNL d   1       7.513   0.348 -16.748  0.00  0.00     0.013 A 
ATOM     26  C   UNL d   1       6.205   0.460 -17.261  0.00  0.00     0.001 A 
ATOM     27  C   UNL d   1       6.003   0.677 -18.639  0.00  0.00     0.000 A 
ATOM     28  C   UNL d   1       7.108   0.781 -19.507  0.00  0.00     0.001 A 
ATOM     29  C   UNL d   1       8.418   0.670 -18.998  0.00  0.00     0.013 A 
ENDBRANCH  21  24
ENDBRANCH   3  21
BRANCH   7  30
ATOM     30  O   UNL d   1       9.846   5.613 -12.625  0.00  0.00    -0.328 OA
ATOM     31  C   UNL d   1       9.064   5.278 -11.480  0.00  0.00     0.181 C 
ENDBRANCH   7  30
TORSDOF 6
