REMARK  7 active torsions:
REMARK  status: ('A' for Active; 'I' for Inactive)
REMARK    1  A    between atoms: C_8  and  O_9 
REMARK    2  A    between atoms: O_9  and  C_10 
REMARK    3  A    between atoms: C_10  and  C_11 
REMARK    4  A    between atoms: C_11  and  C_12 
REMARK    5  A    between atoms: C_12  and  C_13 
REMARK    6  A    between atoms: C_13  and  N_14 
REMARK    7  A    between atoms: C_17  and  N_18 
ROOT
ATOM      1  N   UNL d   1       8.659   5.991 -10.332  0.00  0.00     0.137 N 
ATOM      2  C   UNL d   1      10.087   5.792 -10.418  0.00  0.00     0.252 C 
ATOM      3  C   UNL d   1      10.772   6.858  -9.569  0.00  0.00     0.058 C 
ATOM      4  C   UNL d   1      10.379   6.768  -8.072  0.00  0.00     0.094 C 
ATOM      5  C   UNL d   1       8.859   6.785  -7.987  0.00  0.00     0.058 C 
ATOM      6  C   UNL d   1       8.262   5.762  -8.960  0.00  0.00     0.252 C 
ENDROOT
BRANCH   1   7
ATOM      7  C   UNL d   1       8.004   5.032 -11.237  0.00  0.00     0.250 C 
BRANCH   7   8
ATOM      8  C   UNL d   1       6.763   5.629 -11.915  0.00  0.00     0.038 C 
BRANCH   8   9
ATOM      9  C   UNL d   1       5.996   4.596 -12.774  0.00  0.00     0.035 C 
BRANCH   9  10
ATOM     10  C   UNL d   1       6.914   3.636 -13.565  0.00  0.00     0.149 C 
BRANCH  10  11
ATOM     11  O   UNL d   1       6.220   2.559 -14.137  0.00  0.00    -0.331 OA
BRANCH  11  12
ATOM     12  C   UNL d   1       6.924   1.776 -15.021  0.00  0.00     0.096 A 
ATOM     13  C   UNL d   1       6.248   0.738 -15.689  0.00  0.00     0.024 A 
ATOM     14  C   UNL d   1       6.872  -0.011 -16.700  0.00  0.00    -0.001 A 
ATOM     15  C   UNL d   1       8.212   0.265 -17.043  0.00  0.00    -0.004 A 
ATOM     16  C   UNL d   1       8.948  -0.483 -18.135  0.00  0.00     0.038 C 
ATOM     17  C   UNL d   1       8.908   1.280 -16.347  0.00  0.00     0.082 A 
ATOM     18  C   UNL d   1      10.468  -0.540 -17.848  0.00  0.00     0.095 C 
ATOM     19  C   UNL d   1      11.046   0.812 -17.397  0.00  0.00     0.256 C 
ATOM     20  O   UNL d   1      12.188   1.137 -17.673  0.00  0.00    -0.270 OA
ATOM     21  N   UNL d   1      10.247   1.589 -16.665  0.00  0.00    -0.212 NA
ATOM     22  C   UNL d   1       8.300   2.009 -15.347  0.00  0.00     0.043 A 
ENDBRANCH  11  12
ENDBRANCH  10  11
ENDBRANCH   9  10
ENDBRANCH   8   9
ENDBRANCH   7   8
ENDBRANCH   1   7
BRANCH   4  23
ATOM     23  N   UNL d   1      10.930   7.852  -7.249  0.00  0.00    -0.281 N 
ATOM     24  C   UNL d   1      11.244   7.741  -5.869  0.00  0.00     0.082 A 
ATOM     25  C   UNL d   1      11.716   8.964  -5.458  0.00  0.00     0.103 A 
ATOM     26  C   UNL d   1      11.189   6.646  -4.990  0.00  0.00     0.020 A 
ATOM     27  N   UNL d   1      11.659   9.809  -6.557  0.00  0.00    -0.191 NA
ATOM     28  C   UNL d   1      12.182   9.174  -4.161  0.00  0.00     0.032 A 
ATOM     29  C   UNL d   1      11.224   9.121  -7.624  0.00  0.00     0.350 A 
ATOM     30  O   UNL d   1      11.152   9.544  -8.776  0.00  0.00    -0.244 OA
ATOM     31  C   UNL d   1      12.136   8.096  -3.261  0.00  0.00     0.059 A 
ATOM     32 CL   UNL d   1      12.656   8.388  -1.640  0.00  0.00    -0.082 Cl
ATOM     33  C   UNL d   1      11.644   6.832  -3.665  0.00  0.00     0.013 A 
ENDBRANCH   4  23
TORSDOF 7
