REMARK  3 active torsions:
REMARK  status: ('A' for Active; 'I' for Inactive)
REMARK    1  A    between atoms: C_5  and  C_6 
REMARK    2  A    between atoms: N_8  and  C_9 
REMARK    3  A    between atoms: C_19  and  C_20 
ROOT
ATOM      1  C   UNL d   1      10.329   0.352 -18.050  0.00  0.00    -0.003 A 
ATOM      2  C   UNL d   1       9.181  -0.200 -17.543  0.00  0.00     0.076 A 
ATOM      3  N   UNL d   1       8.628   0.635 -16.579  0.00  0.00    -0.305 N 
ATOM      4  C   UNL d   1       9.423   1.770 -16.452  0.00  0.00     0.064 A 
ATOM      5  C   UNL d   1       9.318   2.923 -15.653  0.00  0.00     0.018 A 
ATOM      6  C   UNL d   1      10.296   3.929 -15.743  0.00  0.00     0.002 A 
ATOM      7  C   UNL d   1      11.389   3.805 -16.632  0.00  0.00     0.003 A 
ATOM      8  C   UNL d   1      11.464   2.639 -17.427  0.00  0.00     0.001 A 
ATOM      9  C   UNL d   1      10.501   1.604 -17.365  0.00  0.00     0.014 A 
ENDROOT
BRANCH   1  10
ATOM     10  C   UNL d   1      11.219  -0.230 -19.113  0.00  0.00     0.028 C 
ATOM     11  C   UNL d   1      12.640  -0.478 -18.579  0.00  0.00     0.040 C 
ATOM     12  C   UNL d   1      13.602  -0.942 -19.680  0.00  0.00     0.251 C 
ATOM     13  N   UNL d   1      13.637   0.049 -20.753  0.00  0.00     0.139 N 
ATOM     14  C   UNL d   1      14.606  -0.368 -21.756  0.00  0.00     0.285 C 
ATOM     15  C   UNL d   1      12.317   0.166 -21.374  0.00  0.00     0.251 C 
ATOM     16  C   UNL d   1      11.289   0.679 -20.353  0.00  0.00     0.040 C 
ENDBRANCH   1  10
BRANCH   3  17
ATOM     17  C   UNL d   1       7.447   0.364 -15.853  0.00  0.00     0.064 A 
ATOM     18  C   UNL d   1       7.418   0.529 -14.451  0.00  0.00     0.020 A 
ATOM     19  C   UNL d   1       6.244   0.239 -13.731  0.00  0.00     0.031 A 
ATOM     20  C   UNL d   1       5.099  -0.227 -14.403  0.00  0.00     0.140 A 
ATOM     21  C   UNL d   1       5.129  -0.412 -15.799  0.00  0.00     0.031 A 
ATOM     22  F   UNL d   1       3.972  -0.491 -13.704  0.00  0.00    -0.204 F 
ATOM     23  C   UNL d   1       6.299  -0.113 -16.524  0.00  0.00     0.020 A 
ENDBRANCH   3  17
BRANCH   7  24
ATOM     24  C   UNL d   1      12.424   4.859 -16.734  0.00  0.00     0.038 A 
ATOM     25  C   UNL d   1      13.743   4.607 -17.182  0.00  0.00     0.102 A 
ATOM     26  N   UNL d   1      14.679   5.574 -17.276  0.00  0.00    -0.223 NA
ATOM     27  C   UNL d   1      14.307   6.800 -16.923  0.00  0.00     0.199 A 
ATOM     28  N   UNL d   1      13.113   7.170 -16.475  0.00  0.00    -0.223 NA
ATOM     29  C   UNL d   1      12.172   6.208 -16.395  0.00  0.00     0.102 A 
ENDBRANCH   7  24
TORSDOF 3
