REMARK  3 active torsions:
REMARK  status: ('A' for Active; 'I' for Inactive)
REMARK       I    between atoms: N_4  and  C_5 
REMARK    1  A    between atoms: C_5  and  C_7 
REMARK    2  A    between atoms: C_10  and  C_11 
REMARK       I    between atoms: N_22  and  C_23 
REMARK    3  A    between atoms: C_23  and  C_25 
ROOT
ATOM      1  C   UNL d   1      10.834   4.624 -14.636  0.00  0.00     0.026 C 
ATOM      2  C   UNL d   1      10.308   3.472 -13.740  0.00  0.00     0.106 C 
ATOM      3  C   UNL d   1       9.805   3.989 -12.389  0.00  0.00     0.127 C 
ATOM      4  N   UNL d   1       8.553   4.750 -12.502  0.00  0.00    -0.313 N 
ATOM      5  C   UNL d   1       8.454   6.051 -12.164  0.00  0.00     0.257 C 
ATOM      6  O   UNL d   1       7.770   6.848 -12.807  0.00  0.00    -0.267 OA
ATOM      7  C   UNL d   1       7.494   4.023 -13.180  0.00  0.00     0.129 C 
ATOM      8  C   UNL d   1       8.020   3.444 -14.491  0.00  0.00     0.129 C 
ATOM      9  N   UNL d   1       9.255   2.661 -14.346  0.00  0.00    -0.315 N 
ATOM     10  C   UNL d   1       9.434   1.379 -14.765  0.00  0.00     0.257 C 
ATOM     11  O   UNL d   1      10.496   0.752 -14.660  0.00  0.00    -0.267 OA
ENDROOT
BRANCH   5  12
ATOM     12  C   UNL d   1       9.130   6.484 -10.898  0.00  0.00     0.056 A 
ATOM     13  C   UNL d   1       8.907   5.770  -9.702  0.00  0.00     0.005 A 
ATOM     14  C   UNL d   1       9.419   6.245  -8.474  0.00  0.00     0.000 A 
ATOM     15  C   UNL d   1      10.201   7.425  -8.410  0.00  0.00     0.000 A 
ATOM     16  C   UNL d   1      10.416   8.132  -9.621  0.00  0.00     0.000 A 
ATOM     17  C   UNL d   1       9.862   7.684 -10.842  0.00  0.00     0.005 A 
BRANCH  15  18
ATOM     18  C   UNL d   1      10.759   7.908  -7.117  0.00  0.00     0.002 A 
ATOM     19  C   UNL d   1      10.928   7.033  -6.011  0.00  0.00     0.030 A 
ATOM     20  C   UNL d   1      11.463   7.485  -4.789  0.00  0.00     0.140 A 
ATOM     21  C   UNL d   1      11.857   8.823  -4.643  0.00  0.00     0.030 A 
ATOM     22  F   UNL d   1      11.614   6.623  -3.759  0.00  0.00    -0.204 F 
ATOM     23  C   UNL d   1      11.712   9.708  -5.723  0.00  0.00     0.002 A 
ATOM     24  C   UNL d   1      11.160   9.257  -6.936  0.00  0.00     0.000 A 
ENDBRANCH  15  18
ENDBRANCH   5  12
BRANCH  10  25
ATOM     25  C   UNL d   1       8.281   0.717 -15.456  0.00  0.00     0.057 A 
ATOM     26  C   UNL d   1       7.105   0.376 -14.749  0.00  0.00     0.024 A 
ATOM     27  C   UNL d   1       6.038  -0.224 -15.443  0.00  0.00     0.082 A 
ATOM     28  C   UNL d   1       6.106  -0.503 -16.839  0.00  0.00     0.019 A 
ATOM     29  N   UNL d   1       4.795  -0.660 -15.038  0.00  0.00    -0.244 NA
ATOM     30  C   UNL d   1       7.295  -0.150 -17.520  0.00  0.00     0.002 A 
ATOM     31  C   UNL d   1       4.869  -1.127 -17.227  0.00  0.00     0.022 A 
ATOM     32  C   UNL d   1       8.374   0.447 -16.835  0.00  0.00     0.005 A 
ATOM     33  C   UNL d   1       4.093  -1.214 -16.101  0.00  0.00     0.099 A 
ENDBRANCH  10  25
TORSDOF 3
