REMARK  6 active torsions:
REMARK  status: ('A' for Active; 'I' for Inactive)
REMARK    1  A    between atoms: O_2  and  C_3 
REMARK    2  A    between atoms: C_6  and  C_7 
REMARK    3  A    between atoms: C_9  and  N_10 
REMARK    4  A    between atoms: N_22  and  S_23 
REMARK    5  A    between atoms: S_23  and  C_26 
REMARK    6  A    between atoms: C_26  and  C_27 
ROOT
ATOM      1  C   UNL d   1       8.249   2.688 -15.152  0.00  0.00     0.006 A 
ATOM      2  C   UNL d   1       7.165   1.875 -15.547  0.00  0.00     0.037 A 
ATOM      3  C   UNL d   1       7.186   1.176 -16.776  0.00  0.00     0.142 A 
ATOM      4  N   UNL d   1       8.238   1.238 -17.620  0.00  0.00    -0.211 NA
ATOM      5  C   UNL d   1       9.283   2.009 -17.225  0.00  0.00     0.158 A 
ATOM      6  C   UNL d   1       9.369   2.777 -16.029  0.00  0.00     0.037 A 
ATOM      7  C   UNL d   1      10.626   3.487 -16.058  0.00  0.00     0.023 A 
ATOM      8  C   UNL d   1      11.278   3.087 -17.189  0.00  0.00     0.093 A 
ATOM      9  N   UNL d   1      10.473   2.217 -17.901  0.00  0.00    -0.218 N 
ENDROOT
BRANCH   1  10
ATOM     10  C   UNL d   1       8.181   3.466 -13.894  0.00  0.00     0.000 A 
ATOM     11  C   UNL d   1       6.940   3.926 -13.373  0.00  0.00     0.002 A 
ATOM     12  C   UNL d   1       6.888   4.627 -12.152  0.00  0.00     0.024 A 
ATOM     13  C   UNL d   1       8.065   4.917 -11.442  0.00  0.00     0.094 A 
ATOM     14  C   UNL d   1       9.300   4.490 -11.968  0.00  0.00     0.024 A 
ATOM     15  C   UNL d   1       9.350   3.745 -13.153  0.00  0.00     0.002 A 
BRANCH  13  16
ATOM     16  O   UNL d   1       7.939   5.576 -10.244  0.00  0.00    -0.328 OA
ATOM     17  C   UNL d   1       9.118   5.939  -9.547  0.00  0.00     0.181 C 
ENDBRANCH  13  16
ENDBRANCH   1  10
BRANCH   3  18
ATOM     18  N   UNL d   1       6.085   0.419 -17.191  0.00  0.00    -0.330 N 
ATOM     19  C   UNL d   1       5.669   0.328 -18.588  0.00  0.00     0.138 C 
ATOM     20  C   UNL d   1       5.577  -1.139 -19.026  0.00  0.00     0.274 C 
ATOM     21  N   UNL d   1       4.681  -1.881 -18.132  0.00  0.00     0.143 N 
ATOM     22  C   UNL d   1       5.233  -1.847 -16.769  0.00  0.00     0.274 C 
ATOM     23  C   UNL d   1       4.585  -3.257 -18.573  0.00  0.00     0.286 C 
ATOM     24  C   UNL d   1       5.319  -0.398 -16.252  0.00  0.00     0.138 C 
ENDBRANCH   3  18
BRANCH   9  25
ATOM     25  S   UNL d   1      10.933   1.557 -19.399  0.00  0.00     0.252 S 
ATOM     26  O   UNL d   1       9.707   1.189 -20.127  0.00  0.00    -0.204 OA
ATOM     27  O   UNL d   1      11.879   2.526 -19.967  0.00  0.00    -0.204 OA
BRANCH  25  28
ATOM     28  C   UNL d   1      11.817   0.025 -18.842  0.00  0.00     0.145 C 
BRANCH  28  29
ATOM     29  C   UNL d   1      12.714  -0.590 -19.942  0.00  0.00     0.018 C 
ATOM     30  C   UNL d   1      14.059   0.146 -20.074  0.00  0.00     0.001 C 
ATOM     31  C   UNL d   1      11.998  -0.687 -21.301  0.00  0.00     0.001 C 
ENDBRANCH  28  29
ENDBRANCH  25  28
ENDBRANCH   9  25
TORSDOF 6
