REMARK  5 active torsions:
REMARK  status: ('A' for Active; 'I' for Inactive)
REMARK    1  A    between atoms: N_5  and  C_6 
REMARK    2  A    between atoms: C_6  and  C_7 
REMARK    3  A    between atoms: C_7  and  N_8 
REMARK    4  A    between atoms: N_11  and  C_12 
REMARK    5  A    between atoms: C_12  and  C_13 
ROOT
ATOM      1  N   UNL d   1       9.071   6.260 -10.401  0.00  0.00     0.143 N 
ATOM      2  C   UNL d   1       9.092   5.897  -8.981  0.00  0.00     0.286 C 
ATOM      3  C   UNL d   1       9.166   7.135  -8.069  0.00  0.00     0.286 C 
ATOM      4  N   UNL d   1      10.343   7.961  -8.369  0.00  0.00     0.146 N 
ATOM      5  C   UNL d   1      10.292   8.338  -9.776  0.00  0.00     0.286 C 
ATOM      6  C   UNL d   1      10.242   7.099 -10.669  0.00  0.00     0.286 C 
ENDROOT
BRANCH   1   7
ATOM      7  C   UNL d   1       9.007   5.075 -11.253  0.00  0.00     0.275 C 
BRANCH   7   8
ATOM      8  C   UNL d   1       8.778   5.369 -12.753  0.00  0.00     0.145 C 
BRANCH   8   9
ATOM      9  N   UNL d   1       9.158   4.222 -13.573  0.00  0.00    -0.291 N 
ATOM     10  C   UNL d   1      10.408   3.995 -14.034  0.00  0.00     0.300 A 
ATOM     11  C   UNL d   1      10.348   2.673 -14.822  0.00  0.00     0.253 A 
ATOM     12  O   UNL d   1      11.408   4.695 -13.872  0.00  0.00    -0.263 OA
ATOM     13  O   UNL d   1      11.284   2.130 -15.406  0.00  0.00    -0.281 OA
ATOM     14  C   UNL d   1       8.958   2.243 -14.716  0.00  0.00     0.060 A 
ATOM     15  C   UNL d   1       8.277   3.196 -13.968  0.00  0.00     0.066 A 
ATOM     16  C   UNL d   1       8.320   1.095 -15.211  0.00  0.00     0.005 A 
ATOM     17  C   UNL d   1       6.908   3.054 -13.666  0.00  0.00     0.017 A 
ATOM     18  C   UNL d   1       6.257   1.891 -14.133  0.00  0.00     0.002 A 
ATOM     19  C   UNL d   1       6.949   0.932 -14.912  0.00  0.00     0.000 A 
ENDBRANCH   8   9
ENDBRANCH   7   8
ENDBRANCH   1   7
BRANCH   4  20
ATOM     20  C   UNL d   1      10.432   9.123  -7.496  0.00  0.00     0.277 C 
BRANCH  20  21
ATOM     21  C   UNL d   1      10.943   8.815  -6.094  0.00  0.00     0.011 A 
ATOM     22  C   UNL d   1      10.988   9.857  -5.143  0.00  0.00    -0.002 A 
ATOM     23  C   UNL d   1      11.462   9.594  -3.841  0.00  0.00     0.011 A 
ATOM     24  C   UNL d   1      11.889   8.307  -3.482  0.00  0.00     0.058 A 
ATOM     25  C   UNL d   1      11.857   7.270  -4.426  0.00  0.00     0.011 A 
ATOM     26 CL   UNL d   1      12.478   8.028  -1.893  0.00  0.00    -0.082 Cl
ATOM     27  C   UNL d   1      11.397   7.520  -5.733  0.00  0.00    -0.002 A 
ENDBRANCH  20  21
ENDBRANCH   4  20
TORSDOF 5
