REMARK  7 active torsions:
REMARK  status: ('A' for Active; 'I' for Inactive)
REMARK       I    between atoms: C_2  and  N_3 
REMARK       I    between atoms: C_2  and  N_11 
REMARK    1  A    between atoms: N_3  and  C_4 
REMARK    2  A    between atoms: C_4  and  C_5 
REMARK    3  A    between atoms: N_11  and  C_12 
REMARK    4  A    between atoms: C_15  and  C_16 
REMARK    5  A    between atoms: C_16  and  C_17 
REMARK    6  A    between atoms: C_17  and  N_18 
REMARK    7  A    between atoms: N_21  and  C_22 
ROOT
ATOM      1  C   UNL d   1      10.325   6.892  -9.432  0.00  0.00     0.108 C 
ATOM      2  C   UNL d   1       9.232   5.948  -8.908  0.00  0.00     0.025 C 
ATOM      3  C   UNL d   1       8.750   4.985 -10.002  0.00  0.00     0.002 C 
ATOM      4  C   UNL d   1       8.281   5.741 -11.258  0.00  0.00     0.002 C 
ATOM      5  C   UNL d   1       9.364   6.732 -11.750  0.00  0.00     0.002 C 
ATOM      6  C   UNL d   1       9.849   7.687 -10.653  0.00  0.00     0.025 C 
ENDROOT
BRANCH   4   7
ATOM      7  C   UNL d   1       7.796   4.792 -12.370  0.00  0.00     0.035 C 
BRANCH   7   8
ATOM      8  C   UNL d   1       8.929   3.998 -13.064  0.00  0.00     0.250 C 
BRANCH   8   9
ATOM      9  N   UNL d   1       8.557   3.632 -14.417  0.00  0.00     0.141 N 
ATOM     10  C   UNL d   1       7.744   2.424 -14.362  0.00  0.00     0.274 C 
ATOM     11  C   UNL d   1       7.320   2.009 -15.766  0.00  0.00     0.138 C 
ATOM     12  N   UNL d   1       8.474   1.837 -16.643  0.00  0.00    -0.329 N 
ATOM     13  C   UNL d   1       9.398   2.970 -16.645  0.00  0.00     0.138 C 
ATOM     14  C   UNL d   1       9.763   3.363 -15.206  0.00  0.00     0.274 C 
BRANCH  12  15
ATOM     15  C   UNL d   1       8.706   0.654 -17.346  0.00  0.00     0.148 A 
ATOM     16  C   UNL d   1       7.626  -0.163 -17.909  0.00  0.00     0.042 A 
ATOM     17  C   UNL d   1       8.179  -1.303 -18.553  0.00  0.00     0.050 A 
ATOM     18  C   UNL d   1       6.212  -0.033 -17.944  0.00  0.00     0.004 A 
ATOM     19  S   UNL d   1       9.925  -1.206 -18.414  0.00  0.00     0.015 SA
ATOM     20  C   UNL d   1       7.375  -2.278 -19.168  0.00  0.00     0.008 A 
ATOM     21  N   UNL d   1       9.945   0.227 -17.559  0.00  0.00    -0.192 NA
ATOM     22  C   UNL d   1       5.973  -2.134 -19.156  0.00  0.00     0.001 A 
ATOM     23  C   UNL d   1       5.397  -1.008 -18.542  0.00  0.00     0.000 A 
ENDBRANCH  12  15
ENDBRANCH   8   9
ENDBRANCH   7   8
ENDBRANCH   4   7
BRANCH   1  24
ATOM     24  N   UNL d   1      10.700   7.794  -8.370  0.00  0.00    -0.220 NA
ATOM     25  C   UNL d   1      11.886   8.374  -8.175  0.00  0.00     0.360 C 
ATOM     26  O   UNL d   1      12.859   8.213  -8.914  0.00  0.00    -0.243 OA
ATOM     27  N   UNL d   1      11.928   9.179  -7.117  0.00  0.00    -0.213 NA
BRANCH  27  28
ATOM     28  C   UNL d   1      10.945   9.302  -6.032  0.00  0.00     0.157 C 
BRANCH  28  29
ATOM     29  C   UNL d   1      11.455   8.724  -4.728  0.00  0.00     0.002 A 
ATOM     30  C   UNL d   1      11.658   9.587  -3.643  0.00  0.00    -0.002 A 
ATOM     31  C   UNL d   1      12.086   9.086  -2.407  0.00  0.00    -0.000 A 
ATOM     32  C   UNL d   1      12.277   7.706  -2.234  0.00  0.00    -0.000 A 
ATOM     33  C   UNL d   1      12.070   6.827  -3.312  0.00  0.00    -0.000 A 
ATOM     34  C   UNL d   1      11.656   7.332  -4.561  0.00  0.00    -0.002 A 
ENDBRANCH  28  29
ENDBRANCH  27  28
ENDBRANCH   1  24
TORSDOF 7
