REMARK  5 active torsions:
REMARK  status: ('A' for Active; 'I' for Inactive)
REMARK    1  A    between atoms: N_2  and  N_3 
REMARK    2  A    between atoms: N_3  and  C_4 
REMARK    3  A    between atoms: C_4  and  C_5 
REMARK    4  A    between atoms: C_8  and  C_9 
REMARK       I    between atoms: C_9  and  N_11 
REMARK    5  A    between atoms: N_11  and  C_12 
ROOT
ATOM      1  C   UNL d   1      10.859   8.895  -6.982  0.00  0.00    -0.003 A 
ATOM      2  C   UNL d   1      10.951   8.889  -8.393  0.00  0.00    -0.003 A 
ATOM      3  C   UNL d   1      10.379   7.841  -9.137  0.00  0.00     0.004 A 
ATOM      4  C   UNL d   1       9.717   6.788  -8.473  0.00  0.00     0.058 A 
ATOM      5  C   UNL d   1       9.634   6.789  -7.070  0.00  0.00     0.004 A 
ATOM      6  C   UNL d   1      10.198   7.836  -6.328  0.00  0.00    -0.003 A 
ENDROOT
BRANCH   4   7
ATOM      7  C   UNL d   1       9.155   5.639  -9.246  0.00  0.00     0.275 C 
ATOM      8  O   UNL d   1       9.413   4.478  -8.925  0.00  0.00    -0.266 OA
ATOM      9  N   UNL d   1       8.374   5.988 -10.279  0.00  0.00    -0.236 NA
BRANCH   9  10
ATOM     10  C   UNL d   1       7.834   5.077 -11.276  0.00  0.00     0.107 C 
ATOM     11  C   UNL d   1       8.947   4.642 -12.245  0.00  0.00     0.026 C 
ATOM     12  C   UNL d   1       6.673   5.750 -12.026  0.00  0.00     0.026 C 
ENDBRANCH   9  10
ENDBRANCH   4   7
BRANCH   1  13
ATOM     13  C   UNL d   1      11.448  10.040  -6.176  0.00  0.00     0.136 C 
BRANCH  13  14
ATOM     14  N   UNL d   1      12.241   9.589  -5.034  0.00  0.00    -0.127 NA
BRANCH  14  15
ATOM     15  N   UNL d   1      11.510   9.552  -3.818  0.00  0.00    -0.130 NA
ATOM     16  C   UNL d   1      12.105   8.666  -2.821  0.00  0.00     0.130 C 
ENDBRANCH  14  15
ENDBRANCH  13  14
ENDBRANCH   1  13
TORSDOF 5
