REMARK  8 active torsions:
REMARK  status: ('A' for Active; 'I' for Inactive)
REMARK    1  A    between atoms: C_2  and  C_4 
REMARK    2  A    between atoms: C_4  and  C_6 
REMARK    3  A    between atoms: C_6  and  O_8 
REMARK    4  A    between atoms: O_8  and  C_9 
REMARK    5  A    between atoms: C_9  and  C_10 
REMARK    6  A    between atoms: C_10  and  O_11 
REMARK    7  A    between atoms: O_11  and  C_12 
REMARK    8  A    between atoms: C_12  and  N_13 
ROOT
ATOM      1  C   UNL d   1       8.473   6.166 -12.238  0.00  0.00     0.259 C 
ENDROOT
BRANCH   1   2
ATOM      2  O   UNL d   1       9.239   5.714 -11.166  0.00  0.00    -0.330 OA
BRANCH   2   3
ATOM      3  C   UNL d   1       8.551   5.740  -9.928  0.00  0.00     0.177 C 
BRANCH   3   4
ATOM      4  C   UNL d   1       9.421   5.122  -8.840  0.00  0.00     0.184 C 
BRANCH   4   5
ATOM      5  O   UNL d   1      10.447   6.031  -8.466  0.00  0.00    -0.297 OA
BRANCH   5   6
ATOM      6  C   UNL d   1      10.245   6.924  -7.483  0.00  0.00     0.309 C 
ATOM      7  O   UNL d   1       9.191   7.054  -6.862  0.00  0.00    -0.262 OA
BRANCH   6   8
ATOM      8  C   UNL d   1      11.538   7.737  -7.233  0.00  0.00     0.386 C 
ATOM      9  N   UNL d   1      11.849   8.673  -8.322  0.00  0.00     0.627 N 
BRANCH   8  10
ATOM     10  C   UNL d   1      11.604   8.449  -5.851  0.00  0.00     0.047 C 
ATOM     11  C   UNL d   1      11.516   7.445  -4.682  0.00  0.00     0.003 C 
ATOM     12  C   UNL d   1      10.584   9.587  -5.685  0.00  0.00     0.003 C 
ENDBRANCH   8  10
ENDBRANCH   6   8
ENDBRANCH   5   6
ENDBRANCH   4   5
ENDBRANCH   3   4
ENDBRANCH   2   3
ENDBRANCH   1   2
BRANCH   1  13
ATOM     13  N   UNL d   1       7.634   5.069 -12.702  0.00  0.00    -0.268 N 
ATOM     14  C   UNL d   1       6.301   4.847 -12.461  0.00  0.00     0.182 A 
ATOM     15  N   UNL d   1       5.835   3.770 -13.028  0.00  0.00    -0.217 NA
ATOM     16  C   UNL d   1       6.938   3.215 -13.673  0.00  0.00     0.176 A 
ATOM     17  C   UNL d   1       7.066   2.005 -14.440  0.00  0.00     0.316 A 
ATOM     18  C   UNL d   1       8.053   4.008 -13.474  0.00  0.00     0.188 A 
ATOM     19  N   UNL d   1       8.363   1.808 -14.913  0.00  0.00    -0.016 NA
ATOM     20  O   UNL d   1       6.209   1.166 -14.704  0.00  0.00    -0.263 OA
ATOM     21  C   UNL d   1       9.429   2.670 -14.662  0.00  0.00     0.773 A 
ATOM     22  N   UNL d   1       9.317   3.779 -13.957  0.00  0.00    -0.038 NA
ATOM     23  N   UNL d   1      10.618   2.335 -15.179  0.00  0.00     0.062 N 
ENDBRANCH   1  13
TORSDOF 8
