REMARK  8 active torsions:
REMARK  status: ('A' for Active; 'I' for Inactive)
REMARK    1  A    between atoms: C_6  and  O_7 
REMARK    2  A    between atoms: O_7  and  C_8 
REMARK    3  A    between atoms: C_8  and  C_9 
REMARK    4  A    between atoms: C_9  and  N_10 
REMARK    5  A    between atoms: C_13  and  C_14 
REMARK    6  A    between atoms: C_14  and  C_15 
REMARK    7  A    between atoms: C_19  and  N_20 
REMARK    8  A    between atoms: N_20  and  S_21 
ROOT
ATOM      1  N   UNL d   1       7.102   4.907 -12.408  0.00  0.00     0.140 N 
ATOM      2  C   UNL d   1       7.947   4.700 -13.585  0.00  0.00     0.250 C 
ATOM      3  C   UNL d   1       8.152   3.203 -13.843  0.00  0.00     0.036 C 
ATOM      4  C   UNL d   1       6.813   2.486 -14.024  0.00  0.00     0.008 C 
ATOM      5  C   UNL d   1       5.857   2.857 -12.866  0.00  0.00     0.036 C 
ATOM      6  C   UNL d   1       5.772   4.367 -12.645  0.00  0.00     0.250 C 
ENDROOT
BRANCH   1   7
ATOM      7  C   UNL d   1       6.951   6.337 -12.116  0.00  0.00     0.283 C 
BRANCH   7   8
ATOM      8  C   UNL d   1       8.291   7.031 -11.855  0.00  0.00     0.184 C 
BRANCH   8   9
ATOM      9  O   UNL d   1       8.821   6.625 -10.596  0.00  0.00    -0.329 OA
BRANCH   9  10
ATOM     10  C   UNL d   1       9.803   7.395 -10.017  0.00  0.00     0.096 C 
ATOM     11  C   UNL d   1      10.073   7.304  -8.634  0.00  0.00     0.040 A 
ATOM     12  C   UNL d   1       9.191   6.605  -7.796  0.00  0.00     0.005 A 
ATOM     13  C   UNL d   1      11.195   7.959  -8.046  0.00  0.00     0.083 A 
ATOM     14  C   UNL d   1       9.456   6.606  -6.414  0.00  0.00     0.015 A 
ATOM     15  C   UNL d   1      10.649   7.189  -5.946  0.00  0.00     0.059 A 
ATOM     16  C   UNL d   1      11.064   7.045  -4.505  0.00  0.00     0.052 C 
ATOM     17  N   UNL d   1      11.499   7.872  -6.737  0.00  0.00    -0.250 NA
ATOM     18  C   UNL d   1      12.043   8.714  -8.869  0.00  0.00     0.019 C 
ATOM     19  C   UNL d   1      11.741   8.864 -10.227  0.00  0.00     0.004 C 
ATOM     20  C   UNL d   1      10.597   8.278 -10.780  0.00  0.00     0.024 C 
ENDBRANCH   9  10
ENDBRANCH   8   9
ENDBRANCH   7   8
ENDBRANCH   1   7
BRANCH   4  21
ATOM     21  C   UNL d   1       7.025   0.960 -14.173  0.00  0.00     0.026 C 
BRANCH  21  22
ATOM     22  C   UNL d   1       5.774   0.201 -14.587  0.00  0.00    -0.021 A 
ATOM     23  C   UNL d   1       5.657  -0.264 -15.906  0.00  0.00     0.016 A 
ATOM     24  C   UNL d   1       4.516  -0.984 -16.306  0.00  0.00     0.093 A 
ATOM     25  C   UNL d   1       3.460  -1.182 -15.391  0.00  0.00     0.020 A 
ATOM     26  C   UNL d   1       3.551  -0.676 -14.081  0.00  0.00     0.001 A 
ATOM     27  C   UNL d   1       4.734  -0.014 -13.660  0.00  0.00    -0.004 A 
BRANCH  24  28
ATOM     28  N   UNL d   1       4.387  -1.500 -17.597  0.00  0.00    -0.162 NA
BRANCH  28  29
ATOM     29  S   UNL d   1       5.349  -1.158 -18.993  0.00  0.00     0.266 S 
ATOM     30  C   UNL d   1       6.945  -1.992 -18.616  0.00  0.00     0.165 C 
ATOM     31  O   UNL d   1       4.686  -1.865 -20.100  0.00  0.00    -0.203 OA
ATOM     32  O   UNL d   1       5.537   0.296 -19.028  0.00  0.00    -0.203 OA
ENDBRANCH  28  29
ENDBRANCH  24  28
ENDBRANCH  21  22
ENDBRANCH   4  21
TORSDOF 8
