REMARK  7 active torsions:
REMARK  status: ('A' for Active; 'I' for Inactive)
REMARK    1  A    between atoms: N_5  and  C_6 
REMARK    2  A    between atoms: C_6  and  C_7 
REMARK       I    between atoms: C_7  and  N_9 
REMARK    3  A    between atoms: N_9  and  C_10 
REMARK    4  A    between atoms: C_13  and  C_14 
REMARK    5  A    between atoms: C_14  and  C_15 
REMARK    6  A    between atoms: C_15  and  N_16 
REMARK    7  A    between atoms: C_19  and  C_20 
ROOT
ATOM      1  C   UNL d   1       7.990   4.418 -12.229  0.00  0.00     0.106 C 
ATOM      2  C   UNL d   1       6.449   4.356 -12.283  0.00  0.00     0.024 C 
ATOM      3  C   UNL d   1       5.965   3.036 -12.915  0.00  0.00     0.002 C 
ATOM      4  C   UNL d   1       6.613   2.761 -14.282  0.00  0.00     0.002 C 
ATOM      5  C   UNL d   1       8.155   2.909 -14.238  0.00  0.00     0.002 C 
ATOM      6  C   UNL d   1       8.605   4.241 -13.622  0.00  0.00     0.024 C 
ENDROOT
BRANCH   4   7
ATOM      7  C   UNL d   1       6.203   1.397 -14.891  0.00  0.00     0.035 C 
BRANCH   7   8
ATOM      8  C   UNL d   1       6.573   1.317 -16.387  0.00  0.00     0.250 C 
BRANCH   8   9
ATOM      9  N   UNL d   1       5.798   0.277 -17.048  0.00  0.00     0.137 N 
ATOM     10  C   UNL d   1       5.731   0.523 -18.490  0.00  0.00     0.251 C 
ATOM     11  C   UNL d   1       4.827  -0.525 -19.162  0.00  0.00     0.040 C 
ATOM     12  C   UNL d   1       5.345  -1.948 -18.904  0.00  0.00     0.028 C 
ATOM     13  C   UNL d   1       5.575  -2.150 -17.393  0.00  0.00     0.040 C 
ATOM     14  C   UNL d   1       6.421  -1.021 -16.801  0.00  0.00     0.251 C 
BRANCH  12  15
ATOM     15  C   UNL d   1       4.423  -2.994 -19.511  0.00  0.00     0.002 A 
ATOM     16  C   UNL d   1       4.715  -3.636 -20.724  0.00  0.00     0.115 A 
ATOM     17  C   UNL d   1       3.875  -4.584 -21.271  0.00  0.00     0.119 A 
ATOM     18  O   UNL d   1       5.795  -3.463 -21.538  0.00  0.00    -0.300 OA
ATOM     19  C   UNL d   1       2.680  -4.971 -20.636  0.00  0.00     0.026 A 
ATOM     20  O   UNL d   1       4.394  -5.033 -22.441  0.00  0.00    -0.300 OA
ATOM     21  C   UNL d   1       2.366  -4.353 -19.409  0.00  0.00     0.002 A 
ATOM     22  C   UNL d   1       3.206  -3.359 -18.865  0.00  0.00    -0.002 A 
ATOM     23  C   UNL d   1       5.599  -4.335 -22.621  0.00  0.00     0.304 A 
ENDBRANCH  12  15
ENDBRANCH   8   9
ENDBRANCH   7   8
ENDBRANCH   4   7
BRANCH   1  24
ATOM     24  N   UNL d   1       8.446   5.699 -11.667  0.00  0.00    -0.238 NA
ATOM     25  C   UNL d   1       9.064   5.807 -10.480  0.00  0.00     0.285 C 
ATOM     26  O   UNL d   1       9.174   4.868  -9.696  0.00  0.00    -0.268 OA
BRANCH  25  27
ATOM     27  C   UNL d   1       9.732   7.169 -10.216  0.00  0.00     0.339 C 
BRANCH  27  28
ATOM     28  N   UNL d   1      10.319   7.357  -8.885  0.00  0.00     0.151 N 
ATOM     29  C   UNL d   1       9.308   7.475  -7.823  0.00  0.00     0.286 C 
ATOM     30  C   UNL d   1       9.963   7.626  -6.445  0.00  0.00     0.286 C 
ATOM     31  N   UNL d   1      10.825   8.805  -6.386  0.00  0.00     0.143 N 
ATOM     32  C   UNL d   1      11.433   8.956  -5.075  0.00  0.00     0.285 C 
ATOM     33  C   UNL d   1      11.832   8.703  -7.441  0.00  0.00     0.286 C 
ATOM     34  C   UNL d   1      11.195   8.540  -8.833  0.00  0.00     0.286 C 
ENDBRANCH  27  28
ENDBRANCH  25  27
ENDBRANCH   1  24
TORSDOF 7
