REMARK  4 active torsions:
REMARK  status: ('A' for Active; 'I' for Inactive)
REMARK    1  A    between atoms: O_2  and  C_3 
REMARK    2  A    between atoms: N_14  and  C_15 
REMARK    3  A    between atoms: C_15  and  C_16 
REMARK    4  A    between atoms: C_16  and  N_17 
ROOT
ATOM      1  C   UNL d   1       7.162   0.870 -14.897  0.00  0.00     0.094 A 
ATOM      2  C   UNL d   1       8.332   1.555 -15.290  0.00  0.00     0.026 A 
ATOM      3  C   UNL d   1       8.572   2.873 -14.856  0.00  0.00     0.026 A 
ATOM      4  C   UNL d   1       7.633   3.528 -14.040  0.00  0.00     0.090 A 
ATOM      5  C   UNL d   1       6.451   2.853 -13.653  0.00  0.00     0.002 A 
ATOM      6  C   UNL d   1       6.237   1.534 -14.053  0.00  0.00     0.022 A 
ATOM      7  C   UNL d   1       5.394   3.514 -12.800  0.00  0.00     0.031 C 
ATOM      8  C   UNL d   1       5.645   5.009 -12.701  0.00  0.00     0.033 C 
ATOM      9  C   UNL d   1       7.149   5.312 -12.554  0.00  0.00     0.103 C 
ATOM     10  C   UNL d   1       7.367   6.822 -12.471  0.00  0.00     0.063 C 
ATOM     11  C   UNL d   1       8.825   7.170 -12.165  0.00  0.00     0.253 C 
ATOM     12  N   UNL d   1       9.194   6.547 -10.897  0.00  0.00     0.139 N 
ATOM     13  C   UNL d   1       9.160   5.085 -11.014  0.00  0.00     0.253 C 
ATOM     14  C   UNL d   1       7.715   4.684 -11.271  0.00  0.00     0.063 C 
ATOM     15  O   UNL d   1       7.884   4.824 -13.673  0.00  0.00    -0.336 OA
ENDROOT
BRANCH  12  16
ATOM     16  C   UNL d   1      10.513   7.003 -10.531  0.00  0.00     0.274 C 
BRANCH  16  17
ATOM     17  C   UNL d   1      10.939   6.752  -9.101  0.00  0.00     0.141 C 
BRANCH  17  18
ATOM     18  N   UNL d   1      10.014   7.264  -8.160  0.00  0.00    -0.297 N 
ATOM     19  C   UNL d   1       8.952   6.633  -7.684  0.00  0.00     0.342 C 
ATOM     20  N   UNL d   1       8.360   7.445  -6.837  0.00  0.00    -0.217 NA
ATOM     21  O   UNL d   1       8.554   5.505  -7.985  0.00  0.00    -0.245 OA
ATOM     22  C   UNL d   1       8.946   8.761  -6.856  0.00  0.00     0.155 C 
ATOM     23  C   UNL d   1      10.156   8.631  -7.740  0.00  0.00     0.132 C 
ENDBRANCH  17  18
ENDBRANCH  16  17
ENDBRANCH  12  16
BRANCH   1  24
ATOM     24  O   UNL d   1       6.972  -0.406 -15.384  0.00  0.00    -0.328 OA
ATOM     25  C   UNL d   1       5.826  -1.117 -14.930  0.00  0.00     0.181 C 
ENDBRANCH   1  24
TORSDOF 4
