REMARK  1 active torsions:
REMARK  status: ('A' for Active; 'I' for Inactive)
REMARK    1  A    between atoms: C_11  and  C_12 
ROOT
ATOM      1  O   UNL d   1      12.200   3.013 -15.962  0.00  0.00    -0.265 OA
ATOM      2  C   UNL d   1      11.183   3.433 -15.449  0.00  0.00     0.310 C 
ATOM      3  N   UNL d   1      10.159   2.589 -15.199  0.00  0.00    -0.208 NA
ATOM      4  C   UNL d   1       8.904   2.899 -14.648  0.00  0.00     0.086 A 
ATOM      5  C   UNL d   1       7.846   2.054 -15.050  0.00  0.00     0.020 A 
ATOM      6  C   UNL d   1       6.566   2.216 -14.489  0.00  0.00     0.013 A 
ATOM      7  C   UNL d   1       6.330   3.256 -13.548  0.00  0.00     0.058 A 
ATOM      8 CL   UNL d   1       4.822   3.522 -12.844  0.00  0.00    -0.082 Cl
ATOM      9  C   UNL d   1       7.374   4.094 -13.172  0.00  0.00     0.014 A 
ATOM     10  C   UNL d   1       8.671   3.950 -13.688  0.00  0.00     0.036 A 
ATOM     11  C   UNL d   1       9.680   4.863 -13.105  0.00  0.00     0.081 C 
ATOM     12  N   UNL d   1      10.707   5.218 -13.763  0.00  0.00    -0.233 NA
ATOM     13  C   UNL d   1      10.937   4.942 -15.165  0.00  0.00     0.335 C 
ATOM     14  O   UNL d   1      12.071   5.706 -15.547  0.00  0.00    -0.186 OA
ENDROOT
BRANCH  11  15
ATOM     15  C   UNL d   1       9.551   5.327 -11.682  0.00  0.00     0.028 A 
ATOM     16  C   UNL d   1       9.394   6.639 -11.197  0.00  0.00     0.059 A 
ATOM     17  C   UNL d   1       9.361   6.874  -9.805  0.00  0.00     0.011 A 
ATOM     18 CL   UNL d   1       9.101   7.976 -12.268  0.00  0.00    -0.082 Cl
ATOM     19  C   UNL d   1       9.322   5.821  -8.850  0.00  0.00     0.001 A 
ATOM     20  C   UNL d   1       9.457   4.508  -9.329  0.00  0.00     0.000 A 
ATOM     21  C   UNL d   1       9.597   4.303 -10.717  0.00  0.00     0.002 A 
ENDBRANCH  11  15
TORSDOF 1
