REMARK  0 active torsions:
REMARK  status: ('A' for Active; 'I' for Inactive)
ROOT
ATOM      1  C   UNL d   1      10.216   6.099  -7.769  0.00  0.00     0.038 C 
ATOM      2  C   UNL d   1      10.686   7.286  -6.991  0.00  0.00     0.003 A 
ATOM      3  S   UNL d   1      10.882   8.809  -7.793  0.00  0.00    -0.096 SA
ATOM      4  C   UNL d   1      11.380   9.565  -6.306  0.00  0.00     0.009 A 
ATOM      5  C   UNL d   1      11.735  10.987  -6.248  0.00  0.00     0.038 C 
ATOM      6  C   UNL d   1      11.403   8.684  -5.261  0.00  0.00     0.017 A 
ATOM      7  C   UNL d   1      10.980   7.398  -5.653  0.00  0.00    -0.018 A 
ATOM      8  C   UNL d   1      10.863   6.317  -4.639  0.00  0.00     0.031 C 
ATOM      9  C   UNL d   1      11.742   6.343  -3.383  0.00  0.00     0.034 C 
ATOM     10  C   UNL d   1      11.939   7.719  -2.983  0.00  0.00     0.018 C 
ATOM     11  C   UNL d   1      12.307   8.236  -1.784  0.00  0.00     0.119 C 
ATOM     12  N   UNL d   1      12.229   9.590  -1.994  0.00  0.00    -0.147 NA
ATOM     13  N   UNL d   1      11.844   9.957  -3.232  0.00  0.00    -0.148 NA
ATOM     14  C   UNL d   1      11.758   8.821  -3.859  0.00  0.00     0.100 C 
ENDROOT
TORSDOF 0
