REMARK  4 active torsions:
REMARK  status: ('A' for Active; 'I' for Inactive)
REMARK    1  A    between atoms: S_2  and  C_3 
REMARK    2  A    between atoms: S_2  and  C_19 
REMARK    3  A    between atoms: C_6  and  C_7 
REMARK    4  A    between atoms: C_8  and  C_9 
ROOT
ATOM      1  C   UNL d   1       8.623   5.797 -11.530  0.00  0.00     0.080 A 
ATOM      2  C   UNL d   1       8.329   4.847 -10.540  0.00  0.00     0.012 A 
ATOM      3  C   UNL d   1       8.904   5.011  -9.267  0.00  0.00     0.020 A 
ATOM      4  C   UNL d   1       9.700   6.141  -9.029  0.00  0.00     0.082 A 
ATOM      5  N   UNL d   1       9.942   7.087  -9.969  0.00  0.00    -0.243 NA
ATOM      6  C   UNL d   1       9.410   6.910 -11.199  0.00  0.00     0.108 A 
ENDROOT
BRANCH   4   7
ATOM      7  C   UNL d   1      10.279   6.349  -7.699  0.00  0.00     0.019 C 
ATOM      8  C   UNL d   1      10.396   7.539  -7.084  0.00  0.00     0.004 C 
BRANCH   8   9
ATOM      9  C   UNL d   1      11.002   7.790  -5.759  0.00  0.00     0.028 A 
ATOM     10  C   UNL d   1      11.162   9.113  -5.290  0.00  0.00     0.142 A 
ATOM     11  C   UNL d   1      11.742   9.363  -4.031  0.00  0.00     0.059 A 
ATOM     12  F   UNL d   1      10.763  10.156  -6.057  0.00  0.00    -0.204 F 
ATOM     13  C   UNL d   1      12.180   8.300  -3.218  0.00  0.00     0.142 A 
ATOM     14  C   UNL d   1      12.032   6.981  -3.673  0.00  0.00     0.030 A 
ATOM     15  F   UNL d   1      12.730   8.544  -2.006  0.00  0.00    -0.204 F 
ATOM     16  C   UNL d   1      11.449   6.733  -4.930  0.00  0.00     0.004 A 
ENDBRANCH   8   9
ENDBRANCH   4   7
BRANCH   1  17
ATOM     17  S   UNL d   1       7.900   5.631 -13.182  0.00  0.00     0.092 S 
ATOM     18  O   UNL d   1       6.484   5.106 -12.940  0.00  0.00    -0.247 OA
BRANCH  17  19
ATOM     19  C   UNL d   1       8.889   4.211 -13.743  0.00  0.00     0.088 A 
ATOM     20  C   UNL d   1      10.241   4.368 -14.084  0.00  0.00     0.148 A 
ATOM     21  C   UNL d   1      11.010   3.247 -14.453  0.00  0.00     0.030 A 
ATOM     22  F   UNL d   1      10.809   5.584 -14.044  0.00  0.00    -0.204 F 
ATOM     23  C   UNL d   1      10.414   1.968 -14.497  0.00  0.00     0.002 A 
ATOM     24  C   UNL d   1       9.044   1.818 -14.185  0.00  0.00     0.001 A 
ATOM     25  C   UNL d   1       8.275   2.948 -13.823  0.00  0.00     0.011 A 
ENDBRANCH  17  19
ENDBRANCH   1  17
TORSDOF 4
