REMARK  1 active torsions:
REMARK  status: ('A' for Active; 'I' for Inactive)
REMARK    1  A    between atoms: C_8  and  C_9 
ROOT
ATOM      1  N   UNL d   1       9.083   7.707 -12.178  0.00  0.00    -0.059 NA
ATOM      2  C   UNL d   1       9.464   7.559 -10.854  0.00  0.00     0.240 A 
ATOM      3  N   UNL d   1       9.278   6.348 -10.327  0.00  0.00    -0.199 NA
ATOM      4  C   UNL d   1       9.621   6.250  -9.043  0.00  0.00     0.174 A 
ATOM      5  N   UNL d   1       9.403   5.000  -8.483  0.00  0.00    -0.078 NA
ATOM      6  C   UNL d   1      10.201   7.287  -8.278  0.00  0.00     0.148 A 
ATOM      7  N   UNL d   1      10.521   7.154  -6.970  0.00  0.00    -0.237 NA
ATOM      8  C   UNL d   1      11.069   8.218  -6.349  0.00  0.00     0.113 A 
ATOM      9  C   UNL d   1      11.299   9.418  -7.059  0.00  0.00     0.170 A 
ATOM     10  N   UNL d   1      11.807  10.564  -6.444  0.00  0.00    -0.078 NA
ATOM     11  N   UNL d   1      11.037   9.529  -8.369  0.00  0.00    -0.209 NA
ATOM     12  C   UNL d   1      10.422   8.502  -8.993  0.00  0.00     0.186 A 
ATOM     13  N   UNL d   1      10.037   8.627 -10.279  0.00  0.00    -0.194 NA
ENDROOT
BRANCH   8  14
ATOM     14  C   UNL d   1      11.449   8.036  -4.922  0.00  0.00     0.020 A 
ATOM     15  C   UNL d   1      11.444   9.100  -3.976  0.00  0.00     0.002 A 
ATOM     16  C   UNL d   1      11.886   8.911  -2.662  0.00  0.00     0.000 A 
ATOM     17  C   UNL d   1      12.268   7.636  -2.236  0.00  0.00     0.000 A 
ATOM     18  C   UNL d   1      12.251   6.563  -3.130  0.00  0.00     0.000 A 
ATOM     19  C   UNL d   1      11.847   6.760  -4.461  0.00  0.00     0.002 A 
ENDBRANCH   8  14
TORSDOF 1
