REMARK  1 active torsions:
REMARK  status: ('A' for Active; 'I' for Inactive)
REMARK    1  A    between atoms: C_2  and  C_3 
ROOT
ATOM      1  C   UNL d   1      10.087   7.109  -7.388  0.00  0.00     0.062 C 
ATOM      2  C   UNL d   1      10.923   7.691  -6.243  0.00  0.00     0.002 A 
ATOM      3  C   UNL d   1      10.947   7.045  -4.979  0.00  0.00    -0.006 A 
ATOM      4  C   UNL d   1      11.694   7.569  -3.906  0.00  0.00    -0.022 A 
ATOM      5  C   UNL d   1      11.691   6.859  -2.566  0.00  0.00     0.031 C 
ATOM      6  C   UNL d   1      12.417   8.761  -4.085  0.00  0.00    -0.002 A 
ATOM      7  C   UNL d   1      12.407   9.411  -5.333  0.00  0.00     0.024 A 
ATOM      8  C   UNL d   1      11.693   8.871  -6.423  0.00  0.00     0.090 A 
ATOM      9  O   UNL d   1      11.754   9.533  -7.625  0.00  0.00    -0.329 OA
ATOM     10  C   UNL d   1      11.334   8.824  -8.796  0.00  0.00     0.186 C 
ATOM     11  C   UNL d   1       9.972   8.126  -8.559  0.00  0.00     0.301 C 
ATOM     12  C   UNL d   1       8.965   9.173  -8.160  0.00  0.00     0.042 C 
ATOM     13  N   UNL d   1       9.462   7.550  -9.796  0.00  0.00     0.617 N 
ENDROOT
BRANCH   1  14
ATOM     14  C   UNL d   1      10.740   5.834  -7.895  0.00  0.00     0.007 C 
ATOM     15  C   UNL d   1       9.770   4.771  -8.450  0.00  0.00     0.000 C 
ENDBRANCH   1  14
TORSDOF 1
