REMARK  9 active torsions:
REMARK  status: ('A' for Active; 'I' for Inactive)
REMARK    1  A    between atoms: C_2  and  C_3 
REMARK    2  A    between atoms: C_3  and  N_4 
REMARK    3  A    between atoms: C_15  and  N_16 
REMARK    4  A    between atoms: N_16  and  C_18 
REMARK    5  A    between atoms: C_18  and  C_19 
REMARK    6  A    between atoms: C_19  and  C_20 
REMARK    7  A    between atoms: C_20  and  C_21 
REMARK    8  A    between atoms: C_21  and  N_22 
REMARK       I    between atoms: N_22  and  C_23 
REMARK    9  A    between atoms: C_23  and  C_25 
ROOT
ATOM      1  N   UNL d   1       8.550   4.438 -13.671  0.00  0.00     0.139 N 
ATOM      2  C   UNL d   1       7.172   3.924 -13.598  0.00  0.00     0.285 C 
ENDROOT
BRANCH   1   3
ATOM      3  C   UNL d   1       9.312   3.875 -14.814  0.00  0.00     0.246 C 
ATOM      4  C   UNL d   1       9.317   2.320 -14.819  0.00  0.00     0.063 C 
ATOM      5  C   UNL d   1      10.149   1.701 -15.912  0.00  0.00    -0.003 A 
ATOM      6  C   UNL d   1      11.196   2.481 -16.391  0.00  0.00     0.076 A 
ATOM      7  C   UNL d   1      10.017   0.420 -16.484  0.00  0.00    -0.003 A 
ATOM      8  N   UNL d   1      11.507   3.788 -16.010  0.00  0.00    -0.279 N 
ATOM      9  C   UNL d   1      12.122   2.123 -17.341  0.00  0.00     0.080 A 
ATOM     10  C   UNL d   1      12.615   4.182 -16.656  0.00  0.00     0.332 A 
ATOM     11  C   UNL d   1      10.755   4.478 -14.991  0.00  0.00     0.144 C 
ATOM     12  N   UNL d   1      13.010   3.216 -17.506  0.00  0.00    -0.280 N 
ATOM     13  O   UNL d   1      13.201   5.278 -16.493  0.00  0.00    -0.246 OA
ATOM     14  C   UNL d   1      11.996   0.861 -17.915  0.00  0.00     0.019 A 
ATOM     15  C   UNL d   1      10.937   0.009 -17.489  0.00  0.00     0.001 A 
BRANCH  12  16
ATOM     16  C   UNL d   1      14.157   3.247 -18.411  0.00  0.00     0.111 C 
BRANCH  16  17
ATOM     17  C   UNL d   1      13.924   4.203 -19.604  0.00  0.00     0.025 C 
ATOM     18  C   UNL d   1      15.130   4.298 -20.556  0.00  0.00     0.002 C 
ENDBRANCH  16  17
ENDBRANCH  12  16
ENDBRANCH   1   3
BRANCH   1  19
ATOM     19  C   UNL d   1       9.239   4.254 -12.387  0.00  0.00     0.250 C 
BRANCH  19  20
ATOM     20  C   UNL d   1       8.483   4.893 -11.223  0.00  0.00     0.037 C 
BRANCH  20  21
ATOM     21  C   UNL d   1       9.397   5.084 -10.018  0.00  0.00     0.029 C 
BRANCH  21  22
ATOM     22  C   UNL d   1       8.613   5.618  -8.824  0.00  0.00     0.129 C 
BRANCH  22  23
ATOM     23  N   UNL d   1       9.505   6.119  -7.795  0.00  0.00    -0.233 NA
ATOM     24  C   UNL d   1      10.022   7.358  -7.748  0.00  0.00     0.293 C 
ATOM     25  O   UNL d   1       9.975   8.164  -8.679  0.00  0.00    -0.264 OA
BRANCH  24  26
ATOM     26  C   UNL d   1      10.591   7.757  -6.449  0.00  0.00     0.139 A 
ATOM     27  N   UNL d   1      11.067   6.784  -5.579  0.00  0.00    -0.241 NA
ATOM     28  C   UNL d   1      11.528   7.358  -4.415  0.00  0.00     0.082 A 
ATOM     29  C   UNL d   1      11.337   8.760  -4.569  0.00  0.00     0.019 A 
ATOM     30  C   UNL d   1      12.075   6.796  -3.250  0.00  0.00     0.019 A 
ATOM     31  C   UNL d   1      10.741   8.985  -5.859  0.00  0.00     0.025 A 
ATOM     32  C   UNL d   1      11.695   9.582  -3.481  0.00  0.00     0.002 A 
ATOM     33  C   UNL d   1      12.257   9.025  -2.309  0.00  0.00     0.000 A 
ATOM     34  C   UNL d   1      12.439   7.643  -2.193  0.00  0.00     0.002 A 
ENDBRANCH  24  26
ENDBRANCH  22  23
ENDBRANCH  21  22
ENDBRANCH  20  21
ENDBRANCH  19  20
ENDBRANCH   1  19
TORSDOF 9
