REMARK  6 active torsions:
REMARK  status: ('A' for Active; 'I' for Inactive)
REMARK    1  A    between atoms: S_2  and  C_4 
REMARK    2  A    between atoms: S_2  and  N_14 
REMARK    3  A    between atoms: C_18  and  C_19 
REMARK    4  A    between atoms: C_19  and  C_20 
REMARK    5  A    between atoms: C_20  and  N_21 
REMARK    6  A    between atoms: N_24  and  C_25 
ROOT
ATOM      1  N   UNL d   1      14.843   8.175 -20.415  0.00  0.00    -0.276 N 
ATOM      2  C   UNL d   1      14.825   7.223 -21.547  0.00  0.00     0.113 C 
ATOM      3  C   UNL d   1      13.743   7.769 -22.448  0.00  0.00     0.027 C 
ATOM      4  C   UNL d   1      12.658   8.263 -21.467  0.00  0.00     0.025 C 
ATOM      5  C   UNL d   1      13.441   8.688 -20.213  0.00  0.00     0.094 C 
ENDROOT
BRANCH   5   6
ATOM      6  C   UNL d   1      12.848   8.093 -18.935  0.00  0.00     0.058 C 
BRANCH   6   7
ATOM      7  C   UNL d   1      12.896   6.553 -18.880  0.00  0.00     0.252 C 
BRANCH   7   8
ATOM      8  N   UNL d   1      12.980   6.047 -17.517  0.00  0.00     0.141 N 
ATOM      9  C   UNL d   1      11.829   6.502 -16.744  0.00  0.00     0.274 C 
ATOM     10  C   UNL d   1      11.939   5.985 -15.313  0.00  0.00     0.137 C 
ATOM     11  N   UNL d   1      12.009   4.525 -15.291  0.00  0.00    -0.343 N 
ATOM     12  C   UNL d   1      13.090   4.020 -16.134  0.00  0.00     0.137 C 
ATOM     13  C   UNL d   1      12.980   4.585 -17.571  0.00  0.00     0.274 C 
BRANCH  11  14
ATOM     14  C   UNL d   1      10.794   3.826 -15.324  0.00  0.00     0.081 A 
ATOM     15  C   UNL d   1       9.823   4.042 -14.317  0.00  0.00     0.132 A 
ATOM     16  C   UNL d   1       8.592   3.331 -14.364  0.00  0.00     0.118 A 
ATOM     17  O   UNL d   1      10.086   4.929 -13.296  0.00  0.00    -0.325 OA
ATOM     18  C   UNL d   1       8.360   2.382 -15.379  0.00  0.00     0.026 A 
ATOM     19  O   UNL d   1       7.609   3.542 -13.432  0.00  0.00    -0.326 OA
ATOM     20  C   UNL d   1       9.319   2.158 -16.374  0.00  0.00     0.004 A 
ATOM     21  C   UNL d   1      10.523   2.876 -16.343  0.00  0.00     0.019 A 
ATOM     22  C   UNL d   1       7.770   4.714 -12.646  0.00  0.00     0.181 C 
ATOM     23  C   UNL d   1       9.227   4.829 -12.170  0.00  0.00     0.182 C 
ENDBRANCH  11  14
ENDBRANCH   7   8
ENDBRANCH   6   7
ENDBRANCH   5   6
BRANCH   1  24
ATOM     24  S   UNL d   1      16.168   9.314 -20.112  0.00  0.00     0.266 S 
ATOM     25  O   UNL d   1      15.856  10.081 -18.909  0.00  0.00    -0.200 OA
ATOM     26  O   UNL d   1      16.419  10.053 -21.377  0.00  0.00    -0.200 OA
BRANCH  24  27
ATOM     27  C   UNL d   1      17.625   8.297 -19.748  0.00  0.00     0.122 A 
ATOM     28  C   UNL d   1      18.277   7.489 -20.716  0.00  0.00     0.015 A 
ATOM     29  C   UNL d   1      19.351   6.668 -20.308  0.00  0.00     0.020 A 
ATOM     30  C   UNL d   1      17.892   7.469 -22.077  0.00  0.00     0.001 C 
ATOM     31  C   UNL d   1      19.811   6.786 -18.980  0.00  0.00     0.099 A 
ATOM     32  C   UNL d   1      19.963   5.787 -21.226  0.00  0.00     0.002 C 
ATOM     33  N   UNL d   1      19.252   7.604 -18.059  0.00  0.00    -0.242 NA
ATOM     34  C   UNL d   1      18.168   8.319 -18.436  0.00  0.00     0.112 A 
ATOM     35  C   UNL d   1      19.459   5.670 -22.541  0.00  0.00     0.000 C 
ATOM     36  C   UNL d   1      18.414   6.513 -22.962  0.00  0.00     0.000 C 
ENDBRANCH  24  27
ENDBRANCH   1  24
TORSDOF 6
