REMARK  6 active torsions:
REMARK  status: ('A' for Active; 'I' for Inactive)
REMARK    1  A    between atoms: N_10  and  C_11 
REMARK    2  A    between atoms: C_14  and  O_15 
REMARK    3  A    between atoms: O_15  and  C_16 
REMARK    4  A    between atoms: C_16  and  C_17 
REMARK    5  A    between atoms: C_21  and  C_22 
REMARK    6  A    between atoms: C_23  and  C_24 
ROOT
ATOM      1  C   UNL d   1       9.183   4.257 -13.818  0.00  0.00     0.008 A 
ATOM      2  C   UNL d   1       7.856   3.800 -13.930  0.00  0.00    -0.002 A 
ATOM      3  C   UNL d   1       6.964   3.995 -12.860  0.00  0.00    -0.000 A 
ATOM      4  C   UNL d   1       7.408   4.603 -11.670  0.00  0.00    -0.000 A 
ATOM      5  C   UNL d   1       8.744   5.026 -11.528  0.00  0.00    -0.000 A 
ATOM      6  C   UNL d   1       9.620   4.871 -12.623  0.00  0.00    -0.002 A 
ENDROOT
BRANCH   1   7
ATOM      7  C   UNL d   1      10.153   4.057 -14.959  0.00  0.00     0.175 C 
BRANCH   7   8
ATOM      8  O   UNL d   1      10.981   5.202 -15.135  0.00  0.00    -0.326 OA
BRANCH   8   9
ATOM      9  C   UNL d   1      11.948   5.165 -16.111  0.00  0.00     0.095 A 
ATOM     10  C   UNL d   1      12.604   6.376 -16.412  0.00  0.00     0.026 A 
ATOM     11  C   UNL d   1      13.610   6.421 -17.398  0.00  0.00     0.020 A 
ATOM     12  C   UNL d   1      13.983   5.245 -18.085  0.00  0.00     0.065 A 
ATOM     13  C   UNL d   1      13.359   4.022 -17.753  0.00  0.00     0.020 A 
ATOM     14  C   UNL d   1      12.327   3.987 -16.801  0.00  0.00     0.026 A 
BRANCH  12  15
ATOM     15  N   UNL d   1      15.001   5.303 -19.065  0.00  0.00    -0.294 N 
ATOM     16  C   UNL d   1      14.846   4.813 -20.327  0.00  0.00     0.125 A 
ATOM     17  C   UNL d   1      13.586   4.186 -20.852  0.00  0.00     0.072 C 
ATOM     18  N   UNL d   1      15.920   4.954 -21.105  0.00  0.00    -0.229 NA
ATOM     19  C   UNL d   1      16.826   5.613 -20.290  0.00  0.00     0.118 A 
ATOM     20  C   UNL d   1      16.272   5.856 -19.002  0.00  0.00     0.086 A 
ATOM     21  C   UNL d   1      18.157   6.045 -20.534  0.00  0.00     0.119 A 
ATOM     22  C   UNL d   1      17.027   6.501 -18.012  0.00  0.00     0.040 A 
ATOM     23  C   UNL d   1      18.334   6.893 -18.353  0.00  0.00     0.101 A 
ATOM     24  N   UNL d   1      18.880   6.661 -19.564  0.00  0.00    -0.241 NA
ENDBRANCH  12  15
ENDBRANCH   8   9
ENDBRANCH   7   8
ENDBRANCH   1   7
BRANCH   5  25
ATOM     25  C   UNL d   1       9.156   5.660 -10.264  0.00  0.00     0.002 C 
ATOM     26  C   UNL d   1      10.103   6.603 -10.128  0.00  0.00     0.026 C 
BRANCH  26  27
ATOM     27  C   UNL d   1      10.519   7.175  -8.851  0.00  0.00     0.111 A 
ATOM     28  S   UNL d   1      11.072   8.847  -8.770  0.00  0.00    -0.066 SA
ATOM     29  C   UNL d   1      11.254   8.670  -7.025  0.00  0.00     0.049 A 
ATOM     30  C   UNL d   1      10.904   7.341  -6.649  0.00  0.00     0.090 A 
ATOM     31  C   UNL d   1      11.684   9.620  -6.076  0.00  0.00     0.010 A 
ATOM     32  N   UNL d   1      10.458   6.518  -7.683  0.00  0.00    -0.238 NA
ATOM     33  C   UNL d   1      11.058   6.990  -5.288  0.00  0.00     0.049 A 
ATOM     34  C   UNL d   1      11.510   7.924  -4.339  0.00  0.00     0.142 A 
ATOM     35  F   UNL d   1      11.656   7.555  -3.044  0.00  0.00    -0.204 F 
ATOM     36  C   UNL d   1      11.806   9.241  -4.725  0.00  0.00     0.030 A 
ENDBRANCH  26  27
ENDBRANCH   5  25
TORSDOF 6
