REMARK  8 active torsions:
REMARK  status: ('A' for Active; 'I' for Inactive)
REMARK    1  A    between atoms: C_2  and  O_3 
REMARK    2  A    between atoms: O_3  and  C_4 
REMARK    3  A    between atoms: C_9  and  C_10 
REMARK       I    between atoms: C_10  and  N_12 
REMARK    4  A    between atoms: N_12  and  C_13 
REMARK    5  A    between atoms: N_16  and  C_17 
REMARK    6  A    between atoms: C_17  and  C_18 
REMARK    7  A    between atoms: C_18  and  O_19 
REMARK    8  A    between atoms: O_19  and  C_20 
ROOT
ATOM      1  C   UNL d   1       8.233   5.750 -11.804  0.00  0.00     0.111 C 
ATOM      2  C   UNL d   1       9.462   6.651 -11.951  0.00  0.00     0.060 C 
ATOM      3  C   UNL d   1       9.821   7.377 -10.643  0.00  0.00     0.252 C 
ATOM      4  N   UNL d   1       9.953   6.421  -9.517  0.00  0.00     0.140 N 
ATOM      5  C   UNL d   1       8.700   5.681  -9.323  0.00  0.00     0.252 C 
ATOM      6  C   UNL d   1       8.378   4.867 -10.558  0.00  0.00     0.060 C 
ENDROOT
BRANCH   1   7
ATOM      7  N   UNL d   1       8.039   4.913 -12.995  0.00  0.00    -0.236 NA
ATOM      8  C   UNL d   1       8.892   3.979 -13.460  0.00  0.00     0.277 C 
ATOM      9  O   UNL d   1      10.075   3.886 -13.119  0.00  0.00    -0.266 OA
BRANCH   8  10
ATOM     10  C   UNL d   1       8.264   2.982 -14.391  0.00  0.00     0.080 A 
ATOM     11  C   UNL d   1       8.953   2.538 -15.550  0.00  0.00     0.099 A 
ATOM     12  C   UNL d   1       8.329   1.594 -16.392  0.00  0.00     0.024 A 
ATOM     13  C   UNL d   1       7.093   1.035 -16.028  0.00  0.00     0.002 A 
ATOM     14  C   UNL d   1       6.412   1.452 -14.868  0.00  0.00     0.000 A 
ATOM     15  C   UNL d   1       6.986   2.450 -14.063  0.00  0.00     0.007 A 
BRANCH  11  16
ATOM     16  O   UNL d   1      10.233   3.009 -15.769  0.00  0.00    -0.331 OA
BRANCH  16  17
ATOM     17  C   UNL d   1      11.006   2.490 -16.843  0.00  0.00     0.149 C 
ATOM     18  C   UNL d   1      11.406   1.001 -16.653  0.00  0.00     0.035 C 
ENDBRANCH  16  17
ENDBRANCH  11  16
ENDBRANCH   8  10
ENDBRANCH   1   7
BRANCH   4  19
ATOM     19  C   UNL d   1      10.371   7.186  -8.354  0.00  0.00     0.283 C 
BRANCH  19  20
ATOM     20  C   UNL d   1      10.029   6.551  -6.993  0.00  0.00     0.184 C 
BRANCH  20  21
ATOM     21  O   UNL d   1      11.140   6.532  -6.129  0.00  0.00    -0.329 OA
BRANCH  21  22
ATOM     22  C   UNL d   1      11.278   7.568  -5.254  0.00  0.00     0.096 A 
ATOM     23  C   UNL d   1      11.872   7.262  -4.016  0.00  0.00     0.054 A 
ATOM     24  C   UNL d   1      12.093   8.284  -3.080  0.00  0.00     0.142 A 
ATOM     25  C   UNL d   1      11.715   9.605  -3.395  0.00  0.00     0.030 A 
ATOM     26  F   UNL d   1      12.658   7.993  -1.885  0.00  0.00    -0.204 F 
ATOM     27  C   UNL d   1      11.099   9.908  -4.630  0.00  0.00     0.004 A 
ATOM     28  C   UNL d   1      10.883   8.890  -5.562  0.00  0.00     0.024 A 
ENDBRANCH  21  22
ENDBRANCH  20  21
ENDBRANCH  19  20
ENDBRANCH   4  19
TORSDOF 8
