REMARK  9 active torsions:
REMARK  status: ('A' for Active; 'I' for Inactive)
REMARK    1  A    between atoms: O_2  and  C_3 
REMARK    2  A    between atoms: C_8  and  N_9 
REMARK    3  A    between atoms: N_12  and  C_13 
REMARK    4  A    between atoms: C_13  and  C_14 
REMARK    5  A    between atoms: C_14  and  C_16 
REMARK    6  A    between atoms: C_16  and  C_17 
REMARK    7  A    between atoms: C_17  and  N_18 
REMARK       I    between atoms: N_18  and  C_19 
REMARK    8  A    between atoms: C_19  and  C_21 
REMARK    9  A    between atoms: C_24  and  C_25 
ROOT
ATOM      1  C   UNL d   1       8.833   3.830 -14.169  0.00  0.00     0.196 C 
ATOM      2  F   UNL d   1       9.695   4.397 -15.013  0.00  0.00    -0.235 F 
ENDROOT
BRANCH   1   3
ATOM      3  C   UNL d   1       8.865   2.296 -14.334  0.00  0.00     0.285 C 
BRANCH   3   4
ATOM      4  N   UNL d   1       8.521   1.890 -15.696  0.00  0.00     0.144 N 
ATOM      5  C   UNL d   1       7.064   1.757 -15.830  0.00  0.00     0.274 C 
ATOM      6  C   UNL d   1       6.686   1.384 -17.278  0.00  0.00     0.137 C 
ATOM      7  N   UNL d   1       7.366   0.158 -17.672  0.00  0.00    -0.343 N 
ATOM      8  C   UNL d   1       8.807   0.158 -17.459  0.00  0.00     0.137 C 
ATOM      9  C   UNL d   1       9.131   0.590 -16.009  0.00  0.00     0.274 C 
BRANCH   7  10
ATOM     10  C   UNL d   1       6.672  -0.991 -18.103  0.00  0.00     0.079 A 
ATOM     11  C   UNL d   1       5.487  -1.442 -17.458  0.00  0.00     0.110 A 
ATOM     12  C   UNL d   1       4.806  -2.572 -17.973  0.00  0.00     0.026 A 
ATOM     13  C   UNL d   1       5.298  -3.263 -19.097  0.00  0.00     0.002 A 
ATOM     14  C   UNL d   1       6.478  -2.831 -19.721  0.00  0.00     0.002 A 
ATOM     15  C   UNL d   1       7.161  -1.702 -19.227  0.00  0.00     0.019 A 
BRANCH  11  16
ATOM     16  O   UNL d   1       5.066  -0.764 -16.328  0.00  0.00    -0.327 OA
ATOM     17  C   UNL d   1       3.884  -1.186 -15.676  0.00  0.00     0.181 C 
ENDBRANCH  11  16
ENDBRANCH   7  10
ENDBRANCH   3   4
ENDBRANCH   1   3
BRANCH   1  18
ATOM     18  C   UNL d   1       9.199   4.280 -12.744  0.00  0.00     0.064 C 
BRANCH  18  19
ATOM     19  C   UNL d   1       8.986   5.787 -12.500  0.00  0.00     0.132 C 
BRANCH  19  20
ATOM     20  N   UNL d   1       9.412   6.158 -11.155  0.00  0.00    -0.234 NA
ATOM     21  C   UNL d   1       9.715   7.406 -10.761  0.00  0.00     0.275 C 
ATOM     22  O   UNL d   1       9.685   8.386 -11.505  0.00  0.00    -0.266 OA
BRANCH  21  23
ATOM     23  C   UNL d   1      10.158   7.530  -9.333  0.00  0.00     0.058 A 
ATOM     24  C   UNL d   1       9.488   6.821  -8.312  0.00  0.00     0.005 A 
ATOM     25  C   UNL d   1       9.891   6.957  -6.972  0.00  0.00     0.002 A 
ATOM     26  C   UNL d   1      10.959   7.809  -6.615  0.00  0.00     0.018 A 
ATOM     27  C   UNL d   1      11.607   8.537  -7.640  0.00  0.00     0.002 A 
ATOM     28  C   UNL d   1      11.209   8.404  -8.987  0.00  0.00     0.005 A 
BRANCH  26  29
ATOM     29  C   UNL d   1      11.374   7.941  -5.207  0.00  0.00     0.081 A 
ATOM     30  N   UNL d   1      11.470   6.789  -4.502  0.00  0.00    -0.244 NA
ATOM     31  C   UNL d   1      11.861   6.843  -3.214  0.00  0.00     0.099 A 
ATOM     32  C   UNL d   1      12.163   8.047  -2.551  0.00  0.00     0.021 A 
ATOM     33  C   UNL d   1      12.052   9.246  -3.273  0.00  0.00     0.003 A 
ATOM     34  C   UNL d   1      11.660   9.195  -4.624  0.00  0.00     0.019 A 
ENDBRANCH  26  29
ENDBRANCH  21  23
ENDBRANCH  19  20
ENDBRANCH  18  19
ENDBRANCH   1  18
TORSDOF 9
