REMARK  3 active torsions:
REMARK  status: ('A' for Active; 'I' for Inactive)
REMARK    1  A    between atoms: C_8  and  O_9 
REMARK    2  A    between atoms: O_9  and  C_10 
REMARK    3  A    between atoms: C_10  and  C_11 
ROOT
ATOM      1  C   UNL d   1       8.300   6.813  -6.461  0.00  0.00     0.033 C 
ATOM      2  C   UNL d   1       9.059   6.762  -7.750  0.00  0.00     0.000 A 
ATOM      3  C   UNL d   1       8.663   5.799  -8.701  0.00  0.00    -0.002 A 
ATOM      4  C   UNL d   1       9.269   5.777  -9.957  0.00  0.00    -0.001 A 
ATOM      5  C   UNL d   1      10.249   6.732 -10.269  0.00  0.00    -0.002 A 
ATOM      6  C   UNL d   1      10.693   7.674  -9.317  0.00  0.00     0.000 A 
ATOM      7  C   UNL d   1      11.812   8.642  -9.664  0.00  0.00     0.033 C 
ATOM      8  C   UNL d   1      10.097   7.694  -8.036  0.00  0.00     0.086 A 
ENDROOT
BRANCH   8   9
ATOM      9  O   UNL d   1      10.515   8.636  -7.125  0.00  0.00    -0.329 OA
BRANCH   9  10
ATOM     10  C   UNL d   1      11.134   8.117  -5.965  0.00  0.00     0.188 C 
BRANCH  10  11
ATOM     11  C   UNL d   1      11.772   9.251  -5.158  0.00  0.00     0.332 C 
ATOM     12  C   UNL d   1      12.353   8.724  -3.839  0.00  0.00     0.044 C 
ATOM     13  N   UNL d   1      10.730  10.202  -4.834  0.00  0.00     0.619 N 
ENDBRANCH  10  11
ENDBRANCH   9  10
ENDBRANCH   8   9
TORSDOF 3
