REMARK  7 active torsions:
REMARK  status: ('A' for Active; 'I' for Inactive)
REMARK    1  A    between atoms: C_8  and  O_9 
REMARK    2  A    between atoms: O_9  and  C_10 
REMARK    3  A    between atoms: C_10  and  C_11 
REMARK    4  A    between atoms: C_11  and  C_12 
REMARK    5  A    between atoms: C_12  and  C_13 
REMARK    6  A    between atoms: C_13  and  N_14 
REMARK    7  A    between atoms: N_17  and  C_18 
ROOT
ATOM      1  N   UNL d   1       8.749   6.060 -10.874  0.00  0.00     0.141 N 
ATOM      2  C   UNL d   1       7.494   5.961 -11.656  0.00  0.00     0.274 C 
ATOM      3  C   UNL d   1       7.742   5.478 -13.096  0.00  0.00     0.137 C 
ATOM      4  N   UNL d   1       8.519   4.252 -13.059  0.00  0.00    -0.343 N 
ATOM      5  C   UNL d   1       9.696   4.186 -12.184  0.00  0.00     0.137 C 
ATOM      6  C   UNL d   1       9.351   4.724 -10.778  0.00  0.00     0.274 C 
ENDROOT
BRANCH   1   7
ATOM      7  C   UNL d   1       9.716   7.020 -11.405  0.00  0.00     0.251 C 
BRANCH   7   8
ATOM      8  C   UNL d   1       9.264   8.470 -11.321  0.00  0.00     0.038 C 
BRANCH   8   9
ATOM      9  C   UNL d   1       9.479   9.029  -9.935  0.00  0.00     0.035 C 
BRANCH   9  10
ATOM     10  C   UNL d   1      10.971   9.151  -9.571  0.00  0.00     0.149 C 
BRANCH  10  11
ATOM     11  O   UNL d   1      11.124   9.681  -8.273  0.00  0.00    -0.331 OA
BRANCH  11  12
ATOM     12  C   UNL d   1      11.172   8.880  -7.184  0.00  0.00     0.096 A 
ATOM     13  C   UNL d   1      10.684   7.557  -7.204  0.00  0.00     0.024 A 
ATOM     14  C   UNL d   1      10.807   6.780  -6.069  0.00  0.00    -0.001 A 
ATOM     15  C   UNL d   1      11.433   7.285  -4.919  0.00  0.00    -0.004 A 
ATOM     16  C   UNL d   1      11.664   6.386  -3.753  0.00  0.00     0.038 C 
ATOM     17  C   UNL d   1      11.873   8.617  -4.867  0.00  0.00     0.082 A 
ATOM     18  C   UNL d   1      11.659   7.121  -2.420  0.00  0.00     0.095 C 
ATOM     19  C   UNL d   1      12.478   8.414  -2.509  0.00  0.00     0.256 C 
ATOM     20  O   UNL d   1      13.054   8.777  -1.508  0.00  0.00    -0.270 OA
ATOM     21  N   UNL d   1      12.527   9.070  -3.687  0.00  0.00    -0.212 NA
ATOM     22  C   UNL d   1      11.758   9.418  -6.012  0.00  0.00     0.043 A 
ENDBRANCH  11  12
ENDBRANCH  10  11
ENDBRANCH   9  10
ENDBRANCH   8   9
ENDBRANCH   7   8
ENDBRANCH   1   7
BRANCH   4  23
ATOM     23  C   UNL d   1       8.139   3.168 -13.827  0.00  0.00     0.081 A 
ATOM     24  C   UNL d   1       9.098   2.411 -14.553  0.00  0.00     0.132 A 
ATOM     25  C   UNL d   1       8.707   1.259 -15.268  0.00  0.00     0.118 A 
ATOM     26  O   UNL d   1      10.421   2.827 -14.540  0.00  0.00    -0.325 OA
ATOM     27  C   UNL d   1       7.356   0.871 -15.271  0.00  0.00     0.026 A 
ATOM     28  O   UNL d   1       9.622   0.502 -15.968  0.00  0.00    -0.326 OA
ATOM     29  C   UNL d   1       6.399   1.597 -14.559  0.00  0.00     0.004 A 
ATOM     30  C   UNL d   1       6.784   2.765 -13.856  0.00  0.00     0.019 A 
ATOM     31  C   UNL d   1      10.979   0.772 -15.632  0.00  0.00     0.181 C 
ATOM     32  C   UNL d   1      11.221   2.281 -15.565  0.00  0.00     0.182 C 
ENDBRANCH   4  23
TORSDOF 7
