REMARK  6 active torsions:
REMARK  status: ('A' for Active; 'I' for Inactive)
REMARK    1  A    between atoms: C_2  and  N_3 
REMARK    2  A    between atoms: C_7  and  C_8 
REMARK    3  A    between atoms: C_8  and  N_9 
REMARK       I    between atoms: N_9  and  C_10 
REMARK    4  A    between atoms: C_10  and  C_12 
REMARK    5  A    between atoms: C_13  and  O_14 
REMARK    6  A    between atoms: C_21  and  N_22 
ROOT
ATOM      1  C   UNL d   1       9.383   6.696 -10.216  0.00  0.00     0.104 C 
ATOM      2  C   UNL d   1       9.956   7.941 -10.554  0.00  0.00     0.126 C 
ATOM      3  C   UNL d   1      10.777   8.643  -9.649  0.00  0.00     0.154 C 
ATOM      4  O   UNL d   1      11.466   9.749  -9.989  0.00  0.00    -0.188 OA
ATOM      5  C   UNL d   1      10.956   8.194  -8.358  0.00  0.00     0.038 C 
ATOM      6  C   UNL d   1      10.303   7.060  -7.941  0.00  0.00     0.059 C 
ATOM      7 BR   UNL d   1      10.614   6.820  -6.080  0.00  0.00    -0.047 Br
ATOM      8  C   UNL d   1       9.524   6.284  -8.853  0.00  0.00     0.139 C 
ENDROOT
BRANCH   1   9
ATOM      9  C   UNL d   1       8.571   5.901 -11.237  0.00  0.00     0.279 C 
ATOM     10  N   UNL d   1       9.041   5.911 -12.484  0.00  0.00    -0.232 NA
ATOM     11  O   UNL d   1       7.563   5.259 -10.965  0.00  0.00    -0.265 OA
BRANCH  10  12
ATOM     12  C   UNL d   1       8.406   5.162 -13.562  0.00  0.00     0.162 C 
BRANCH  12  13
ATOM     13  C   UNL d   1       8.971   3.734 -13.513  0.00  0.00     0.243 C 
ATOM     14  N   UNL d   1       8.415   2.877 -14.556  0.00  0.00     0.137 N 
ATOM     15  C   UNL d   1       9.348   1.754 -14.543  0.00  0.00     0.250 C 
ATOM     16  C   UNL d   1      10.734   2.372 -14.452  0.00  0.00     0.037 C 
ATOM     17  C   UNL d   1      10.487   3.703 -13.771  0.00  0.00     0.037 C 
BRANCH  14  18
ATOM     18  C   UNL d   1       7.042   2.480 -14.264  0.00  0.00     0.250 C 
ATOM     19  C   UNL d   1       6.515   1.468 -15.289  0.00  0.00     0.037 C 
ENDBRANCH  14  18
ENDBRANCH  12  13
ENDBRANCH  10  12
ENDBRANCH   1   9
BRANCH   8  20
ATOM     20  N   UNL d   1       8.827   5.106  -8.435  0.00  0.00    -0.113 N 
ATOM     21  O   UNL d   1       7.874   5.311  -7.716  0.00  0.00    -0.532 OA
ATOM     22  O   UNL d   1       9.234   4.015  -8.829  0.00  0.00    -0.532 OA
ENDBRANCH   8  20
BRANCH   2  23
ATOM     23  O   UNL d   1       9.819   8.425 -11.816  0.00  0.00    -0.326 OA
ATOM     24  C   UNL d   1       8.643   9.165 -12.064  0.00  0.00     0.181 C 
ENDBRANCH   2  23
TORSDOF 6
