REMARK  7 active torsions:
REMARK  status: ('A' for Active; 'I' for Inactive)
REMARK    1  A    between atoms: N_7  and  C_8 
REMARK    2  A    between atoms: C_8  and  C_9 
REMARK    3  A    between atoms: C_9  and  C_11 
REMARK    4  A    between atoms: C_11  and  N_12 
REMARK    5  A    between atoms: N_15  and  C_16 
REMARK    6  A    between atoms: C_16  and  C_17 
REMARK    7  A    between atoms: C_16  and  C_23 
ROOT
ATOM      1  N   UNL d   1      11.425   2.948 -15.964  0.00  0.00     0.144 N 
ATOM      2  C   UNL d   1      12.077   3.746 -14.930  0.00  0.00     0.286 C 
ATOM      3  C   UNL d   1      11.213   3.800 -13.649  0.00  0.00     0.286 C 
ATOM      4  N   UNL d   1       9.901   4.405 -13.875  0.00  0.00     0.147 N 
ATOM      5  C   UNL d   1       9.304   3.582 -14.926  0.00  0.00     0.286 C 
ATOM      6  C   UNL d   1      10.112   3.527 -16.206  0.00  0.00     0.286 C 
ENDROOT
BRANCH   1   7
ATOM      7  C   UNL d   1      12.210   2.867 -17.183  0.00  0.00     0.285 C 
BRANCH   7   8
ATOM      8  C   UNL d   1      11.655   1.894 -18.248  0.00  0.00     0.208 C 
ATOM      9  O   UNL d   1      12.556   1.910 -19.333  0.00  0.00    -0.219 OA
BRANCH   8  10
ATOM     10  C   UNL d   1      11.493   0.435 -17.746  0.00  0.00     0.148 C 
BRANCH  10  11
ATOM     11  N   UNL d   1      10.099  -0.025 -17.829  0.00  0.00    -0.247 N 
ATOM     12  C   UNL d   1       9.211   0.064 -16.822  0.00  0.00     0.348 A 
ATOM     13  N   UNL d   1       8.026  -0.373 -17.256  0.00  0.00    -0.213 NA
ATOM     14  O   UNL d   1       9.423   0.465 -15.686  0.00  0.00    -0.245 OA
ATOM     15  C   UNL d   1       8.076  -0.882 -18.608  0.00  0.00     0.160 A 
ATOM     16  C   UNL d   1       7.792  -2.396 -18.636  0.00  0.00     0.034 C 
ATOM     17  C   UNL d   1       9.538  -0.574 -18.914  0.00  0.00     0.261 A 
ATOM     18  C   UNL d   1       7.116  -0.087 -19.506  0.00  0.00     0.034 C 
ATOM     19  O   UNL d   1      10.080  -0.812 -19.995  0.00  0.00    -0.270 OA
ENDBRANCH  10  11
ENDBRANCH   8  10
ENDBRANCH   7   8
ENDBRANCH   1   7
BRANCH   4  20
ATOM     20  C   UNL d   1       9.116   4.415 -12.610  0.00  0.00     0.264 C 
BRANCH  20  21
ATOM     21  C   UNL d   1       7.596   4.403 -12.807  0.00  0.00     0.013 A 
ATOM     22  C   UNL d   1       6.944   3.223 -13.240  0.00  0.00    -0.002 A 
ATOM     23  C   UNL d   1       5.564   3.195 -13.454  0.00  0.00    -0.000 A 
ATOM     24  C   UNL d   1       4.833   4.371 -13.304  0.00  0.00    -0.000 A 
ATOM     25  C   UNL d   1       5.461   5.527 -12.841  0.00  0.00    -0.000 A 
ATOM     26  C   UNL d   1       6.821   5.542 -12.589  0.00  0.00    -0.002 A 
ENDBRANCH  20  21
BRANCH  20  27
ATOM     27  C   UNL d   1       9.488   5.586 -11.694  0.00  0.00     0.013 A 
ATOM     28  C   UNL d   1       9.817   5.366 -10.338  0.00  0.00    -0.002 A 
ATOM     29  C   UNL d   1      10.166   6.440  -9.495  0.00  0.00    -0.000 A 
ATOM     30  C   UNL d   1      10.138   7.758  -9.985  0.00  0.00    -0.000 A 
ATOM     31  C   UNL d   1       9.746   7.995 -11.313  0.00  0.00    -0.000 A 
ATOM     32  C   UNL d   1       9.457   6.916 -12.167  0.00  0.00    -0.002 A 
ENDBRANCH  20  27
ENDBRANCH   4  20
TORSDOF 7
