REMARK  10 active torsions:
REMARK  status: ('A' for Active; 'I' for Inactive)
REMARK    1  A    between atoms: O_2  and  C_3 
REMARK    2  A    between atoms: C_8  and  C_9 
REMARK    3  A    between atoms: C_11  and  C_12 
REMARK    4  A    between atoms: C_12  and  N_13 
REMARK    5  A    between atoms: N_13  and  C_14 
REMARK    6  A    between atoms: C_14  and  C_15 
REMARK    7  A    between atoms: C_15  and  C_16 
REMARK    8  A    between atoms: C_19  and  N_20 
REMARK    9  A    between atoms: N_20  and  S_21 
REMARK   10  A    between atoms: S_21  and  C_24 
ROOT
ATOM      1  C   UNL d   1       7.465   4.049 -12.875  0.00  0.00     0.002 C 
ATOM      2  C   UNL d   1       8.812   3.467 -13.392  0.00  0.00     0.002 C 
ATOM      3  C   UNL d   1       8.776   3.088 -14.873  0.00  0.00     0.025 C 
ATOM      4  C   UNL d   1       7.606   2.134 -15.146  0.00  0.00     0.116 C 
ATOM      5  C   UNL d   1       6.257   2.693 -14.631  0.00  0.00     0.025 C 
ATOM      6  C   UNL d   1       6.250   3.120 -13.182  0.00  0.00     0.002 C 
ENDROOT
BRANCH   1   7
ATOM      7  C   UNL d   1       7.469   4.435 -11.379  0.00  0.00     0.038 C 
BRANCH   7   8
ATOM      8  C   UNL d   1       8.828   4.916 -10.835  0.00  0.00     0.290 C 
BRANCH   8   9
ATOM      9  N   UNL d   1       8.738   5.188  -9.416  0.00  0.00     0.339 N 
BRANCH   9  10
ATOM     10  C   UNL d   1      10.050   5.509  -8.883  0.00  0.00     0.290 C 
BRANCH  10  11
ATOM     11  C   UNL d   1       9.919   6.518  -7.774  0.00  0.00     0.041 A 
ATOM     12  C   UNL d   1      11.102   7.345  -7.337  0.00  0.00     0.026 A 
ATOM     13  C   UNL d   1       9.974   7.988  -8.113  0.00  0.00     0.007 A 
BRANCH  12  14
ATOM     14  C   UNL d   1      11.349   7.669  -5.907  0.00  0.00    -0.000 A 
ATOM     15  C   UNL d   1      11.469   9.004  -5.477  0.00  0.00     0.090 A 
ATOM     16  C   UNL d   1      11.710   9.292  -4.113  0.00  0.00     0.024 A 
ATOM     17  C   UNL d   1      11.857   8.259  -3.169  0.00  0.00     0.002 A 
ATOM     18  C   UNL d   1      11.734   6.927  -3.596  0.00  0.00    -0.000 A 
ATOM     19  C   UNL d   1      11.489   6.647  -4.947  0.00  0.00    -0.002 A 
BRANCH  15  20
ATOM     20  O   UNL d   1      11.318   9.933  -6.482  0.00  0.00    -0.328 OA
ATOM     21  C   UNL d   1      11.891  11.177  -6.207  0.00  0.00     0.181 C 
ENDBRANCH  15  20
ENDBRANCH  12  14
ENDBRANCH  10  11
ENDBRANCH   9  10
ENDBRANCH   8   9
ENDBRANCH   7   8
ENDBRANCH   1   7
BRANCH   4  22
ATOM     22  N   UNL d   1       7.533   1.857 -16.590  0.00  0.00    -0.187 NA
BRANCH  22  23
ATOM     23  S   UNL d   1       7.300   0.228 -17.104  0.00  0.00     0.281 S 
ATOM     24  O   UNL d   1       8.647  -0.358 -17.264  0.00  0.00    -0.199 OA
ATOM     25  O   UNL d   1       6.300  -0.376 -16.231  0.00  0.00    -0.199 OA
BRANCH  23  26
ATOM     26  C   UNL d   1       6.589   0.461 -18.729  0.00  0.00     0.105 A 
ATOM     27  C   UNL d   1       7.399   0.915 -19.789  0.00  0.00     0.013 A 
ATOM     28  C   UNL d   1       6.832   1.112 -21.064  0.00  0.00     0.001 A 
ATOM     29  C   UNL d   1       5.462   0.848 -21.273  0.00  0.00     0.000 A 
ATOM     30  C   UNL d   1       4.663   0.391 -20.207  0.00  0.00     0.001 A 
ATOM     31  C   UNL d   1       5.221   0.193 -18.934  0.00  0.00     0.013 A 
ENDBRANCH  23  26
ENDBRANCH  22  23
ENDBRANCH   4  22
TORSDOF 10
