REMARK  9 active torsions:
REMARK  status: ('A' for Active; 'I' for Inactive)
REMARK    1  A    between atoms: C_2  and  C_3 
REMARK    2  A    between atoms: C_7  and  N_8 
REMARK    3  A    between atoms: N_11  and  C_12 
REMARK    4  A    between atoms: C_12  and  C_13 
REMARK    5  A    between atoms: C_13  and  C_14 
REMARK    6  A    between atoms: C_14  and  C_15 
REMARK    7  A    between atoms: C_14  and  C_23 
REMARK    8  A    between atoms: C_19  and  O_20 
REMARK    9  A    between atoms: C_27  and  O_28 
ROOT
ATOM      1  C   UNL d   1       9.150   3.853 -15.987  0.00  0.00     0.044 C 
ENDROOT
BRANCH   1   2
ATOM      2  C   UNL d   1       9.886   3.648 -14.633  0.00  0.00     0.251 C 
BRANCH   2   3
ATOM      3  N   UNL d   1       9.151   4.232 -13.523  0.00  0.00     0.141 N 
ATOM      4  C   UNL d   1       9.161   5.690 -13.633  0.00  0.00     0.274 C 
ATOM      5  C   UNL d   1       8.497   6.325 -12.422  0.00  0.00     0.137 C 
ATOM      6  N   UNL d   1       9.217   5.902 -11.236  0.00  0.00    -0.344 N 
ATOM      7  C   UNL d   1       9.374   4.462 -11.102  0.00  0.00     0.137 C 
ATOM      8  C   UNL d   1       9.975   3.881 -12.374  0.00  0.00     0.274 C 
BRANCH   6   9
ATOM      9  C   UNL d   1       9.636   6.832 -10.261  0.00  0.00     0.067 A 
ATOM     10  C   UNL d   1      10.226   8.035 -10.694  0.00  0.00     0.018 A 
ATOM     11  C   UNL d   1      10.712   8.965  -9.760  0.00  0.00     0.001 A 
ATOM     12  C   UNL d   1      10.553   8.733  -8.392  0.00  0.00    -0.003 A 
ATOM     13  C   UNL d   1       9.918   7.556  -7.944  0.00  0.00    -0.010 A 
ATOM     14  C   UNL d   1       9.457   6.600  -8.884  0.00  0.00     0.069 A 
ATOM     15 CL   UNL d   1       8.643   5.182  -8.331  0.00  0.00    -0.081 Cl
BRANCH  13  16
ATOM     16  C   UNL d   1       9.745   7.338  -6.458  0.00  0.00     0.027 C 
ATOM     17  C   UNL d   1      11.059   6.923  -5.794  0.00  0.00     0.005 C 
ENDBRANCH  13  16
ENDBRANCH   6   9
ENDBRANCH   2   3
ENDBRANCH   1   2
BRANCH   1  18
ATOM     18  C   UNL d   1       9.960   3.611 -17.280  0.00  0.00     0.047 C 
BRANCH  18  19
ATOM     19  C   UNL d   1      10.232   2.136 -17.588  0.00  0.00    -0.016 A 
ATOM     20  C   UNL d   1      10.655   1.767 -18.879  0.00  0.00     0.020 A 
ATOM     21  C   UNL d   1      10.942   0.397 -19.188  0.00  0.00     0.094 A 
ATOM     22  C   UNL d   1      10.811  -0.570 -18.157  0.00  0.00     0.024 A 
ATOM     23  C   UNL d   1      10.367  -0.197 -16.885  0.00  0.00     0.002 A 
ATOM     24  C   UNL d   1      10.035   1.143 -16.559  0.00  0.00    -0.004 A 
BRANCH  21  25
ATOM     25  O   UNL d   1      11.326  -0.059 -20.418  0.00  0.00    -0.328 OA
ATOM     26  C   UNL d   1      11.456   0.899 -21.459  0.00  0.00     0.181 C 
ENDBRANCH  21  25
ENDBRANCH  18  19
BRANCH  18  27
ATOM     27  C   UNL d   1      11.217   4.484 -17.379  0.00  0.00    -0.016 A 
ATOM     28  C   UNL d   1      11.246   5.630 -18.213  0.00  0.00     0.020 A 
ATOM     29  C   UNL d   1      12.405   6.452 -18.291  0.00  0.00     0.094 A 
ATOM     30  C   UNL d   1      13.522   6.142 -17.489  0.00  0.00     0.024 A 
ATOM     31  C   UNL d   1      13.488   5.022 -16.636  0.00  0.00     0.002 A 
ATOM     32  C   UNL d   1      12.362   4.184 -16.606  0.00  0.00    -0.004 A 
BRANCH  29  33
ATOM     33  O   UNL d   1      12.539   7.539 -19.131  0.00  0.00    -0.328 OA
ATOM     34  C   UNL d   1      11.409   7.932 -19.894  0.00  0.00     0.181 C 
ENDBRANCH  29  33
ENDBRANCH  18  27
ENDBRANCH   1  18
TORSDOF 9
