REMARK  3 active torsions:
REMARK  status: ('A' for Active; 'I' for Inactive)
REMARK    1  A    between atoms: C_7  and  C_8 
REMARK    2  A    between atoms: N_10  and  S_11 
REMARK    3  A    between atoms: S_11  and  C_14 
ROOT
ATOM      1  C   UNL d   1       9.258   4.849 -12.209  0.00  0.00     0.039 A 
ATOM      2  C   UNL d   1      10.249   4.498 -13.090  0.00  0.00     0.093 A 
ATOM      3  N   UNL d   1       9.777   3.599 -14.030  0.00  0.00    -0.231 N 
ATOM      4  C   UNL d   1       8.441   3.354 -13.795  0.00  0.00     0.075 A 
ATOM      5  C   UNL d   1       7.512   2.520 -14.442  0.00  0.00     0.018 A 
ATOM      6  C   UNL d   1       6.202   2.441 -13.946  0.00  0.00     0.002 A 
ATOM      7  C   UNL d   1       5.819   3.220 -12.839  0.00  0.00     0.000 A 
ATOM      8  C   UNL d   1       6.751   4.062 -12.202  0.00  0.00     0.002 A 
ATOM      9  C   UNL d   1       8.089   4.140 -12.658  0.00  0.00     0.020 A 
ENDROOT
BRANCH   3  10
ATOM     10  S   UNL d   1      10.734   2.935 -15.287  0.00  0.00     0.271 S 
ATOM     11  O   UNL d   1      12.103   3.407 -15.030  0.00  0.00    -0.200 OA
ATOM     12  O   UNL d   1      10.415   1.498 -15.328  0.00  0.00    -0.200 OA
BRANCH  10  13
ATOM     13  C   UNL d   1      10.129   3.755 -16.755  0.00  0.00     0.104 A 
ATOM     14  C   UNL d   1       9.528   3.010 -17.789  0.00  0.00     0.013 A 
ATOM     15  C   UNL d   1       9.074   3.678 -18.944  0.00  0.00     0.001 A 
ATOM     16  C   UNL d   1       9.202   5.078 -19.050  0.00  0.00     0.000 A 
ATOM     17  C   UNL d   1       9.806   5.814 -18.013  0.00  0.00     0.001 A 
ATOM     18  C   UNL d   1      10.269   5.152 -16.861  0.00  0.00     0.013 A 
ENDBRANCH  10  13
ENDBRANCH   3  10
BRANCH   1  19
ATOM     19  C   UNL d   1       9.383   5.741 -11.059  0.00  0.00     0.116 A 
ATOM     20  C   UNL d   1       9.159   5.580  -9.708  0.00  0.00     0.096 A 
ATOM     21  C   UNL d   1       8.664   4.396  -8.960  0.00  0.00     0.054 C 
ATOM     22  N   UNL d   1       9.511   6.739  -9.022  0.00  0.00    -0.061 NA
ATOM     23  C   UNL d   1       9.894   7.569  -9.978  0.00  0.00     0.768 A 
ATOM     24  N   UNL d   1      10.343   8.861  -9.805  0.00  0.00     0.062 N 
ATOM     25  N   UNL d   1       9.841   7.037 -11.197  0.00  0.00    -0.057 NA
ENDBRANCH   1  19
TORSDOF 3
