REMARK  15 active torsions:
REMARK  status: ('A' for Active; 'I' for Inactive)
REMARK    1  A    between atoms: C_2  and  C_3 
REMARK    2  A    between atoms: C_3  and  C_4 
REMARK    3  A    between atoms: C_4  and  C_5 
REMARK    4  A    between atoms: C_5  and  C_6 
REMARK    5  A    between atoms: C_6  and  C_7 
REMARK    6  A    between atoms: C_7  and  C_8 
REMARK    7  A    between atoms: C_8  and  C_9 
REMARK    8  A    between atoms: C_9  and  C_10 
REMARK    9  A    between atoms: C_10  and  C_11 
REMARK   10  A    between atoms: C_11  and  C_12 
REMARK   11  A    between atoms: C_12  and  C_13 
REMARK   12  A    between atoms: C_13  and  C_14 
REMARK   13  A    between atoms: C_14  and  C_15 
REMARK   14  A    between atoms: C_15  and  C_16 
REMARK   15  A    between atoms: C_16  and  N_17 
ROOT
ATOM      1  C   UNL d   1       9.442   5.236 -11.032  0.00  0.00     0.000 C 
ENDROOT
BRANCH   1   2
ATOM      2  C   UNL d   1       8.342   4.772 -11.986  0.00  0.00     0.000 C 
BRANCH   2   3
ATOM      3  C   UNL d   1       8.898   3.839 -13.066  0.00  0.00     0.000 C 
BRANCH   3   4
ATOM      4  C   UNL d   1       7.783   3.214 -13.899  0.00  0.00     0.000 C 
BRANCH   4   5
ATOM      5  C   UNL d   1       8.326   2.151 -14.884  0.00  0.00     0.000 C 
BRANCH   5   6
ATOM      6  C   UNL d   1       7.257   1.137 -15.316  0.00  0.00     0.000 C 
BRANCH   6   7
ATOM      7  C   UNL d   1       6.851   0.158 -14.185  0.00  0.00     0.000 C 
BRANCH   7   8
ATOM      8  C   UNL d   1       5.781  -0.853 -14.602  0.00  0.00     0.000 C 
BRANCH   8   9
ATOM      9  C   UNL d   1       4.426  -0.196 -14.928  0.00  0.00     0.000 C 
BRANCH   9  10
ATOM     10  C   UNL d   1       3.410  -1.167 -15.535  0.00  0.00     0.000 C 
ATOM     11  C   UNL d   1       3.788  -1.622 -16.964  0.00  0.00     0.000 C 
ENDBRANCH   9  10
ENDBRANCH   8   9
ENDBRANCH   7   8
ENDBRANCH   6   7
ENDBRANCH   5   6
ENDBRANCH   4   5
ENDBRANCH   3   4
ENDBRANCH   2   3
ENDBRANCH   1   2
BRANCH   1  12
ATOM     12  C   UNL d   1       8.955   6.303 -10.046  0.00  0.00     0.000 C 
BRANCH  12  13
ATOM     13  C   UNL d   1      10.029   6.693  -9.023  0.00  0.00     0.000 C 
BRANCH  13  14
ATOM     14  C   UNL d   1       9.550   7.867  -8.178  0.00  0.00     0.002 C 
BRANCH  14  15
ATOM     15  C   UNL d   1      10.568   8.323  -7.135  0.00  0.00     0.025 C 
BRANCH  15  16
ATOM     16  C   UNL d   1      11.002   7.230  -6.130  0.00  0.00     0.106 C 
BRANCH  16  17
ATOM     17  N   UNL d   1      11.473   7.742  -4.823  0.00  0.00    -0.325 N 
ATOM     18  C   UNL d   1      11.842   6.841  -3.877  0.00  0.00     0.076 A 
ATOM     19  C   UNL d   1      12.254   7.230  -2.578  0.00  0.00     0.019 A 
ATOM     20  C   UNL d   1      12.274   8.604  -2.275  0.00  0.00     0.003 A 
ATOM     21  C   UNL d   1      11.887   9.530  -3.271  0.00  0.00     0.019 A 
ATOM     22  C   UNL d   1      11.521   9.075  -4.551  0.00  0.00     0.076 A 
ENDBRANCH  16  17
ENDBRANCH  15  16
ENDBRANCH  14  15
ENDBRANCH  13  14
ENDBRANCH  12  13
ENDBRANCH   1  12
TORSDOF 15
