REMARK  7 active torsions:
REMARK  status: ('A' for Active; 'I' for Inactive)
REMARK       I    between atoms: C_2  and  N_4 
REMARK    1  A    between atoms: N_4  and  C_5 
REMARK    2  A    between atoms: C_8  and  O_9 
REMARK    3  A    between atoms: O_9  and  C_10 
REMARK    4  A    between atoms: C_10  and  C_11 
REMARK    5  A    between atoms: C_11  and  C_12 
REMARK    6  A    between atoms: C_12  and  N_13 
REMARK    7  A    between atoms: C_16  and  C_17 
ROOT
ATOM      1  N   UNL d   1       8.875   5.913  -9.585  0.00  0.00     0.137 N 
ATOM      2  C   UNL d   1      10.315   6.145  -9.617  0.00  0.00     0.251 C 
ATOM      3  C   UNL d   1      10.759   7.223  -8.627  0.00  0.00     0.041 C 
ATOM      4  C   UNL d   1      10.351   6.847  -7.197  0.00  0.00     0.047 C 
ATOM      5  C   UNL d   1       8.865   6.462  -7.177  0.00  0.00     0.041 C 
ATOM      6  C   UNL d   1       8.541   5.407  -8.251  0.00  0.00     0.251 C 
ENDROOT
BRANCH   1   7
ATOM      7  C   UNL d   1       8.515   4.913 -10.596  0.00  0.00     0.253 C 
BRANCH   7   8
ATOM      8  C   UNL d   1       8.458   5.505 -12.023  0.00  0.00     0.068 C 
BRANCH   8   9
ATOM      9  C   UNL d   1       8.638   4.393 -13.089  0.00  0.00     0.151 C 
BRANCH   9  10
ATOM     10  O   UNL d   1       8.646   4.897 -14.427  0.00  0.00    -0.331 OA
BRANCH  10  11
ATOM     11  C   UNL d   1       9.803   4.864 -15.167  0.00  0.00     0.094 A 
ATOM     12  C   UNL d   1      11.089   4.783 -14.617  0.00  0.00     0.026 A 
ATOM     13  C   UNL d   1      12.210   4.678 -15.446  0.00  0.00     0.021 A 
ATOM     14  C   UNL d   1      12.072   4.725 -16.862  0.00  0.00     0.081 A 
ATOM     15  C   UNL d   1      10.799   4.914 -17.429  0.00  0.00    -0.002 A 
ATOM     16  C   UNL d   1       9.672   4.999 -16.591  0.00  0.00     0.021 A 
ATOM     17  C   UNL d   1      10.614   5.011 -18.942  0.00  0.00     0.033 C 
BRANCH  14  18
ATOM     18  N   UNL d   1      13.197   4.545 -17.699  0.00  0.00    -0.212 NA
ATOM     19  C   UNL d   1      14.435   5.023 -17.474  0.00  0.00     0.256 C 
ATOM     20  C   UNL d   1      15.440   4.719 -18.562  0.00  0.00     0.100 C 
ATOM     21  O   UNL d   1      14.773   5.685 -16.504  0.00  0.00    -0.270 OA
ENDBRANCH  14  18
ENDBRANCH  10  11
ENDBRANCH   9  10
ENDBRANCH   8   9
ENDBRANCH   7   8
ENDBRANCH   1   7
BRANCH   4  22
ATOM     22  C   UNL d   1      10.669   7.950  -6.227  0.00  0.00     0.087 A 
ATOM     23  C   UNL d   1      11.322   7.949  -4.972  0.00  0.00     0.041 A 
ATOM     24  C   UNL d   1      11.339   9.245  -4.457  0.00  0.00     0.129 A 
ATOM     25  C   UNL d   1      11.855   6.889  -4.207  0.00  0.00     0.006 A 
ATOM     26  O   UNL d   1      10.701  10.024  -5.410  0.00  0.00    -0.211 OA
ATOM     27  C   UNL d   1      11.864   9.564  -3.206  0.00  0.00     0.057 A 
ATOM     28  N   UNL d   1      10.269   9.203  -6.477  0.00  0.00    -0.131 NA
ATOM     29  C   UNL d   1      12.411   8.513  -2.442  0.00  0.00     0.142 A 
ATOM     30  F   UNL d   1      12.974   8.768  -1.242  0.00  0.00    -0.204 F 
ATOM     31  C   UNL d   1      12.396   7.183  -2.933  0.00  0.00     0.030 A 
ENDBRANCH   4  22
TORSDOF 7
