REMARK  3 active torsions:
REMARK  status: ('A' for Active; 'I' for Inactive)
REMARK    1  A    between atoms: C_2  and  C_3 
REMARK    2  A    between atoms: N_12  and  C_13 
REMARK    3  A    between atoms: C_13  and  C_14 
ROOT
ATOM      1  C   UNL d   1       8.819   8.576  -7.680  0.00  0.00     0.004 C 
ATOM      2  C   UNL d   1      10.120   7.754  -7.889  0.00  0.00     0.023 C 
ATOM      3  C   UNL d   1       9.780   6.306  -8.390  0.00  0.00     0.039 C 
ATOM      4  C   UNL d   1       9.222   6.223  -9.803  0.00  0.00     0.251 C 
ATOM      5  N   UNL d   1      10.116   6.847 -10.747  0.00  0.00     0.141 N 
ATOM      6  C   UNL d   1      10.373   8.244 -10.409  0.00  0.00     0.251 C 
ATOM      7  C   UNL d   1      10.999   8.396  -8.997  0.00  0.00     0.039 C 
ENDROOT
BRANCH   5   8
ATOM      8  C   UNL d   1       9.559   6.758 -12.100  0.00  0.00     0.278 C 
BRANCH   8   9
ATOM      9  C   UNL d   1       9.470   5.418 -12.800  0.00  0.00     0.032 A 
ATOM     10  C   UNL d   1       8.257   4.707 -13.082  0.00  0.00     0.017 A 
ATOM     11  C   UNL d   1       8.607   3.475 -13.732  0.00  0.00     0.081 A 
ATOM     12  C   UNL d   1       6.884   4.952 -12.848  0.00  0.00     0.001 A 
ATOM     13  N   UNL d   1       9.973   3.465 -13.801  0.00  0.00    -0.244 NA
ATOM     14  C   UNL d   1       7.635   2.559 -14.147  0.00  0.00     0.019 A 
ATOM     15  C   UNL d   1      10.489   4.638 -13.270  0.00  0.00     0.097 A 
ATOM     16  C   UNL d   1       6.276   2.812 -13.874  0.00  0.00     0.002 A 
ATOM     17  C   UNL d   1       5.909   4.016 -13.247  0.00  0.00     0.000 A 
ENDBRANCH   8   9
ENDBRANCH   5   8
BRANCH   2  18
ATOM     18  C   UNL d   1      10.872   7.806  -6.540  0.00  0.00    -0.023 A 
ATOM     19  C   UNL d   1      11.292   6.625  -5.877  0.00  0.00    -0.003 A 
ATOM     20  C   UNL d   1      11.817   6.688  -4.571  0.00  0.00     0.011 A 
ATOM     21  C   UNL d   1      11.960   7.902  -3.897  0.00  0.00     0.058 A 
ATOM     22  C   UNL d   1      11.627   9.096  -4.574  0.00  0.00     0.011 A 
ATOM     23 CL   UNL d   1      12.498   7.965  -2.264  0.00  0.00    -0.082 Cl
ATOM     24  C   UNL d   1      11.106   9.045  -5.888  0.00  0.00    -0.003 A 
ENDBRANCH   2  18
TORSDOF 3
