REMARK  7 active torsions:
REMARK  status: ('A' for Active; 'I' for Inactive)
REMARK    1  A    between atoms: O_2  and  C_3 
REMARK    2  A    between atoms: C_8  and  N_9 
REMARK    3  A    between atoms: N_12  and  C_13 
REMARK    4  A    between atoms: C_13  and  C_14 
REMARK    5  A    between atoms: C_14  and  C_16 
REMARK    6  A    between atoms: C_16  and  N_17 
REMARK    7  A    between atoms: C_21  and  C_23 
ROOT
ATOM      1  N   UNL d   1      10.442   4.467 -19.637  0.00  0.00    -0.247 N 
ATOM      2  C   UNL d   1      10.625   5.495 -18.749  0.00  0.00     0.348 A 
ATOM      3  O   UNL d   1      10.803   5.463 -17.544  0.00  0.00    -0.245 OA
ATOM      4  N   UNL d   1      10.589   6.617 -19.471  0.00  0.00    -0.209 NA
ATOM      5  C   UNL d   1      10.474   6.417 -20.901  0.00  0.00     0.179 A 
ATOM      6  C   UNL d   1      11.752   6.997 -21.529  0.00  0.00     0.039 C 
ATOM      7  C   UNL d   1      10.440   4.887 -20.906  0.00  0.00     0.265 A 
ATOM      8  O   UNL d   1      10.466   4.185 -21.947  0.00  0.00    -0.269 OA
ENDROOT
BRANCH   1   9
ATOM      9  C   UNL d   1      10.341   3.033 -19.258  0.00  0.00     0.148 C 
BRANCH   9  10
ATOM     10  C   UNL d   1       9.169   2.718 -18.275  0.00  0.00     0.208 C 
ATOM     11  O   UNL d   1       8.320   1.727 -18.816  0.00  0.00    -0.219 OA
BRANCH  10  12
ATOM     12  C   UNL d   1       9.661   2.189 -16.898  0.00  0.00     0.285 C 
BRANCH  12  13
ATOM     13  N   UNL d   1      10.113   3.243 -15.988  0.00  0.00     0.144 N 
ATOM     14  C   UNL d   1      10.629   2.684 -14.728  0.00  0.00     0.274 C 
ATOM     15  C   UNL d   1      11.168   3.842 -13.816  0.00  0.00     0.137 C 
ATOM     16  N   UNL d   1      10.121   4.819 -13.547  0.00  0.00    -0.343 N 
ATOM     17  C   UNL d   1       9.482   5.272 -14.736  0.00  0.00     0.137 C 
ATOM     18  C   UNL d   1       9.015   4.131 -15.614  0.00  0.00     0.274 C 
BRANCH  16  19
ATOM     19  C   UNL d   1       9.637   5.148 -12.265  0.00  0.00     0.079 A 
ATOM     20  C   UNL d   1       9.345   6.471 -11.887  0.00  0.00     0.110 A 
ATOM     21  C   UNL d   1       9.062   6.744 -10.518  0.00  0.00     0.026 A 
ATOM     22  C   UNL d   1       8.935   5.733  -9.568  0.00  0.00     0.002 A 
ATOM     23  C   UNL d   1       9.195   4.426  -9.956  0.00  0.00     0.002 A 
ATOM     24  C   UNL d   1       9.508   4.136 -11.294  0.00  0.00     0.019 A 
BRANCH  20  25
ATOM     25  O   UNL d   1       9.429   7.463 -12.827  0.00  0.00    -0.327 OA
ATOM     26  C   UNL d   1       9.188   8.786 -12.399  0.00  0.00     0.181 C 
ENDBRANCH  20  25
ENDBRANCH  16  19
ENDBRANCH  12  13
ENDBRANCH  10  12
ENDBRANCH   9  10
ENDBRANCH   1   9
BRANCH   5  27
ATOM     27  C   UNL d   1       9.171   6.985 -21.463  0.00  0.00     0.006 A 
ATOM     28  C   UNL d   1       8.204   7.580 -20.611  0.00  0.00    -0.002 A 
ATOM     29  C   UNL d   1       7.029   8.116 -21.159  0.00  0.00    -0.000 A 
ATOM     30  C   UNL d   1       6.788   8.021 -22.549  0.00  0.00    -0.000 A 
ATOM     31  C   UNL d   1       6.085   8.737 -20.324  0.00  0.00    -0.000 A 
ATOM     32  C   UNL d   1       7.730   7.395 -23.382  0.00  0.00    -0.000 A 
ATOM     33  C   UNL d   1       5.603   8.551 -23.097  0.00  0.00    -0.000 A 
ATOM     34  C   UNL d   1       8.916   6.883 -22.841  0.00  0.00    -0.002 A 
ATOM     35  C   UNL d   1       4.661   9.174 -22.259  0.00  0.00    -0.000 A 
ATOM     36  C   UNL d   1       4.901   9.252 -20.877  0.00  0.00    -0.000 A 
ENDBRANCH   5  27
TORSDOF 7
