REMARK  2 active torsions:
REMARK  status: ('A' for Active; 'I' for Inactive)
REMARK    1  A    between atoms: C_8  and  N_9 
REMARK    2  A    between atoms: C_10  and  N_11 
ROOT
ATOM      1  N   UNL d   1       9.459   5.765 -12.085  0.00  0.00    -0.226 NA
ATOM      2  C   UNL d   1       9.447   4.549 -12.513  0.00  0.00     0.175 C 
ENDROOT
BRANCH   1   3
ATOM      3  C   UNL d   1       9.463   5.977 -10.699  0.00  0.00     0.083 A 
ATOM      4  C   UNL d   1       8.643   5.248  -9.793  0.00  0.00     0.019 A 
ATOM      5  C   UNL d   1       8.659   5.527  -8.412  0.00  0.00    -0.003 A 
ATOM      6  C   UNL d   1       9.526   6.524  -7.934  0.00  0.00    -0.024 A 
ATOM      7  C   UNL d   1       9.684   7.006  -6.518  0.00  0.00     0.029 C 
ATOM      8  C   UNL d   1      10.332   7.234  -8.804  0.00  0.00     0.005 A 
ATOM      9  C   UNL d   1      10.592   8.252  -6.641  0.00  0.00     0.042 C 
ATOM     10  C   UNL d   1      11.159   8.256  -8.084  0.00  0.00     0.174 C 
ATOM     11  O   UNL d   1      11.060   9.531  -8.668  0.00  0.00    -0.219 OA
ATOM     12  C   UNL d   1      10.301   6.994 -10.189  0.00  0.00     0.017 A 
ENDBRANCH   1   3
BRANCH   2  13
ATOM     13  N   UNL d   1       9.436   4.196 -13.853  0.00  0.00    -0.327 N 
ATOM     14  C   UNL d   1       8.579   3.129 -14.338  0.00  0.00     0.129 C 
ATOM     15  C   UNL d   1       9.259   2.158 -15.287  0.00  0.00    -0.004 A 
ATOM     16  C   UNL d   1      10.543   2.440 -15.816  0.00  0.00    -0.022 A 
ATOM     17  C   UNL d   1       8.594   0.972 -15.651  0.00  0.00    -0.003 A 
ATOM     18  C   UNL d   1      11.269   3.718 -15.430  0.00  0.00     0.050 C 
ATOM     19  C   UNL d   1      11.153   1.526 -16.698  0.00  0.00    -0.004 A 
ATOM     20  C   UNL d   1      10.324   4.780 -14.846  0.00  0.00     0.108 C 
ATOM     21  C   UNL d   1      10.483   0.342 -17.060  0.00  0.00    -0.000 A 
ATOM     22  C   UNL d   1       9.202   0.072 -16.544  0.00  0.00    -0.000 A 
ENDBRANCH   2  13
TORSDOF 2
