REMARK  6 active torsions:
REMARK  status: ('A' for Active; 'I' for Inactive)
REMARK    1  A    between atoms: C_6  and  C_7 
REMARK    2  A    between atoms: C_10  and  S_11 
REMARK    3  A    between atoms: S_11  and  C_12 
REMARK    4  A    between atoms: C_12  and  C_13 
REMARK    5  A    between atoms: C_13  and  C_14 
REMARK    6  A    between atoms: C_14  and  N_15 
ROOT
ATOM      1  C   UNL d   1       9.483   4.122 -15.522  0.00  0.00     0.251 C 
ENDROOT
BRANCH   1   2
ATOM      2  C   UNL d   1       9.359   4.378 -14.011  0.00  0.00     0.047 C 
BRANCH   2   3
ATOM      3  C   UNL d   1       7.971   4.896 -13.624  0.00  0.00     0.067 C 
BRANCH   3   4
ATOM      4  S   UNL d   1       7.679   4.824 -11.833  0.00  0.00    -0.075 SA
BRANCH   4   5
ATOM      5  C   UNL d   1       8.701   6.148 -11.269  0.00  0.00     0.193 A 
ATOM      6  N   UNL d   1       9.075   7.179 -12.030  0.00  0.00    -0.122 NA
ATOM      7  N   UNL d   1       9.854   7.971 -11.212  0.00  0.00    -0.126 NA
ATOM      8  C   UNL d   1       9.858   7.370 -10.019  0.00  0.00     0.191 A 
ATOM      9  N   UNL d   1       9.173   6.207 -10.007  0.00  0.00    -0.287 N 
ATOM     10  C   UNL d   1       8.952   5.283  -8.905  0.00  0.00     0.134 C 
BRANCH   8  11
ATOM     11  C   UNL d   1      10.555   7.952  -8.882  0.00  0.00     0.151 A 
ATOM     12  C   UNL d   1      10.149   8.357  -7.634  0.00  0.00     0.087 A 
ATOM     13  C   UNL d   1       8.799   8.347  -6.999  0.00  0.00     0.054 C 
ATOM     14  N   UNL d   1      11.248   8.883  -6.971  0.00  0.00    -0.221 NA
ATOM     15  C   UNL d   1      12.247   8.776  -7.844  0.00  0.00     0.225 A 
ATOM     16  O   UNL d   1      11.890   8.217  -9.029  0.00  0.00    -0.282 OA
ENDBRANCH   8  11
ENDBRANCH   4   5
ENDBRANCH   3   4
ENDBRANCH   2   3
ENDBRANCH   1   2
BRANCH   1  17
ATOM     17  N   UNL d   1      10.878   3.856 -15.869  0.00  0.00     0.138 N 
ATOM     18  C   UNL d   1      11.539   5.135 -16.147  0.00  0.00     0.255 C 
ATOM     19  C   UNL d   1      13.072   5.033 -16.166  0.00  0.00     0.061 C 
ATOM     20  C   UNL d   1      13.629   4.526 -17.485  0.00  0.00    -0.024 A 
ATOM     21  C   UNL d   1      13.289   3.231 -17.964  0.00  0.00    -0.022 A 
ATOM     22  C   UNL d   1      14.494   5.365 -18.228  0.00  0.00    -0.001 A 
ATOM     23  C   UNL d   1      12.359   2.325 -17.179  0.00  0.00     0.061 C 
ATOM     24  C   UNL d   1      13.828   2.768 -19.187  0.00  0.00     0.022 A 
ATOM     25  C   UNL d   1      10.949   2.907 -16.986  0.00  0.00     0.255 C 
ATOM     26  C   UNL d   1      14.679   3.622 -19.896  0.00  0.00     0.126 A 
ATOM     27  C   UNL d   1      15.022   4.897 -19.450  0.00  0.00     0.040 A 
ATOM     28  O   UNL d   1      15.360   3.463 -21.093  0.00  0.00    -0.211 OA
ATOM     29  C   UNL d   1      15.889   5.498 -20.384  0.00  0.00     0.088 A 
ATOM     30  N   UNL d   1      16.107   4.640 -21.380  0.00  0.00    -0.131 NA
ATOM     31  C   UNL d   1      16.546   6.847 -20.394  0.00  0.00     0.055 C 
ENDBRANCH   1  17
TORSDOF 6
