REMARK  4 active torsions:
REMARK  status: ('A' for Active; 'I' for Inactive)
REMARK    1  A    between atoms: C_4  and  C_5 
REMARK    2  A    between atoms: C_12  and  C_13 
REMARK    3  A    between atoms: C_13  and  N_14 
REMARK    4  A    between atoms: N_17  and  C_18 
ROOT
ATOM      1  C   UNL d   1       8.684   6.705 -10.943  0.00  0.00     0.297 C 
ENDROOT
BRANCH   1   2
ATOM      2  C   UNL d   1       8.855   5.598 -11.944  0.00  0.00     0.108 A 
ATOM      3  C   UNL d   1       8.092   4.473 -12.177  0.00  0.00     0.077 A 
ATOM      4  C   UNL d   1       6.836   3.995 -11.535  0.00  0.00     0.053 C 
ATOM      5  N   UNL d   1       8.742   3.803 -13.202  0.00  0.00    -0.230 NA
ATOM      6  C   UNL d   1       9.810   4.538 -13.571  0.00  0.00     0.162 A 
ATOM      7  N   UNL d   1       9.880   5.647 -12.872  0.00  0.00    -0.228 NA
BRANCH   6   8
ATOM      8  C   UNL d   1      10.785   4.161 -14.596  0.00  0.00     0.036 A 
ATOM      9  C   UNL d   1      10.890   2.822 -15.025  0.00  0.00     0.003 A 
ATOM     10  C   UNL d   1      11.811   2.470 -16.030  0.00  0.00     0.000 A 
ATOM     11  C   UNL d   1      12.648   3.450 -16.596  0.00  0.00     0.000 A 
ATOM     12  C   UNL d   1      12.572   4.784 -16.156  0.00  0.00     0.000 A 
ATOM     13  C   UNL d   1      11.643   5.139 -15.159  0.00  0.00     0.003 A 
ENDBRANCH   6   8
ENDBRANCH   1   2
BRANCH   1  14
ATOM     14  N   UNL d   1       9.832   7.234 -10.198  0.00  0.00     0.147 N 
ATOM     15  C   UNL d   1      10.197   6.283  -9.153  0.00  0.00     0.275 C 
ATOM     16  C   UNL d   1      11.373   6.883  -8.365  0.00  0.00     0.155 C 
ATOM     17  N   UNL d   1      10.987   8.096  -7.712  0.00  0.00    -0.179 N 
ATOM     18  C   UNL d   1      10.594   9.092  -8.687  0.00  0.00     0.155 C 
ATOM     19  C   UNL d   1       9.468   8.472  -9.493  0.00  0.00     0.275 C 
BRANCH  17  20
ATOM     20  C   UNL d   1      11.200   8.324  -6.341  0.00  0.00     0.727 A 
ATOM     21  N   UNL d   1      11.190   9.583  -5.941  0.00  0.00    -0.060 NA
ATOM     22  C   UNL d   1      11.402   9.804  -4.630  0.00  0.00     0.120 A 
ATOM     23  C   UNL d   1      11.635   8.755  -3.733  0.00  0.00     0.043 A 
ATOM     24  C   UNL d   1      11.631   7.454  -4.276  0.00  0.00     0.120 A 
ATOM     25  N   UNL d   1      11.417   7.250  -5.585  0.00  0.00    -0.060 NA
ENDBRANCH  17  20
ENDBRANCH   1  14
TORSDOF 4
