REMARK  5 active torsions:
REMARK  status: ('A' for Active; 'I' for Inactive)
REMARK    1  A    between atoms: N_3  and  C_4 
REMARK    2  A    between atoms: C_4  and  C_5 
REMARK    3  A    between atoms: C_5  and  N_6 
REMARK    4  A    between atoms: C_9  and  C_10 
REMARK    5  A    between atoms: N_21  and  C_22 
ROOT
ATOM      1  C   UNL d   1       8.809   4.779 -10.912  0.00  0.00     0.141 C 
ENDROOT
BRANCH   1   2
ATOM      2  N   UNL d   1       8.403   4.399 -12.255  0.00  0.00    -0.298 N 
ATOM      3  C   UNL d   1       9.245   4.109 -13.234  0.00  0.00     0.328 A 
ATOM      4  O   UNL d   1      10.474   4.277 -13.236  0.00  0.00    -0.247 OA
ATOM      5  N   UNL d   1       8.529   3.576 -14.263  0.00  0.00    -0.280 N 
ATOM      6  C   UNL d   1       7.128   3.394 -13.910  0.00  0.00     0.135 A 
ATOM      7  C   UNL d   1       7.031   3.991 -12.521  0.00  0.00     0.131 A 
BRANCH   5   8
ATOM      8  C   UNL d   1       9.108   3.177 -15.513  0.00  0.00     0.065 A 
ATOM      9  C   UNL d   1       8.772   1.946 -16.087  0.00  0.00     0.029 A 
ATOM     10  C   UNL d   1       9.364   1.563 -17.320  0.00  0.00     0.059 A 
ATOM     11  C   UNL d   1      10.264   2.429 -17.967  0.00  0.00     0.011 A 
ATOM     12 CL   UNL d   1       8.991   0.029 -18.017  0.00  0.00    -0.082 Cl
ATOM     13  C   UNL d   1      10.584   3.669 -17.393  0.00  0.00     0.002 A 
ATOM     14  C   UNL d   1      10.004   4.046 -16.168  0.00  0.00     0.017 A 
ENDBRANCH   5   8
ENDBRANCH   1   2
BRANCH   1  15
ATOM     15  C   UNL d   1       9.561   6.121 -10.857  0.00  0.00     0.274 C 
BRANCH  15  16
ATOM     16  N   UNL d   1      10.071   6.414  -9.524  0.00  0.00     0.139 N 
ATOM     17  C   UNL d   1      10.726   7.727  -9.569  0.00  0.00     0.251 C 
ATOM     18  C   UNL d   1      11.344   8.061  -8.203  0.00  0.00     0.040 C 
ATOM     19  C   UNL d   1      10.287   8.007  -7.087  0.00  0.00     0.026 C 
ATOM     20  C   UNL d   1       9.514   6.682  -7.165  0.00  0.00     0.040 C 
ATOM     21  C   UNL d   1       8.983   6.446  -8.548  0.00  0.00     0.251 C 
BRANCH  19  22
ATOM     22  C   UNL d   1      10.912   8.208  -5.721  0.00  0.00    -0.022 A 
ATOM     23  C   UNL d   1      10.926   9.496  -5.141  0.00  0.00    -0.003 A 
ATOM     24  C   UNL d   1      11.480   9.668  -3.857  0.00  0.00     0.011 A 
ATOM     25  C   UNL d   1      12.048   8.577  -3.171  0.00  0.00     0.058 A 
ATOM     26  C   UNL d   1      12.056   7.301  -3.757  0.00  0.00     0.011 A 
ATOM     27 CL   UNL d   1      12.700   8.790  -1.626  0.00  0.00    -0.082 Cl
ATOM     28  C   UNL d   1      11.482   7.113  -5.023  0.00  0.00    -0.003 A 
ENDBRANCH  19  22
ENDBRANCH  15  16
ENDBRANCH   1  15
TORSDOF 5
