REMARK  6 active torsions:
REMARK  status: ('A' for Active; 'I' for Inactive)
REMARK    1  A    between atoms: C_2  and  C_3 
REMARK    2  A    between atoms: C_3  and  N_4 
REMARK    3  A    between atoms: N_4  and  C_5 
REMARK    4  A    between atoms: C_9  and  O_10 
REMARK    5  A    between atoms: O_10  and  S_11 
REMARK    6  A    between atoms: S_11  and  C_14 
ROOT
ATOM      1  C   UNL d   1       8.028   4.221 -12.897  0.00  0.00     0.261 C 
ATOM      2  C   UNL d   1       8.634   4.590 -14.251  0.00  0.00     0.041 C 
ATOM      3  C   UNL d   1       8.958   3.325 -15.051  0.00  0.00     0.030 C 
ATOM      4  C   UNL d   1       7.866   2.253 -15.012  0.00  0.00    -0.002 A 
ATOM      5  C   UNL d   1       7.911   1.191 -15.951  0.00  0.00     0.109 A 
ATOM      6  C   UNL d   1       6.928   0.183 -15.936  0.00  0.00     0.025 A 
ATOM      7  C   UNL d   1       5.913   0.208 -14.965  0.00  0.00     0.002 A 
ATOM      8  C   UNL d   1       5.868   1.250 -14.020  0.00  0.00    -0.004 A 
ATOM      9  C   UNL d   1       6.825   2.286 -14.047  0.00  0.00    -0.022 A 
ATOM     10  C   UNL d   1       6.694   3.443 -13.050  0.00  0.00     0.056 C 
ATOM     11  C   UNL d   1       5.500   4.324 -13.443  0.00  0.00     0.007 C 
ENDROOT
BRANCH   5  12
ATOM     12  O   UNL d   1       8.902   1.161 -16.891  0.00  0.00    -0.225 OA
BRANCH  12  13
ATOM     13  S   UNL d   1      10.232   0.180 -16.546  0.00  0.00     0.374 S 
ATOM     14  O   UNL d   1      10.590   0.380 -15.134  0.00  0.00    -0.189 OA
ATOM     15  O   UNL d   1       9.957  -1.165 -17.075  0.00  0.00    -0.189 OA
BRANCH  13  16
ATOM     16  C   UNL d   1      11.497   1.008 -17.608  0.00  0.00     0.524 C 
ATOM     17  F   UNL d   1      12.175   0.075 -18.279  0.00  0.00    -0.155 F 
ATOM     18  F   UNL d   1      10.889   1.827 -18.466  0.00  0.00    -0.155 F 
ATOM     19  F   UNL d   1      12.326   1.703 -16.834  0.00  0.00    -0.155 F 
ENDBRANCH  13  16
ENDBRANCH  12  13
ENDBRANCH   5  12
BRANCH   1  20
ATOM     20  N   UNL d   1       7.841   5.433 -12.100  0.00  0.00     0.337 N 
BRANCH  20  21
ATOM     21  C   UNL d   1       7.894   5.182 -10.670  0.00  0.00     0.290 C 
BRANCH  21  22
ATOM     22  C   UNL d   1       9.351   5.153 -10.203  0.00  0.00     0.038 C 
ATOM     23  C   UNL d   1       9.480   4.894  -8.704  0.00  0.00     0.002 C 
ENDBRANCH  21  22
ENDBRANCH  20  21
ENDBRANCH   1  20
TORSDOF 6
