REMARK  7 active torsions:
REMARK  status: ('A' for Active; 'I' for Inactive)
REMARK    1  A    between atoms: C_2  and  S_3 
REMARK    2  A    between atoms: S_3  and  N_6 
REMARK    3  A    between atoms: N_6  and  C_7 
REMARK    4  A    between atoms: C_10  and  C_11 
REMARK    5  A    between atoms: C_11  and  C_12 
REMARK    6  A    between atoms: C_12  and  N_13 
REMARK    7  A    between atoms: C_16  and  C_17 
ROOT
ATOM      1  N   UNL d   1       8.870   5.776 -12.079  0.00  0.00     0.137 N 
ATOM      2  C   UNL d   1       7.539   5.679 -12.679  0.00  0.00     0.251 C 
ATOM      3  C   UNL d   1       7.600   4.820 -13.952  0.00  0.00     0.040 C 
ATOM      4  C   UNL d   1       8.152   3.431 -13.700  0.00  0.00     0.026 C 
ATOM      5  C   UNL d   1       9.453   3.556 -12.899  0.00  0.00     0.040 C 
ATOM      6  C   UNL d   1       9.276   4.432 -11.664  0.00  0.00     0.251 C 
ENDROOT
BRANCH   1   7
ATOM      7  C   UNL d   1       8.754   6.653 -10.930  0.00  0.00     0.250 C 
BRANCH   7   8
ATOM      8  C   UNL d   1      10.118   7.028 -10.342  0.00  0.00     0.035 C 
BRANCH   8   9
ATOM      9  C   UNL d   1      10.060   7.886  -9.075  0.00  0.00     0.002 C 
ATOM     10  C   UNL d   1       9.429   7.098  -7.905  0.00  0.00     0.002 C 
ATOM     11  C   UNL d   1       9.442   7.906  -6.612  0.00  0.00     0.025 C 
ATOM     12  C   UNL d   1      10.868   8.344  -6.270  0.00  0.00     0.116 C 
ATOM     13  C   UNL d   1      11.506   9.159  -7.398  0.00  0.00     0.025 C 
ATOM     14  C   UNL d   1      11.484   8.363  -8.702  0.00  0.00     0.002 C 
BRANCH  12  15
ATOM     15  N   UNL d   1      10.850   9.106  -5.026  0.00  0.00    -0.190 NA
BRANCH  15  16
ATOM     16  S   UNL d   1      12.207   9.168  -4.001  0.00  0.00     0.261 S 
ATOM     17  O   UNL d   1      11.805   9.971  -2.836  0.00  0.00    -0.203 OA
ATOM     18  O   UNL d   1      13.342   9.589  -4.830  0.00  0.00    -0.203 OA
BRANCH  16  19
ATOM     19  C   UNL d   1      12.425   7.408  -3.493  0.00  0.00     0.146 C 
ATOM     20  C   UNL d   1      11.894   7.144  -2.089  0.00  0.00     0.020 C 
ENDBRANCH  16  19
ENDBRANCH  15  16
ENDBRANCH  12  15
ENDBRANCH   8   9
ENDBRANCH   7   8
ENDBRANCH   1   7
BRANCH   4  21
ATOM     21  C   UNL d   1       8.355   2.648 -14.989  0.00  0.00    -0.024 A 
ATOM     22  C   UNL d   1       7.550   1.539 -15.321  0.00  0.00    -0.001 A 
ATOM     23  C   UNL d   1       7.737   0.841 -16.503  0.00  0.00     0.090 A 
ATOM     24  C   UNL d   1       6.417   0.928 -14.566  0.00  0.00     0.061 A 
ATOM     25  C   UNL d   1       8.746   1.203 -17.413  0.00  0.00     0.024 A 
ATOM     26  O   UNL d   1       6.848  -0.186 -16.661  0.00  0.00    -0.331 OA
ATOM     27  C   UNL d   1       9.567   2.311 -17.098  0.00  0.00     0.002 A 
ATOM     28  C   UNL d   1       9.365   3.026 -15.898  0.00  0.00    -0.004 A 
ATOM     29  C   UNL d   1       6.002  -0.231 -15.500  0.00  0.00     0.154 A 
ENDBRANCH   4  21
TORSDOF 7
