REMARK  4 active torsions:
REMARK  status: ('A' for Active; 'I' for Inactive)
REMARK    1  A    between atoms: C_5  and  O_6 
REMARK    2  A    between atoms: O_6  and  C_7 
REMARK    3  A    between atoms: C_7  and  C_8 
REMARK    4  A    between atoms: N_13  and  C_14 
ROOT
ATOM      1  C   UNL d   1       8.600   4.463 -11.995  0.00  0.00     0.064 C 
ATOM      2  C   UNL d   1       7.225   4.151 -12.565  0.00  0.00     0.007 C 
ATOM      3  C   UNL d   1       7.312   4.078 -14.095  0.00  0.00     0.035 C 
ATOM      4  C   UNL d   1       8.413   3.081 -14.543  0.00  0.00     0.242 C 
ATOM      5  C   UNL d   1       8.530   3.041 -16.059  0.00  0.00     0.153 C 
ATOM      6  N   UNL d   1       9.550   2.132 -16.485  0.00  0.00    -0.179 N 
ATOM      7  C   UNL d   1      10.849   2.485 -15.950  0.00  0.00     0.155 C 
ATOM      8  C   UNL d   1      10.775   2.528 -14.428  0.00  0.00     0.275 C 
ATOM      9  N   UNL d   1       9.741   3.522 -14.063  0.00  0.00     0.139 N 
ATOM     10  C   UNL d   1       9.691   3.568 -12.582  0.00  0.00     0.253 C 
ENDROOT
BRANCH   1  11
ATOM     11  C   UNL d   1       8.947   5.958 -12.246  0.00  0.00     0.151 C 
BRANCH  11  12
ATOM     12  O   UNL d   1       9.974   6.423 -11.399  0.00  0.00    -0.331 OA
BRANCH  12  13
ATOM     13  C   UNL d   1       9.781   6.542 -10.038  0.00  0.00     0.094 A 
ATOM     14  C   UNL d   1      10.777   7.285  -9.374  0.00  0.00     0.026 A 
ATOM     15  C   UNL d   1      10.681   7.455  -7.950  0.00  0.00     0.032 A 
ATOM     16  C   UNL d   1       9.654   6.799  -7.248  0.00  0.00     0.140 A 
ATOM     17  F   UNL d   1       9.545   6.981  -5.894  0.00  0.00    -0.204 F 
ATOM     18  C   UNL d   1       8.683   6.037  -7.954  0.00  0.00     0.032 A 
ATOM     19  C   UNL d   1       8.700   5.973  -9.339  0.00  0.00     0.026 A 
ENDBRANCH  12  13
ENDBRANCH  11  12
ENDBRANCH   1  11
BRANCH   6  20
ATOM     20  C   UNL d   1       9.308   1.054 -17.330  0.00  0.00     0.728 A 
ATOM     21  N   UNL d   1       8.118   1.013 -17.944  0.00  0.00    -0.057 NA
ATOM     22  C   UNL d   1       7.886  -0.036 -18.755  0.00  0.00     0.149 A 
ATOM     23  C   UNL d   1       8.861  -1.029 -18.973  0.00  0.00     0.179 A 
ATOM     24  C   UNL d   1      10.075  -0.877 -18.271  0.00  0.00     0.149 A 
ATOM     25  F   UNL d   1       8.640  -2.043 -19.824  0.00  0.00    -0.201 F 
ATOM     26  N   UNL d   1      10.287   0.160 -17.452  0.00  0.00    -0.057 NA
ENDBRANCH   6  20
TORSDOF 4
