REMARK  9 active torsions:
REMARK  status: ('A' for Active; 'I' for Inactive)
REMARK    1  A    between atoms: C_2  and  C_3 
REMARK    2  A    between atoms: C_7  and  O_8 
REMARK    3  A    between atoms: C_10  and  N_11 
REMARK    4  A    between atoms: N_14  and  C_15 
REMARK    5  A    between atoms: C_15  and  C_16 
REMARK    6  A    between atoms: C_16  and  C_18 
REMARK    7  A    between atoms: C_18  and  C_19 
REMARK    8  A    between atoms: C_19  and  N_20 
REMARK       I    between atoms: N_20  and  C_21 
REMARK    9  A    between atoms: C_21  and  C_23 
ROOT
ATOM      1  N   UNL d   1       8.931   3.020 -14.259  0.00  0.00    -0.343 N 
ATOM      2  C   UNL d   1       9.626   3.015 -13.000  0.00  0.00     0.137 C 
ATOM      3  C   UNL d   1       9.039   4.079 -12.044  0.00  0.00     0.274 C 
ATOM      4  N   UNL d   1       9.174   5.405 -12.651  0.00  0.00     0.144 N 
ATOM      5  C   UNL d   1       8.373   5.369 -13.875  0.00  0.00     0.274 C 
ATOM      6  C   UNL d   1       8.978   4.337 -14.848  0.00  0.00     0.137 C 
ENDROOT
BRANCH   4   7
ATOM      7  C   UNL d   1       8.607   6.417 -11.771  0.00  0.00     0.285 C 
BRANCH   7   8
ATOM      8  C   UNL d   1       9.759   7.271 -11.283  0.00  0.00     0.196 C 
ATOM      9  F   UNL d   1       9.827   8.090 -12.317  0.00  0.00    -0.235 F 
BRANCH   8  10
ATOM     10  C   UNL d   1       9.460   8.193 -10.125  0.00  0.00     0.064 C 
BRANCH  10  11
ATOM     11  C   UNL d   1      10.673   8.924  -9.542  0.00  0.00     0.132 C 
BRANCH  11  12
ATOM     12  N   UNL d   1      10.987   8.493  -8.188  0.00  0.00    -0.233 NA
ATOM     13  C   UNL d   1      10.143   8.416  -7.145  0.00  0.00     0.293 C 
ATOM     14  O   UNL d   1       8.930   8.585  -7.205  0.00  0.00    -0.264 OA
BRANCH  13  15
ATOM     15  C   UNL d   1      10.770   8.147  -5.862  0.00  0.00     0.139 A 
ATOM     16  N   UNL d   1      11.127   9.235  -5.086  0.00  0.00    -0.241 NA
ATOM     17  C   UNL d   1      11.670   8.810  -3.905  0.00  0.00     0.082 A 
ATOM     18  C   UNL d   1      11.636   7.387  -3.940  0.00  0.00     0.019 A 
ATOM     19  C   UNL d   1      12.176   9.508  -2.800  0.00  0.00     0.019 A 
ATOM     20  C   UNL d   1      11.049   6.993  -5.186  0.00  0.00     0.025 A 
ATOM     21  C   UNL d   1      12.129   6.700  -2.815  0.00  0.00     0.002 A 
ATOM     22  C   UNL d   1      12.651   7.398  -1.718  0.00  0.00     0.000 A 
ATOM     23  C   UNL d   1      12.663   8.791  -1.705  0.00  0.00     0.002 A 
ENDBRANCH  13  15
ENDBRANCH  11  12
ENDBRANCH  10  11
ENDBRANCH   8  10
ENDBRANCH   7   8
ENDBRANCH   4   7
BRANCH   1  24
ATOM     24  C   UNL d   1       8.301   1.921 -14.877  0.00  0.00     0.079 A 
ATOM     25  C   UNL d   1       8.686   1.486 -16.183  0.00  0.00     0.120 A 
ATOM     26  C   UNL d   1       8.032   0.401 -16.798  0.00  0.00     0.081 A 
ATOM     27  C   UNL d   1       6.976  -0.266 -16.142  0.00  0.00     0.009 A 
ATOM     28 CL   UNL d   1       8.522  -0.187 -18.354  0.00  0.00    -0.080 Cl
ATOM     29  C   UNL d   1       6.588   0.142 -14.851  0.00  0.00    -0.020 A 
ATOM     30  C   UNL d   1       7.234   1.223 -14.243  0.00  0.00     0.015 A 
BRANCH  25  31
ATOM     31  O   UNL d   1       9.717   2.128 -16.834  0.00  0.00    -0.326 OA
ATOM     32  C   UNL d   1       9.288   3.058 -17.824  0.00  0.00     0.181 C 
ENDBRANCH  25  31
BRANCH  29  33
ATOM     33  C   UNL d   1       5.476  -0.597 -14.125  0.00  0.00     0.026 C 
ATOM     34  C   UNL d   1       4.170   0.198 -14.130  0.00  0.00     0.005 C 
ENDBRANCH  29  33
ENDBRANCH   1  24
TORSDOF 9
