REMARK  5 active torsions:
REMARK  status: ('A' for Active; 'I' for Inactive)
REMARK    1  A    between atoms: O_2  and  C_3 
REMARK    2  A    between atoms: C_9  and  C_10 
REMARK    3  A    between atoms: C_12  and  N_13 
REMARK       I    between atoms: N_13  and  C_14 
REMARK    4  A    between atoms: N_21  and  S_22 
REMARK    5  A    between atoms: S_22  and  C_25 
ROOT
ATOM      1  C   UNL d   1       8.270   0.835 -15.759  0.00  0.00     0.094 C 
ATOM      2  C   UNL d   1       9.219   0.773 -16.789  0.00  0.00     0.026 C 
ATOM      3  C   UNL d   1      10.217   1.764 -16.881  0.00  0.00     0.020 C 
ATOM      4  C   UNL d   1      10.248   2.841 -15.962  0.00  0.00     0.075 A 
ATOM      5  C   UNL d   1       9.301   2.933 -14.901  0.00  0.00     0.022 A 
ATOM      6  C   UNL d   1       8.383   1.853 -14.790  0.00  0.00     0.026 C 
ATOM      7  C   UNL d   1       9.581   4.136 -14.141  0.00  0.00     0.039 A 
ATOM      8  C   UNL d   1      10.690   4.700 -14.736  0.00  0.00     0.093 A 
ATOM      9  N   UNL d   1      11.102   3.929 -15.817  0.00  0.00    -0.231 N 
ENDROOT
BRANCH   9  10
ATOM     10  S   UNL d   1      12.436   4.315 -16.831  0.00  0.00     0.271 S 
ATOM     11  O   UNL d   1      13.408   4.977 -15.936  0.00  0.00    -0.200 OA
ATOM     12  O   UNL d   1      12.793   3.103 -17.570  0.00  0.00    -0.200 OA
BRANCH  10  13
ATOM     13  C   UNL d   1      11.765   5.511 -17.973  0.00  0.00     0.104 A 
ATOM     14  C   UNL d   1      10.470   5.341 -18.507  0.00  0.00     0.013 A 
ATOM     15  C   UNL d   1       9.961   6.292 -19.414  0.00  0.00     0.001 A 
ATOM     16  C   UNL d   1      10.756   7.403 -19.790  0.00  0.00     0.000 A 
ATOM     17  C   UNL d   1       8.667   6.141 -19.955  0.00  0.00     0.000 A 
ATOM     18  C   UNL d   1      12.050   7.562 -19.250  0.00  0.00     0.001 A 
ATOM     19  C   UNL d   1      10.250   8.345 -20.706  0.00  0.00     0.000 A 
ATOM     20  C   UNL d   1      12.556   6.615 -18.340  0.00  0.00     0.013 A 
ATOM     21  C   UNL d   1       8.956   8.193 -21.240  0.00  0.00     0.000 A 
ATOM     22  C   UNL d   1       8.165   7.091 -20.865  0.00  0.00     0.000 A 
ENDBRANCH  10  13
ENDBRANCH   9  10
BRANCH   7  23
ATOM     23  C   UNL d   1       8.816   4.619 -12.977  0.00  0.00     0.115 A 
ATOM     24  C   UNL d   1       7.460   4.542 -12.651  0.00  0.00     0.096 A 
ATOM     25  N   UNL d   1       7.331   5.185 -11.432  0.00  0.00    -0.062 NA
ATOM     26  C   UNL d   1       6.237   3.957 -13.324  0.00  0.00     0.054 C 
ATOM     27  C   UNL d   1       8.550   5.598 -11.060  0.00  0.00     0.752 A 
ATOM     28  N   UNL d   1       9.489   5.345 -11.973  0.00  0.00    -0.058 NA
BRANCH  27  29
ATOM     29  N   UNL d   1       8.665   6.388  -9.883  0.00  0.00    -0.023 NA
ATOM     30  C   UNL d   1       9.509   6.114  -8.870  0.00  0.00     0.273 C 
ATOM     31  O   UNL d   1      10.247   5.144  -8.815  0.00  0.00    -0.270 OA
ATOM     32  C   UNL d   1       9.460   7.097  -7.698  0.00  0.00     0.101 C 
ENDBRANCH  27  29
ENDBRANCH   7  23
BRANCH   1  33
ATOM     33  O   UNL d   1       7.295  -0.139 -15.709  0.00  0.00    -0.328 OA
ATOM     34  C   UNL d   1       6.379  -0.152 -14.607  0.00  0.00     0.181 C 
ENDBRANCH   1  33
TORSDOF 5
