REMARK  4 active torsions:
REMARK  status: ('A' for Active; 'I' for Inactive)
REMARK    1  A    between atoms: C_2  and  N_3 
REMARK    2  A    between atoms: C_17  and  C_18 
REMARK       I    between atoms: C_18  and  N_20 
REMARK    3  A    between atoms: N_20  and  C_21 
REMARK    4  A    between atoms: C_21  and  C_23 
ROOT
ATOM      1  N   UNL d   1      10.115   3.943 -18.633  0.00  0.00    -0.295 N 
ATOM      2  C   UNL d   1      11.095   3.942 -19.589  0.00  0.00     0.261 C 
ATOM      3  O   UNL d   1      11.068   4.689 -20.573  0.00  0.00    -0.267 OA
ATOM      4  C   UNL d   1      12.320   3.096 -19.424  0.00  0.00     0.065 A 
ATOM      5  C   UNL d   1      13.572   3.709 -19.632  0.00  0.00     0.005 A 
ATOM      6  C   UNL d   1      14.752   2.954 -19.585  0.00  0.00     0.000 A 
ATOM      7  C   UNL d   1      14.685   1.572 -19.342  0.00  0.00     0.001 A 
ATOM      8  C   UNL d   1      13.442   0.944 -19.148  0.00  0.00     0.009 A 
ATOM      9  C   UNL d   1      12.262   1.700 -19.193  0.00  0.00     0.065 A 
ATOM     10  S   UNL d   1      10.676   0.863 -18.949  0.00  0.00     0.090 S 
ATOM     11  O   UNL d   1      11.019  -0.566 -18.541  0.00  0.00    -0.247 OA
ATOM     12  C   UNL d   1      10.320   1.745 -17.411  0.00  0.00     0.076 A 
ATOM     13  C   UNL d   1      10.245   1.008 -16.209  0.00  0.00     0.011 A 
ATOM     14  C   UNL d   1       9.939   1.657 -15.001  0.00  0.00     0.005 A 
ATOM     15  C   UNL d   1       9.699   3.040 -15.001  0.00  0.00     0.059 A 
ATOM     16  C   UNL d   1       9.780   3.772 -16.198  0.00  0.00     0.023 A 
ATOM     17  C   UNL d   1      10.110   3.153 -17.428  0.00  0.00     0.071 A 
ENDROOT
BRANCH  15  18
ATOM     18  C   UNL d   1       9.385   3.754 -13.732  0.00  0.00     0.275 C 
ATOM     19  O   UNL d   1      10.291   4.016 -12.949  0.00  0.00    -0.266 OA
ATOM     20  N   UNL d   1       8.091   4.065 -13.549  0.00  0.00    -0.232 NA
BRANCH  20  21
ATOM     21  C   UNL d   1       7.475   4.488 -12.286  0.00  0.00     0.129 C 
ATOM     22  C   UNL d   1       6.041   4.974 -12.548  0.00  0.00     0.031 C 
BRANCH  21  23
ATOM     23  C   UNL d   1       8.279   5.548 -11.547  0.00  0.00    -0.000 A 
ATOM     24  C   UNL d   1       8.702   5.335 -10.219  0.00  0.00    -0.002 A 
ATOM     25  C   UNL d   1       9.492   6.309  -9.566  0.00  0.00    -0.000 A 
ATOM     26  C   UNL d   1       9.867   7.491 -10.252  0.00  0.00    -0.000 A 
ATOM     27  C   UNL d   1       9.911   6.112  -8.237  0.00  0.00    -0.000 A 
ATOM     28  C   UNL d   1       9.461   7.687 -11.586  0.00  0.00    -0.000 A 
ATOM     29  C   UNL d   1      10.649   8.467  -9.601  0.00  0.00    -0.000 A 
ATOM     30  C   UNL d   1       8.659   6.728 -12.219  0.00  0.00    -0.002 A 
ATOM     31  C   UNL d   1      11.053   8.271  -8.270  0.00  0.00    -0.000 A 
ATOM     32  C   UNL d   1      10.687   7.094  -7.587  0.00  0.00    -0.000 A 
ENDBRANCH  21  23
ENDBRANCH  20  21
ENDBRANCH  15  18
BRANCH   1  33
ATOM     33  C   UNL d   1       9.079   4.991 -18.735  0.00  0.00     0.109 C 
ATOM     34  C   UNL d   1       9.615   6.395 -18.365  0.00  0.00     0.027 C 
ENDBRANCH   1  33
TORSDOF 4
