REMARK  6 active torsions:
REMARK  status: ('A' for Active; 'I' for Inactive)
REMARK       I    between atoms: C_2  and  N_3 
REMARK    1  A    between atoms: C_2  and  C_27 
REMARK    2  A    between atoms: N_3  and  C_4 
REMARK    3  A    between atoms: C_7  and  C_8 
REMARK    4  A    between atoms: C_8  and  C_9 
REMARK    5  A    between atoms: C_9  and  N_10 
REMARK    6  A    between atoms: N_13  and  C_14 
ROOT
ATOM      1  C   UNL d   1       8.180   5.183 -11.781  0.00  0.00     0.035 C 
ENDROOT
BRANCH   1   2
ATOM      2  C   UNL d   1       8.108   3.970 -12.722  0.00  0.00     0.002 C 
ATOM      3  C   UNL d   1       6.683   3.390 -12.736  0.00  0.00     0.002 C 
ATOM      4  C   UNL d   1       6.582   2.149 -13.639  0.00  0.00     0.024 C 
ATOM      5  C   UNL d   1       7.048   2.429 -15.066  0.00  0.00     0.106 C 
ATOM      6  C   UNL d   1       8.467   3.056 -15.070  0.00  0.00     0.024 C 
ATOM      7  C   UNL d   1       8.565   4.292 -14.154  0.00  0.00     0.002 C 
BRANCH   5   8
ATOM      8  N   UNL d   1       7.047   1.232 -15.909  0.00  0.00    -0.240 NA
ATOM      9  C   UNL d   1       6.038   0.358 -16.040  0.00  0.00     0.252 C 
ATOM     10  O   UNL d   1       5.047   0.342 -15.317  0.00  0.00    -0.271 OA
BRANCH   9  11
ATOM     11  C   UNL d   1       6.150  -0.642 -17.173  0.00  0.00     0.098 C 
ATOM     12  C   UNL d   1       5.222  -1.861 -16.947  0.00  0.00     0.132 C 
ATOM     13  S   UNL d   1       4.871  -2.564 -18.606  0.00  0.00     0.171 S 
ATOM     14  C   UNL d   1       5.552  -1.130 -19.544  0.00  0.00     0.123 C 
ATOM     15  O   UNL d   1       3.415  -2.604 -18.814  0.00  0.00    -0.226 OA
ATOM     16  O   UNL d   1       5.754  -3.724 -18.827  0.00  0.00    -0.226 OA
ATOM     17  C   UNL d   1       5.763  -0.008 -18.518  0.00  0.00     0.027 C 
ENDBRANCH   9  11
ENDBRANCH   5   8
ENDBRANCH   1   2
BRANCH   1  18
ATOM     18  C   UNL d   1       8.716   4.819 -10.381  0.00  0.00     0.250 C 
BRANCH  18  19
ATOM     19  N   UNL d   1       8.671   5.962  -9.483  0.00  0.00     0.141 N 
ATOM     20  C   UNL d   1       8.901   5.526  -8.105  0.00  0.00     0.274 C 
ATOM     21  C   UNL d   1       8.818   6.714  -7.130  0.00  0.00     0.137 C 
ATOM     22  N   UNL d   1       9.759   7.756  -7.528  0.00  0.00    -0.343 N 
ATOM     23  C   UNL d   1       9.600   8.181  -8.919  0.00  0.00     0.137 C 
ATOM     24  C   UNL d   1       9.683   6.958  -9.842  0.00  0.00     0.274 C 
BRANCH  22  25
ATOM     25  C   UNL d   1      10.681   8.350  -6.649  0.00  0.00     0.081 A 
ATOM     26  C   UNL d   1      11.064   7.780  -5.405  0.00  0.00     0.135 A 
ATOM     27  C   UNL d   1      11.986   8.379  -4.576  0.00  0.00     0.121 A 
ATOM     28  O   UNL d   1      10.700   6.602  -4.840  0.00  0.00    -0.298 OA
ATOM     29  C   UNL d   1      12.620   9.575  -4.915  0.00  0.00     0.026 A 
ATOM     30  O   UNL d   1      12.221   7.619  -3.481  0.00  0.00    -0.299 OA
ATOM     31  C   UNL d   1      12.245  10.184  -6.126  0.00  0.00     0.004 A 
ATOM     32  C   UNL d   1      11.307   9.580  -6.978  0.00  0.00     0.019 A 
ATOM     33  C   UNL d   1      11.393   6.504  -3.628  0.00  0.00     0.304 A 
ENDBRANCH  22  25
ENDBRANCH  18  19
ENDBRANCH   1  18
TORSDOF 6
