REMARK  8 active torsions:
REMARK  status: ('A' for Active; 'I' for Inactive)
REMARK    1  A    between atoms: O_2  and  C_3 
REMARK    2  A    between atoms: C_6  and  N_7 
REMARK       I    between atoms: N_7  and  C_8 
REMARK       I    between atoms: C_8  and  N_10 
REMARK    3  A    between atoms: N_10  and  C_11 
REMARK    4  A    between atoms: C_14  and  N_15 
REMARK    5  A    between atoms: N_18  and  C_19 
REMARK    6  A    between atoms: C_24  and  O_25 
REMARK    7  A    between atoms: O_25  and  C_26 
REMARK    8  A    between atoms: C_33  and  O_34 
ROOT
ATOM      1  C   UNL d   1       7.666   5.671 -11.446  0.00  0.00     0.108 C 
ATOM      2  C   UNL d   1       7.990   4.183 -11.381  0.00  0.00     0.026 C 
ATOM      3  C   UNL d   1       9.210   3.840 -12.261  0.00  0.00     0.035 C 
ATOM      4  C   UNL d   1       8.932   4.214 -13.725  0.00  0.00     0.220 C 
ATOM      5  C   UNL d   1       8.475   5.684 -13.831  0.00  0.00     0.035 C 
ATOM      6  C   UNL d   1       7.311   6.032 -12.887  0.00  0.00     0.026 C 
ENDROOT
BRANCH   4   7
ATOM      7  N   UNL d   1      10.100   3.928 -14.573  0.00  0.00     0.139 N 
ATOM      8  C   UNL d   1       9.763   4.004 -16.006  0.00  0.00     0.274 C 
ATOM      9  C   UNL d   1      10.951   3.528 -16.863  0.00  0.00     0.137 C 
ATOM     10  N   UNL d   1      12.149   4.307 -16.549  0.00  0.00    -0.343 N 
ATOM     11  C   UNL d   1      12.492   4.354 -15.129  0.00  0.00     0.137 C 
ATOM     12  C   UNL d   1      11.266   4.796 -14.313  0.00  0.00     0.274 C 
BRANCH  10  13
ATOM     13  C   UNL d   1      12.877   5.056 -17.483  0.00  0.00     0.079 A 
ATOM     14  C   UNL d   1      12.236   5.882 -18.458  0.00  0.00     0.109 A 
ATOM     15  C   UNL d   1      13.027   6.613 -19.376  0.00  0.00     0.026 A 
ATOM     16  C   UNL d   1      14.436   6.469 -19.363  0.00  0.00     0.002 A 
ATOM     17  C   UNL d   1      15.071   5.668 -18.394  0.00  0.00     0.002 A 
ATOM     18  C   UNL d   1      14.294   4.982 -17.445  0.00  0.00     0.019 A 
BRANCH  14  19
ATOM     19  O   UNL d   1      10.856   5.897 -18.465  0.00  0.00    -0.332 OA
BRANCH  19  20
ATOM     20  C   UNL d   1      10.121   6.625 -19.445  0.00  0.00     0.122 C 
ATOM     21  C   UNL d   1       8.638   6.418 -19.066  0.00  0.00     0.033 C 
ATOM     22  C   UNL d   1      10.350   6.133 -20.894  0.00  0.00     0.033 C 
ENDBRANCH  19  20
ENDBRANCH  14  19
ENDBRANCH  10  13
ENDBRANCH   4   7
BRANCH   1  23
ATOM     23  N   UNL d   1       8.806   6.455 -10.985  0.00  0.00    -0.219 NA
ATOM     24  C   UNL d   1       9.242   6.545  -9.724  0.00  0.00     0.364 C 
ATOM     25  N   UNL d   1      10.052   7.595  -9.603  0.00  0.00    -0.189 NA
ATOM     26  O   UNL d   1       8.904   5.812  -8.791  0.00  0.00    -0.243 OA
BRANCH  25  27
ATOM     27  C   UNL d   1      10.613   8.055  -8.405  0.00  0.00     0.108 A 
ATOM     28  C   UNL d   1       9.868   8.203  -7.219  0.00  0.00     0.023 A 
ATOM     29  C   UNL d   1      10.478   8.736  -6.077  0.00  0.00     0.026 A 
ATOM     30  C   UNL d   1      11.846   9.091  -6.095  0.00  0.00     0.096 A 
ATOM     31  C   UNL d   1      12.579   8.897  -7.294  0.00  0.00     0.050 A 
ATOM     32  C   UNL d   1      11.970   8.386  -8.461  0.00  0.00     0.114 A 
BRANCH  30  33
ATOM     33  O   UNL d   1      12.515   9.580  -4.985  0.00  0.00    -0.328 OA
ATOM     34  C   UNL d   1      11.812   9.625  -3.742  0.00  0.00     0.181 C 
ENDBRANCH  30  33
BRANCH  32  35
ATOM     35  O   UNL d   1      12.602   8.205  -9.678  0.00  0.00    -0.327 OA
ATOM     36  C   UNL d   1      14.006   7.981  -9.704  0.00  0.00     0.181 C 
ENDBRANCH  32  35
ENDBRANCH  25  27
ENDBRANCH   1  23
TORSDOF 8
