REMARK  6 active torsions:
REMARK  status: ('A' for Active; 'I' for Inactive)
REMARK    1  A    between atoms: C_2  and  C_3 
REMARK    2  A    between atoms: C_2  and  C_23 
REMARK    3  A    between atoms: C_3  and  C_4 
REMARK    4  A    between atoms: C_4  and  C_5 
REMARK    5  A    between atoms: C_5  and  N_6 
REMARK    6  A    between atoms: C_13  and  C_14 
ROOT
ATOM      1  N   UNL d   1       9.314   3.474 -14.425  0.00  0.00     0.140 N 
ATOM      2  C   UNL d   1       8.436   2.299 -14.496  0.00  0.00     0.251 C 
ATOM      3  C   UNL d   1       8.102   1.944 -15.953  0.00  0.00     0.038 C 
ATOM      4  C   UNL d   1       9.373   1.674 -16.743  0.00  0.00     0.039 C 
ATOM      5  C   UNL d   1      10.334   2.859 -16.588  0.00  0.00     0.184 A 
ATOM      6  C   UNL d   1      10.589   3.189 -15.099  0.00  0.00     0.285 C 
ATOM      7  O   UNL d   1       9.830   4.009 -17.253  0.00  0.00    -0.326 OA
ATOM      8  C   UNL d   1      10.662   4.344 -18.297  0.00  0.00     0.097 A 
ATOM      9  C   UNL d   1      11.716   3.548 -18.409  0.00  0.00     0.064 A 
ATOM     10  C   UNL d   1      11.603   2.574 -17.372  0.00  0.00     0.202 A 
ATOM     11  O   UNL d   1      12.335   1.598 -17.218  0.00  0.00    -0.289 OA
ENDROOT
BRANCH   1  12
ATOM     12  C   UNL d   1       9.556   3.849 -13.031  0.00  0.00     0.251 C 
BRANCH  12  13
ATOM     13  C   UNL d   1       8.303   4.478 -12.383  0.00  0.00     0.043 C 
BRANCH  13  14
ATOM     14  C   UNL d   1       8.577   5.049 -10.982  0.00  0.00     0.071 C 
BRANCH  14  15
ATOM     15  C   UNL d   1       9.307   6.398 -10.978  0.00  0.00     0.173 C 
ATOM     16  O   UNL d   1       9.439   7.022 -12.032  0.00  0.00    -0.291 OA
BRANCH  15  17
ATOM     17  C   UNL d   1       9.865   6.871  -9.679  0.00  0.00     0.035 A 
ATOM     18  C   UNL d   1       9.437   6.326  -8.445  0.00  0.00     0.005 A 
ATOM     19  C   UNL d   1       9.961   6.811  -7.231  0.00  0.00     0.030 A 
ATOM     20  C   UNL d   1      10.919   7.842  -7.236  0.00  0.00     0.140 A 
ATOM     21  C   UNL d   1      11.349   8.393  -8.456  0.00  0.00     0.030 A 
ATOM     22  F   UNL d   1      11.424   8.304  -6.067  0.00  0.00    -0.204 F 
ATOM     23  C   UNL d   1      10.818   7.917  -9.670  0.00  0.00     0.005 A 
ENDBRANCH  15  17
ENDBRANCH  14  15
ENDBRANCH  13  14
ENDBRANCH  12  13
ENDBRANCH   1  12
BRANCH   8  24
ATOM     24  C   UNL d   1      10.346   5.527 -19.116  0.00  0.00     0.022 A 
ATOM     25  C   UNL d   1       9.039   6.053 -19.085  0.00  0.00     0.002 A 
ATOM     26  C   UNL d   1       8.697   7.175 -19.870  0.00  0.00     0.000 A 
ATOM     27  C   UNL d   1       9.664   7.783 -20.685  0.00  0.00     0.000 A 
ATOM     28  C   UNL d   1      10.974   7.270 -20.718  0.00  0.00     0.000 A 
ATOM     29  C   UNL d   1      11.317   6.139 -19.942  0.00  0.00     0.002 A 
ENDBRANCH   8  24
TORSDOF 6
