REMARK  8 active torsions:
REMARK  status: ('A' for Active; 'I' for Inactive)
REMARK    1  A    between atoms: O_2  and  C_3 
REMARK    2  A    between atoms: C_5  and  C_6 
REMARK    3  A    between atoms: C_6  and  N_7 
REMARK    4  A    between atoms: N_10  and  C_11 
REMARK    5  A    between atoms: C_16  and  O_17 
REMARK    6  A    between atoms: C_23  and  O_24 
REMARK    7  A    between atoms: O_24  and  C_25 
REMARK    8  A    between atoms: C_25  and  C_26 
ROOT
ATOM      1  N   UNL d   1       8.197   5.113 -11.933  0.00  0.00     0.145 N 
ATOM      2  C   UNL d   1       8.603   6.513 -11.972  0.00  0.00     0.275 C 
ATOM      3  C   UNL d   1       9.861   6.676 -11.129  0.00  0.00     0.137 C 
ATOM      4  N   UNL d   1       9.656   6.238  -9.760  0.00  0.00    -0.343 N 
ATOM      5  C   UNL d   1       9.092   4.899  -9.627  0.00  0.00     0.137 C 
ATOM      6  C   UNL d   1       7.855   4.806 -10.542  0.00  0.00     0.275 C 
ENDROOT
BRANCH   1   7
ATOM      7  C   UNL d   1       7.009   4.968 -12.761  0.00  0.00     0.277 C 
BRANCH   7   8
ATOM      8  C   UNL d   1       6.859   3.579 -13.309  0.00  0.00     0.013 A 
ATOM      9  C   UNL d   1       7.776   3.092 -14.262  0.00  0.00     0.024 A 
ATOM     10  C   UNL d   1       7.635   1.803 -14.803  0.00  0.00     0.116 A 
ATOM     11  C   UNL d   1       6.554   0.979 -14.399  0.00  0.00     0.116 A 
ATOM     12  C   UNL d   1       5.660   1.468 -13.405  0.00  0.00     0.026 A 
ATOM     13  C   UNL d   1       5.789   2.773 -12.896  0.00  0.00    -0.000 A 
BRANCH  10  14
ATOM     14  O   UNL d   1       8.508   1.413 -15.787  0.00  0.00    -0.326 OA
ATOM     15  C   UNL d   1       9.516   0.522 -15.333  0.00  0.00     0.181 C 
ENDBRANCH  10  14
BRANCH  11  16
ATOM     16  O   UNL d   1       6.432  -0.246 -15.020  0.00  0.00    -0.326 OA
BRANCH  16  17
ATOM     17  C   UNL d   1       5.453  -1.153 -14.530  0.00  0.00     0.187 C 
BRANCH  17  18
ATOM     18  C   UNL d   1       4.008  -0.768 -14.943  0.00  0.00     0.226 C 
ATOM     19  F   UNL d   1       3.161  -1.065 -13.959  0.00  0.00    -0.232 F 
ENDBRANCH  17  18
ENDBRANCH  16  17
ENDBRANCH  11  16
ENDBRANCH   7   8
ENDBRANCH   1   7
BRANCH   4  20
ATOM     20  C   UNL d   1       9.974   7.052  -8.661  0.00  0.00     0.079 A 
ATOM     21  C   UNL d   1      11.187   7.797  -8.596  0.00  0.00     0.110 A 
ATOM     22  C   UNL d   1      11.453   8.612  -7.460  0.00  0.00     0.026 A 
ATOM     23  C   UNL d   1      10.535   8.682  -6.405  0.00  0.00     0.002 A 
ATOM     24  C   UNL d   1       9.350   7.938  -6.468  0.00  0.00     0.002 A 
ATOM     25  C   UNL d   1       9.074   7.121  -7.580  0.00  0.00     0.019 A 
BRANCH  21  26
ATOM     26  O   UNL d   1      12.062   7.692  -9.649  0.00  0.00    -0.327 OA
ATOM     27  C   UNL d   1      13.434   7.917  -9.428  0.00  0.00     0.181 C 
ENDBRANCH  21  26
ENDBRANCH   4  20
TORSDOF 8
