REMARK  1 active torsions:
REMARK  status: ('A' for Active; 'I' for Inactive)
REMARK    1  A    between atoms: C_2  and  C_3 
ROOT
ATOM      1  O   UNL d   1       9.059   8.646  -7.225  0.00  0.00    -0.221 OA
ATOM      2  C   UNL d   1      10.331   8.028  -7.236  0.00  0.00     0.149 C 
ATOM      3  C   UNL d   1      10.144   6.572  -7.739  0.00  0.00     0.073 C 
ATOM      4  C   UNL d   1       9.681   6.500  -9.196  0.00  0.00     0.293 C 
ATOM      5  N   UNL d   1      10.643   7.197 -10.039  0.00  0.00     0.339 N 
ATOM      6  C   UNL d   1      10.698   8.610  -9.693  0.00  0.00     0.293 C 
ATOM      7  C   UNL d   1      11.209   8.785  -8.255  0.00  0.00     0.073 C 
ENDROOT
BRANCH   2   8
ATOM      8  C   UNL d   1      10.941   8.105  -5.830  0.00  0.00     0.005 A 
ATOM      9  C   UNL d   1      11.079   9.366  -5.198  0.00  0.00    -0.001 A 
ATOM     10  C   UNL d   1      11.613   9.462  -3.894  0.00  0.00     0.011 A 
ATOM     11  C   UNL d   1      12.011   8.296  -3.217  0.00  0.00     0.058 A 
ATOM     12  C   UNL d   1      11.873   7.037  -3.823  0.00  0.00     0.011 A 
ATOM     13 CL   UNL d   1      12.657   8.393  -1.638  0.00  0.00    -0.082 Cl
ATOM     14  C   UNL d   1      11.343   6.948  -5.118  0.00  0.00    -0.001 A 
ENDBRANCH   2   8
TORSDOF 1
