REMARK  1 active torsions:
REMARK  status: ('A' for Active; 'I' for Inactive)
REMARK    1  A    between atoms: C_5  and  C_6 
ROOT
ATOM      1  C   UNL d   1      10.123   4.146 -15.733  0.00  0.00    -0.020 C 
ATOM      2  C   UNL d   1       9.746   4.668 -14.541  0.00  0.00    -0.002 C 
ATOM      3  C   UNL d   1       8.488   4.480 -13.804  0.00  0.00     0.022 A 
ATOM      4  C   UNL d   1       7.998   5.548 -13.013  0.00  0.00     0.002 A 
ATOM      5  C   UNL d   1       6.760   5.446 -12.355  0.00  0.00     0.000 A 
ATOM      6  C   UNL d   1       5.996   4.272 -12.479  0.00  0.00     0.002 A 
ATOM      7  C   UNL d   1       6.472   3.200 -13.257  0.00  0.00     0.025 A 
ATOM      8  C   UNL d   1       7.723   3.295 -13.905  0.00  0.00     0.100 A 
ATOM      9  O   UNL d   1       8.207   2.212 -14.582  0.00  0.00    -0.307 OA
ATOM     10  C   UNL d   1       8.344   2.308 -15.940  0.00  0.00     0.100 A 
ATOM     11  C   UNL d   1       7.547   1.450 -16.754  0.00  0.00     0.025 A 
ATOM     12  C   UNL d   1       7.673   1.458 -18.164  0.00  0.00     0.002 A 
ATOM     13  C   UNL d   1       8.626   2.325 -18.744  0.00  0.00     0.000 A 
ATOM     14  C   UNL d   1       9.405   3.145 -17.951  0.00  0.00     0.002 A 
ATOM     15  C   UNL d   1       9.294   3.191 -16.539  0.00  0.00     0.019 A 
ENDROOT
BRANCH   1  16
ATOM     16  C   UNL d   1      11.524   4.468 -16.253  0.00  0.00     0.026 C 
ATOM     17  C   UNL d   1      11.533   5.632 -17.296  0.00  0.00     0.040 C 
ATOM     18  C   UNL d   1      12.950   5.851 -17.840  0.00  0.00     0.251 C 
ATOM     19  N   UNL d   1      13.511   4.593 -18.358  0.00  0.00     0.139 N 
ATOM     20  C   UNL d   1      14.821   4.866 -18.925  0.00  0.00     0.285 C 
ATOM     21  C   UNL d   1      13.677   3.608 -17.280  0.00  0.00     0.251 C 
ATOM     22  C   UNL d   1      12.317   3.214 -16.719  0.00  0.00     0.040 C 
ENDBRANCH   1  16
TORSDOF 1
