REMARK  11 active torsions:
REMARK  status: ('A' for Active; 'I' for Inactive)
REMARK    1  A    between atoms: C_2  and  N_3 
REMARK    2  A    between atoms: N_3  and  C_4 
REMARK    3  A    between atoms: N_3  and  C_20 
REMARK    4  A    between atoms: C_4  and  C_5 
REMARK    5  A    between atoms: C_5  and  C_6 
REMARK    6  A    between atoms: C_6  and  S_7 
REMARK    7  A    between atoms: S_7  and  C_8 
REMARK    8  A    between atoms: C_11  and  C_12 
REMARK    9  A    between atoms: C_20  and  C_21 
REMARK   10  A    between atoms: C_23  and  C_24 
REMARK   11  A    between atoms: C_30  and  O_31 
ROOT
ATOM      1  N   UNL d   1      10.946   3.369 -15.320  0.00  0.00     0.137 N 
ENDROOT
BRANCH   1   2
ATOM      2  C   UNL d   1      12.111   4.175 -15.680  0.00  0.00     0.250 C 
ATOM      3  C   UNL d   1      11.946   4.984 -16.985  0.00  0.00     0.037 C 
ENDBRANCH   1   2
BRANCH   1   4
ATOM      4  C   UNL d   1       9.772   4.194 -15.020  0.00  0.00     0.251 C 
BRANCH   4   5
ATOM      5  C   UNL d   1       9.308   4.018 -13.571  0.00  0.00     0.047 C 
BRANCH   5   6
ATOM      6  C   UNL d   1       7.948   4.708 -13.391  0.00  0.00     0.067 C 
BRANCH   6   7
ATOM      7  S   UNL d   1       7.435   4.743 -11.658  0.00  0.00    -0.075 SA
BRANCH   7   8
ATOM      8  C   UNL d   1       8.557   5.947 -11.035  0.00  0.00     0.193 A 
ATOM      9  N   UNL d   1       8.937   5.992  -9.746  0.00  0.00    -0.289 N 
ATOM     10  C   UNL d   1       9.713   7.101  -9.730  0.00  0.00     0.167 A 
ATOM     11  C   UNL d   1       8.530   5.135  -8.644  0.00  0.00     0.134 C 
ATOM     12  N   UNL d   1       9.862   7.661 -10.934  0.00  0.00    -0.128 NA
ATOM     13  N   UNL d   1       9.097   6.907 -11.792  0.00  0.00    -0.122 NA
BRANCH  10  14
ATOM     14  C   UNL d   1      10.354   7.689  -8.561  0.00  0.00     0.036 A 
ATOM     15  C   UNL d   1       9.699   7.735  -7.310  0.00  0.00     0.003 A 
ATOM     16  C   UNL d   1      10.356   8.287  -6.192  0.00  0.00     0.000 A 
ATOM     17  C   UNL d   1      11.646   8.824  -6.328  0.00  0.00     0.000 A 
ATOM     18  C   UNL d   1      12.290   8.784  -7.578  0.00  0.00     0.000 A 
ATOM     19  C   UNL d   1      11.650   8.229  -8.691  0.00  0.00     0.003 A 
ENDBRANCH  10  14
ENDBRANCH   7   8
ENDBRANCH   6   7
ENDBRANCH   5   6
ENDBRANCH   4   5
ENDBRANCH   1   4
BRANCH   1  20
ATOM     20  C   UNL d   1      10.683   2.341 -16.335  0.00  0.00     0.251 C 
BRANCH  20  21
ATOM     21  C   UNL d   1       9.637   1.341 -15.903  0.00  0.00     0.038 A 
ATOM     22  C   UNL d   1       9.095   0.310 -16.885  0.00  0.00     0.026 A 
ATOM     23  C   UNL d   1       9.967  -0.119 -15.720  0.00  0.00     0.007 A 
BRANCH  22  24
ATOM     24  C   UNL d   1       7.620  -0.009 -16.923  0.00  0.00     0.001 A 
ATOM     25  C   UNL d   1       6.952  -0.441 -18.101  0.00  0.00     0.090 A 
ATOM     26  C   UNL d   1       5.572  -0.773 -18.028  0.00  0.00     0.025 A 
ATOM     27  C   UNL d   1       4.869  -0.687 -16.810  0.00  0.00     0.013 A 
ATOM     28  C   UNL d   1       5.526  -0.249 -15.654  0.00  0.00     0.058 A 
ATOM     29  C   UNL d   1       6.885   0.079 -15.710  0.00  0.00     0.009 A 
ATOM     30 CL   UNL d   1       4.689  -0.120 -14.153  0.00  0.00    -0.082 Cl
BRANCH  25  31
ATOM     31  O   UNL d   1       7.683  -0.531 -19.275  0.00  0.00    -0.328 OA
ATOM     32  C   UNL d   1       7.005  -0.961 -20.458  0.00  0.00     0.181 C 
ENDBRANCH  25  31
ENDBRANCH  22  24
ENDBRANCH  20  21
ENDBRANCH   1  20
TORSDOF 11
