REMARK  8 active torsions:
REMARK  status: ('A' for Active; 'I' for Inactive)
REMARK    1  A    between atoms: O_2  and  C_3 
REMARK    2  A    between atoms: C_6  and  S_7 
REMARK    3  A    between atoms: C_10  and  C_11 
REMARK       I    between atoms: C_11  and  N_13 
REMARK    4  A    between atoms: N_13  and  C_14 
REMARK    5  A    between atoms: C_14  and  C_15 
REMARK    6  A    between atoms: N_19  and  C_20 
REMARK    7  A    between atoms: C_20  and  C_21 
REMARK    8  A    between atoms: C_21  and  C_22 
ROOT
ATOM      1  C   UNL d   1       6.984   1.368 -16.734  0.00  0.00     0.162 C 
ENDROOT
BRANCH   1   2
ATOM      2  N   UNL d   1       8.248   1.023 -17.368  0.00  0.00    -0.232 NA
ATOM      3  C   UNL d   1       8.616   1.432 -18.586  0.00  0.00     0.277 C 
ATOM      4  O   UNL d   1       7.863   1.988 -19.379  0.00  0.00    -0.266 OA
BRANCH   3   5
ATOM      5  C   UNL d   1      10.046   1.162 -18.938  0.00  0.00     0.080 A 
ATOM      6  C   UNL d   1      11.110   1.579 -18.097  0.00  0.00     0.099 A 
ATOM      7  C   UNL d   1      12.437   1.253 -18.477  0.00  0.00     0.025 A 
ATOM      8  C   UNL d   1      12.693   0.537 -19.661  0.00  0.00     0.008 A 
ATOM      9  C   UNL d   1      11.630   0.146 -20.496  0.00  0.00     0.025 A 
ATOM     10  C   UNL d   1      10.312   0.479 -20.142  0.00  0.00     0.013 A 
BRANCH   6  11
ATOM     11  O   UNL d   1      10.809   2.294 -16.954  0.00  0.00    -0.328 OA
ATOM     12  C   UNL d   1      11.855   2.584 -16.039  0.00  0.00     0.181 C 
ENDBRANCH   6  11
BRANCH   9  13
ATOM     13  S   UNL d   1      11.917  -0.768 -21.985  0.00  0.00    -0.113 SA
ATOM     14  C   UNL d   1      13.562  -1.517 -21.844  0.00  0.00     0.074 C 
ENDBRANCH   9  13
ENDBRANCH   3   5
ENDBRANCH   1   2
BRANCH   1  15
ATOM     15  C   UNL d   1       6.523   0.252 -15.771  0.00  0.00     0.243 C 
ATOM     16  N   UNL d   1       5.573   0.718 -14.764  0.00  0.00     0.137 N 
ATOM     17  C   UNL d   1       4.995  -0.513 -14.238  0.00  0.00     0.250 C 
ATOM     18  C   UNL d   1       4.733  -1.359 -15.482  0.00  0.00     0.037 C 
ATOM     19  C   UNL d   1       5.752  -0.855 -16.496  0.00  0.00     0.037 C 
BRANCH  16  20
ATOM     20  C   UNL d   1       6.223   1.506 -13.714  0.00  0.00     0.255 C 
BRANCH  20  21
ATOM     21  C   UNL d   1       6.085   3.023 -13.962  0.00  0.00     0.062 C 
BRANCH  21  22
ATOM     22  C   UNL d   1       7.138   3.817 -13.215  0.00  0.00    -0.020 A 
ATOM     23  C   UNL d   1       8.485   3.788 -13.636  0.00  0.00    -0.004 A 
ATOM     24  C   UNL d   1       9.461   4.525 -12.937  0.00  0.00    -0.000 A 
ATOM     25  C   UNL d   1       9.088   5.300 -11.816  0.00  0.00    -0.000 A 
ATOM     26  C   UNL d   1       7.744   5.322 -11.395  0.00  0.00    -0.000 A 
ATOM     27  C   UNL d   1       6.773   4.580 -12.089  0.00  0.00    -0.004 A 
ENDBRANCH  21  22
ENDBRANCH  20  21
ENDBRANCH  16  20
ENDBRANCH   1  15
TORSDOF 8
