REMARK  7 active torsions:
REMARK  status: ('A' for Active; 'I' for Inactive)
REMARK    1  A    between atoms: C_7  and  O_8 
REMARK    2  A    between atoms: O_8  and  C_9 
REMARK    3  A    between atoms: C_9  and  C_10 
REMARK    4  A    between atoms: C_10  and  C_11 
REMARK    5  A    between atoms: C_11  and  C_12 
REMARK    6  A    between atoms: C_12  and  N_13 
REMARK    7  A    between atoms: N_16  and  C_17 
ROOT
ATOM      1  N   UNL d   1       9.261   5.143  -9.633  0.00  0.00     0.141 N 
ATOM      2  C   UNL d   1       8.797   6.524  -9.624  0.00  0.00     0.274 C 
ATOM      3  C   UNL d   1       8.636   7.042  -8.182  0.00  0.00     0.137 C 
ATOM      4  N   UNL d   1       9.909   6.982  -7.508  0.00  0.00    -0.344 N 
ATOM      5  C   UNL d   1      10.484   5.689  -7.595  0.00  0.00     0.137 C 
ATOM      6  C   UNL d   1      10.552   5.214  -8.986  0.00  0.00     0.274 C 
ENDROOT
BRANCH   1   7
ATOM      7  C   UNL d   1       9.457   4.704 -11.007  0.00  0.00     0.251 C 
BRANCH   7   8
ATOM      8  C   UNL d   1       8.130   4.491 -11.754  0.00  0.00     0.038 C 
BRANCH   8   9
ATOM      9  C   UNL d   1       8.340   4.171 -13.232  0.00  0.00     0.035 C 
BRANCH   9  10
ATOM     10  C   UNL d   1       7.162   3.383 -13.802  0.00  0.00     0.149 C 
BRANCH  10  11
ATOM     11  O   UNL d   1       7.605   2.762 -14.999  0.00  0.00    -0.331 OA
BRANCH  11  12
ATOM     12  C   UNL d   1       6.968   1.619 -15.440  0.00  0.00     0.090 A 
ATOM     13  C   UNL d   1       7.423   1.062 -16.665  0.00  0.00     0.000 A 
ATOM     14  C   UNL d   1       8.572   1.715 -17.413  0.00  0.00     0.033 C 
ATOM     15  C   UNL d   1       6.822  -0.101 -17.211  0.00  0.00    -0.004 A 
ATOM     16  C   UNL d   1       5.754  -0.672 -16.500  0.00  0.00     0.007 A 
ATOM     17  C   UNL d   1       4.939  -1.896 -16.816  0.00  0.00     0.155 A 
ATOM     18  C   UNL d   1       5.298  -0.138 -15.321  0.00  0.00     0.057 A 
ATOM     19  N   UNL d   1       3.987  -1.925 -15.703  0.00  0.00    -0.229 NA
ATOM     20  C   UNL d   1       4.156  -0.926 -14.816  0.00  0.00     0.275 A 
ATOM     21  O   UNL d   1       3.527  -0.715 -13.783  0.00  0.00    -0.266 OA
ATOM     22  C   UNL d   1       5.882   1.010 -14.754  0.00  0.00     0.028 A 
ENDBRANCH  11  12
ENDBRANCH  10  11
ENDBRANCH   9  10
ENDBRANCH   8   9
ENDBRANCH   7   8
ENDBRANCH   1   7
BRANCH   4  23
ATOM     23  C   UNL d   1      10.410   7.986  -6.705  0.00  0.00     0.056 C 
ATOM     24  C   UNL d   1      10.993   7.791  -5.413  0.00  0.00     0.016 A 
ATOM     25  C   UNL d   1      11.512   8.890  -4.719  0.00  0.00     0.004 A 
ATOM     26  C   UNL d   1      11.058   6.548  -4.764  0.00  0.00     0.004 A 
ATOM     27  C   UNL d   1      11.459  10.132  -5.314  0.00  0.00     0.000 C 
ATOM     28  C   UNL d   1      12.097   8.827  -3.442  0.00  0.00     0.030 A 
ATOM     29  C   UNL d   1      11.029  10.310  -6.607  0.00  0.00     0.002 C 
ATOM     30  C   UNL d   1      10.414   9.255  -7.284  0.00  0.00     0.017 C 
ATOM     31  C   UNL d   1      12.113   7.577  -2.824  0.00  0.00     0.140 A 
ATOM     32  F   UNL d   1      12.489   7.453  -1.545  0.00  0.00    -0.204 F 
ATOM     33  C   UNL d   1      11.652   6.471  -3.490  0.00  0.00     0.030 A 
ENDBRANCH   4  23
TORSDOF 7
