REMARK  10 active torsions:
REMARK  status: ('A' for Active; 'I' for Inactive)
REMARK    1  A    between atoms: O_2  and  C_3 
REMARK    2  A    between atoms: C_8  and  N_9 
REMARK    3  A    between atoms: N_12  and  C_13 
REMARK    4  A    between atoms: C_13  and  C_14 
REMARK    5  A    between atoms: N_16  and  C_17 
REMARK    6  A    between atoms: C_17  and  C_18 
REMARK    7  A    between atoms: C_18  and  C_19 
REMARK    8  A    between atoms: C_19  and  C_20 
REMARK    9  A    between atoms: C_20  and  C_21 
REMARK   10  A    between atoms: C_21  and  C_22 
ROOT
ATOM      1  N   UNL d   1      10.905   2.597 -15.521  0.00  0.00    -0.344 N 
ATOM      2  C   UNL d   1      11.295   3.955 -15.898  0.00  0.00     0.119 C 
ATOM      3  C   UNL d   1      10.399   4.986 -15.166  0.00  0.00     0.101 C 
ATOM      4  N   UNL d   1      10.401   4.780 -13.706  0.00  0.00    -0.246 NA
ATOM      5  C   UNL d   1       9.899   3.421 -13.450  0.00  0.00     0.101 C 
ATOM      6  C   UNL d   1      10.795   2.364 -14.091  0.00  0.00     0.119 C 
ENDROOT
BRANCH   4   7
ATOM      7  C   UNL d   1       9.547   5.782 -13.049  0.00  0.00     0.070 C 
BRANCH   7   8
ATOM      8  C   UNL d   1       9.379   5.841 -11.561  0.00  0.00     0.135 A 
ATOM      9  N   UNL d   1       9.019   4.724 -10.818  0.00  0.00    -0.128 NA
ATOM     10  N   UNL d   1       8.986   4.999  -9.558  0.00  0.00    -0.064 NA
ATOM     11  N   UNL d   1       9.277   6.308  -9.475  0.00  0.00    -0.230 N 
ATOM     12  C   UNL d   1       9.510   6.892 -10.706  0.00  0.00     0.119 A 
BRANCH  11  13
ATOM     13  C   UNL d   1       9.293   6.926  -8.174  0.00  0.00     0.129 C 
BRANCH  13  14
ATOM     14  C   UNL d   1      10.656   6.716  -7.502  0.00  0.00     0.026 C 
BRANCH  14  15
ATOM     15  C   UNL d   1      10.773   7.463  -6.176  0.00  0.00     0.002 C 
BRANCH  15  16
ATOM     16  C   UNL d   1      11.002   8.976  -6.356  0.00  0.00     0.003 C 
BRANCH  16  17
ATOM     17  C   UNL d   1      11.162   9.738  -5.035  0.00  0.00     0.038 C 
BRANCH  17  18
ATOM     18  C   UNL d   1      12.415   9.389  -4.217  0.00  0.00     0.193 C 
ATOM     19  F   UNL d   1      12.386   8.156  -3.716  0.00  0.00    -0.234 F 
ENDBRANCH  17  18
ENDBRANCH  16  17
ENDBRANCH  15  16
ENDBRANCH  14  15
ENDBRANCH  13  14
ENDBRANCH  11  13
ENDBRANCH   7   8
ENDBRANCH   4   7
BRANCH   1  20
ATOM     20  C   UNL d   1      10.544   1.635 -16.452  0.00  0.00     0.079 A 
ATOM     21  C   UNL d   1       9.320   0.896 -16.355  0.00  0.00     0.110 A 
ATOM     22  C   UNL d   1       9.032  -0.093 -17.322  0.00  0.00     0.026 A 
ATOM     23  C   UNL d   1       9.927  -0.356 -18.376  0.00  0.00     0.002 A 
ATOM     24  C   UNL d   1      11.128   0.369 -18.476  0.00  0.00     0.002 A 
ATOM     25  C   UNL d   1      11.429   1.355 -17.524  0.00  0.00     0.019 A 
BRANCH  21  26
ATOM     26  O   UNL d   1       8.462   1.219 -15.322  0.00  0.00    -0.327 OA
ATOM     27  C   UNL d   1       7.241   0.512 -15.193  0.00  0.00     0.181 C 
ENDBRANCH  21  26
ENDBRANCH   1  20
TORSDOF 10
