REMARK  8 active torsions:
REMARK  status: ('A' for Active; 'I' for Inactive)
REMARK    1  A    between atoms: C_3  and  S_4 
REMARK    2  A    between atoms: S_4  and  C_5 
REMARK    3  A    between atoms: C_5  and  C_6 
REMARK    4  A    between atoms: C_6  and  C_7 
REMARK    5  A    between atoms: C_7  and  N_8 
REMARK    6  A    between atoms: C_12  and  C_13 
REMARK    7  A    between atoms: C_16  and  C_17 
REMARK    8  A    between atoms: C_26  and  C_27 
ROOT
ATOM      1  N   UNL d   1       8.508   3.071 -14.257  0.00  0.00     0.143 N 
ATOM      2  C   UNL d   1       7.104   2.703 -14.060  0.00  0.00     0.282 C 
ATOM      3  C   UNL d   1       6.231   3.888 -13.629  0.00  0.00     0.178 C 
ATOM      4  O   UNL d   1       6.790   4.506 -12.484  0.00  0.00    -0.348 OA
ATOM      5  C   UNL d   1       8.129   4.972 -12.671  0.00  0.00     0.171 C 
ATOM      6  C   UNL d   1       9.013   3.779 -13.086  0.00  0.00     0.284 C 
ENDROOT
BRANCH   1   7
ATOM      7  C   UNL d   1       9.347   1.919 -14.596  0.00  0.00     0.251 C 
BRANCH   7   8
ATOM      8  C   UNL d   1       9.196   1.476 -16.061  0.00  0.00     0.047 C 
BRANCH   8   9
ATOM      9  C   UNL d   1      10.257   0.442 -16.525  0.00  0.00     0.067 C 
BRANCH   9  10
ATOM     10  S   UNL d   1      10.566   0.473 -18.320  0.00  0.00    -0.075 SA
BRANCH  10  11
ATOM     11  C   UNL d   1      10.780   2.209 -18.573  0.00  0.00     0.193 A 
ATOM     12  N   UNL d   1      11.692   2.959 -17.917  0.00  0.00    -0.289 N 
ATOM     13  C   UNL d   1      12.717   2.523 -16.985  0.00  0.00     0.134 C 
ATOM     14  C   UNL d   1      11.403   4.210 -18.346  0.00  0.00     0.168 A 
ATOM     15  N   UNL d   1      10.402   4.223 -19.235  0.00  0.00    -0.128 NA
ATOM     16  N   UNL d   1      10.015   2.914 -19.404  0.00  0.00    -0.122 NA
BRANCH  14  17
ATOM     17  C   UNL d   1      12.082   5.440 -17.927  0.00  0.00     0.055 A 
ATOM     18  C   UNL d   1      12.532   5.636 -16.600  0.00  0.00     0.102 A 
ATOM     19  N   UNL d   1      13.202   6.731 -16.187  0.00  0.00    -0.242 NA
ATOM     20  C   UNL d   1      13.429   7.709 -17.089  0.00  0.00     0.099 A 
ATOM     21  C   UNL d   1      13.003   7.632 -18.427  0.00  0.00     0.021 A 
ATOM     22  C   UNL d   1      12.314   6.481 -18.853  0.00  0.00     0.006 A 
ENDBRANCH  14  17
ENDBRANCH  10  11
ENDBRANCH   9  10
ENDBRANCH   8   9
ENDBRANCH   7   8
ENDBRANCH   1   7
BRANCH   5  23
ATOM     23  C   UNL d   1       8.662   5.621 -11.398  0.00  0.00     0.007 A 
ATOM     24  C   UNL d   1       9.461   6.783 -11.447  0.00  0.00    -0.002 A 
ATOM     25  C   UNL d   1       9.947   7.367 -10.260  0.00  0.00     0.004 A 
ATOM     26  C   UNL d   1       9.652   6.790  -9.004  0.00  0.00     0.071 A 
ATOM     27  C   UNL d   1       8.878   5.612  -8.957  0.00  0.00     0.004 A 
ATOM     28  C   UNL d   1       8.388   5.041 -10.144  0.00  0.00    -0.002 A 
BRANCH  26  29
ATOM     29  C   UNL d   1      10.166   7.428  -7.723  0.00  0.00     0.419 C 
ATOM     30  F   UNL d   1      10.172   8.760  -7.824  0.00  0.00    -0.166 F 
ATOM     31  F   UNL d   1       9.419   7.094  -6.665  0.00  0.00    -0.166 F 
ATOM     32  F   UNL d   1      11.415   7.016  -7.498  0.00  0.00    -0.166 F 
ENDBRANCH  26  29
ENDBRANCH   5  23
TORSDOF 8
