REMARK  6 active torsions:
REMARK  status: ('A' for Active; 'I' for Inactive)
REMARK       I    between atoms: C_2  and  N_3 
REMARK    1  A    between atoms: C_2  and  C_18 
REMARK    2  A    between atoms: N_3  and  C_4 
REMARK    3  A    between atoms: C_4  and  C_5 
REMARK    4  A    between atoms: N_9  and  C_10 
REMARK    5  A    between atoms: C_10  and  C_11 
REMARK    6  A    between atoms: C_11  and  C_12 
ROOT
ATOM      1  C   UNL d   1       9.157   5.418 -11.631  0.00  0.00     0.243 C 
ATOM      2  C   UNL d   1       7.991   6.394 -11.588  0.00  0.00     0.037 C 
ATOM      3  C   UNL d   1       7.488   6.460 -13.014  0.00  0.00     0.037 C 
ATOM      4  C   UNL d   1       8.433   5.540 -13.770  0.00  0.00     0.250 C 
ATOM      5  N   UNL d   1       8.857   4.582 -12.758  0.00  0.00     0.137 N 
ENDROOT
BRANCH   1   6
ATOM      6  C   UNL d   1       9.305   4.651 -10.300  0.00  0.00     0.162 C 
BRANCH   6   7
ATOM      7  N   UNL d   1       9.443   5.515  -9.130  0.00  0.00    -0.236 NA
ATOM      8  C   UNL d   1      10.235   6.590  -9.028  0.00  0.00     0.251 C 
ATOM      9  O   UNL d   1      10.954   7.010  -9.931  0.00  0.00    -0.271 OA
BRANCH   8  10
ATOM     10  C   UNL d   1      10.239   7.309  -7.686  0.00  0.00     0.081 C 
ATOM     11  C   UNL d   1      11.370   6.724  -6.822  0.00  0.00     0.009 C 
ATOM     12  C   UNL d   1      11.445   7.428  -5.463  0.00  0.00     0.001 C 
ATOM     13  C   UNL d   1      11.627   8.946  -5.642  0.00  0.00     0.000 C 
ATOM     14  C   UNL d   1      10.521   9.533  -6.525  0.00  0.00     0.001 C 
ATOM     15  C   UNL d   1      10.442   8.830  -7.881  0.00  0.00     0.009 C 
ENDBRANCH   8  10
ENDBRANCH   6   7
ENDBRANCH   1   6
BRANCH   5  16
ATOM     16  C   UNL d   1       9.941   3.744 -13.230  0.00  0.00     0.255 C 
BRANCH  16  17
ATOM     17  C   UNL d   1       9.551   2.938 -14.491  0.00  0.00     0.062 C 
BRANCH  17  18
ATOM     18  C   UNL d   1       8.229   2.142 -14.387  0.00  0.00    -0.020 A 
ATOM     19  C   UNL d   1       6.990   2.749 -14.014  0.00  0.00    -0.004 A 
ATOM     20  C   UNL d   1       5.867   1.967 -13.806  0.00  0.00    -0.000 A 
ATOM     21  C   UNL d   1       5.845   0.582 -14.066  0.00  0.00    -0.000 A 
ATOM     22  C   UNL d   1       7.054  -0.035 -14.479  0.00  0.00    -0.000 A 
ATOM     23  C   UNL d   1       8.240   0.734 -14.630  0.00  0.00    -0.004 A 
ENDBRANCH  17  18
ENDBRANCH  16  17
ENDBRANCH   5  16
TORSDOF 6
