REMARK  0 active torsions:
REMARK  status: ('A' for Active; 'I' for Inactive)
ROOT
ATOM      1  N   UNL d   1       9.002   8.555  -7.258  0.00  0.00     0.616 N 
ATOM      2  C   UNL d   1      10.374   8.938  -7.571  0.00  0.00     0.307 C 
ATOM      3  C   UNL d   1      11.154   7.661  -7.885  0.00  0.00     0.044 C 
ATOM      4  C   UNL d   1      11.191   6.719  -6.671  0.00  0.00     0.028 C 
ATOM      5  C   UNL d   1      11.457   7.422  -5.346  0.00  0.00    -0.026 A 
ATOM      6  C   UNL d   1      11.836   6.648  -4.234  0.00  0.00    -0.003 A 
ATOM      7  C   UNL d   1      12.114   7.229  -2.987  0.00  0.00     0.027 A 
ATOM      8  C   UNL d   1      12.028   8.621  -2.848  0.00  0.00     0.131 A 
ATOM      9  O   UNL d   1      12.311   9.191  -1.643  0.00  0.00    -0.190 OA
ATOM     10  C   UNL d   1      11.632   9.410  -3.948  0.00  0.00     0.023 A 
ATOM     11  C   UNL d   1      11.357   8.822  -5.201  0.00  0.00    -0.022 A 
ATOM     12  C   UNL d   1      10.995   9.700  -6.384  0.00  0.00     0.065 C 
ENDROOT
TORSDOF 0
