REMARK  1 active torsions:
REMARK  status: ('A' for Active; 'I' for Inactive)
REMARK    1  A    between atoms: C_10  and  N_11 
ROOT
ATOM      1  C   UNL d   1       5.904  -0.221 -13.698  0.00  0.00     0.000 C 
ATOM      2  C   UNL d   1       6.417   0.709 -14.528  0.00  0.00     0.000 C 
ATOM      3  C   UNL d   1       6.687   2.071 -14.047  0.00  0.00     0.000 A 
ATOM      4  C   UNL d   1       5.739   2.731 -13.235  0.00  0.00     0.000 A 
ATOM      5  C   UNL d   1       5.984   4.029 -12.747  0.00  0.00     0.000 A 
ATOM      6  C   UNL d   1       7.199   4.670 -13.046  0.00  0.00     0.000 A 
ATOM      7  C   UNL d   1       8.160   4.009 -13.834  0.00  0.00     0.000 A 
ATOM      8  C   UNL d   1       7.919   2.712 -14.333  0.00  0.00     0.001 A 
ATOM      9  C   UNL d   1       8.983   2.081 -15.126  0.00  0.00     0.017 C 
ATOM     10  C   UNL d   1       8.897   1.214 -16.158  0.00  0.00     0.056 C 
ATOM     11  C   UNL d   1       7.610   0.747 -16.750  0.00  0.00     0.015 A 
ATOM     12  C   UNL d   1       7.530   0.608 -18.156  0.00  0.00     0.001 A 
ATOM     13  C   UNL d   1       6.373   0.107 -18.778  0.00  0.00     0.000 A 
ATOM     14  C   UNL d   1       5.245  -0.217 -18.006  0.00  0.00     0.000 A 
ATOM     15  C   UNL d   1       5.282  -0.016 -16.614  0.00  0.00     0.000 A 
ATOM     16  C   UNL d   1       6.445   0.480 -15.977  0.00  0.00     0.001 A 
ENDROOT
BRANCH  10  17
ATOM     17  N   UNL d   1      10.044   0.612 -16.685  0.00  0.00    -0.344 N 
ATOM     18  C   UNL d   1      10.103  -0.765 -17.187  0.00  0.00     0.137 C 
ATOM     19  C   UNL d   1      10.705  -0.800 -18.607  0.00  0.00     0.274 C 
ATOM     20  N   UNL d   1      12.035  -0.190 -18.619  0.00  0.00     0.143 N 
ATOM     21  C   UNL d   1      11.914   1.204 -18.184  0.00  0.00     0.274 C 
ATOM     22  C   UNL d   1      12.562  -0.223 -19.978  0.00  0.00     0.286 C 
ATOM     23  C   UNL d   1      11.354   1.264 -16.753  0.00  0.00     0.137 C 
ENDBRANCH  10  17
TORSDOF 1
