REMARK  17 active torsions:
REMARK  status: ('A' for Active; 'I' for Inactive)
REMARK    1  A    between atoms: N_2  and  C_3 
REMARK    2  A    between atoms: N_14  and  C_15 
REMARK    3  A    between atoms: C_15  and  C_16 
REMARK    4  A    between atoms: C_16  and  C_17 
REMARK    5  A    between atoms: C_17  and  C_18 
REMARK    6  A    between atoms: C_18  and  C_19 
REMARK    7  A    between atoms: C_19  and  C_20 
REMARK    8  A    between atoms: C_20  and  C_21 
REMARK    9  A    between atoms: C_21  and  C_22 
REMARK   10  A    between atoms: C_22  and  C_23 
REMARK   11  A    between atoms: C_23  and  C_24 
REMARK   12  A    between atoms: C_24  and  O_25 
REMARK   13  A    between atoms: O_25  and  C_26 
REMARK   14  A    between atoms: C_26  and  C_27 
REMARK   15  A    between atoms: C_27  and  C_28 
REMARK   16  A    between atoms: C_28  and  C_29 
REMARK   17  A    between atoms: C_29  and  C_30 
ROOT
ATOM      1  C   UNL d   1       9.688   1.605 -19.507  0.00  0.00     0.002 C 
ENDROOT
BRANCH   1   2
ATOM      2  C   UNL d   1       8.720   1.126 -20.585  0.00  0.00     0.025 C 
BRANCH   2   3
ATOM      3  C   UNL d   1       8.236  -0.337 -20.362  0.00  0.00     0.111 C 
BRANCH   3   4
ATOM      4  N   UNL d   1       7.306  -0.585 -19.236  0.00  0.00    -0.280 N 
ATOM      5  C   UNL d   1       6.042  -1.198 -19.303  0.00  0.00     0.080 A 
ATOM      6  C   UNL d   1       5.287  -1.794 -20.358  0.00  0.00     0.019 A 
ATOM      7  C   UNL d   1       5.478  -1.216 -18.044  0.00  0.00     0.076 A 
ATOM      8  C   UNL d   1       4.034  -2.363 -20.008  0.00  0.00     0.001 A 
ATOM      9  C   UNL d   1       3.528  -2.354 -18.690  0.00  0.00    -0.003 A 
ATOM     10  C   UNL d   1       4.259  -1.759 -17.655  0.00  0.00    -0.003 A 
ATOM     11  C   UNL d   1       3.994  -1.651 -16.153  0.00  0.00     0.066 C 
ATOM     12  C   UNL d   1       4.699  -0.458 -15.465  0.00  0.00     0.283 C 
ATOM     13  C   UNL d   1       6.188  -0.422 -15.798  0.00  0.00     0.147 C 
ATOM     14  N   UNL d   1       6.418  -0.596 -17.229  0.00  0.00    -0.278 N 
ATOM     15  C   UNL d   1       7.540  -0.341 -17.891  0.00  0.00     0.332 C 
ATOM     16  O   UNL d   1       8.615  -0.053 -17.372  0.00  0.00    -0.246 OA
BRANCH  12  17
ATOM     17  N   UNL d   1       4.476  -0.470 -14.024  0.00  0.00     0.342 N 
ATOM     18  C   UNL d   1       5.265   0.525 -13.297  0.00  0.00     0.328 C 
ENDBRANCH  12  17
ENDBRANCH   3   4
ENDBRANCH   2   3
ENDBRANCH   1   2
BRANCH   1  19
ATOM     19  C   UNL d   1      10.280   2.989 -19.685  0.00  0.00     0.000 C 
BRANCH  19  20
ATOM     20  C   UNL d   1      11.025   3.433 -18.395  0.00  0.00     0.000 C 
BRANCH  20  21
ATOM     21  C   UNL d   1      10.140   3.608 -17.134  0.00  0.00     0.000 C 
BRANCH  21  22
ATOM     22  C   UNL d   1      10.918   4.150 -15.928  0.00  0.00     0.000 C 
BRANCH  22  23
ATOM     23  C   UNL d   1      10.158   3.954 -14.602  0.00  0.00     0.003 C 
BRANCH  23  24
ATOM     24  C   UNL d   1      10.603   4.948 -13.527  0.00  0.00     0.032 C 
BRANCH  24  25
ATOM     25  C   UNL d   1       9.771   4.861 -12.238  0.00  0.00     0.142 C 
BRANCH  25  26
ATOM     26  O   UNL d   1       9.855   6.106 -11.558  0.00  0.00    -0.354 OA
BRANCH  26  27
ATOM     27  C   UNL d   1       9.616   6.030 -10.160  0.00  0.00     0.142 C 
BRANCH  27  28
ATOM     28  C   UNL d   1       9.921   7.386  -9.493  0.00  0.00     0.033 C 
BRANCH  28  29
ATOM     29  C   UNL d   1      10.133   7.230  -7.985  0.00  0.00     0.007 C 
BRANCH  29  30
ATOM     30  C   UNL d   1      10.315   8.555  -7.215  0.00  0.00     0.026 C 
BRANCH  30  31
ATOM     31  C   UNL d   1      10.914   8.395  -5.817  0.00  0.00    -0.022 A 
ATOM     32  C   UNL d   1      11.299   9.541  -5.086  0.00  0.00    -0.004 A 
ATOM     33  C   UNL d   1      11.856   9.405  -3.795  0.00  0.00    -0.000 A 
ATOM     34  C   UNL d   1      12.049   8.129  -3.231  0.00  0.00    -0.000 A 
ATOM     35  C   UNL d   1      11.674   6.985  -3.955  0.00  0.00    -0.000 A 
ATOM     36  C   UNL d   1      11.099   7.120  -5.230  0.00  0.00    -0.004 A 
ENDBRANCH  30  31
ENDBRANCH  29  30
ENDBRANCH  28  29
ENDBRANCH  27  28
ENDBRANCH  26  27
ENDBRANCH  25  26
ENDBRANCH  24  25
ENDBRANCH  23  24
ENDBRANCH  22  23
ENDBRANCH  21  22
ENDBRANCH  20  21
ENDBRANCH  19  20
ENDBRANCH   1  19
TORSDOF 17
