REMARK  10 active torsions:
REMARK  status: ('A' for Active; 'I' for Inactive)
REMARK    1  A    between atoms: O_2  and  C_3 
REMARK    2  A    between atoms: C_8  and  C_9 
REMARK    3  A    between atoms: C_9  and  C_10 
REMARK    4  A    between atoms: C_9  and  N_16 
REMARK    5  A    between atoms: N_19  and  C_20 
REMARK    6  A    between atoms: C_20  and  C_21 
REMARK    7  A    between atoms: C_21  and  C_22 
REMARK    8  A    between atoms: C_22  and  C_23 
REMARK    9  A    between atoms: C_23  and  N_24 
REMARK       I    between atoms: N_24  and  C_25 
REMARK   10  A    between atoms: C_25  and  C_27 
ROOT
ATOM      1  N   UNL d   1      10.053   3.349 -16.622  0.00  0.00     0.147 N 
ATOM      2  C   UNL d   1      10.129   2.275 -15.620  0.00  0.00     0.286 C 
ATOM      3  C   UNL d   1       9.291   2.608 -14.380  0.00  0.00     0.285 C 
ATOM      4  N   UNL d   1       9.756   3.832 -13.742  0.00  0.00     0.141 N 
ATOM      5  C   UNL d   1       9.706   4.913 -14.716  0.00  0.00     0.285 C 
ATOM      6  C   UNL d   1      10.515   4.589 -15.983  0.00  0.00     0.286 C 
ENDROOT
BRANCH   4   7
ATOM      7  C   UNL d   1       8.952   4.135 -12.566  0.00  0.00     0.251 C 
BRANCH   7   8
ATOM      8  C   UNL d   1       9.575   5.188 -11.633  0.00  0.00     0.037 C 
BRANCH   8   9
ATOM      9  C   UNL d   1       8.653   6.364 -11.291  0.00  0.00     0.029 C 
BRANCH   9  10
ATOM     10  C   UNL d   1       9.434   7.646 -10.939  0.00  0.00     0.129 C 
BRANCH  10  11
ATOM     11  N   UNL d   1       9.919   7.620  -9.566  0.00  0.00    -0.234 NA
ATOM     12  C   UNL d   1      10.654   8.592  -9.005  0.00  0.00     0.281 C 
ATOM     13  O   UNL d   1      11.056   9.579  -9.623  0.00  0.00    -0.265 OA
BRANCH  12  14
ATOM     14  C   UNL d   1      10.896   8.472  -7.549  0.00  0.00     0.087 A 
ATOM     15  S   UNL d   1      11.089   6.862  -6.916  0.00  0.00    -0.082 SA
ATOM     16  C   UNL d   1      11.424   7.492  -5.311  0.00  0.00     0.030 A 
ATOM     17  C   UNL d   1      11.339   8.919  -5.293  0.00  0.00     0.007 A 
ATOM     18  C   UNL d   1      11.735   6.757  -4.157  0.00  0.00     0.006 A 
ATOM     19  C   UNL d   1      11.048   9.459  -6.605  0.00  0.00     0.012 A 
ATOM     20  C   UNL d   1      11.551   9.550  -4.041  0.00  0.00     0.001 A 
ATOM     21  C   UNL d   1      11.860   8.816  -2.880  0.00  0.00     0.000 A 
ATOM     22  C   UNL d   1      11.948   7.415  -2.934  0.00  0.00     0.001 A 
ENDBRANCH  12  14
ENDBRANCH  10  11
ENDBRANCH   9  10
ENDBRANCH   8   9
ENDBRANCH   7   8
ENDBRANCH   4   7
BRANCH   1  23
ATOM     23  C   UNL d   1      10.812   3.030 -17.849  0.00  0.00     0.266 C 
BRANCH  23  24
ATOM     24  C   UNL d   1      10.456   1.689 -18.504  0.00  0.00     0.035 A 
ATOM     25  C   UNL d   1       9.128   1.176 -18.557  0.00  0.00     0.092 A 
ATOM     26  C   UNL d   1       8.910  -0.094 -19.147  0.00  0.00     0.024 A 
ATOM     27  C   UNL d   1       9.970  -0.810 -19.723  0.00  0.00     0.002 A 
ATOM     28  C   UNL d   1      11.272  -0.290 -19.698  0.00  0.00    -0.000 A 
ATOM     29  C   UNL d   1      11.511   0.952 -19.083  0.00  0.00    -0.000 A 
BRANCH  25  30
ATOM     30  O   UNL d   1       8.095   1.933 -18.048  0.00  0.00    -0.328 OA
ATOM     31  C   UNL d   1       6.896   1.271 -17.674  0.00  0.00     0.181 C 
ENDBRANCH  25  30
ENDBRANCH  23  24
BRANCH  23  32
ATOM     32  C   UNL d   1      10.779   4.124 -18.915  0.00  0.00     0.013 A 
ATOM     33  C   UNL d   1      11.965   4.453 -19.608  0.00  0.00    -0.002 A 
ATOM     34  C   UNL d   1      11.957   5.436 -20.616  0.00  0.00    -0.000 A 
ATOM     35  C   UNL d   1      10.758   6.101 -20.939  0.00  0.00    -0.000 A 
ATOM     36  C   UNL d   1       9.569   5.779 -20.256  0.00  0.00    -0.000 A 
ATOM     37  C   UNL d   1       9.579   4.790 -19.250  0.00  0.00    -0.002 A 
ENDBRANCH  23  32
ENDBRANCH   1  23
TORSDOF 10
