REMARK  7 active torsions:
REMARK  status: ('A' for Active; 'I' for Inactive)
REMARK    1  A    between atoms: C_2  and  C_3 
REMARK    2  A    between atoms: N_13  and  C_14 
REMARK    3  A    between atoms: C_14  and  C_15 
REMARK    4  A    between atoms: C_15  and  C_17 
REMARK    5  A    between atoms: C_17  and  N_18 
REMARK    6  A    between atoms: N_21  and  C_22 
REMARK    7  A    between atoms: C_22  and  C_23 
ROOT
ATOM      1  C   UNL d   1       9.703   7.829 -10.484  0.00  0.00     0.208 C 
ATOM      2  O   UNL d   1       9.275   9.155 -10.282  0.00  0.00    -0.219 OA
ENDROOT
BRANCH   1   3
ATOM      3  C   UNL d   1       9.749   7.213  -9.059  0.00  0.00     0.148 C 
BRANCH   3   4
ATOM      4  N   UNL d   1      10.636   7.958  -8.168  0.00  0.00    -0.247 N 
ATOM      5  C   UNL d   1      11.935   8.198  -8.412  0.00  0.00     0.348 A 
ATOM      6  N   UNL d   1      12.447   8.821  -7.354  0.00  0.00    -0.209 NA
ATOM      7  O   UNL d   1      12.583   7.903  -9.412  0.00  0.00    -0.245 OA
ATOM      8  C   UNL d   1      11.454   9.163  -6.353  0.00  0.00     0.179 A 
ATOM      9  C   UNL d   1      11.333  10.672  -6.266  0.00  0.00     0.039 C 
ATOM     10  C   UNL d   1      10.245   8.517  -7.015  0.00  0.00     0.265 A 
ATOM     11  O   UNL d   1       9.114   8.501  -6.522  0.00  0.00    -0.269 OA
BRANCH   8  12
ATOM     12  C   UNL d   1      11.731   8.534  -4.992  0.00  0.00     0.006 A 
ATOM     13  C   UNL d   1      11.952   9.337  -3.833  0.00  0.00     0.000 A 
ATOM     14  C   UNL d   1      12.273   8.756  -2.602  0.00  0.00     0.029 A 
ATOM     15  C   UNL d   1      12.348   7.366  -2.533  0.00  0.00     0.140 A 
ATOM     16  C   UNL d   1      12.120   6.574  -3.640  0.00  0.00     0.029 A 
ATOM     17  F   UNL d   1      12.687   6.737  -1.407  0.00  0.00    -0.204 F 
ATOM     18  C   UNL d   1      11.799   7.125  -4.876  0.00  0.00     0.000 A 
ENDBRANCH   8  12
ENDBRANCH   3   4
ENDBRANCH   1   3
BRANCH   1  19
ATOM     19  C   UNL d   1       8.703   7.133 -11.439  0.00  0.00     0.285 C 
BRANCH  19  20
ATOM     20  N   UNL d   1       9.227   6.046 -12.238  0.00  0.00     0.144 N 
ATOM     21  C   UNL d   1       9.364   4.810 -11.470  0.00  0.00     0.286 C 
ATOM     22  C   UNL d   1       9.902   3.673 -12.340  0.00  0.00     0.286 C 
ATOM     23  N   UNL d   1       9.065   3.391 -13.496  0.00  0.00     0.146 N 
ATOM     24  C   UNL d   1       8.932   4.640 -14.232  0.00  0.00     0.286 C 
ATOM     25  C   UNL d   1       8.332   5.746 -13.349  0.00  0.00     0.286 C 
BRANCH  23  26
ATOM     26  C   UNL d   1       9.638   2.302 -14.285  0.00  0.00     0.277 C 
BRANCH  26  27
ATOM     27  C   UNL d   1       8.802   1.919 -15.496  0.00  0.00     0.011 A 
ATOM     28  C   UNL d   1       7.702   1.020 -15.426  0.00  0.00    -0.002 A 
ATOM     29  C   UNL d   1       6.976   0.713 -16.608  0.00  0.00    -0.000 A 
ATOM     30  C   UNL d   1       7.304   0.412 -14.215  0.00  0.00    -0.000 A 
ATOM     31  C   UNL d   1       7.346   1.292 -17.837  0.00  0.00    -0.000 A 
ATOM     32  C   UNL d   1       5.888  -0.184 -16.566  0.00  0.00    -0.000 A 
ATOM     33  C   UNL d   1       8.421   2.197 -17.897  0.00  0.00    -0.000 A 
ATOM     34  C   UNL d   1       9.145   2.505 -16.733  0.00  0.00    -0.002 A 
ATOM     35  C   UNL d   1       5.499  -0.774 -15.348  0.00  0.00    -0.000 A 
ATOM     36  C   UNL d   1       6.207  -0.467 -14.173  0.00  0.00    -0.000 A 
ENDBRANCH  26  27
ENDBRANCH  23  26
ENDBRANCH  19  20
ENDBRANCH   1  19
TORSDOF 7
