REMARK  7 active torsions:
REMARK  status: ('A' for Active; 'I' for Inactive)
REMARK    1  A    between atoms: C_2  and  C_3 
REMARK    2  A    between atoms: C_3  and  O_4 
REMARK    3  A    between atoms: O_4  and  C_5 
REMARK    4  A    between atoms: C_9  and  C_10 
REMARK    5  A    between atoms: C_10  and  N_11 
REMARK    6  A    between atoms: N_14  and  C_15 
REMARK    7  A    between atoms: C_15  and  C_16 
ROOT
ATOM      1  N   UNL d   1       9.137   3.872 -14.632  0.00  0.00     0.146 N 
ATOM      2  C   UNL d   1       8.367   3.130 -13.623  0.00  0.00     0.286 C 
ATOM      3  C   UNL d   1       7.726   4.050 -12.565  0.00  0.00     0.286 C 
ATOM      4  N   UNL d   1       8.738   4.814 -11.866  0.00  0.00     0.148 N 
ATOM      5  C   UNL d   1       9.465   5.579 -12.874  0.00  0.00     0.286 C 
ATOM      6  C   UNL d   1      10.121   4.681 -13.934  0.00  0.00     0.286 C 
ENDROOT
BRANCH   1   7
ATOM      7  C   UNL d   1       9.813   2.996 -15.608  0.00  0.00     0.277 C 
BRANCH   7   8
ATOM      8  C   UNL d   1       8.875   2.088 -16.395  0.00  0.00     0.013 A 
ATOM      9  C   UNL d   1       8.306   0.956 -15.780  0.00  0.00    -0.002 A 
ATOM     10  C   UNL d   1       7.338   0.198 -16.476  0.00  0.00     0.002 A 
ATOM     11  C   UNL d   1       7.032   0.496 -17.813  0.00  0.00     0.024 A 
ATOM     12  C   UNL d   1       7.674   1.572 -18.472  0.00  0.00     0.094 A 
ATOM     13  C   UNL d   1       8.580   2.377 -17.746  0.00  0.00     0.022 A 
BRANCH  12  14
ATOM     14  O   UNL d   1       7.460   1.910 -19.785  0.00  0.00    -0.328 OA
BRANCH  14  15
ATOM     15  C   UNL d   1       6.544   1.125 -20.539  0.00  0.00     0.187 C 
BRANCH  15  16
ATOM     16  C   UNL d   1       6.691   1.483 -22.017  0.00  0.00     0.226 C 
ATOM     17  F   UNL d   1       7.870   1.053 -22.470  0.00  0.00    -0.232 F 
ENDBRANCH  15  16
ENDBRANCH  14  15
ENDBRANCH  12  14
ENDBRANCH   7   8
ENDBRANCH   1   7
BRANCH   4  18
ATOM     18  C   UNL d   1       8.125   5.659 -10.834  0.00  0.00     0.301 C 
BRANCH  18  19
ATOM     19  C   UNL d   1       9.102   6.397  -9.986  0.00  0.00     0.111 A 
ATOM     20  O   UNL d   1       9.098   6.127  -8.643  0.00  0.00    -0.309 OA
ATOM     21  C   UNL d   1      10.005   6.994  -8.064  0.00  0.00     0.100 A 
ATOM     22  C   UNL d   1      10.626   7.762  -9.076  0.00  0.00     0.025 A 
ATOM     23  C   UNL d   1      10.318   7.138  -6.705  0.00  0.00     0.025 A 
ATOM     24  C   UNL d   1       9.991   7.412 -10.301  0.00  0.00     0.024 A 
ATOM     25  C   UNL d   1      11.656   8.647  -8.694  0.00  0.00     0.002 A 
ATOM     26  C   UNL d   1      12.004   8.793  -7.337  0.00  0.00     0.000 A 
ATOM     27  C   UNL d   1      11.330   8.053  -6.341  0.00  0.00     0.002 A 
ENDBRANCH  18  19
ENDBRANCH   4  18
TORSDOF 7
