REMARK  6 active torsions:
REMARK  status: ('A' for Active; 'I' for Inactive)
REMARK       I    between atoms: C_2  and  N_3 
REMARK    1  A    between atoms: C_2  and  C_30 
REMARK    2  A    between atoms: N_3  and  C_4 
REMARK    3  A    between atoms: C_10  and  C_11 
REMARK    4  A    between atoms: C_11  and  C_12 
REMARK    5  A    between atoms: C_12  and  N_13 
REMARK    6  A    between atoms: N_16  and  C_17 
ROOT
ATOM      1  C   UNL d   1       6.849   1.098 -14.769  0.00  0.00     0.062 C 
ENDROOT
BRANCH   1   2
ATOM      2  C   UNL d   1       6.054   0.454 -15.900  0.00  0.00    -0.020 A 
ATOM      3  C   UNL d   1       5.129  -0.594 -15.659  0.00  0.00    -0.005 A 
ATOM      4  C   UNL d   1       4.398  -1.184 -16.719  0.00  0.00    -0.005 A 
ATOM      5  C   UNL d   1       4.601  -0.698 -18.024  0.00  0.00    -0.024 A 
ATOM      6  C   UNL d   1       3.940  -1.168 -19.285  0.00  0.00     0.028 C 
ATOM      7  C   UNL d   1       5.503   0.337 -18.271  0.00  0.00    -0.004 A 
ATOM      8  C   UNL d   1       4.418  -0.161 -20.355  0.00  0.00     0.034 C 
ATOM      9  C   UNL d   1       5.567   0.668 -19.746  0.00  0.00     0.129 C 
ATOM     10  C   UNL d   1       6.247   0.918 -17.227  0.00  0.00    -0.007 A 
BRANCH   9  11
ATOM     11  N   UNL d   1       6.845   0.300 -20.351  0.00  0.00    -0.228 NA
ATOM     12  C   UNL d   1       7.977   1.018 -20.253  0.00  0.00     0.347 C 
ATOM     13  O   UNL d   1       8.020   2.111 -19.688  0.00  0.00    -0.261 OA
BRANCH  12  14
ATOM     14  C   UNL d   1       9.234   0.400 -20.879  0.00  0.00     0.474 C 
ATOM     15  F   UNL d   1      10.279   1.218 -20.754  0.00  0.00    -0.162 F 
ATOM     16  F   UNL d   1       9.505  -0.760 -20.281  0.00  0.00    -0.162 F 
ATOM     17  F   UNL d   1       8.994   0.180 -22.172  0.00  0.00    -0.162 F 
ENDBRANCH  12  14
ENDBRANCH   9  11
ENDBRANCH   1   2
BRANCH   1  18
ATOM     18  C   UNL d   1       6.346   2.533 -14.439  0.00  0.00     0.255 C 
BRANCH  18  19
ATOM     19  N   UNL d   1       7.037   3.183 -13.350  0.00  0.00     0.141 N 
ATOM     20  C   UNL d   1       6.256   4.222 -12.669  0.00  0.00     0.274 C 
ATOM     21  C   UNL d   1       7.014   4.678 -11.404  0.00  0.00     0.138 C 
ATOM     22  N   UNL d   1       8.390   5.024 -11.681  0.00  0.00    -0.329 N 
ATOM     23  C   UNL d   1       9.167   4.100 -12.474  0.00  0.00     0.138 C 
ATOM     24  C   UNL d   1       8.380   3.656 -13.719  0.00  0.00     0.274 C 
BRANCH  22  25
ATOM     25  C   UNL d   1       8.854   6.298 -11.427  0.00  0.00     0.148 C 
ATOM     26  C   UNL d   1       9.533   6.644 -10.180  0.00  0.00     0.042 A 
ATOM     27  C   UNL d   1       9.850   8.028 -10.182  0.00  0.00     0.050 A 
ATOM     28  C   UNL d   1       9.857   5.898  -9.037  0.00  0.00     0.004 A 
ATOM     29  S   UNL d   1       9.103   8.699 -11.639  0.00  0.00     0.015 SA
ATOM     30  C   UNL d   1      10.521   8.626  -9.093  0.00  0.00     0.008 A 
ATOM     31  N   UNL d   1       8.657   7.247 -12.320  0.00  0.00    -0.192 NA
ATOM     32  C   UNL d   1      10.855   7.859  -7.957  0.00  0.00     0.001 A 
ATOM     33  C   UNL d   1      10.518   6.486  -7.932  0.00  0.00     0.000 A 
ENDBRANCH  22  25
ENDBRANCH  18  19
ENDBRANCH   1  18
TORSDOF 6
