REMARK  3 active torsions:
REMARK  status: ('A' for Active; 'I' for Inactive)
REMARK    1  A    between atoms: C_5  and  C_6 
REMARK    2  A    between atoms: N_9  and  C_10 
REMARK    3  A    between atoms: C_10  and  C_11 
ROOT
ATOM      1  C   UNL d   1       9.683   7.746  -8.318  0.00  0.00     0.026 C 
ATOM      2  C   UNL d   1       9.579   6.303  -8.892  0.00  0.00     0.040 C 
ATOM      3  C   UNL d   1       8.954   6.200 -10.273  0.00  0.00     0.251 C 
ATOM      4  N   UNL d   1       9.706   7.049 -11.187  0.00  0.00     0.141 N 
ATOM      5  C   UNL d   1       9.706   8.452 -10.764  0.00  0.00     0.251 C 
ATOM      6  C   UNL d   1      10.373   8.615  -9.389  0.00  0.00     0.040 C 
ENDROOT
BRANCH   4   7
ATOM      7  C   UNL d   1       9.145   7.003 -12.528  0.00  0.00     0.277 C 
BRANCH   7   8
ATOM      8  C   UNL d   1       9.009   5.594 -13.093  0.00  0.00     0.013 A 
ATOM      9  C   UNL d   1      10.103   4.943 -13.710  0.00  0.00     0.023 A 
ATOM     10  C   UNL d   1       9.968   3.618 -14.156  0.00  0.00     0.112 A 
ATOM     11  C   UNL d   1       8.730   2.956 -14.031  0.00  0.00     0.107 A 
ATOM     12  O   UNL d   1      11.053   2.997 -14.724  0.00  0.00    -0.319 OA
ATOM     13  C   UNL d   1       7.625   3.596 -13.435  0.00  0.00     0.021 A 
ATOM     14  N   UNL d   1       8.610   1.641 -14.520  0.00  0.00    -0.208 NA
ATOM     15  C   UNL d   1       7.783   4.919 -12.953  0.00  0.00    -0.001 A 
ATOM     16  C   UNL d   1       9.672   0.943 -14.949  0.00  0.00     0.286 C 
ATOM     17  C   UNL d   1      11.057   1.564 -14.718  0.00  0.00     0.238 C 
ATOM     18  O   UNL d   1       9.565  -0.153 -15.488  0.00  0.00    -0.267 OA
ENDBRANCH   7   8
ENDBRANCH   4   7
BRANCH   1  19
ATOM     19  C   UNL d   1      10.410   7.825  -6.951  0.00  0.00    -0.022 A 
ATOM     20  C   UNL d   1      10.664   9.074  -6.336  0.00  0.00    -0.005 A 
ATOM     21  C   UNL d   1      11.341   9.142  -5.087  0.00  0.00    -0.005 A 
ATOM     22  C   UNL d   1      11.739   7.949  -4.447  0.00  0.00    -0.022 A 
ATOM     23  C   UNL d   1      12.466   7.950  -3.121  0.00  0.00     0.031 C 
ATOM     24  C   UNL d   1      11.473   6.714  -5.041  0.00  0.00    -0.005 A 
ATOM     25  C   UNL d   1      10.831   6.653  -6.293  0.00  0.00    -0.005 A 
ENDBRANCH   1  19
TORSDOF 3
