REMARK  5 active torsions:
REMARK  status: ('A' for Active; 'I' for Inactive)
REMARK    1  A    between atoms: C_2  and  C_3 
REMARK    2  A    between atoms: C_3  and  N_4 
REMARK    3  A    between atoms: N_4  and  C_5 
REMARK    4  A    between atoms: N_4  and  C_9 
REMARK    5  A    between atoms: C_5  and  C_6 
ROOT
ATOM      1  C   UNL d   1      10.613   8.104  -7.109  0.00  0.00     0.254 C 
ATOM      2  C   UNL d   1       9.992   9.251  -6.375  0.00  0.00     0.182 C 
ATOM      3  O   UNL d   1      10.865   9.707  -5.326  0.00  0.00    -0.327 OA
ATOM      4  C   UNL d   1      11.379   8.730  -4.492  0.00  0.00     0.115 A 
ATOM      5  C   UNL d   1      11.862   9.096  -3.212  0.00  0.00     0.153 A 
ATOM      6  O   UNL d   1      11.818  10.362  -2.841  0.00  0.00    -0.188 OA
ATOM      7  C   UNL d   1      12.356   8.124  -2.327  0.00  0.00     0.029 A 
ATOM      8  C   UNL d   1      12.353   6.771  -2.691  0.00  0.00     0.002 A 
ATOM      9  C   UNL d   1      11.867   6.389  -3.961  0.00  0.00    -0.002 A 
ATOM     10  C   UNL d   1      11.385   7.370  -4.855  0.00  0.00     0.004 A 
ATOM     11  C   UNL d   1      10.858   6.919  -6.194  0.00  0.00     0.064 C 
ENDROOT
BRANCH   1  12
ATOM     12  N   UNL d   1       9.958   7.759  -8.377  0.00  0.00     0.142 N 
BRANCH  12  13
ATOM     13  C   UNL d   1      10.421   8.607  -9.487  0.00  0.00     0.251 C 
BRANCH  13  14
ATOM     14  C   UNL d   1      11.843   8.221 -10.016  0.00  0.00     0.035 C 
ATOM     15  C   UNL d   1      12.999   8.194  -8.992  0.00  0.00     0.002 C 
ENDBRANCH  13  14
ENDBRANCH  12  13
BRANCH  12  16
ATOM     16  C   UNL d   1       9.988   6.334  -8.760  0.00  0.00     0.277 C 
BRANCH  16  17
ATOM     17  C   UNL d   1       9.261   5.998 -10.059  0.00  0.00     0.015 C 
ATOM     18  C   UNL d   1       8.291   5.080 -10.156  0.00  0.00     0.033 C 
ATOM     19  I   UNL d   1       7.359   4.784 -12.072  0.00  0.00    -0.043 I 
ENDBRANCH  16  17
ENDBRANCH  12  16
ENDBRANCH   1  12
TORSDOF 5
