REMARK  2 active torsions:
REMARK  status: ('A' for Active; 'I' for Inactive)
REMARK    1  A    between atoms: C_2  and  C_4 
REMARK       I    between atoms: N_14  and  C_15 
REMARK    2  A    between atoms: C_15  and  C_17 
ROOT
ATOM      1  C   UNL d   1       9.677   3.207 -19.029  0.00  0.00     0.178 C 
ATOM      2  C   UNL d   1      10.943   2.556 -19.623  0.00  0.00     0.091 C 
ATOM      3  S   UNL d   1      12.073   2.207 -18.241  0.00  0.00    -0.116 SA
ATOM      4  C   UNL d   1      10.886   2.677 -16.977  0.00  0.00     0.132 C 
ATOM      5  C   UNL d   1      11.036   1.888 -15.640  0.00  0.00     0.036 C 
ATOM      6  C   UNL d   1       9.937   0.819 -15.547  0.00  0.00     0.033 C 
ATOM      7  C   UNL d   1       8.503   1.355 -15.854  0.00  0.00     0.138 C 
ATOM      8  C   UNL d   1       7.515   0.160 -15.767  0.00  0.00     0.032 C 
ATOM      9  C   UNL d   1       6.215   0.754 -15.285  0.00  0.00     0.027 C 
ATOM     10  C   UNL d   1       6.645   1.890 -14.367  0.00  0.00     0.105 C 
ATOM     11  N   UNL d   1       7.971   2.310 -14.837  0.00  0.00    -0.314 N 
ATOM     12  C   UNL d   1       8.523   3.482 -14.441  0.00  0.00     0.268 C 
ATOM     13  O   UNL d   1       9.255   4.127 -15.195  0.00  0.00    -0.270 OA
ATOM     14  C   UNL d   1       8.459   1.987 -17.266  0.00  0.00     0.253 C 
ATOM     15  O   UNL d   1       7.460   1.940 -17.958  0.00  0.00    -0.270 OA
ATOM     16  N   UNL d   1       9.607   2.646 -17.683  0.00  0.00    -0.304 N 
ENDROOT
BRANCH  12  17
ATOM     17  C   UNL d   1       8.236   4.057 -13.041  0.00  0.00     0.334 C 
ATOM     18  N   UNL d   1       9.431   3.992 -12.188  0.00  0.00     0.346 N 
ATOM     19  C   UNL d   1       9.109   4.908 -11.111  0.00  0.00     0.291 C 
ATOM     20  C   UNL d   1       8.482   6.108 -11.821  0.00  0.00     0.041 C 
ATOM     21  C   UNL d   1       7.889   5.542 -13.101  0.00  0.00     0.048 C 
ENDBRANCH  12  17
BRANCH   1  22
ATOM     22  C   UNL d   1       9.758   4.758 -18.983  0.00  0.00     0.295 C 
ATOM     23  N   UNL d   1       8.666   5.449 -19.262  0.00  0.00    -0.105 N 
ATOM     24  O   UNL d   1      10.799   5.340 -18.710  0.00  0.00    -0.267 OA
ENDBRANCH   1  22
TORSDOF 2
