REMARK  4 active torsions:
REMARK  status: ('A' for Active; 'I' for Inactive)
REMARK    1  A    between atoms: C_2  and  C_3 
REMARK    2  A    between atoms: C_3  and  N_4 
REMARK    3  A    between atoms: C_7  and  C_8 
REMARK    4  A    between atoms: C_11  and  O_12 
ROOT
ATOM      1  N   UNL d   1       8.790   5.976  -9.985  0.00  0.00     0.137 N 
ATOM      2  C   UNL d   1       9.415   7.249 -10.322  0.00  0.00     0.251 C 
ATOM      3  C   UNL d   1       9.768   8.030  -9.054  0.00  0.00     0.040 C 
ATOM      4  C   UNL d   1      10.736   7.249  -8.147  0.00  0.00     0.026 C 
ATOM      5  C   UNL d   1      10.160   5.835  -7.958  0.00  0.00     0.040 C 
ATOM      6  C   UNL d   1       9.730   5.162  -9.251  0.00  0.00     0.251 C 
ENDROOT
BRANCH   4   7
ATOM      7  C   UNL d   1      11.023   7.947  -6.805  0.00  0.00    -0.022 A 
ATOM      8  C   UNL d   1      11.310   7.205  -5.638  0.00  0.00    -0.002 A 
ATOM      9  C   UNL d   1      11.545   7.855  -4.409  0.00  0.00     0.024 A 
ATOM     10  C   UNL d   1      11.487   9.267  -4.335  0.00  0.00     0.094 A 
ATOM     11  C   UNL d   1      11.210  10.005  -5.489  0.00  0.00     0.024 A 
ATOM     12  C   UNL d   1      11.001   9.357  -6.721  0.00  0.00    -0.002 A 
BRANCH  10  13
ATOM     13  O   UNL d   1      11.687   9.980  -3.176  0.00  0.00    -0.328 OA
ATOM     14  C   UNL d   1      12.163   9.260  -2.055  0.00  0.00     0.181 C 
ENDBRANCH  10  13
ENDBRANCH   4   7
BRANCH   1  15
ATOM     15  C   UNL d   1       8.374   5.279 -11.199  0.00  0.00     0.250 C 
BRANCH  15  16
ATOM     16  C   UNL d   1       7.076   5.871 -11.757  0.00  0.00     0.035 C 
ATOM     17  C   UNL d   1       6.480   4.977 -12.847  0.00  0.00     0.002 C 
ENDBRANCH  15  16
ENDBRANCH   1  15
TORSDOF 4
