REMARK  8 active torsions:
REMARK  status: ('A' for Active; 'I' for Inactive)
REMARK    1  A    between atoms: C_3  and  S_4 
REMARK    2  A    between atoms: S_4  and  C_5 
REMARK    3  A    between atoms: C_5  and  C_6 
REMARK    4  A    between atoms: C_6  and  C_7 
REMARK    5  A    between atoms: C_7  and  N_8 
REMARK    6  A    between atoms: C_13  and  C_14 
REMARK    7  A    between atoms: C_17  and  C_18 
REMARK    8  A    between atoms: C_27  and  C_28 
REMARK       I    between atoms: N_31  and  C_32 
ROOT
ATOM      1  C   UNL d   1       9.413   3.646 -13.398  0.00  0.00     0.047 C 
ENDROOT
BRANCH   1   2
ATOM      2  C   UNL d   1       8.160   4.393 -13.888  0.00  0.00     0.067 C 
BRANCH   2   3
ATOM      3  S   UNL d   1       7.083   4.886 -12.519  0.00  0.00    -0.075 SA
BRANCH   3   4
ATOM      4  C   UNL d   1       8.195   6.017 -11.740  0.00  0.00     0.193 A 
ATOM      5  N   UNL d   1       8.682   5.818 -10.499  0.00  0.00    -0.292 N 
ATOM      6  C   UNL d   1       8.399   4.737  -9.568  0.00  0.00     0.134 C 
ATOM      7  C   UNL d   1       9.480   6.895 -10.344  0.00  0.00     0.143 A 
ATOM      8  N   UNL d   1       9.462   7.722 -11.397  0.00  0.00    -0.133 NA
ATOM      9  N   UNL d   1       8.653   7.121 -12.330  0.00  0.00    -0.122 NA
BRANCH   7  10
ATOM     10  C   UNL d   1      10.254   7.151  -9.072  0.00  0.00     0.063 C 
ATOM     11  C   UNL d   1      11.380   8.195  -9.235  0.00  0.00     0.032 C 
ATOM     12  C   UNL d   1      12.166   8.406  -7.930  0.00  0.00     0.106 C 
ATOM     13  N   UNL d   1      11.283   8.697  -6.786  0.00  0.00    -0.300 N 
ATOM     14  C   UNL d   1      10.209   7.712  -6.597  0.00  0.00     0.106 C 
ATOM     15  C   UNL d   1      11.386   9.822  -6.047  0.00  0.00     0.364 C 
ATOM     16  C   UNL d   1       9.376   7.570  -7.879  0.00  0.00     0.032 C 
ATOM     17  N   UNL d   1      11.046   9.671  -4.773  0.00  0.00    -0.086 N 
ATOM     18  O   UNL d   1      11.877  10.867  -6.428  0.00  0.00    -0.243 OA
ENDBRANCH   7  10
ENDBRANCH   3   4
ENDBRANCH   2   3
ENDBRANCH   1   2
BRANCH   1  19
ATOM     19  C   UNL d   1      10.299   3.128 -14.534  0.00  0.00     0.251 C 
BRANCH  19  20
ATOM     20  N   UNL d   1      10.637   4.186 -15.466  0.00  0.00     0.137 N 
ATOM     21  C   UNL d   1      11.317   3.638 -16.608  0.00  0.00     0.251 C 
ATOM     22  C   UNL d   1      11.868   4.848 -17.342  0.00  0.00     0.037 A 
ATOM     23  C   UNL d   1      12.018   5.865 -16.239  0.00  0.00     0.038 C 
ATOM     24  C   UNL d   1      12.803   4.688 -18.532  0.00  0.00     0.024 A 
ATOM     25  C   UNL d   1      11.423   5.250 -18.739  0.00  0.00     0.007 A 
ATOM     26  C   UNL d   1      11.554   5.205 -14.981  0.00  0.00     0.250 C 
BRANCH  24  27
ATOM     27  C   UNL d   1      13.202   3.320 -19.026  0.00  0.00    -0.022 A 
ATOM     28  C   UNL d   1      12.225   2.328 -19.272  0.00  0.00    -0.004 A 
ATOM     29  C   UNL d   1      12.572   1.027 -19.652  0.00  0.00     0.004 A 
ATOM     30  C   UNL d   1      13.928   0.707 -19.868  0.00  0.00     0.071 A 
ATOM     31  C   UNL d   1      14.912   1.688 -19.666  0.00  0.00     0.004 A 
ATOM     32  C   UNL d   1      14.563   2.988 -19.234  0.00  0.00    -0.004 A 
BRANCH  30  33
ATOM     33  C   UNL d   1      14.270  -0.693 -20.344  0.00  0.00     0.419 C 
ATOM     34  F   UNL d   1      13.663  -0.917 -21.509  0.00  0.00    -0.166 F 
ATOM     35  F   UNL d   1      15.586  -0.841 -20.509  0.00  0.00    -0.166 F 
ATOM     36  F   UNL d   1      13.833  -1.580 -19.450  0.00  0.00    -0.166 F 
ENDBRANCH  30  33
ENDBRANCH  24  27
ENDBRANCH  19  20
ENDBRANCH   1  19
TORSDOF 8
