REMARK  10 active torsions:
REMARK  status: ('A' for Active; 'I' for Inactive)
REMARK    1  A    between atoms: O_2  and  C_3 
REMARK    2  A    between atoms: C_8  and  N_9 
REMARK    3  A    between atoms: N_12  and  C_13 
REMARK    4  A    between atoms: C_13  and  C_14 
REMARK    5  A    between atoms: C_14  and  C_15 
REMARK    6  A    between atoms: C_15  and  C_16 
REMARK    7  A    between atoms: C_16  and  N_17 
REMARK       I    between atoms: N_17  and  C_18 
REMARK    8  A    between atoms: C_18  and  C_20 
REMARK    9  A    between atoms: N_23  and  C_24 
REMARK   10  A    between atoms: C_24  and  C_25 
ROOT
ATOM      1  C   UNL d   1       4.808  -1.093 -16.489  0.00  0.00     0.129 C 
ENDROOT
BRANCH   1   2
ATOM      2  C   UNL d   1       4.553  -1.059 -14.984  0.00  0.00     0.029 C 
BRANCH   2   3
ATOM      3  C   UNL d   1       5.304   0.116 -14.311  0.00  0.00     0.037 C 
BRANCH   3   4
ATOM      4  C   UNL d   1       6.837  -0.057 -14.233  0.00  0.00     0.251 C 
BRANCH   4   5
ATOM      5  N   UNL d   1       7.562   0.848 -15.134  0.00  0.00     0.141 N 
ATOM      6  C   UNL d   1       8.924   1.079 -14.632  0.00  0.00     0.274 C 
ATOM      7  C   UNL d   1       9.685   2.039 -15.582  0.00  0.00     0.137 C 
ATOM      8  N   UNL d   1       9.673   1.539 -16.948  0.00  0.00    -0.343 N 
ATOM      9  C   UNL d   1       8.365   1.155 -17.461  0.00  0.00     0.137 C 
ATOM     10  C   UNL d   1       7.623   0.255 -16.477  0.00  0.00     0.274 C 
BRANCH   8  11
ATOM     11  C   UNL d   1      10.857   1.275 -17.665  0.00  0.00     0.079 A 
ATOM     12  C   UNL d   1      11.912   2.224 -17.711  0.00  0.00     0.110 A 
ATOM     13  C   UNL d   1      13.053   1.934 -18.513  0.00  0.00     0.026 A 
ATOM     14  C   UNL d   1      13.144   0.724 -19.221  0.00  0.00     0.002 A 
ATOM     15  C   UNL d   1      12.114  -0.226 -19.134  0.00  0.00     0.002 A 
ATOM     16  C   UNL d   1      10.962   0.063 -18.382  0.00  0.00     0.019 A 
BRANCH  12  17
ATOM     17  O   UNL d   1      11.772   3.393 -16.994  0.00  0.00    -0.327 OA
ATOM     18  C   UNL d   1      12.864   4.289 -16.951  0.00  0.00     0.181 C 
ENDBRANCH  12  17
ENDBRANCH   8  11
ENDBRANCH   4   5
ENDBRANCH   3   4
ENDBRANCH   2   3
ENDBRANCH   1   2
BRANCH   1  19
ATOM     19  N   UNL d   1       3.938  -2.008 -17.226  0.00  0.00    -0.233 NA
ATOM     20  C   UNL d   1       3.923  -2.143 -18.563  0.00  0.00     0.296 C 
ATOM     21  O   UNL d   1       3.328  -3.066 -19.100  0.00  0.00    -0.264 OA
BRANCH  20  22
ATOM     22  C   UNL d   1       4.730  -1.167 -19.386  0.00  0.00     0.175 A 
ATOM     23  C   UNL d   1       5.292  -1.376 -20.623  0.00  0.00     0.082 A 
ATOM     24  N   UNL d   1       5.879  -0.150 -20.924  0.00  0.00    -0.231 N 
ATOM     25  C   UNL d   1       5.305  -2.550 -21.564  0.00  0.00     0.054 C 
ATOM     26  N   UNL d   1       5.684   0.741 -19.929  0.00  0.00    -0.064 NA
ATOM     27  N   UNL d   1       4.972   0.164 -19.039  0.00  0.00    -0.124 NA
BRANCH  24  28
ATOM     28  C   UNL d   1       6.588   0.282 -22.110  0.00  0.00     0.156 C 
BRANCH  28  29
ATOM     29  C   UNL d   1       8.086   0.066 -21.971  0.00  0.00     0.008 A 
ATOM     30  C   UNL d   1       8.939   1.059 -21.426  0.00  0.00     0.033 A 
ATOM     31  C   UNL d   1      10.319   0.811 -21.364  0.00  0.00     0.006 A 
ATOM     32 BR   UNL d   1       8.289   2.728 -20.773  0.00  0.00    -0.049 Br
ATOM     33  C   UNL d   1      10.854  -0.407 -21.825  0.00  0.00     0.001 A 
ATOM     34  C   UNL d   1      10.003  -1.405 -22.326  0.00  0.00    -0.000 A 
ATOM     35  C   UNL d   1       8.626  -1.165 -22.407  0.00  0.00    -0.002 A 
ENDBRANCH  28  29
ENDBRANCH  24  28
ENDBRANCH  20  22
ENDBRANCH   1  19
TORSDOF 10
