REMARK  5 active torsions:
REMARK  status: ('A' for Active; 'I' for Inactive)
REMARK    1  A    between atoms: N_11  and  C_12 
REMARK    2  A    between atoms: C_12  and  C_13 
REMARK    3  A    between atoms: C_13  and  C_14 
REMARK    4  A    between atoms: C_14  and  N_15 
REMARK    5  A    between atoms: N_18  and  C_19 
ROOT
ATOM      1  N   UNL d   1       8.384   2.955 -14.269  0.00  0.00     0.141 N 
ATOM      2  C   UNL d   1       7.499   4.118 -14.065  0.00  0.00     0.274 C 
ATOM      3  C   UNL d   1       7.423   4.541 -12.589  0.00  0.00     0.137 C 
ATOM      4  N   UNL d   1       8.758   4.777 -12.095  0.00  0.00    -0.344 N 
ATOM      5  C   UNL d   1       9.708   3.715 -12.354  0.00  0.00     0.137 C 
ATOM      6  C   UNL d   1       9.734   3.325 -13.841  0.00  0.00     0.274 C 
ENDROOT
BRANCH   1   7
ATOM      7  C   UNL d   1       8.454   2.554 -15.673  0.00  0.00     0.252 C 
BRANCH   7   8
ATOM      8  C   UNL d   1       7.169   1.813 -16.107  0.00  0.00     0.060 C 
BRANCH   8   9
ATOM      9  C   UNL d   1       7.227   0.306 -15.785  0.00  0.00     0.111 C 
BRANCH   9  10
ATOM     10  N   UNL d   1       6.048  -0.409 -16.315  0.00  0.00    -0.295 N 
ATOM     11  C   UNL d   1       5.095  -0.883 -15.474  0.00  0.00     0.268 C 
ATOM     12  O   UNL d   1       5.101  -0.715 -14.252  0.00  0.00    -0.269 OA
ATOM     13  C   UNL d   1       3.953  -1.705 -16.098  0.00  0.00     0.236 C 
ATOM     14  O   UNL d   1       3.589  -1.228 -17.392  0.00  0.00    -0.319 OA
ATOM     15  C   UNL d   1       4.635  -0.985 -18.245  0.00  0.00     0.110 A 
ATOM     16  C   UNL d   1       5.896  -0.587 -17.733  0.00  0.00     0.085 A 
ATOM     17  C   UNL d   1       4.428  -1.099 -19.633  0.00  0.00     0.026 A 
ATOM     18  C   UNL d   1       6.949  -0.341 -18.651  0.00  0.00     0.019 A 
ATOM     19  C   UNL d   1       6.742  -0.475 -20.037  0.00  0.00     0.002 A 
ATOM     20  C   UNL d   1       5.479  -0.850 -20.531  0.00  0.00     0.002 A 
ENDBRANCH   9  10
ENDBRANCH   8   9
ENDBRANCH   7   8
ENDBRANCH   1   7
BRANCH   4  21
ATOM     21  C   UNL d   1       9.100   5.951 -11.409  0.00  0.00     0.068 A 
ATOM     22  C   UNL d   1       9.473   5.946 -10.047  0.00  0.00     0.084 A 
ATOM     23  C   UNL d   1       9.857   7.152  -9.411  0.00  0.00     0.070 A 
ATOM     24 CL   UNL d   1       9.436   4.480  -9.127  0.00  0.00    -0.080 Cl
ATOM     25  C   UNL d   1       9.865   8.358 -10.139  0.00  0.00     0.012 A 
ATOM     26 CL   UNL d   1      10.238   7.182  -7.728  0.00  0.00    -0.081 Cl
ATOM     27  C   UNL d   1       9.457   8.364 -11.480  0.00  0.00     0.002 A 
ATOM     28  C   UNL d   1       9.080   7.164 -12.120  0.00  0.00     0.018 A 
ENDBRANCH   4  21
TORSDOF 5
