REMARK  0 active torsions:
REMARK  status: ('A' for Active; 'I' for Inactive)
ROOT
ATOM      1  C   UNL d   1      11.343  -0.811 -18.801  0.00  0.00     0.285 C 
ATOM      2  N   UNL d   1      11.446   0.129 -17.694  0.00  0.00     0.140 N 
ATOM      3  C   UNL d   1      10.113   0.549 -17.267  0.00  0.00     0.255 C 
ATOM      4  C   UNL d   1      10.009   0.367 -15.745  0.00  0.00     0.061 C 
ATOM      5  C   UNL d   1       8.864   1.163 -15.142  0.00  0.00    -0.024 A 
ATOM      6  C   UNL d   1       7.596   0.553 -15.043  0.00  0.00    -0.004 A 
ATOM      7  C   UNL d   1       6.506   1.251 -14.492  0.00  0.00    -0.000 A 
ATOM      8  C   UNL d   1       6.677   2.571 -14.041  0.00  0.00    -0.000 A 
ATOM      9  C   UNL d   1       7.939   3.189 -14.135  0.00  0.00    -0.004 A 
ATOM     10  C   UNL d   1       9.041   2.497 -14.685  0.00  0.00    -0.022 A 
ATOM     11  C   UNL d   1      10.384   3.222 -14.768  0.00  0.00     0.052 C 
ATOM     12  C   UNL d   1      10.619   3.857 -16.112  0.00  0.00    -0.015 A 
ATOM     13  C   UNL d   1       9.862   4.990 -16.542  0.00  0.00     0.003 A 
ATOM     14  C   UNL d   1      10.210   5.448 -17.782  0.00  0.00     0.035 A 
ATOM     15  S   UNL d   1      11.494   4.502 -18.464  0.00  0.00    -0.091 SA
ATOM     16  C   UNL d   1      11.548   3.464 -17.057  0.00  0.00     0.006 A 
ATOM     17  C   UNL d   1      12.549   2.342 -17.035  0.00  0.00     0.068 C 
ATOM     18  C   UNL d   1      12.315   1.241 -18.099  0.00  0.00     0.256 C 
ENDROOT
TORSDOF 0
