REMARK  8 active torsions:
REMARK  status: ('A' for Active; 'I' for Inactive)
REMARK    1  A    between atoms: C_2  and  C_4 
REMARK    2  A    between atoms: C_4  and  C_5 
REMARK    3  A    between atoms: C_5  and  C_6 
REMARK       I    between atoms: C_6  and  N_8 
REMARK    4  A    between atoms: N_8  and  C_9 
REMARK    5  A    between atoms: C_12  and  C_13 
REMARK    6  A    between atoms: C_13  and  C_14 
REMARK    7  A    between atoms: C_14  and  N_15 
REMARK    8  A    between atoms: N_18  and  C_19 
ROOT
ATOM      1  C   UNL d   1       8.839   0.957 -16.147  0.00  0.00     0.250 C 
ENDROOT
BRANCH   1   2
ATOM      2  C   UNL d   1       7.681   1.887 -15.779  0.00  0.00     0.035 C 
BRANCH   2   3
ATOM      3  C   UNL d   1       7.824   2.398 -14.330  0.00  0.00     0.002 C 
ATOM      4  C   UNL d   1       9.069   3.307 -14.150  0.00  0.00     0.002 C 
ATOM      5  C   UNL d   1       9.169   3.870 -12.742  0.00  0.00     0.024 C 
ATOM      6  C   UNL d   1       7.885   4.644 -12.347  0.00  0.00     0.106 C 
ATOM      7  C   UNL d   1       6.610   3.789 -12.523  0.00  0.00     0.024 C 
ATOM      8  C   UNL d   1       6.542   3.161 -13.926  0.00  0.00     0.002 C 
BRANCH   6   9
ATOM      9  N   UNL d   1       7.960   5.087 -10.962  0.00  0.00    -0.240 NA
ATOM     10  C   UNL d   1       8.894   5.896 -10.460  0.00  0.00     0.251 C 
ATOM     11  O   UNL d   1       9.776   6.409 -11.147  0.00  0.00    -0.271 OA
BRANCH  10  12
ATOM     12  C   UNL d   1       8.838   6.146  -8.959  0.00  0.00     0.090 C 
BRANCH  12  13
ATOM     13  C   UNL d   1      10.210   6.343  -8.305  0.00  0.00     0.010 C 
BRANCH  13  14
ATOM     14  C   UNL d   1      10.133   6.998  -6.915  0.00  0.00     0.001 C 
ATOM     15  C   UNL d   1       9.534   8.418  -6.933  0.00  0.00     0.000 C 
ATOM     16  C   UNL d   1      11.533   7.043  -6.297  0.00  0.00     0.000 C 
ENDBRANCH  13  14
ENDBRANCH  12  13
ENDBRANCH  10  12
ENDBRANCH   6   9
ENDBRANCH   2   3
ENDBRANCH   1   2
BRANCH   1  17
ATOM     17  N   UNL d   1       8.938   0.720 -17.586  0.00  0.00     0.141 N 
ATOM     18  C   UNL d   1       9.931  -0.330 -17.833  0.00  0.00     0.274 C 
ATOM     19  C   UNL d   1      11.335   0.143 -17.406  0.00  0.00     0.138 C 
ATOM     20  N   UNL d   1      11.683   1.379 -18.109  0.00  0.00    -0.330 N 
ATOM     21  C   UNL d   1      10.698   2.461 -18.040  0.00  0.00     0.138 C 
ATOM     22  C   UNL d   1       9.298   1.909 -18.395  0.00  0.00     0.274 C 
BRANCH  20  23
ATOM     23  C   UNL d   1      12.847   1.501 -18.859  0.00  0.00     0.138 A 
ATOM     24  C   UNL d   1      13.408   0.460 -19.633  0.00  0.00     0.036 A 
ATOM     25  C   UNL d   1      14.566   0.656 -20.354  0.00  0.00     0.095 A 
ATOM     26  C   UNL d   1      12.923  -0.932 -19.895  0.00  0.00     0.064 C 
ATOM     27  C   UNL d   1      15.216   1.903 -20.304  0.00  0.00     0.045 A 
ATOM     28  O   UNL d   1      14.935  -0.437 -21.092  0.00  0.00    -0.331 OA
ATOM     29  C   UNL d   1      14.603   2.904 -19.521  0.00  0.00     0.103 A 
ATOM     30  N   UNL d   1      13.456   2.721 -18.830  0.00  0.00    -0.228 NA
ATOM     31  C   UNL d   1      13.883  -1.410 -20.986  0.00  0.00     0.154 C 
ENDBRANCH  20  23
ENDBRANCH   1  17
TORSDOF 8
