REMARK  6 active torsions:
REMARK  status: ('A' for Active; 'I' for Inactive)
REMARK    1  A    between atoms: N_12  and  C_13 
REMARK    2  A    between atoms: C_13  and  C_14 
REMARK    3  A    between atoms: C_14  and  C_15 
REMARK    4  A    between atoms: C_15  and  C_16 
REMARK    5  A    between atoms: C_16  and  N_17 
REMARK    6  A    between atoms: N_20  and  C_21 
ROOT
ATOM      1  N   UNL d   1       8.903   5.042 -12.788  0.00  0.00     0.141 N 
ATOM      2  C   UNL d   1       8.952   6.447 -12.421  0.00  0.00     0.274 C 
ATOM      3  C   UNL d   1       9.909   6.617 -11.267  0.00  0.00     0.137 C 
ATOM      4  N   UNL d   1       9.556   5.791 -10.171  0.00  0.00    -0.344 N 
ATOM      5  C   UNL d   1       9.350   4.395 -10.457  0.00  0.00     0.137 C 
ATOM      6  C   UNL d   1       8.392   4.289 -11.647  0.00  0.00     0.274 C 
ENDROOT
BRANCH   1   7
ATOM      7  C   UNL d   1       7.988   4.848 -13.911  0.00  0.00     0.251 C 
BRANCH   7   8
ATOM      8  C   UNL d   1       8.055   3.414 -14.472  0.00  0.00     0.037 C 
BRANCH   8   9
ATOM      9  C   UNL d   1       6.738   2.640 -14.309  0.00  0.00     0.027 C 
BRANCH   9  10
ATOM     10  C   UNL d   1       6.871   1.132 -14.599  0.00  0.00     0.112 C 
BRANCH  10  11
ATOM     11  N   UNL d   1       6.309   0.699 -15.901  0.00  0.00    -0.271 N 
ATOM     12  C   UNL d   1       6.728   1.141 -17.100  0.00  0.00     0.240 A 
ATOM     13  O   UNL d   1       7.625   1.952 -17.323  0.00  0.00    -0.272 OA
ATOM     14  C   UNL d   1       5.923   0.528 -18.233  0.00  0.00     0.093 A 
ATOM     15  C   UNL d   1       4.965  -0.435 -17.485  0.00  0.00     0.093 A 
ATOM     16  C   UNL d   1       6.720  -0.417 -19.164  0.00  0.00     0.031 C 
ATOM     17  C   UNL d   1       5.340  -1.817 -18.094  0.00  0.00     0.031 C 
ATOM     18  C   UNL d   1       5.338  -0.227 -16.022  0.00  0.00     0.240 A 
ATOM     19  C   UNL d   1       4.911  -1.778 -19.547  0.00  0.00    -0.030 C 
ATOM     20  C   UNL d   1       6.858  -1.671 -18.284  0.00  0.00     0.010 C 
ATOM     21  C   UNL d   1       5.740  -0.948 -20.187  0.00  0.00    -0.030 C 
ATOM     22  O   UNL d   1       4.777  -0.817 -15.097  0.00  0.00    -0.272 OA
ENDBRANCH  10  11
ENDBRANCH   9  10
ENDBRANCH   8   9
ENDBRANCH   7   8
ENDBRANCH   1   7
BRANCH   4  23
ATOM     23  C   UNL d   1       9.535   6.287  -8.886  0.00  0.00     0.057 A 
ATOM     24  C   UNL d   1      10.485   7.204  -8.400  0.00  0.00     0.024 A 
ATOM     25  C   UNL d   1      10.292   7.691  -7.051  0.00  0.00     0.033 A 
ATOM     26  C   UNL d   1      11.681   7.758  -8.962  0.00  0.00     0.038 A 
ATOM     27  C   UNL d   1       9.215   7.263  -6.294  0.00  0.00     0.007 A 
ATOM     28  S   UNL d   1      11.498   8.816  -6.546  0.00  0.00    -0.058 SA
ATOM     29  C   UNL d   1       8.262   6.406  -6.843  0.00  0.00     0.002 A 
ATOM     30  C   UNL d   1       8.452   5.885  -8.121  0.00  0.00     0.017 A 
ATOM     31  C   UNL d   1      12.291   8.536  -8.035  0.00  0.00     0.170 A 
ATOM     32  F   UNL d   1      13.517   9.022  -8.244  0.00  0.00    -0.197 F 
ENDBRANCH   4  23
TORSDOF 6
