REMARK  0 active torsions:
REMARK  status: ('A' for Active; 'I' for Inactive)
ROOT
ATOM      1  O   UNL d   1       9.118   4.463 -11.252  0.00  0.00    -0.188 OA
ATOM      2  C   UNL d   1       9.388   5.268 -10.198  0.00  0.00     0.156 A 
ATOM      3  C   UNL d   1      10.144   6.382 -10.529  0.00  0.00     0.025 A 
ATOM      4  C   UNL d   1      10.560   7.264  -9.561  0.00  0.00    -0.024 A 
ATOM      5  C   UNL d   1      10.171   7.092  -8.205  0.00  0.00    -0.018 A 
ATOM      6  C   UNL d   1       9.345   6.001  -7.878  0.00  0.00     0.025 A 
ATOM      7  C   UNL d   1       9.000   5.046  -8.859  0.00  0.00     0.156 A 
ATOM      8  O   UNL d   1       8.310   3.939  -8.490  0.00  0.00    -0.188 OA
ATOM      9  C   UNL d   1      10.463   8.174  -7.170  0.00  0.00     0.078 C 
ATOM     10  C   UNL d   1      11.097   7.844  -5.817  0.00  0.00    -0.015 A 
ATOM     11  C   UNL d   1      11.253   6.560  -5.322  0.00  0.00     0.017 A 
ATOM     12  C   UNL d   1      11.853   6.417  -4.069  0.00  0.00     0.099 A 
ATOM     13  N   UNL d   1      12.334   7.399  -3.302  0.00  0.00    -0.243 NA
ATOM     14  C   UNL d   1      12.256   8.634  -3.797  0.00  0.00     0.096 A 
ATOM     15  C   UNL d   1      11.674   8.885  -5.050  0.00  0.00     0.029 A 
ATOM     16  C   UNL d   1      11.783  10.244  -5.618  0.00  0.00     0.318 C 
ATOM     17  N   UNL d   1      11.082  10.394  -6.839  0.00  0.00     0.342 N 
ATOM     18  C   UNL d   1      11.327   9.281  -7.759  0.00  0.00     0.265 C 
ATOM     19  C   UNL d   1      10.973   9.579  -9.232  0.00  0.00     0.041 C 
ATOM     20  C   UNL d   1      11.303   8.439 -10.073  0.00  0.00     0.028 C 
ENDROOT
TORSDOF 0
