REMARK  8 active torsions:
REMARK  status: ('A' for Active; 'I' for Inactive)
REMARK    1  A    between atoms: C_3  and  S_4 
REMARK    2  A    between atoms: S_4  and  C_5 
REMARK    3  A    between atoms: C_5  and  C_6 
REMARK    4  A    between atoms: C_6  and  C_7 
REMARK    5  A    between atoms: C_7  and  N_8 
REMARK    6  A    between atoms: C_13  and  C_14 
REMARK    7  A    between atoms: C_17  and  C_18 
REMARK    8  A    between atoms: C_27  and  C_28 
ROOT
ATOM      1  N   UNL d   1       7.887   1.434 -15.264  0.00  0.00     0.137 N 
ATOM      2  C   UNL d   1       7.233   0.890 -16.459  0.00  0.00     0.250 C 
ATOM      3  C   UNL d   1       8.396   0.333 -17.280  0.00  0.00     0.038 C 
ATOM      4  C   UNL d   1       9.598   1.136 -16.836  0.00  0.00     0.037 A 
ATOM      5  C   UNL d   1      10.964   0.505 -16.653  0.00  0.00     0.007 A 
ATOM      6  C   UNL d   1      10.758   1.540 -17.732  0.00  0.00     0.024 A 
ATOM      7  C   UNL d   1       9.059   2.092 -15.814  0.00  0.00     0.251 C 
ENDROOT
BRANCH   1   8
ATOM      8  C   UNL d   1       7.032   2.351 -14.511  0.00  0.00     0.251 C 
BRANCH   8   9
ATOM      9  C   UNL d   1       7.832   3.358 -13.650  0.00  0.00     0.047 C 
BRANCH   9  10
ATOM     10  C   UNL d   1       6.910   4.255 -12.819  0.00  0.00     0.067 C 
BRANCH  10  11
ATOM     11  S   UNL d   1       7.571   5.945 -12.752  0.00  0.00    -0.075 SA
BRANCH  11  12
ATOM     12  C   UNL d   1       8.525   5.885 -11.284  0.00  0.00     0.193 A 
ATOM     13  N   UNL d   1       9.191   6.956 -10.820  0.00  0.00    -0.289 N 
ATOM     14  C   UNL d   1       9.272   8.304 -11.373  0.00  0.00     0.134 C 
ATOM     15  C   UNL d   1       9.692   6.479  -9.661  0.00  0.00     0.167 A 
ATOM     16  N   UNL d   1       9.381   5.198  -9.436  0.00  0.00    -0.128 NA
ATOM     17  N   UNL d   1       8.637   4.806 -10.511  0.00  0.00    -0.122 NA
BRANCH  15  18
ATOM     18  C   UNL d   1      10.518   7.224  -8.728  0.00  0.00     0.043 A 
ATOM     19  C   UNL d   1      11.447   8.192  -9.028  0.00  0.00     0.038 A 
ATOM     20  S   UNL d   1      12.227   8.788  -7.598  0.00  0.00    -0.086 SA
ATOM     21  C   UNL d   1      11.291   7.727  -6.585  0.00  0.00     0.035 A 
ATOM     22  C   UNL d   1      10.434   6.963  -7.326  0.00  0.00     0.011 A 
ENDBRANCH  15  18
ENDBRANCH  11  12
ENDBRANCH  10  11
ENDBRANCH   9  10
ENDBRANCH   8   9
ENDBRANCH   1   8
BRANCH   6  23
ATOM     23  C   UNL d   1      11.345   2.918 -17.606  0.00  0.00    -0.022 A 
ATOM     24  C   UNL d   1      10.579   4.060 -17.923  0.00  0.00    -0.004 A 
ATOM     25  C   UNL d   1      11.115   5.351 -17.738  0.00  0.00     0.004 A 
ATOM     26  C   UNL d   1      12.428   5.512 -17.253  0.00  0.00     0.071 A 
ATOM     27  C   UNL d   1      13.197   4.373 -16.939  0.00  0.00     0.004 A 
ATOM     28  C   UNL d   1      12.653   3.084 -17.117  0.00  0.00    -0.004 A 
BRANCH  26  29
ATOM     29  C   UNL d   1      13.008   6.905 -17.065  0.00  0.00     0.419 C 
ATOM     30  F   UNL d   1      12.535   7.724 -18.002  0.00  0.00    -0.166 F 
ATOM     31  F   UNL d   1      12.671   7.372 -15.864  0.00  0.00    -0.166 F 
ATOM     32  F   UNL d   1      14.338   6.886 -17.160  0.00  0.00    -0.166 F 
ENDBRANCH  26  29
ENDBRANCH   6  23
TORSDOF 8
