REMARK  9 active torsions:
REMARK  status: ('A' for Active; 'I' for Inactive)
REMARK    1  A    between atoms: C_2  and  C_3 
REMARK       I    between atoms: C_2  and  N_23 
REMARK    2  A    between atoms: C_3  and  C_4 
REMARK    3  A    between atoms: C_4  and  C_5 
REMARK    4  A    between atoms: C_5  and  C_6 
REMARK    5  A    between atoms: C_6  and  C_7 
REMARK    6  A    between atoms: C_7  and  N_8 
REMARK    7  A    between atoms: N_11  and  C_12 
REMARK    8  A    between atoms: C_17  and  N_18 
REMARK    9  A    between atoms: N_23  and  C_24 
ROOT
ATOM      1  C   UNL d   1       9.415   7.220 -11.733  0.00  0.00     0.035 C 
ENDROOT
BRANCH   1   2
ATOM      2  C   UNL d   1       9.644   8.161 -10.575  0.00  0.00     0.003 C 
BRANCH   2   3
ATOM      3  C   UNL d   1      11.118   8.475 -10.432  0.00  0.00     0.010 C 
BRANCH   3   4
ATOM      4  C   UNL d   1      11.347   9.487  -9.392  0.00  0.00     0.090 C 
BRANCH   4   5
ATOM      5  C   UNL d   1      11.218   8.983  -8.008  0.00  0.00     0.252 C 
ATOM      6  O   UNL d   1      12.178   8.409  -7.505  0.00  0.00    -0.271 OA
ATOM      7  N   UNL d   1      10.021   9.190  -7.456  0.00  0.00    -0.235 NA
BRANCH   7   8
ATOM      8  C   UNL d   1       9.575   8.593  -6.247  0.00  0.00     0.128 C 
ATOM      9  C   UNL d   1      10.642   8.697  -5.155  0.00  0.00    -0.004 A 
ATOM     10  C   UNL d   1      11.310   7.545  -4.677  0.00  0.00    -0.024 A 
ATOM     11  C   UNL d   1      10.853   9.928  -4.533  0.00  0.00    -0.003 A 
ATOM     12  C   UNL d   1      10.978   6.199  -5.231  0.00  0.00     0.026 C 
ATOM     13  C   UNL d   1      12.217   7.634  -3.602  0.00  0.00    -0.004 A 
ATOM     14  C   UNL d   1      10.194   6.217  -6.562  0.00  0.00     0.007 C 
ATOM     15  C   UNL d   1       9.053   7.201  -6.531  0.00  0.00     0.029 C 
ATOM     16  C   UNL d   1      12.448   8.869  -2.997  0.00  0.00    -0.000 A 
ATOM     17  C   UNL d   1      11.701  10.002  -3.421  0.00  0.00    -0.000 A 
ENDBRANCH   7   8
ENDBRANCH   4   5
ENDBRANCH   3   4
ENDBRANCH   2   3
ENDBRANCH   1   2
BRANCH   1  18
ATOM     18  C   UNL d   1       7.963   6.721 -11.782  0.00  0.00     0.250 C 
BRANCH  18  19
ATOM     19  N   UNL d   1       7.734   5.725 -12.814  0.00  0.00     0.141 N 
ATOM     20  C   UNL d   1       8.621   4.577 -12.607  0.00  0.00     0.274 C 
ATOM     21  C   UNL d   1       8.397   3.566 -13.703  0.00  0.00     0.137 C 
ATOM     22  N   UNL d   1       7.003   3.178 -13.719  0.00  0.00    -0.343 N 
ATOM     23  C   UNL d   1       6.014   4.224 -13.766  0.00  0.00     0.137 C 
ATOM     24  C   UNL d   1       6.336   5.273 -12.701  0.00  0.00     0.274 C 
BRANCH  22  25
ATOM     25  C   UNL d   1       6.590   1.848 -13.778  0.00  0.00     0.078 A 
ATOM     26  C   UNL d   1       7.304   0.869 -14.490  0.00  0.00     0.142 A 
ATOM     27  C   UNL d   1       6.828  -0.430 -14.439  0.00  0.00     0.025 A 
ATOM     28  C   UNL d   1       5.720  -0.807 -13.703  0.00  0.00     0.002 A 
ATOM     29  C   UNL d   1       5.071   0.156 -12.984  0.00  0.00     0.002 A 
ATOM     30  C   UNL d   1       5.466   1.498 -12.998  0.00  0.00     0.019 A 
BRANCH  26  31
ATOM     31  N   UNL d   1       8.494   1.059 -15.331  0.00  0.00    -0.112 N 
ATOM     32  O   UNL d   1       9.386   0.230 -15.260  0.00  0.00    -0.532 OA
ATOM     33  O   UNL d   1       8.497   2.008 -16.120  0.00  0.00    -0.532 OA
ENDBRANCH  26  31
ENDBRANCH  22  25
ENDBRANCH  18  19
ENDBRANCH   1  18
TORSDOF 9
