REMARK  9 active torsions:
REMARK  status: ('A' for Active; 'I' for Inactive)
REMARK    1  A    between atoms: C_6  and  N_7 
REMARK    2  A    between atoms: N_7  and  C_8 
REMARK    3  A    between atoms: N_7  and  C_11 
REMARK    4  A    between atoms: C_8  and  C_9 
REMARK    5  A    between atoms: C_11  and  C_12 
REMARK    6  A    between atoms: C_12  and  C_13 
REMARK    7  A    between atoms: C_13  and  C_14 
REMARK    8  A    between atoms: C_14  and  N_15 
REMARK       I    between atoms: N_15  and  C_16 
REMARK    9  A    between atoms: C_16  and  C_18 
ROOT
ATOM      1  C   UNL d   1       5.735  -1.856 -14.593  0.00  0.00     0.081 C 
ATOM      2  C   UNL d   1       6.375  -0.808 -14.483  0.00  0.00    -0.131 C 
ATOM      3  C   UNL d   1       7.104   0.372 -14.420  0.00  0.00     0.004 C 
ATOM      4  C   UNL d   1       8.454   0.399 -14.435  0.00  0.00    -0.021 C 
ATOM      5  C   UNL d   1       9.328   1.647 -14.407  0.00  0.00     0.059 C 
ATOM      6  C   UNL d   1       8.487   2.896 -14.095  0.00  0.00     0.224 C 
ATOM      7  C   UNL d   1       7.150   2.851 -14.782  0.00  0.00     0.039 C 
ATOM      8  C   UNL d   1       6.288   1.634 -14.409  0.00  0.00     0.035 C 
ENDROOT
BRANCH   6   9
ATOM      9  N   UNL d   1       9.199   4.183 -14.331  0.00  0.00     0.135 N 
BRANCH   9  10
ATOM     10  C   UNL d   1      10.049   4.067 -15.510  0.00  0.00     0.250 C 
BRANCH  10  11
ATOM     11  C   UNL d   1      10.584   5.451 -16.030  0.00  0.00     0.035 C 
ATOM     12  C   UNL d   1      11.706   5.279 -17.053  0.00  0.00     0.002 C 
ENDBRANCH  10  11
ENDBRANCH   9  10
BRANCH   9  13
ATOM     13  C   UNL d   1       9.928   4.587 -13.119  0.00  0.00     0.250 C 
BRANCH  13  14
ATOM     14  C   UNL d   1       8.999   5.074 -11.994  0.00  0.00     0.037 C 
BRANCH  14  15
ATOM     15  C   UNL d   1       9.778   5.375 -10.714  0.00  0.00     0.029 C 
BRANCH  15  16
ATOM     16  C   UNL d   1       8.892   5.933  -9.611  0.00  0.00     0.129 C 
BRANCH  16  17
ATOM     17  N   UNL d   1       9.674   6.359  -8.460  0.00  0.00    -0.233 NA
ATOM     18  C   UNL d   1      10.074   7.615  -8.216  0.00  0.00     0.294 C 
ATOM     19  O   UNL d   1       9.971   8.531  -9.031  0.00  0.00    -0.264 OA
BRANCH  18  20
ATOM     20  C   UNL d   1      10.595   7.829  -6.840  0.00  0.00     0.160 A 
ATOM     21  N   UNL d   1      10.671   9.008  -6.264  0.00  0.00    -0.160 NA
ATOM     22  N   UNL d   1      11.202   8.759  -5.023  0.00  0.00    -0.228 N 
ATOM     23  C   UNL d   1      11.462   7.396  -4.842  0.00  0.00     0.085 A 
ATOM     24  C   UNL d   1      11.444   9.686  -4.065  0.00  0.00     0.101 A 
ATOM     25  C   UNL d   1      11.091   6.788  -6.004  0.00  0.00     0.045 A 
ATOM     26  C   UNL d   1      12.002   6.970  -3.602  0.00  0.00     0.019 A 
ATOM     27  C   UNL d   1      12.254   7.904  -2.628  0.00  0.00     0.003 A 
ATOM     28  C   UNL d   1      11.978   9.275  -2.861  0.00  0.00     0.021 A 
ENDBRANCH  18  20
ENDBRANCH  16  17
ENDBRANCH  15  16
ENDBRANCH  14  15
ENDBRANCH  13  14
ENDBRANCH   9  13
ENDBRANCH   6   9
TORSDOF 9
