REMARK  1 active torsions:
REMARK  status: ('A' for Active; 'I' for Inactive)
REMARK    1  A    between atoms: C_4  and  C_5 
ROOT
ATOM      1  O   UNL d   1      11.076   9.189  -9.720  0.00  0.00    -0.264 OA
ATOM      2  C   UNL d   1      10.789   8.781  -8.599  0.00  0.00     0.272 C 
ATOM      3  C   UNL d   1      11.823   8.444  -7.541  0.00  0.00     0.103 C 
ATOM      4  C   UNL d   1      10.994   7.689  -6.503  0.00  0.00     0.062 C 
ATOM      5  C   UNL d   1       9.548   8.131  -6.771  0.00  0.00     0.157 C 
ATOM      6  O   UNL d   1       9.566   8.572  -8.117  0.00  0.00    -0.301 OA
ENDROOT
BRANCH   4   7
ATOM      7  C   UNL d   1      11.452   7.937  -5.072  0.00  0.00    -0.019 A 
ATOM      8  C   UNL d   1      11.854   6.863  -4.250  0.00  0.00    -0.004 A 
ATOM      9  C   UNL d   1      12.256   7.096  -2.920  0.00  0.00    -0.000 A 
ATOM     10  C   UNL d   1      12.261   8.408  -2.407  0.00  0.00    -0.000 A 
ATOM     11  C   UNL d   1      11.862   9.483  -3.226  0.00  0.00    -0.000 A 
ATOM     12  C   UNL d   1      11.461   9.249  -4.552  0.00  0.00    -0.004 A 
ENDBRANCH   4   7
TORSDOF 1
