REMARK  7 active torsions:
REMARK  status: ('A' for Active; 'I' for Inactive)
REMARK       I    between atoms: C_2  and  N_3 
REMARK    1  A    between atoms: C_2  and  C_23 
REMARK    2  A    between atoms: N_3  and  C_4 
REMARK    3  A    between atoms: C_4  and  C_5 
REMARK    4  A    between atoms: C_5  and  C_6 
REMARK    5  A    between atoms: C_6  and  C_8 
REMARK    6  A    between atoms: C_8  and  N_9 
REMARK    7  A    between atoms: N_12  and  C_13 
ROOT
ATOM      1  C   UNL d   1       7.088   1.442 -15.084  0.00  0.00     0.196 C 
ATOM      2  F   UNL d   1       6.777   0.403 -14.304  0.00  0.00    -0.235 F 
ENDROOT
BRANCH   1   3
ATOM      3  C   UNL d   1       6.557   1.179 -16.510  0.00  0.00     0.064 C 
BRANCH   3   4
ATOM      4  C   UNL d   1       7.335   0.080 -17.252  0.00  0.00     0.132 C 
BRANCH   4   5
ATOM      5  N   UNL d   1       8.698   0.490 -17.577  0.00  0.00    -0.233 NA
ATOM      6  C   UNL d   1       9.695  -0.342 -17.910  0.00  0.00     0.293 C 
ATOM      7  O   UNL d   1       9.592  -1.569 -17.908  0.00  0.00    -0.264 OA
BRANCH   6   8
ATOM      8  C   UNL d   1      10.942   0.315 -18.346  0.00  0.00     0.139 A 
ATOM      9  N   UNL d   1      11.961  -0.475 -18.856  0.00  0.00    -0.241 NA
ATOM     10  C   UNL d   1      13.044   0.293 -19.236  0.00  0.00     0.082 A 
ATOM     11  C   UNL d   1      12.673   1.638 -18.939  0.00  0.00     0.019 A 
ATOM     12  C   UNL d   1      14.298  -0.031 -19.789  0.00  0.00     0.019 A 
ATOM     13  C   UNL d   1      11.347   1.625 -18.382  0.00  0.00     0.025 A 
ATOM     14  C   UNL d   1      13.616   2.648 -19.227  0.00  0.00     0.002 A 
ATOM     15  C   UNL d   1      14.874   2.336 -19.782  0.00  0.00     0.000 A 
ATOM     16  C   UNL d   1      15.218   0.998 -20.057  0.00  0.00     0.002 A 
ENDBRANCH   6   8
ENDBRANCH   4   5
ENDBRANCH   3   4
ENDBRANCH   1   3
BRANCH   1  17
ATOM     17  C   UNL d   1       6.477   2.732 -14.463  0.00  0.00     0.285 C 
BRANCH  17  18
ATOM     18  N   UNL d   1       7.184   3.228 -13.289  0.00  0.00     0.144 N 
ATOM     19  C   UNL d   1       8.537   3.725 -13.596  0.00  0.00     0.274 C 
ATOM     20  C   UNL d   1       9.278   4.124 -12.308  0.00  0.00     0.137 C 
ATOM     21  N   UNL d   1       8.470   5.052 -11.559  0.00  0.00    -0.344 N 
ATOM     22  C   UNL d   1       7.087   4.710 -11.319  0.00  0.00     0.137 C 
ATOM     23  C   UNL d   1       6.398   4.281 -12.627  0.00  0.00     0.274 C 
BRANCH  21  24
ATOM     24  C   UNL d   1       8.989   6.259 -11.110  0.00  0.00     0.068 A 
ATOM     25  C   UNL d   1       9.457   6.397  -9.787  0.00  0.00     0.084 A 
ATOM     26  C   UNL d   1       9.959   7.642  -9.347  0.00  0.00     0.070 A 
ATOM     27 CL   UNL d   1       9.413   5.041  -8.716  0.00  0.00    -0.080 Cl
ATOM     28  C   UNL d   1       9.958   8.741 -10.223  0.00  0.00     0.012 A 
ATOM     29 CL   UNL d   1      10.555   7.862  -7.743  0.00  0.00    -0.081 Cl
ATOM     30  C   UNL d   1       9.456   8.595 -11.533  0.00  0.00     0.002 A 
ATOM     31  C   UNL d   1       8.993   7.358 -11.990  0.00  0.00     0.018 A 
ENDBRANCH  21  24
ENDBRANCH  17  18
ENDBRANCH   1  17
TORSDOF 7
