REMARK  6 active torsions:
REMARK  status: ('A' for Active; 'I' for Inactive)
REMARK    1  A    between atoms: O_2  and  C_3 
REMARK    2  A    between atoms: C_12  and  N_13 
REMARK    3  A    between atoms: N_13  and  C_14 
REMARK    4  A    between atoms: C_14  and  C_15 
REMARK    5  A    between atoms: C_15  and  N_16 
REMARK    6  A    between atoms: N_19  and  C_20 
ROOT
ATOM      1  C   UNL d   1       9.605   6.798 -12.172  0.00  0.00     0.155 C 
ENDROOT
BRANCH   1   2
ATOM      2  N   UNL d   1       8.541   6.309 -13.027  0.00  0.00    -0.291 NA
BRANCH   2   3
ATOM      3  C   UNL d   1       7.922   5.060 -12.611  0.00  0.00     0.120 C 
ATOM      4  C   UNL d   1       8.150   3.942 -13.634  0.00  0.00    -0.003 A 
ATOM      5  C   UNL d   1       9.421   3.808 -14.232  0.00  0.00    -0.003 A 
ATOM      6  C   UNL d   1       7.128   3.012 -13.964  0.00  0.00    -0.002 A 
ATOM      7  C   UNL d   1       9.674   2.782 -15.153  0.00  0.00     0.002 A 
ATOM      8  C   UNL d   1       8.662   1.867 -15.486  0.00  0.00     0.024 A 
ATOM      9  C   UNL d   1       7.375   1.970 -14.894  0.00  0.00     0.090 A 
ATOM     10  C   UNL d   1       5.747   3.128 -13.314  0.00  0.00     0.028 C 
ATOM     11  C   UNL d   1       5.706   4.025 -12.075  0.00  0.00     0.007 C 
ATOM     12  C   UNL d   1       6.444   5.326 -12.315  0.00  0.00     0.029 C 
BRANCH   9  13
ATOM     13  O   UNL d   1       6.345   1.095 -15.180  0.00  0.00    -0.328 OA
ATOM     14  C   UNL d   1       6.567   0.111 -16.183  0.00  0.00     0.181 C 
ENDBRANCH   9  13
ENDBRANCH   2   3
ENDBRANCH   1   2
BRANCH   1  15
ATOM     15  C   UNL d   1       9.072   7.482 -10.925  0.00  0.00     0.276 C 
BRANCH  15  16
ATOM     16  N   UNL d   1      10.072   8.043 -10.030  0.00  0.00     0.143 N 
ATOM     17  C   UNL d   1      10.852   7.001  -9.366  0.00  0.00     0.274 C 
ATOM     18  C   UNL d   1      11.916   7.584  -8.423  0.00  0.00     0.137 C 
ATOM     19  N   UNL d   1      11.296   8.489  -7.485  0.00  0.00    -0.344 N 
ATOM     20  C   UNL d   1      10.443   9.493  -8.057  0.00  0.00     0.137 C 
ATOM     21  C   UNL d   1       9.425   8.852  -9.002  0.00  0.00     0.274 C 
BRANCH  19  22
ATOM     22  C   UNL d   1      11.467   8.383  -6.098  0.00  0.00     0.056 A 
ATOM     23  C   UNL d   1      11.775   9.534  -5.343  0.00  0.00     0.018 A 
ATOM     24  C   UNL d   1      12.018   9.411  -3.963  0.00  0.00     0.013 A 
ATOM     25  C   UNL d   1      11.982   8.151  -3.349  0.00  0.00     0.058 A 
ATOM     26  C   UNL d   1      11.680   7.002  -4.104  0.00  0.00     0.013 A 
ATOM     27 CL   UNL d   1      12.293   8.031  -1.672  0.00  0.00    -0.082 Cl
ATOM     28  C   UNL d   1      11.416   7.120  -5.480  0.00  0.00     0.018 A 
ENDBRANCH  19  22
ENDBRANCH  15  16
ENDBRANCH   1  15
TORSDOF 6
