REMARK  4 active torsions:
REMARK  status: ('A' for Active; 'I' for Inactive)
REMARK    1  A    between atoms: N_5  and  C_6 
REMARK    2  A    between atoms: C_10  and  O_11 
REMARK    3  A    between atoms: O_11  and  S_12 
REMARK    4  A    between atoms: S_12  and  C_15 
ROOT
ATOM      1  C   UNL d   1       9.044   3.638 -14.308  0.00  0.00     0.142 C 
ATOM      2  N   UNL d   1       8.130   2.741 -14.543  0.00  0.00    -0.227 NA
ATOM      3  C   UNL d   1       8.184   1.728 -15.516  0.00  0.00     0.102 A 
ATOM      4  C   UNL d   1       6.951   1.302 -16.060  0.00  0.00     0.046 A 
ATOM      5  C   UNL d   1       6.874   0.276 -17.034  0.00  0.00     0.115 A 
ATOM      6  C   UNL d   1       8.061  -0.342 -17.461  0.00  0.00     0.027 A 
ATOM      7  C   UNL d   1       9.284   0.003 -16.861  0.00  0.00     0.023 A 
ATOM      8  C   UNL d   1       9.358   1.036 -15.911  0.00  0.00     0.099 A 
ATOM      9  N   UNL d   1      10.622   1.374 -15.445  0.00  0.00    -0.244 NA
ATOM     10  C   UNL d   1      11.079   2.682 -15.581  0.00  0.00     0.084 A 
ATOM     11  C   UNL d   1      12.307   2.892 -16.236  0.00  0.00     0.019 A 
ATOM     12  C   UNL d   1      12.821   4.190 -16.421  0.00  0.00     0.002 A 
ATOM     13  C   UNL d   1      12.069   5.294 -15.994  0.00  0.00     0.000 A 
ATOM     14  C   UNL d   1      10.832   5.077 -15.371  0.00  0.00     0.004 A 
ATOM     15  C   UNL d   1      10.319   3.784 -15.123  0.00  0.00     0.051 A 
ENDROOT
BRANCH   5  16
ATOM     16  O   UNL d   1       5.677  -0.066 -17.614  0.00  0.00    -0.224 OA
BRANCH  16  17
ATOM     17  S   UNL d   1       5.154  -1.679 -17.526  0.00  0.00     0.374 S 
ATOM     18  O   UNL d   1       6.231  -2.539 -18.049  0.00  0.00    -0.189 OA
ATOM     19  O   UNL d   1       4.599  -1.891 -16.173  0.00  0.00    -0.189 OA
BRANCH  17  20
ATOM     20  C   UNL d   1       3.801  -1.631 -18.787  0.00  0.00     0.524 C 
ATOM     21  F   UNL d   1       3.413  -0.368 -18.962  0.00  0.00    -0.155 F 
ATOM     22  F   UNL d   1       4.286  -2.107 -19.929  0.00  0.00    -0.155 F 
ATOM     23  F   UNL d   1       2.769  -2.378 -18.404  0.00  0.00    -0.155 F 
ENDBRANCH  17  20
ENDBRANCH  16  17
ENDBRANCH   5  16
BRANCH   1  24
ATOM     24  N   UNL d   1       8.898   4.519 -13.249  0.00  0.00    -0.330 N 
ATOM     25  C   UNL d   1       9.995   5.078 -12.464  0.00  0.00     0.138 C 
ATOM     26  C   UNL d   1       9.811   4.854 -10.942  0.00  0.00     0.274 C 
ATOM     27  N   UNL d   1       8.521   5.402 -10.536  0.00  0.00     0.143 N 
ATOM     28  C   UNL d   1       8.383   5.189  -9.098  0.00  0.00     0.286 C 
ATOM     29  C   UNL d   1       7.451   4.745 -11.261  0.00  0.00     0.274 C 
ATOM     30  C   UNL d   1       7.594   4.990 -12.764  0.00  0.00     0.138 C 
ENDBRANCH   1  24
TORSDOF 4
