REMARK  6 active torsions:
REMARK  status: ('A' for Active; 'I' for Inactive)
REMARK       I    between atoms: C_2  and  N_3 
REMARK    1  A    between atoms: C_2  and  C_27 
REMARK    2  A    between atoms: N_3  and  C_4 
REMARK    3  A    between atoms: C_7  and  C_8 
REMARK    4  A    between atoms: C_8  and  C_9 
REMARK    5  A    between atoms: C_9  and  N_10 
REMARK    6  A    between atoms: N_13  and  C_14 
ROOT
ATOM      1  C   UNL d   1       9.345   4.577 -12.490  0.00  0.00     0.250 C 
ENDROOT
BRANCH   1   2
ATOM      2  C   UNL d   1       8.843   5.813 -11.715  0.00  0.00     0.035 C 
BRANCH   2   3
ATOM      3  C   UNL d   1       9.461   5.941 -10.313  0.00  0.00     0.002 C 
ATOM      4  C   UNL d   1      10.000   7.350 -10.124  0.00  0.00     0.002 C 
ATOM      5  C   UNL d   1      10.587   7.559  -8.755  0.00  0.00     0.024 C 
ATOM      6  C   UNL d   1       9.551   7.272  -7.648  0.00  0.00     0.107 C 
ATOM      7  C   UNL d   1       9.012   5.838  -7.812  0.00  0.00     0.024 C 
ATOM      8  C   UNL d   1       8.469   5.575  -9.215  0.00  0.00     0.002 C 
BRANCH   6   9
ATOM      9  N   UNL d   1      10.171   7.411  -6.333  0.00  0.00    -0.235 NA
ATOM     10  C   UNL d   1      10.734   8.529  -5.861  0.00  0.00     0.298 C 
ATOM     11  O   UNL d   1      10.671   9.621  -6.422  0.00  0.00    -0.263 OA
BRANCH  10  12
ATOM     12  C   UNL d   1      11.409   8.413  -4.567  0.00  0.00     0.157 A 
ATOM     13  O   UNL d   1      11.609   9.547  -3.845  0.00  0.00    -0.300 OA
ATOM     14  C   UNL d   1      12.191   9.168  -2.681  0.00  0.00     0.123 A 
ATOM     15  C   UNL d   1      12.396   7.818  -2.658  0.00  0.00     0.029 A 
ATOM     16  C   UNL d   1      11.876   7.321  -3.887  0.00  0.00     0.032 A 
ENDBRANCH  10  12
ENDBRANCH   6   9
ENDBRANCH   2   3
ENDBRANCH   1   2
BRANCH   1  17
ATOM     17  N   UNL d   1       8.426   4.121 -13.526  0.00  0.00     0.141 N 
ATOM     18  C   UNL d   1       8.976   2.855 -14.049  0.00  0.00     0.274 C 
ATOM     19  C   UNL d   1       8.076   2.310 -15.164  0.00  0.00     0.138 C 
ATOM     20  N   UNL d   1       6.707   2.164 -14.675  0.00  0.00    -0.329 N 
ATOM     21  C   UNL d   1       6.128   3.342 -14.083  0.00  0.00     0.138 C 
ATOM     22  C   UNL d   1       7.059   3.885 -13.010  0.00  0.00     0.274 C 
BRANCH  20  23
ATOM     23  C   UNL d   1       5.955   0.956 -14.797  0.00  0.00     0.148 A 
ATOM     24  C   UNL d   1       6.004   0.142 -15.996  0.00  0.00     0.042 A 
ATOM     25  C   UNL d   1       5.040  -0.905 -15.871  0.00  0.00     0.050 A 
ATOM     26  C   UNL d   1       6.726   0.193 -17.220  0.00  0.00     0.004 A 
ATOM     27  S   UNL d   1       4.150  -0.659 -14.398  0.00  0.00     0.015 SA
ATOM     28  C   UNL d   1       4.879  -1.903 -16.857  0.00  0.00     0.008 A 
ATOM     29  N   UNL d   1       5.100   0.629 -13.872  0.00  0.00    -0.192 NA
ATOM     30  C   UNL d   1       5.653  -1.839 -18.021  0.00  0.00     0.001 A 
ATOM     31  C   UNL d   1       6.566  -0.797 -18.210  0.00  0.00     0.000 A 
ENDBRANCH  20  23
ENDBRANCH   1  17
TORSDOF 6
