REMARK  9 active torsions:
REMARK  status: ('A' for Active; 'I' for Inactive)
REMARK    1  A    between atoms: O_2  and  C_3 
REMARK    2  A    between atoms: C_8  and  N_9 
REMARK    3  A    between atoms: N_12  and  C_13 
REMARK    4  A    between atoms: C_13  and  C_14 
REMARK    5  A    between atoms: C_14  and  C_15 
REMARK    6  A    between atoms: C_15  and  C_16 
REMARK    7  A    between atoms: C_16  and  C_17 
REMARK    8  A    between atoms: C_17  and  C_18 
REMARK       I    between atoms: C_18  and  N_20 
REMARK    9  A    between atoms: N_20  and  C_21 
ROOT
ATOM      1  C   UNL d   1       9.837   7.019 -11.656  0.00  0.00     0.035 C 
ENDROOT
BRANCH   1   2
ATOM      2  C   UNL d   1       9.334   7.768 -10.417  0.00  0.00     0.250 C 
BRANCH   2   3
ATOM      3  N   UNL d   1      10.383   8.297  -9.551  0.00  0.00     0.141 N 
ATOM      4  C   UNL d   1      11.070   7.175  -8.921  0.00  0.00     0.274 C 
ATOM      5  C   UNL d   1      12.179   7.662  -7.966  0.00  0.00     0.137 C 
ATOM      6  N   UNL d   1      11.626   8.585  -6.988  0.00  0.00    -0.343 N 
ATOM      7  C   UNL d   1      10.793   9.644  -7.518  0.00  0.00     0.137 C 
ATOM      8  C   UNL d   1       9.737   9.124  -8.530  0.00  0.00     0.274 C 
BRANCH   6   9
ATOM      9  C   UNL d   1      11.756   8.405  -5.601  0.00  0.00     0.079 A 
ATOM     10  C   UNL d   1      11.410   7.199  -4.973  0.00  0.00     0.110 A 
ATOM     11  C   UNL d   1      11.636   6.982  -3.608  0.00  0.00     0.026 A 
ATOM     12  C   UNL d   1      12.210   7.998  -2.817  0.00  0.00     0.002 A 
ATOM     13  C   UNL d   1      12.567   9.208  -3.441  0.00  0.00     0.002 A 
ATOM     14  C   UNL d   1      12.337   9.425  -4.808  0.00  0.00     0.019 A 
BRANCH  10  15
ATOM     15  O   UNL d   1      10.864   6.180  -5.705  0.00  0.00    -0.327 OA
ATOM     16  C   UNL d   1       9.585   6.422  -6.265  0.00  0.00     0.181 C 
ENDBRANCH  10  15
ENDBRANCH   6   9
ENDBRANCH   2   3
ENDBRANCH   1   2
BRANCH   1  17
ATOM     17  C   UNL d   1       8.765   6.161 -12.345  0.00  0.00     0.003 C 
BRANCH  17  18
ATOM     18  C   UNL d   1       9.422   5.112 -13.263  0.00  0.00     0.010 C 
BRANCH  18  19
ATOM     19  C   UNL d   1       8.407   4.128 -13.864  0.00  0.00     0.090 C 
BRANCH  19  20
ATOM     20  C   UNL d   1       9.068   3.099 -14.781  0.00  0.00     0.252 C 
ATOM     21  O   UNL d   1      10.285   3.005 -14.841  0.00  0.00    -0.271 OA
ATOM     22  N   UNL d   1       8.226   2.344 -15.518  0.00  0.00    -0.235 NA
BRANCH  22  23
ATOM     23  C   UNL d   1       8.636   1.366 -16.522  0.00  0.00     0.128 C 
ATOM     24  C   UNL d   1       9.487   1.958 -17.647  0.00  0.00    -0.004 A 
ATOM     25  C   UNL d   1      10.588   1.262 -18.202  0.00  0.00    -0.024 A 
ATOM     26  C   UNL d   1       9.174   3.254 -18.154  0.00  0.00    -0.003 A 
ATOM     27  C   UNL d   1      10.982  -0.123 -17.691  0.00  0.00     0.026 C 
ATOM     28  C   UNL d   1      11.364   1.859 -19.212  0.00  0.00    -0.004 A 
ATOM     29  C   UNL d   1       9.875  -0.817 -16.885  0.00  0.00     0.007 C 
ATOM     30  C   UNL d   1       9.267   0.126 -15.850  0.00  0.00     0.029 C 
ATOM     31  C   UNL d   1      11.055   3.150 -19.691  0.00  0.00    -0.000 A 
ATOM     32  C   UNL d   1       9.949   3.841 -19.151  0.00  0.00    -0.000 A 
ENDBRANCH  22  23
ENDBRANCH  19  20
ENDBRANCH  18  19
ENDBRANCH  17  18
ENDBRANCH   1  17
TORSDOF 9
