REMARK  4 active torsions:
REMARK  status: ('A' for Active; 'I' for Inactive)
REMARK    1  A    between atoms: O_2  and  C_3 
REMARK    2  A    between atoms: C_9  and  C_10 
REMARK    3  A    between atoms: N_17  and  S_18 
REMARK    4  A    between atoms: S_18  and  C_21 
ROOT
ATOM      1  C   UNL d   1      10.594   7.239 -19.760  0.00  0.00     0.094 A 
ATOM      2  C   UNL d   1       9.527   6.646 -19.058  0.00  0.00     0.026 A 
ATOM      3  C   UNL d   1       9.775   5.859 -17.914  0.00  0.00     0.020 A 
ATOM      4  C   UNL d   1      11.095   5.689 -17.452  0.00  0.00     0.075 A 
ATOM      5  C   UNL d   1      12.210   6.270 -18.137  0.00  0.00     0.020 A 
ATOM      6  C   UNL d   1      11.922   7.033 -19.301  0.00  0.00     0.026 A 
ATOM      7  C   UNL d   1      13.396   5.889 -17.407  0.00  0.00     0.016 A 
ATOM      8  C   UNL d   1      13.003   5.116 -16.345  0.00  0.00     0.091 A 
ATOM      9  N   UNL d   1      11.621   5.000 -16.360  0.00  0.00    -0.231 N 
ENDROOT
BRANCH   9  10
ATOM     10  S   UNL d   1      10.746   4.092 -15.190  0.00  0.00     0.271 S 
ATOM     11  O   UNL d   1      11.666   3.920 -14.055  0.00  0.00    -0.200 OA
ATOM     12  O   UNL d   1       9.459   4.784 -15.019  0.00  0.00    -0.200 OA
BRANCH  10  13
ATOM     13  C   UNL d   1      10.489   2.511 -15.995  0.00  0.00     0.104 A 
ATOM     14  C   UNL d   1      11.574   1.840 -16.596  0.00  0.00     0.014 A 
ATOM     15  C   UNL d   1      11.362   0.604 -17.240  0.00  0.00     0.015 A 
ATOM     16  C   UNL d   1      10.071   0.035 -17.273  0.00  0.00     0.070 A 
ATOM     17  C   UNL d   1       8.989   0.714 -16.674  0.00  0.00     0.015 A 
ATOM     18  N   UNL d   1       9.862  -1.198 -17.890  0.00  0.00    -0.101 NA
ATOM     19  C   UNL d   1       9.196   1.953 -16.035  0.00  0.00     0.014 A 
ENDBRANCH  10  13
ENDBRANCH   9  10
BRANCH   7  20
ATOM     20  C   UNL d   1      14.800   6.237 -17.728  0.00  0.00    -0.021 C 
ATOM     21  C   UNL d   1      15.110   7.104 -18.936  0.00  0.00     0.064 C 
ATOM     22  C   UNL d   1      16.526   7.693 -18.903  0.00  0.00     0.295 C 
ATOM     23  N   UNL d   1      17.509   6.660 -18.613  0.00  0.00     0.344 N 
ATOM     24  C   UNL d   1      17.288   6.100 -17.280  0.00  0.00     0.316 C 
ATOM     25  C   UNL d   1      15.825   5.801 -16.979  0.00  0.00     0.007 C 
ENDBRANCH   7  20
BRANCH   1  26
ATOM     26  O   UNL d   1      10.275   8.001 -20.864  0.00  0.00    -0.328 OA
ATOM     27  C   UNL d   1      11.341   8.510 -21.655  0.00  0.00     0.181 C 
ENDBRANCH   1  26
TORSDOF 4
