REMARK  5 active torsions:
REMARK  status: ('A' for Active; 'I' for Inactive)
REMARK    1  A    between atoms: C_2  and  N_3 
REMARK    2  A    between atoms: N_3  and  C_4 
REMARK    3  A    between atoms: C_4  and  C_6 
REMARK    4  A    between atoms: C_6  and  C_7 
REMARK    5  A    between atoms: C_11  and  C_12 
ROOT
ATOM      1  C   UNL d   1      11.114   7.736  -6.658  0.00  0.00    -0.020 C 
ATOM      2  C   UNL d   1      11.851   8.479  -7.568  0.00  0.00    -0.004 C 
ATOM      3  C   UNL d   1      11.600   8.437  -8.914  0.00  0.00    -0.000 C 
ATOM      4  C   UNL d   1      10.711   7.472  -9.385  0.00  0.00     0.004 C 
ATOM      5  C   UNL d   1      10.064   6.590  -8.469  0.00  0.00     0.071 C 
ATOM      6  C   UNL d   1      10.268   6.736  -7.097  0.00  0.00    -0.000 C 
ENDROOT
BRANCH   1   7
ATOM      7  C   UNL d   1      11.325   7.911  -5.166  0.00  0.00     0.050 C 
BRANCH   7   8
ATOM      8  C   UNL d   1      11.264   9.342  -4.532  0.00  0.00     0.102 C 
ATOM      9  C   UNL d   1      11.502  10.442  -5.511  0.00  0.00     0.026 C 
BRANCH   8  10
ATOM     10  N   UNL d   1      12.218   9.477  -3.441  0.00  0.00    -0.297 NA
BRANCH  10  11
ATOM     11  C   UNL d   1      12.118   8.482  -2.366  0.00  0.00     0.120 C 
ATOM     12  C   UNL d   1      12.674   7.104  -2.725  0.00  0.00     0.028 C 
ENDBRANCH  10  11
ENDBRANCH   8  10
ENDBRANCH   7   8
ENDBRANCH   1   7
BRANCH   5  13
ATOM     13  C   UNL d   1       9.149   5.498  -9.018  0.00  0.00     0.419 C 
ATOM     14  F   UNL d   1       9.865   4.404  -9.237  0.00  0.00    -0.166 F 
ATOM     15  F   UNL d   1       8.215   5.236  -8.119  0.00  0.00    -0.166 F 
ATOM     16  F   UNL d   1       8.606   5.913 -10.149  0.00  0.00    -0.166 F 
ENDBRANCH   5  13
TORSDOF 5
