REMARK  4 active torsions:
REMARK  status: ('A' for Active; 'I' for Inactive)
REMARK    1  A    between atoms: O_2  and  C_3 
REMARK    2  A    between atoms: N_14  and  C_15 
REMARK    3  A    between atoms: C_15  and  C_16 
REMARK    4  A    between atoms: C_16  and  C_17 
ROOT
ATOM      1  C   UNL d   1       9.647   1.772 -14.807  0.00  0.00     0.094 A 
ATOM      2  C   UNL d   1      10.899   2.311 -14.432  0.00  0.00     0.026 A 
ATOM      3  C   UNL d   1      10.982   3.580 -13.834  0.00  0.00     0.026 A 
ATOM      4  C   UNL d   1       9.798   4.283 -13.492  0.00  0.00     0.090 A 
ATOM      5  C   UNL d   1       8.545   3.764 -13.875  0.00  0.00     0.002 A 
ATOM      6  C   UNL d   1       8.478   2.520 -14.533  0.00  0.00     0.022 A 
ATOM      7  C   UNL d   1       7.248   4.479 -13.550  0.00  0.00     0.031 C 
ATOM      8  C   UNL d   1       7.565   5.920 -13.152  0.00  0.00     0.033 C 
ATOM      9  C   UNL d   1       8.749   5.997 -12.177  0.00  0.00     0.103 C 
ATOM     10  C   UNL d   1       8.351   5.266 -10.858  0.00  0.00     0.063 C 
ATOM     11  C   UNL d   1       9.369   5.424  -9.751  0.00  0.00     0.253 C 
ATOM     12  N   UNL d   1       9.591   6.832  -9.450  0.00  0.00     0.138 N 
ATOM     13  C   UNL d   1      10.062   7.567 -10.627  0.00  0.00     0.253 C 
ATOM     14  C   UNL d   1       9.142   7.468 -11.888  0.00  0.00     0.063 C 
ATOM     15  O   UNL d   1       9.921   5.446 -12.783  0.00  0.00    -0.336 OA
ENDROOT
BRANCH  12  16
ATOM     16  C   UNL d   1      10.581   6.944  -8.384  0.00  0.00     0.255 C 
BRANCH  16  17
ATOM     17  C   UNL d   1      10.186   8.092  -7.462  0.00  0.00     0.064 C 
BRANCH  17  18
ATOM     18  C   UNL d   1      10.959   8.072  -6.152  0.00  0.00     0.007 A 
ATOM     19  C   UNL d   1      11.655   9.210  -5.678  0.00  0.00     0.138 A 
ATOM     20  C   UNL d   1      12.320   9.149  -4.436  0.00  0.00     0.059 A 
ATOM     21  F   UNL d   1      11.700  10.359  -6.397  0.00  0.00    -0.204 F 
ATOM     22  C   UNL d   1      12.281   7.985  -3.652  0.00  0.00     0.142 A 
ATOM     23  C   UNL d   1      11.604   6.854  -4.126  0.00  0.00     0.029 A 
ATOM     24  F   UNL d   1      12.896   7.948  -2.453  0.00  0.00    -0.204 F 
ATOM     25  C   UNL d   1      10.938   6.904  -5.363  0.00  0.00     0.000 A 
ENDBRANCH  17  18
ENDBRANCH  16  17
ENDBRANCH  12  16
BRANCH   1  26
ATOM     26  O   UNL d   1       9.676   0.514 -15.377  0.00  0.00    -0.328 OA
ATOM     27  C   UNL d   1       8.483   0.117 -16.027  0.00  0.00     0.181 C 
ENDBRANCH   1  26
TORSDOF 4
