REMARK  7 active torsions:
REMARK  status: ('A' for Active; 'I' for Inactive)
REMARK    1  A    between atoms: N_13  and  C_14 
REMARK    2  A    between atoms: C_14  and  C_15 
REMARK    3  A    between atoms: C_15  and  C_16 
REMARK    4  A    between atoms: C_16  and  S_17 
REMARK    5  A    between atoms: S_17  and  C_18 
REMARK    6  A    between atoms: C_21  and  C_22 
REMARK    7  A    between atoms: C_25  and  C_26 
ROOT
ATOM      1  C   UNL d   1       8.524   5.365 -13.091  0.00  0.00     0.067 C 
ENDROOT
BRANCH   1   2
ATOM      2  C   UNL d   1       7.545   4.260 -12.716  0.00  0.00     0.047 C 
BRANCH   2   3
ATOM      3  C   UNL d   1       7.361   3.155 -13.767  0.00  0.00     0.251 C 
BRANCH   3   4
ATOM      4  N   UNL d   1       8.569   2.386 -14.126  0.00  0.00     0.138 N 
ATOM      5  C   UNL d   1       9.516   3.204 -14.925  0.00  0.00     0.255 C 
ATOM      6  C   UNL d   1      10.900   2.577 -14.990  0.00  0.00     0.061 C 
ATOM      7  C   UNL d   1      11.062   1.616 -16.122  0.00  0.00    -0.024 A 
ATOM      8  C   UNL d   1      10.266   0.449 -16.143  0.00  0.00    -0.022 A 
ATOM      9  C   UNL d   1      11.931   1.964 -17.183  0.00  0.00    -0.001 A 
ATOM     10  C   UNL d   1      10.367  -0.428 -17.241  0.00  0.00     0.022 A 
ATOM     11  C   UNL d   1       9.286   0.145 -15.008  0.00  0.00     0.061 C 
ATOM     12  C   UNL d   1      11.263  -0.093 -18.263  0.00  0.00     0.126 A 
ATOM     13  O   UNL d   1      11.617  -0.750 -19.420  0.00  0.00    -0.211 OA
ATOM     14  C   UNL d   1      12.027   1.076 -18.268  0.00  0.00     0.040 A 
ATOM     15  N   UNL d   1      12.582   0.018 -20.130  0.00  0.00    -0.131 NA
ATOM     16  C   UNL d   1      12.815   1.121 -19.427  0.00  0.00     0.088 A 
ATOM     17  C   UNL d   1      13.791   2.153 -19.905  0.00  0.00     0.055 C 
ATOM     18  C   UNL d   1       8.135   1.169 -14.831  0.00  0.00     0.255 C 
ENDBRANCH   3   4
ENDBRANCH   2   3
ENDBRANCH   1   2
BRANCH   1  19
ATOM     19  S   UNL d   1       8.303   6.946 -12.323  0.00  0.00    -0.075 SA
BRANCH  19  20
ATOM     20  C   UNL d   1       9.062   6.590 -10.778  0.00  0.00     0.193 A 
ATOM     21  N   UNL d   1       9.582   7.572 -10.013  0.00  0.00    -0.289 N 
ATOM     22  C   UNL d   1       9.953   6.870  -8.910  0.00  0.00     0.167 A 
ATOM     23  C   UNL d   1       9.591   9.013 -10.324  0.00  0.00     0.134 C 
ATOM     24  N   UNL d   1       9.693   5.563  -9.006  0.00  0.00    -0.128 NA
ATOM     25  N   UNL d   1       9.137   5.372 -10.238  0.00  0.00    -0.122 NA
BRANCH  22  26
ATOM     26  C   UNL d   1      10.537   7.435  -7.699  0.00  0.00     0.036 C 
ATOM     27  C   UNL d   1      10.225   6.824  -6.449  0.00  0.00     0.003 C 
ATOM     28  C   UNL d   1      10.802   7.319  -5.261  0.00  0.00     0.004 C 
ATOM     29  C   UNL d   1      11.585   8.488  -5.297  0.00  0.00     0.071 C 
ATOM     30  C   UNL d   1      11.860   9.103  -6.549  0.00  0.00     0.004 C 
ATOM     31  C   UNL d   1      11.412   8.541  -7.751  0.00  0.00     0.003 C 
BRANCH  29  32
ATOM     32  C   UNL d   1      12.231   9.046  -4.064  0.00  0.00     0.419 C 
ATOM     33  F   UNL d   1      12.462   8.100  -3.155  0.00  0.00    -0.166 F 
ATOM     34  F   UNL d   1      13.392   9.637  -4.439  0.00  0.00    -0.166 F 
ATOM     35  F   UNL d   1      11.439  10.000  -3.563  0.00  0.00    -0.166 F 
ENDBRANCH  29  32
ENDBRANCH  22  26
ENDBRANCH  19  20
ENDBRANCH   1  19
TORSDOF 7
