REMARK  4 active torsions:
REMARK  status: ('A' for Active; 'I' for Inactive)
REMARK    1  A    between atoms: C_8  and  C_9 
REMARK    2  A    between atoms: C_9  and  C_10 
REMARK    3  A    between atoms: C_10  and  N_11 
REMARK    4  A    between atoms: N_14  and  C_15 
ROOT
ATOM      1  C   UNL d   1       6.872   2.803 -14.458  0.00  0.00     0.255 C 
ENDROOT
BRANCH   1   2
ATOM      2  C   UNL d   1       7.069   1.273 -14.367  0.00  0.00     0.068 C 
BRANCH   2   3
ATOM      3  C   UNL d   1       6.864   0.548 -15.707  0.00  0.00     0.050 A 
ATOM      4  C   UNL d   1       7.731   0.677 -16.753  0.00  0.00     0.061 A 
ATOM      5  C   UNL d   1       8.974   1.571 -16.749  0.00  0.00     0.052 C 
ATOM      6  N   UNL d   1       7.530  -0.028 -17.940  0.00  0.00    -0.234 NA
ATOM      7  C   UNL d   1       6.521  -0.833 -18.056  0.00  0.00     0.150 A 
ATOM      8  C   UNL d   1       6.233  -1.574 -19.379  0.00  0.00     0.177 C 
ATOM      9  N   UNL d   1       5.607  -1.062 -17.002  0.00  0.00    -0.283 N 
ATOM     10  C   UNL d   1       4.724  -1.584 -19.672  0.00  0.00     0.040 C 
ATOM     11  C   UNL d   1       6.869  -2.979 -19.422  0.00  0.00     0.041 C 
ATOM     12  O   UNL d   1       6.829  -0.863 -20.451  0.00  0.00    -0.218 OA
ATOM     13  C   UNL d   1       3.898  -2.179 -18.524  0.00  0.00     0.028 C 
ATOM     14  C   UNL d   1       4.606  -2.142 -17.155  0.00  0.00     0.111 C 
ATOM     15  C   UNL d   1       5.727  -0.398 -15.812  0.00  0.00     0.259 A 
ATOM     16  O   UNL d   1       4.939  -0.598 -14.880  0.00  0.00    -0.267 OA
ENDBRANCH   2   3
ENDBRANCH   1   2
BRANCH   1  17
ATOM     17  N   UNL d   1       7.081   3.449 -13.186  0.00  0.00     0.141 N 
ATOM     18  C   UNL d   1       6.542   4.806 -13.264  0.00  0.00     0.274 C 
ATOM     19  C   UNL d   1       6.716   5.577 -11.957  0.00  0.00     0.137 C 
ATOM     20  N   UNL d   1       8.120   5.499 -11.619  0.00  0.00    -0.344 N 
ATOM     21  C   UNL d   1       8.711   4.224 -11.584  0.00  0.00     0.137 C 
ATOM     22  C   UNL d   1       8.545   3.593 -12.970  0.00  0.00     0.274 C 
BRANCH  20  23
ATOM     23  C   UNL d   1       8.839   6.579 -11.133  0.00  0.00     0.057 A 
ATOM     24  C   UNL d   1       9.522   6.614  -9.878  0.00  0.00     0.022 A 
ATOM     25  C   UNL d   1      10.175   7.824  -9.558  0.00  0.00     0.031 A 
ATOM     26  C   UNL d   1       9.676   5.657  -8.814  0.00  0.00     0.009 A 
ATOM     27  C   UNL d   1      10.142   8.890 -10.411  0.00  0.00     0.007 A 
ATOM     28  S   UNL d   1      10.963   7.795  -7.988  0.00  0.00    -0.086 SA
ATOM     29  C   UNL d   1       9.451   8.780 -11.646  0.00  0.00     0.002 A 
ATOM     30  C   UNL d   1       8.795   7.649 -12.013  0.00  0.00     0.017 A 
ATOM     31  C   UNL d   1      10.428   6.167  -7.775  0.00  0.00     0.035 A 
ENDBRANCH  20  23
ENDBRANCH   1  17
TORSDOF 4
