REMARK  6 active torsions:
REMARK  status: ('A' for Active; 'I' for Inactive)
REMARK    1  A    between atoms: S_2  and  C_4 
REMARK    2  A    between atoms: S_2  and  N_12 
REMARK    3  A    between atoms: C_4  and  C_5 
REMARK    4  A    between atoms: N_12  and  C_13 
REMARK    5  A    between atoms: C_19  and  C_20 
REMARK    6  A    between atoms: C_20  and  C_21 
ROOT
ATOM      1  C   UNL d   1       7.257   3.379 -13.618  0.00  0.00     0.094 A 
ATOM      2  C   UNL d   1       6.080   2.614 -13.515  0.00  0.00     0.021 A 
ATOM      3  C   UNL d   1       5.910   1.468 -14.324  0.00  0.00     0.021 A 
ATOM      4  C   UNL d   1       6.892   1.145 -15.289  0.00  0.00     0.081 A 
ATOM      5  N   UNL d   1       6.954   0.162 -16.258  0.00  0.00    -0.244 NA
ATOM      6  C   UNL d   1       8.142   0.252 -16.964  0.00  0.00     0.095 A 
ATOM      7  C   UNL d   1       8.887   1.292 -16.480  0.00  0.00     0.001 A 
ATOM      8  C   UNL d   1       8.109   1.887 -15.407  0.00  0.00     0.017 A 
ATOM      9  C   UNL d   1       8.269   2.965 -14.520  0.00  0.00     0.021 A 
ENDROOT
BRANCH   1  10
ATOM     10  N   UNL d   1       7.472   4.498 -12.818  0.00  0.00    -0.162 NA
BRANCH  10  11
ATOM     11  S   UNL d   1       8.991   5.144 -12.293  0.00  0.00     0.269 S 
ATOM     12  O   UNL d   1       9.727   5.582 -13.487  0.00  0.00    -0.203 OA
ATOM     13  O   UNL d   1       9.605   4.098 -11.448  0.00  0.00    -0.203 OA
BRANCH  11  14
ATOM     14  C   UNL d   1       8.485   6.603 -11.287  0.00  0.00     0.173 C 
BRANCH  14  15
ATOM     15  C   UNL d   1       9.495   6.966 -10.216  0.00  0.00     0.001 A 
ATOM     16  C   UNL d   1       9.578   6.285  -8.982  0.00  0.00     0.027 A 
ATOM     17  C   UNL d   1      10.517   6.677  -8.014  0.00  0.00     0.005 A 
ATOM     18  I   UNL d   1       8.349   4.665  -8.501  0.00  0.00    -0.043 I 
ATOM     19  C   UNL d   1      11.380   7.759  -8.248  0.00  0.00     0.000 A 
ATOM     20  C   UNL d   1      11.290   8.465  -9.463  0.00  0.00    -0.000 A 
ATOM     21  C   UNL d   1      10.334   8.092 -10.431  0.00  0.00    -0.003 A 
ENDBRANCH  14  15
ENDBRANCH  11  14
ENDBRANCH  10  11
ENDBRANCH   1  10
BRANCH   7  22
ATOM     22  C   UNL d   1      10.239   1.681 -17.026  0.00  0.00     0.064 C 
BRANCH  22  23
ATOM     23  C   UNL d   1      10.810   3.015 -16.496  0.00  0.00     0.261 C 
ATOM     24  N   UNL d   1       9.972   4.129 -16.922  0.00  0.00     0.337 N 
ATOM     25  C   UNL d   1      10.784   5.328 -16.729  0.00  0.00     0.290 C 
ATOM     26  C   UNL d   1      12.176   4.892 -17.167  0.00  0.00     0.040 C 
ATOM     27  C   UNL d   1      12.200   3.368 -17.022  0.00  0.00     0.038 C 
ENDBRANCH  22  23
ENDBRANCH   7  22
TORSDOF 6
