REMARK  7 active torsions:
REMARK  status: ('A' for Active; 'I' for Inactive)
REMARK    1  A    between atoms: C_2  and  C_3 
REMARK    2  A    between atoms: C_3  and  C_4 
REMARK       I    between atoms: C_4  and  N_6 
REMARK    3  A    between atoms: N_6  and  C_7 
REMARK    4  A    between atoms: C_13  and  C_14 
REMARK    5  A    between atoms: C_14  and  C_15 
REMARK    6  A    between atoms: C_15  and  N_16 
REMARK    7  A    between atoms: N_19  and  C_20 
ROOT
ATOM      1  C   UNL d   1       9.856   5.604 -11.175  0.00  0.00     0.062 C 
ENDROOT
BRANCH   1   2
ATOM      2  C   UNL d   1       8.745   4.839 -11.824  0.00  0.00    -0.020 A 
ATOM      3  C   UNL d   1       7.466   4.820 -11.232  0.00  0.00    -0.005 A 
ATOM      4  C   UNL d   1       6.408   4.104 -11.800  0.00  0.00    -0.005 A 
ATOM      5  C   UNL d   1       6.673   3.421 -12.985  0.00  0.00    -0.024 A 
ATOM      6  C   UNL d   1       5.728   2.558 -13.709  0.00  0.00     0.028 C 
ATOM      7  C   UNL d   1       7.912   3.460 -13.603  0.00  0.00    -0.004 A 
ATOM      8  C   UNL d   1       6.595   1.868 -14.800  0.00  0.00     0.034 C 
ATOM      9  C   UNL d   1       7.965   2.570 -14.796  0.00  0.00     0.129 C 
ATOM     10  C   UNL d   1       8.982   4.158 -13.031  0.00  0.00    -0.007 A 
BRANCH   9  11
ATOM     11  N   UNL d   1       9.047   1.627 -14.758  0.00  0.00    -0.235 NA
ATOM     12  C   UNL d   1       9.598   1.174 -15.885  0.00  0.00     0.252 C 
ATOM     13  O   UNL d   1       9.488   1.752 -16.971  0.00  0.00    -0.271 OA
BRANCH  12  14
ATOM     14  C   UNL d   1      10.286  -0.174 -15.753  0.00  0.00     0.090 C 
BRANCH  14  15
ATOM     15  C   UNL d   1      10.318  -0.984 -17.062  0.00  0.00     0.010 C 
ATOM     16  C   UNL d   1      11.340  -0.486 -18.094  0.00  0.00     0.001 C 
ENDBRANCH  14  15
ENDBRANCH  12  14
ENDBRANCH   9  11
ENDBRANCH   1   2
BRANCH   1  17
ATOM     17  C   UNL d   1       9.394   6.957 -10.606  0.00  0.00     0.255 C 
BRANCH  17  18
ATOM     18  N   UNL d   1      10.512   7.883 -10.409  0.00  0.00     0.141 N 
ATOM     19  C   UNL d   1      11.499   7.333  -9.518  0.00  0.00     0.274 C 
ATOM     20  C   UNL d   1      10.919   7.051  -8.139  0.00  0.00     0.138 C 
ATOM     21  N   UNL d   1      10.370   8.270  -7.562  0.00  0.00    -0.329 N 
ATOM     22  C   UNL d   1       9.478   9.013  -8.463  0.00  0.00     0.138 C 
ATOM     23  C   UNL d   1      10.098   9.168  -9.868  0.00  0.00     0.274 C 
BRANCH  21  24
ATOM     24  C   UNL d   1      10.743   8.739  -6.296  0.00  0.00     0.148 C 
ATOM     25  C   UNL d   1      11.287   7.950  -5.199  0.00  0.00     0.042 C 
ATOM     26  C   UNL d   1      11.472   8.809  -4.070  0.00  0.00     0.050 C 
ATOM     27  C   UNL d   1      11.641   6.603  -5.029  0.00  0.00     0.004 C 
ATOM     28  S   UNL d   1      10.864  10.374  -4.470  0.00  0.00     0.015 SA
ATOM     29  C   UNL d   1      12.001   8.357  -2.848  0.00  0.00     0.008 C 
ATOM     30  N   UNL d   1      10.688  10.033  -6.066  0.00  0.00    -0.192 NA
ATOM     31  C   UNL d   1      12.401   7.022  -2.757  0.00  0.00     0.001 C 
ATOM     32  C   UNL d   1      12.254   6.192  -3.866  0.00  0.00     0.000 C 
ENDBRANCH  21  24
ENDBRANCH  17  18
ENDBRANCH   1  17
TORSDOF 7
