REMARK  7 active torsions:
REMARK  status: ('A' for Active; 'I' for Inactive)
REMARK    1  A    between atoms: C_8  and  O_9 
REMARK    2  A    between atoms: O_9  and  C_10 
REMARK    3  A    between atoms: C_10  and  C_11 
REMARK    4  A    between atoms: C_11  and  C_12 
REMARK    5  A    between atoms: C_12  and  C_13 
REMARK    6  A    between atoms: C_13  and  N_14 
REMARK       I    between atoms: N_17  and  C_18 
REMARK    7  A    between atoms: C_18  and  C_20 
ROOT
ATOM      1  C   UNL d   1       8.180   3.080 -14.411  0.00  0.00     0.038 C 
ENDROOT
BRANCH   1   2
ATOM      2  C   UNL d   1       8.327   4.502 -13.857  0.00  0.00     0.035 C 
BRANCH   2   3
ATOM      3  C   UNL d   1       9.361   4.578 -12.726  0.00  0.00     0.149 C 
BRANCH   3   4
ATOM      4  O   UNL d   1       9.448   5.907 -12.232  0.00  0.00    -0.331 OA
BRANCH   4   5
ATOM      5  C   UNL d   1       9.449   6.105 -10.879  0.00  0.00     0.096 A 
ATOM      6  C   UNL d   1       8.771   5.244  -9.983  0.00  0.00     0.024 A 
ATOM      7  C   UNL d   1       8.845   5.471  -8.595  0.00  0.00    -0.001 A 
ATOM      8  C   UNL d   1       9.561   6.566  -8.098  0.00  0.00    -0.004 A 
ATOM      9  C   UNL d   1       9.666   6.806  -6.608  0.00  0.00     0.038 C 
ATOM     10  C   UNL d   1      10.200   7.460  -8.984  0.00  0.00     0.082 A 
ATOM     11  C   UNL d   1       9.796   8.306  -6.291  0.00  0.00     0.095 C 
ATOM     12  C   UNL d   1      10.808   9.023  -7.203  0.00  0.00     0.256 C 
ATOM     13  O   UNL d   1      11.454   9.969  -6.777  0.00  0.00    -0.270 OA
ATOM     14  N   UNL d   1      10.910   8.581  -8.473  0.00  0.00    -0.212 NA
ATOM     15  C   UNL d   1      10.133   7.226 -10.372  0.00  0.00     0.043 A 
ENDBRANCH   4   5
ENDBRANCH   3   4
ENDBRANCH   2   3
ENDBRANCH   1   2
BRANCH   1  16
ATOM     16  C   UNL d   1       9.483   2.549 -15.018  0.00  0.00     0.251 C 
BRANCH  16  17
ATOM     17  N   UNL d   1       9.387   1.134 -15.361  0.00  0.00     0.141 N 
ATOM     18  C   UNL d   1      10.712   0.574 -15.615  0.00  0.00     0.274 C 
ATOM     19  C   UNL d   1      11.355   1.214 -16.861  0.00  0.00     0.140 C 
ATOM     20  N   UNL d   1      10.468   1.060 -18.025  0.00  0.00    -0.311 N 
ATOM     21  C   UNL d   1       9.086   1.493 -17.804  0.00  0.00     0.140 C 
ATOM     22  C   UNL d   1      10.861   0.545 -19.235  0.00  0.00     0.275 C 
ATOM     23  C   UNL d   1       8.522   0.862 -16.512  0.00  0.00     0.274 C 
ATOM     24  O   UNL d   1      10.057   0.229 -20.105  0.00  0.00    -0.266 OA
BRANCH  22  25
ATOM     25  C   UNL d   1      12.328   0.410 -19.487  0.00  0.00     0.137 A 
ATOM     26  N   UNL d   1      12.767  -0.811 -19.870  0.00  0.00    -0.239 NA
ATOM     27  C   UNL d   1      14.077  -0.975 -20.138  0.00  0.00     0.099 A 
ATOM     28  C   UNL d   1      15.018   0.067 -20.040  0.00  0.00     0.021 A 
ATOM     29  C   UNL d   1      14.566   1.341 -19.647  0.00  0.00     0.003 A 
ATOM     30  C   UNL d   1      13.197   1.517 -19.375  0.00  0.00     0.024 A 
ENDBRANCH  22  25
ENDBRANCH  16  17
ENDBRANCH   1  16
TORSDOF 7
