REMARK  5 active torsions:
REMARK  status: ('A' for Active; 'I' for Inactive)
REMARK    1  A    between atoms: O_2  and  C_3 
REMARK    2  A    between atoms: C_9  and  N_10 
REMARK    3  A    between atoms: N_10  and  C_11 
REMARK    4  A    between atoms: C_21  and  O_22 
REMARK    5  A    between atoms: O_22  and  C_23 
REMARK       I    between atoms: C_23  and  N_25 
ROOT
ATOM      1  C   UNL d   1       8.627   2.291 -16.273  0.00  0.00     0.118 A 
ATOM      2  C   UNL d   1       7.471   2.032 -15.495  0.00  0.00     0.045 A 
ATOM      3  C   UNL d   1       7.195   2.786 -14.333  0.00  0.00     0.088 A 
ATOM      4  N   UNL d   1       6.063   2.566 -13.636  0.00  0.00    -0.224 NA
ATOM      5  C   UNL d   1       5.865   3.294 -12.537  0.00  0.00     0.200 A 
ATOM      6  N   UNL d   1       6.675   4.229 -12.052  0.00  0.00    -0.205 NA
ATOM      7  C   UNL d   1       7.809   4.495 -12.733  0.00  0.00     0.166 A 
ATOM      8  C   UNL d   1       8.118   3.783 -13.921  0.00  0.00     0.056 A 
ATOM      9  C   UNL d   1       9.280   4.032 -14.680  0.00  0.00     0.031 A 
ATOM     10  C   UNL d   1       9.519   3.307 -15.866  0.00  0.00     0.127 A 
ENDROOT
BRANCH  10  11
ATOM     11  O   UNL d   1      10.649   3.554 -16.604  0.00  0.00    -0.258 OA
BRANCH  11  12
ATOM     12  C   UNL d   1      10.793   4.708 -17.295  0.00  0.00     0.370 C 
ATOM     13  O   UNL d   1       9.914   5.573 -17.370  0.00  0.00    -0.238 OA
ATOM     14  N   UNL d   1      12.060   4.761 -17.891  0.00  0.00    -0.294 N 
ATOM     15  C   UNL d   1      12.479   5.909 -18.713  0.00  0.00     0.119 C 
ATOM     16  C   UNL d   1      13.102   3.731 -17.719  0.00  0.00     0.142 C 
ATOM     17  C   UNL d   1      13.806   6.489 -18.183  0.00  0.00     0.273 C 
ATOM     18  C   UNL d   1      12.559   5.524 -20.203  0.00  0.00     0.026 C 
ATOM     19  N   UNL d   1      14.833   5.447 -18.151  0.00  0.00     0.143 N 
ATOM     20  C   UNL d   1      14.417   4.375 -17.252  0.00  0.00     0.275 C 
ATOM     21  C   UNL d   1      16.093   6.009 -17.700  0.00  0.00     0.286 C 
ENDBRANCH  11  12
ENDBRANCH  10  11
BRANCH   1  22
ATOM     22  O   UNL d   1       8.932   1.615 -17.438  0.00  0.00    -0.326 OA
ATOM     23  C   UNL d   1       8.052   0.590 -17.874  0.00  0.00     0.181 C 
ENDBRANCH   1  22
BRANCH   7  24
ATOM     24  N   UNL d   1       8.644   5.525 -12.269  0.00  0.00    -0.224 NA
BRANCH  24  25
ATOM     25  C   UNL d   1       8.918   5.936 -10.952  0.00  0.00     0.111 A 
ATOM     26  C   UNL d   1       9.533   7.198 -10.763  0.00  0.00     0.168 A 
ATOM     27  C   UNL d   1       9.872   7.644  -9.469  0.00  0.00     0.087 A 
ATOM     28  F   UNL d   1       9.781   7.986 -11.837  0.00  0.00    -0.202 F 
ATOM     29  C   UNL d   1       9.580   6.842  -8.351  0.00  0.00     0.014 A 
ATOM     30 CL   UNL d   1      10.658   9.170  -9.242  0.00  0.00    -0.080 Cl
ATOM     31  C   UNL d   1       8.973   5.586  -8.530  0.00  0.00     0.003 A 
ATOM     32  C   UNL d   1       8.655   5.129  -9.822  0.00  0.00     0.021 A 
ENDBRANCH  24  25
ENDBRANCH   7  24
TORSDOF 5
