REMARK  4 active torsions:
REMARK  status: ('A' for Active; 'I' for Inactive)
REMARK    1  A    between atoms: C_2  and  C_3 
REMARK    2  A    between atoms: C_3  and  C_4 
REMARK    3  A    between atoms: C_4  and  N_5 
REMARK    4  A    between atoms: N_8  and  C_9 
ROOT
ATOM      1  C   UNL d   1      10.913   7.715  -7.178  0.00  0.00     0.057 A 
ATOM      2  C   UNL d   1      10.864   9.120  -7.260  0.00  0.00     0.017 A 
ATOM      3  C   UNL d   1      11.133   9.925  -6.134  0.00  0.00     0.002 A 
ATOM      4  C   UNL d   1      11.443   9.325  -4.903  0.00  0.00     0.010 A 
ATOM      5  C   UNL d   1      11.486   7.919  -4.799  0.00  0.00     0.070 A 
ATOM      6  C   UNL d   1      11.860   7.303  -3.534  0.00  0.00     0.101 C 
ATOM      7  N   UNL d   1      12.162   6.820  -2.528  0.00  0.00    -0.191 NA
ATOM      8  C   UNL d   1      11.221   7.120  -5.933  0.00  0.00     0.027 A 
ENDROOT
BRANCH   1   9
ATOM      9  N   UNL d   1      10.664   6.925  -8.322  0.00  0.00    -0.344 N 
ATOM     10  C   UNL d   1      11.012   7.358  -9.669  0.00  0.00     0.137 C 
ATOM     11  C   UNL d   1       9.784   7.266 -10.592  0.00  0.00     0.274 C 
ATOM     12  N   UNL d   1       9.202   5.915 -10.570  0.00  0.00     0.141 N 
ATOM     13  C   UNL d   1       8.777   5.630  -9.193  0.00  0.00     0.274 C 
ATOM     14  C   UNL d   1       9.979   5.645  -8.240  0.00  0.00     0.137 C 
BRANCH  12  15
ATOM     15  C   UNL d   1       8.036   5.875 -11.455  0.00  0.00     0.250 C 
BRANCH  15  16
ATOM     16  C   UNL d   1       7.617   4.438 -11.784  0.00  0.00     0.035 C 
BRANCH  16  17
ATOM     17  C   UNL d   1       6.428   4.386 -12.752  0.00  0.00     0.002 C 
ATOM     18  C   UNL d   1       5.894   2.964 -12.945  0.00  0.00     0.000 C 
ENDBRANCH  16  17
ENDBRANCH  15  16
ENDBRANCH  12  15
ENDBRANCH   1   9
TORSDOF 4
