REMARK  3 active torsions:
REMARK  status: ('A' for Active; 'I' for Inactive)
REMARK    1  A    between atoms: O_2  and  C_3 
REMARK    2  A    between atoms: C_8  and  O_9 
REMARK    3  A    between atoms: C_13  and  N_14 
ROOT
ATOM      1  C   UNL d   1      10.135   1.464 -16.192  0.00  0.00     0.116 A 
ATOM      2  C   UNL d   1      10.149   2.603 -15.360  0.00  0.00     0.022 A 
ATOM      3  C   UNL d   1       8.999   2.971 -14.651  0.00  0.00    -0.020 A 
ATOM      4  C   UNL d   1       7.823   2.189 -14.800  0.00  0.00     0.007 A 
ATOM      5  C   UNL d   1       7.728   1.055 -15.657  0.00  0.00     0.022 A 
ATOM      6  C   UNL d   1       8.940   0.716 -16.334  0.00  0.00     0.116 A 
ATOM      7  C   UNL d   1       6.456   0.282 -15.780  0.00  0.00    -0.001 A 
ATOM      8  C   UNL d   1       6.115  -0.518 -16.901  0.00  0.00     0.023 A 
ATOM      9  C   UNL d   1       4.906  -1.253 -16.975  0.00  0.00     0.127 A 
ATOM     10  C   UNL d   1       3.998  -1.190 -15.901  0.00  0.00     0.023 A 
ATOM     11  C   UNL d   1       4.287  -0.375 -14.790  0.00  0.00    -0.003 A 
ATOM     12  C   UNL d   1       5.495   0.365 -14.745  0.00  0.00    -0.020 A 
ATOM     13  C   UNL d   1       5.750   1.318 -13.593  0.00  0.00     0.064 C 
ATOM     14  C   UNL d   1       6.535   2.587 -14.042  0.00  0.00     0.246 C 
ATOM     15  N   UNL d   1       6.734   3.516 -12.913  0.00  0.00     0.142 N 
ATOM     16  C   UNL d   1       5.483   4.031 -12.370  0.00  0.00     0.286 C 
ATOM     17  C   UNL d   1       7.535   4.639 -13.355  0.00  0.00     0.255 C 
ATOM     18  C   UNL d   1       8.938   4.128 -13.663  0.00  0.00     0.061 C 
ENDROOT
BRANCH   9  19
ATOM     19  N   UNL d   1       4.612  -2.048 -18.176  0.00  0.00    -0.114 N 
ATOM     20  O   UNL d   1       3.442  -2.302 -18.438  0.00  0.00    -0.532 OA
ATOM     21  O   UNL d   1       5.558  -2.396 -18.876  0.00  0.00    -0.532 OA
ENDBRANCH   9  19
BRANCH   6  22
ATOM     22  O   UNL d   1       8.995  -0.408 -17.122  0.00  0.00    -0.326 OA
ATOM     23  C   UNL d   1       9.022  -0.145 -18.516  0.00  0.00     0.181 C 
ENDBRANCH   6  22
BRANCH   1  24
ATOM     24  O   UNL d   1      11.251   1.011 -16.865  0.00  0.00    -0.326 OA
ATOM     25  C   UNL d   1      12.336   1.908 -17.051  0.00  0.00     0.181 C 
ENDBRANCH   1  24
TORSDOF 3
