REMARK  8 active torsions:
REMARK  status: ('A' for Active; 'I' for Inactive)
REMARK    1  A    between atoms: S_2  and  N_4 
REMARK    2  A    between atoms: S_2  and  C_25 
REMARK    3  A    between atoms: N_4  and  C_5 
REMARK    4  A    between atoms: C_5  and  C_6 
REMARK    5  A    between atoms: C_6  and  C_7 
REMARK    6  A    between atoms: C_7  and  C_8 
REMARK    7  A    between atoms: C_8  and  N_9 
REMARK    8  A    between atoms: C_12  and  C_13 
ROOT
ATOM      1  C   UNL d   1       8.790   5.246 -12.598  0.00  0.00     0.037 C 
ENDROOT
BRANCH   1   2
ATOM      2  C   UNL d   1       8.682   3.933 -13.353  0.00  0.00     0.029 C 
BRANCH   2   3
ATOM      3  C   UNL d   1      10.029   3.176 -13.173  0.00  0.00     0.139 C 
BRANCH   3   4
ATOM      4  N   UNL d   1      10.138   2.069 -14.122  0.00  0.00    -0.185 NA
BRANCH   4   5
ATOM      5  S   UNL d   1      10.056   2.257 -15.842  0.00  0.00     0.281 S 
ATOM      6  O   UNL d   1      10.584   1.006 -16.409  0.00  0.00    -0.199 OA
ATOM      7  O   UNL d   1       8.680   2.678 -16.164  0.00  0.00    -0.199 OA
BRANCH   5   8
ATOM      8  C   UNL d   1      11.169   3.647 -16.176  0.00  0.00     0.105 A 
ATOM      9  C   UNL d   1      12.276   3.405 -17.044  0.00  0.00     0.013 A 
ATOM     10  C   UNL d   1      13.191   4.453 -17.278  0.00  0.00     0.001 A 
ATOM     11  C   UNL d   1      13.023   5.715 -16.648  0.00  0.00     0.000 A 
ATOM     12  C   UNL d   1      14.283   4.266 -18.168  0.00  0.00     0.000 A 
ATOM     13  C   UNL d   1      11.921   5.925 -15.785  0.00  0.00     0.001 A 
ATOM     14  C   UNL d   1      13.917   6.776 -16.868  0.00  0.00     0.000 A 
ATOM     15  C   UNL d   1      10.986   4.914 -15.566  0.00  0.00     0.013 A 
ATOM     16  C   UNL d   1      14.997   6.586 -17.764  0.00  0.00     0.000 A 
ATOM     17  C   UNL d   1      15.156   5.338 -18.401  0.00  0.00     0.000 A 
ENDBRANCH   5   8
ENDBRANCH   4   5
ENDBRANCH   3   4
ENDBRANCH   2   3
ENDBRANCH   1   2
BRANCH   1  18
ATOM     18  C   UNL d   1       8.407   5.066 -11.127  0.00  0.00     0.251 C 
BRANCH  18  19
ATOM     19  N   UNL d   1       9.336   5.735 -10.224  0.00  0.00     0.142 N 
ATOM     20  C   UNL d   1       8.748   5.641  -8.886  0.00  0.00     0.255 C 
ATOM     21  C   UNL d   1       9.711   6.200  -7.849  0.00  0.00     0.061 C 
ATOM     22  C   UNL d   1      10.259   7.542  -8.241  0.00  0.00    -0.021 C 
ATOM     23  C   UNL d   1      10.124   7.972  -9.516  0.00  0.00     0.005 C 
ATOM     24  C   UNL d   1       9.507   7.143 -10.614  0.00  0.00     0.276 C 
BRANCH  22  25
ATOM     25  C   UNL d   1      10.921   8.369  -7.225  0.00  0.00     0.017 A 
ATOM     26  C   UNL d   1      11.257   8.062  -5.860  0.00  0.00     0.021 A 
ATOM     27  C   UNL d   1      11.938   9.215  -5.343  0.00  0.00     0.082 A 
ATOM     28  C   UNL d   1      11.086   6.972  -4.981  0.00  0.00     0.031 A 
ATOM     29  N   UNL d   1      11.995  10.126  -6.377  0.00  0.00    -0.244 NA
ATOM     30  C   UNL d   1      12.437   9.267  -4.029  0.00  0.00     0.021 A 
ATOM     31  C   UNL d   1      11.388   9.595  -7.503  0.00  0.00     0.099 A 
ATOM     32  C   UNL d   1      12.226   8.179  -3.182  0.00  0.00     0.031 A 
ATOM     33  C   UNL d   1      11.562   7.050  -3.661  0.00  0.00     0.140 A 
ATOM     34  F   UNL d   1      11.361   6.050  -2.793  0.00  0.00    -0.204 F 
ENDBRANCH  22  25
ENDBRANCH  18  19
ENDBRANCH   1  18
TORSDOF 8
