REMARK  7 active torsions:
REMARK  status: ('A' for Active; 'I' for Inactive)
REMARK       I    between atoms: C_2  and  N_3 
REMARK    1  A    between atoms: C_2  and  C_22 
REMARK    2  A    between atoms: N_3  and  C_4 
REMARK    3  A    between atoms: C_4  and  C_5 
REMARK    4  A    between atoms: C_5  and  C_6 
REMARK    5  A    between atoms: C_6  and  C_7 
REMARK    6  A    between atoms: C_7  and  N_8 
REMARK    7  A    between atoms: N_11  and  C_12 
ROOT
ATOM      1  C   UNL d   1       9.385   2.430 -14.718  0.00  0.00     0.037 C 
ENDROOT
BRANCH   1   2
ATOM      2  C   UNL d   1      10.356   1.913 -15.785  0.00  0.00     0.029 C 
BRANCH   2   3
ATOM      3  C   UNL d   1      10.218   0.386 -15.921  0.00  0.00     0.129 C 
BRANCH   3   4
ATOM      4  N   UNL d   1       8.933  -0.043 -16.462  0.00  0.00    -0.233 NA
ATOM      5  C   UNL d   1       8.387   0.361 -17.619  0.00  0.00     0.294 C 
ATOM      6  O   UNL d   1       8.861   1.254 -18.321  0.00  0.00    -0.264 OA
BRANCH   5   7
ATOM      7  C   UNL d   1       7.204  -0.424 -18.040  0.00  0.00     0.158 A 
ATOM      8  N   UNL d   1       6.908  -0.651 -19.377  0.00  0.00    -0.222 NA
ATOM      9  C   UNL d   1       5.797  -1.369 -19.392  0.00  0.00     0.148 A 
ATOM     10  N   UNL d   1       5.343  -1.593 -18.065  0.00  0.00    -0.288 N 
ATOM     11  C   UNL d   1       5.043  -1.913 -20.456  0.00  0.00     0.037 A 
ATOM     12  C   UNL d   1       6.247  -0.979 -17.225  0.00  0.00     0.106 A 
ATOM     13  C   UNL d   1       4.215  -2.294 -17.799  0.00  0.00     0.082 A 
ATOM     14  C   UNL d   1       3.494  -2.827 -18.838  0.00  0.00     0.019 A 
ATOM     15  C   UNL d   1       3.917  -2.639 -20.179  0.00  0.00     0.005 A 
ENDBRANCH   5   7
ENDBRANCH   3   4
ENDBRANCH   2   3
ENDBRANCH   1   2
BRANCH   1  16
ATOM     16  C   UNL d   1       9.442   3.961 -14.645  0.00  0.00     0.251 C 
BRANCH  16  17
ATOM     17  N   UNL d   1       8.895   4.461 -13.385  0.00  0.00     0.141 N 
ATOM     18  C   UNL d   1       9.780   4.085 -12.283  0.00  0.00     0.274 C 
ATOM     19  C   UNL d   1       9.231   4.628 -10.967  0.00  0.00     0.137 C 
ATOM     20  N   UNL d   1       9.086   6.064 -11.030  0.00  0.00    -0.344 N 
ATOM     21  C   UNL d   1       8.299   6.543 -12.150  0.00  0.00     0.137 C 
ATOM     22  C   UNL d   1       8.862   5.927 -13.447  0.00  0.00     0.274 C 
BRANCH  20  23
ATOM     23  C   UNL d   1       9.605   6.931 -10.043  0.00  0.00     0.068 A 
ATOM     24  C   UNL d   1       9.489   6.665  -8.661  0.00  0.00     0.084 A 
ATOM     25  C   UNL d   1      10.041   7.551  -7.718  0.00  0.00     0.070 A 
ATOM     26 CL   UNL d   1       8.625   5.293  -8.078  0.00  0.00    -0.080 Cl
ATOM     27  C   UNL d   1      10.693   8.723  -8.139  0.00  0.00     0.012 A 
ATOM     28 CL   UNL d   1       9.941   7.224  -6.032  0.00  0.00    -0.081 Cl
ATOM     29  C   UNL d   1      10.800   9.000  -9.510  0.00  0.00     0.002 A 
ATOM     30  C   UNL d   1      10.257   8.116 -10.454  0.00  0.00     0.018 A 
ENDBRANCH  20  23
ENDBRANCH  16  17
ENDBRANCH   1  16
TORSDOF 7
