REMARK  6 active torsions:
REMARK  status: ('A' for Active; 'I' for Inactive)
REMARK    1  A    between atoms: C_2  and  C_3 
REMARK    2  A    between atoms: C_3  and  C_4 
REMARK    3  A    between atoms: C_4  and  N_5 
REMARK    4  A    between atoms: N_8  and  C_9 
REMARK    5  A    between atoms: C_11  and  C_12 
REMARK    6  A    between atoms: C_17  and  O_18 
ROOT
ATOM      1  C   UNL d   1       7.819   3.065 -14.046  0.00  0.00     0.079 A 
ATOM      2  C   UNL d   1       6.615   2.317 -14.038  0.00  0.00     0.015 A 
ATOM      3  C   UNL d   1       6.471   1.151 -14.827  0.00  0.00    -0.020 A 
ATOM      4  C   UNL d   1       7.537   0.731 -15.649  0.00  0.00     0.009 A 
ATOM      5  C   UNL d   1       8.744   1.455 -15.658  0.00  0.00     0.081 A 
ATOM      6 CL   UNL d   1      10.048   0.891 -16.641  0.00  0.00    -0.080 Cl
ATOM      7  C   UNL d   1       8.893   2.603 -14.857  0.00  0.00     0.120 A 
ENDROOT
BRANCH   1   8
ATOM      8  N   UNL d   1       7.906   4.252 -13.277  0.00  0.00    -0.343 N 
ATOM      9  C   UNL d   1       8.634   5.442 -13.698  0.00  0.00     0.137 C 
ATOM     10  C   UNL d   1       9.649   5.876 -12.616  0.00  0.00     0.274 C 
ATOM     11  N   UNL d   1       8.977   6.060 -11.329  0.00  0.00     0.141 N 
ATOM     12  C   UNL d   1       8.343   4.792 -10.934  0.00  0.00     0.274 C 
ATOM     13  C   UNL d   1       7.280   4.370 -11.964  0.00  0.00     0.137 C 
BRANCH  11  14
ATOM     14  C   UNL d   1       9.964   6.460 -10.323  0.00  0.00     0.250 C 
BRANCH  14  15
ATOM     15  C   UNL d   1       9.322   7.000  -9.040  0.00  0.00     0.035 C 
BRANCH  15  16
ATOM     16  C   UNL d   1      10.229   6.840  -7.818  0.00  0.00     0.002 C 
ATOM     17  C   UNL d   1       9.534   7.312  -6.537  0.00  0.00     0.000 C 
ENDBRANCH  15  16
ENDBRANCH  14  15
ENDBRANCH  11  14
ENDBRANCH   1   8
BRANCH   7  18
ATOM     18  O   UNL d   1      10.108   3.238 -14.880  0.00  0.00    -0.326 OA
ATOM     19  C   UNL d   1      10.902   2.938 -13.752  0.00  0.00     0.181 C 
ENDBRANCH   7  18
BRANCH   3  20
ATOM     20  C   UNL d   1       5.175   0.357 -14.818  0.00  0.00     0.026 C 
ATOM     21  C   UNL d   1       5.384  -1.133 -14.530  0.00  0.00     0.005 C 
ENDBRANCH   3  20
TORSDOF 6
