REMARK  12 active torsions:
REMARK  status: ('A' for Active; 'I' for Inactive)
REMARK    1  A    between atoms: C_2  and  C_3 
REMARK    2  A    between atoms: C_3  and  N_4 
REMARK    3  A    between atoms: N_4  and  C_5 
REMARK    4  A    between atoms: N_4  and  C_21 
REMARK    5  A    between atoms: C_5  and  C_6 
REMARK    6  A    between atoms: C_6  and  C_7 
REMARK    7  A    between atoms: C_7  and  S_8 
REMARK    8  A    between atoms: S_8  and  C_9 
REMARK    9  A    between atoms: C_12  and  C_13 
REMARK   10  A    between atoms: C_21  and  C_22 
REMARK   11  A    between atoms: C_24  and  C_25 
REMARK   12  A    between atoms: C_31  and  O_32 
ROOT
ATOM      1  N   UNL d   1      10.761   4.288 -16.041  0.00  0.00     0.137 N 
ENDROOT
BRANCH   1   2
ATOM      2  C   UNL d   1      11.161   5.201 -17.115  0.00  0.00     0.250 C 
BRANCH   2   3
ATOM      3  C   UNL d   1      12.652   5.044 -17.468  0.00  0.00     0.035 C 
ATOM      4  C   UNL d   1      13.128   6.032 -18.532  0.00  0.00     0.002 C 
ENDBRANCH   2   3
ENDBRANCH   1   2
BRANCH   1   5
ATOM      5  C   UNL d   1       9.440   4.682 -15.585  0.00  0.00     0.251 C 
BRANCH   5   6
ATOM      6  C   UNL d   1       9.350   4.633 -14.043  0.00  0.00     0.047 C 
BRANCH   6   7
ATOM      7  C   UNL d   1       7.934   4.972 -13.513  0.00  0.00     0.067 C 
BRANCH   7   8
ATOM      8  S   UNL d   1       7.762   4.739 -11.725  0.00  0.00    -0.075 SA
BRANCH   8   9
ATOM      9  C   UNL d   1       8.747   6.079 -11.152  0.00  0.00     0.193 A 
ATOM     10  N   UNL d   1       9.169   6.152  -9.877  0.00  0.00    -0.289 N 
ATOM     11  C   UNL d   1       9.825   7.331  -9.873  0.00  0.00     0.167 A 
ATOM     12  C   UNL d   1       8.936   5.228  -8.781  0.00  0.00     0.134 C 
ATOM     13  N   UNL d   1       9.844   7.939 -11.059  0.00  0.00    -0.128 NA
ATOM     14  N   UNL d   1       9.132   7.118 -11.902  0.00  0.00    -0.122 NA
BRANCH  11  15
ATOM     15  C   UNL d   1      10.437   7.929  -8.714  0.00  0.00     0.036 A 
ATOM     16  C   UNL d   1       9.655   8.295  -7.599  0.00  0.00     0.003 A 
ATOM     17  C   UNL d   1      10.264   8.904  -6.484  0.00  0.00     0.000 A 
ATOM     18  C   UNL d   1      11.651   9.146  -6.483  0.00  0.00     0.000 A 
ATOM     19  C   UNL d   1      12.421   8.779  -7.612  0.00  0.00     0.000 A 
ATOM     20  C   UNL d   1      11.822   8.188  -8.720  0.00  0.00     0.003 A 
ENDBRANCH  11  15
ENDBRANCH   8   9
ENDBRANCH   7   8
ENDBRANCH   6   7
ENDBRANCH   5   6
ENDBRANCH   1   5
BRANCH   1  21
ATOM     21  C   UNL d   1      10.718   2.911 -16.536  0.00  0.00     0.251 C 
BRANCH  21  22
ATOM     22  C   UNL d   1      10.071   1.874 -15.588  0.00  0.00     0.038 A 
ATOM     23  C   UNL d   1       9.752   0.495 -16.140  0.00  0.00     0.026 A 
ATOM     24  C   UNL d   1      10.844   0.663 -15.123  0.00  0.00     0.007 A 
BRANCH  23  25
ATOM     25  C   UNL d   1       9.982   0.192 -17.598  0.00  0.00     0.001 A 
ATOM     26  C   UNL d   1       8.928   0.296 -18.538  0.00  0.00     0.090 A 
ATOM     27  C   UNL d   1       9.208   0.030 -19.909  0.00  0.00     0.025 A 
ATOM     28  C   UNL d   1      10.508  -0.313 -20.322  0.00  0.00     0.013 A 
ATOM     29  C   UNL d   1      11.549  -0.404 -19.375  0.00  0.00     0.058 A 
ATOM     30  C   UNL d   1      11.284  -0.158 -18.028  0.00  0.00     0.009 A 
ATOM     31 CL   UNL d   1      13.162  -0.811 -19.828  0.00  0.00    -0.082 Cl
BRANCH  26  32
ATOM     32  O   UNL d   1       7.680   0.691 -18.086  0.00  0.00    -0.328 OA
ATOM     33  C   UNL d   1       6.614   0.789 -19.029  0.00  0.00     0.181 C 
ENDBRANCH  26  32
ENDBRANCH  23  25
ENDBRANCH  21  22
ENDBRANCH   1  21
TORSDOF 12
