REMARK  4 active torsions:
REMARK  status: ('A' for Active; 'I' for Inactive)
REMARK    1  A    between atoms: C_6  and  C_7 
REMARK    2  A    between atoms: C_7  and  C_8 
REMARK    3  A    between atoms: C_8  and  N_9 
REMARK    4  A    between atoms: N_12  and  C_13 
ROOT
ATOM      1  N   UNL d   1       9.394   6.506 -11.035  0.00  0.00     0.141 N 
ATOM      2  C   UNL d   1       8.065   6.759 -11.605  0.00  0.00     0.274 C 
ATOM      3  C   UNL d   1       7.773   6.022 -12.908  0.00  0.00     0.137 C 
ATOM      4  N   UNL d   1       8.136   4.632 -12.810  0.00  0.00    -0.344 N 
ATOM      5  C   UNL d   1       9.379   4.342 -12.121  0.00  0.00     0.137 C 
ATOM      6  C   UNL d   1       9.389   5.069 -10.776  0.00  0.00     0.274 C 
ENDROOT
BRANCH   1   7
ATOM      7  C   UNL d   1       9.514   7.275  -9.797  0.00  0.00     0.255 C 
BRANCH   7   8
ATOM      8  C   UNL d   1      10.892   7.111  -9.104  0.00  0.00     0.062 C 
BRANCH   8   9
ATOM      9  C   UNL d   1      11.047   7.812  -7.779  0.00  0.00    -0.020 A 
ATOM     10  C   UNL d   1      11.276   7.064  -6.596  0.00  0.00    -0.006 A 
ATOM     11  C   UNL d   1      11.433   7.768  -5.397  0.00  0.00     0.005 A 
ATOM     12  C   UNL d   1      11.736   7.219  -4.036  0.00  0.00     0.118 A 
ATOM     13  C   UNL d   1      11.367   9.147  -5.368  0.00  0.00     0.081 A 
ATOM     14  C   UNL d   1      11.878   8.544  -3.271  0.00  0.00     0.260 A 
ATOM     15  O   UNL d   1      12.216   8.608  -2.093  0.00  0.00    -0.270 OA
ATOM     16  N   UNL d   1      11.618   9.590  -4.069  0.00  0.00    -0.212 NA
ATOM     17  C   UNL d   1      11.125   9.911  -6.524  0.00  0.00     0.019 A 
ATOM     18  C   UNL d   1      10.978   9.203  -7.740  0.00  0.00    -0.003 A 
ENDBRANCH   8   9
ENDBRANCH   7   8
ENDBRANCH   1   7
BRANCH   4  19
ATOM     19  C   UNL d   1       7.253   3.618 -13.179  0.00  0.00     0.056 A 
ATOM     20  C   UNL d   1       7.642   2.622 -14.099  0.00  0.00     0.015 A 
ATOM     21  C   UNL d   1       6.759   1.536 -14.394  0.00  0.00     0.001 A 
ATOM     22  C   UNL d   1       8.893   2.656 -14.762  0.00  0.00     0.001 A 
ATOM     23  C   UNL d   1       5.539   1.449 -13.713  0.00  0.00     0.000 A 
ATOM     24  C   UNL d   1       7.112   0.580 -15.352  0.00  0.00     0.000 A 
ATOM     25  C   UNL d   1       5.140   2.462 -12.837  0.00  0.00     0.002 A 
ATOM     26  C   UNL d   1       5.988   3.552 -12.543  0.00  0.00     0.017 A 
ATOM     27  C   UNL d   1       8.361   0.624 -15.993  0.00  0.00     0.000 A 
ATOM     28  C   UNL d   1       9.262   1.656 -15.670  0.00  0.00     0.000 A 
ENDBRANCH   4  19
TORSDOF 4
