REMARK  4 active torsions:
REMARK  status: ('A' for Active; 'I' for Inactive)
REMARK    1  A    between atoms: C_3  and  C_4 
REMARK    2  A    between atoms: C_4  and  N_5 
REMARK    3  A    between atoms: C_8  and  C_9 
REMARK    4  A    between atoms: C_12  and  C_13 
ROOT
ATOM      1  N   UNL d   1       8.170   5.960 -11.467  0.00  0.00     0.145 N 
ATOM      2  C   UNL d   1       9.237   6.942 -11.726  0.00  0.00     0.251 C 
ATOM      3  C   UNL d   1       9.777   7.625 -10.487  0.00  0.00     0.040 C 
ATOM      4  C   UNL d   1      10.210   6.572  -9.457  0.00  0.00     0.026 C 
ATOM      5  C   UNL d   1       9.085   5.542  -9.242  0.00  0.00     0.040 C 
ATOM      6  C   UNL d   1       8.600   4.915 -10.547  0.00  0.00     0.251 C 
ENDROOT
BRANCH   1   7
ATOM      7  C   UNL d   1       7.614   5.368 -12.682  0.00  0.00     0.313 C 
BRANCH   7   8
ATOM      8  C   UNL d   1       8.617   4.698 -13.591  0.00  0.00     0.154 A 
ATOM      9  N   UNL d   1       8.331   3.566 -14.279  0.00  0.00    -0.312 N 
ATOM     10  C   UNL d   1       7.058   2.860 -14.324  0.00  0.00     0.132 C 
ATOM     11  C   UNL d   1       9.505   3.232 -14.952  0.00  0.00     0.079 A 
ATOM     12  C   UNL d   1      10.427   4.253 -14.588  0.00  0.00     0.099 A 
ATOM     13  C   UNL d   1       9.878   2.188 -15.833  0.00  0.00     0.019 A 
ATOM     14  N   UNL d   1       9.836   5.167 -13.795  0.00  0.00    -0.229 NA
ATOM     15  C   UNL d   1      11.742   4.194 -15.077  0.00  0.00     0.021 A 
ATOM     16  C   UNL d   1      12.136   3.173 -15.958  0.00  0.00     0.002 A 
ATOM     17  C   UNL d   1      11.200   2.171 -16.343  0.00  0.00     0.002 A 
ENDBRANCH   7   8
ENDBRANCH   1   7
BRANCH   4  18
ATOM     18  C   UNL d   1      10.659   7.247  -8.169  0.00  0.00    -0.022 A 
ATOM     19  C   UNL d   1      11.527   8.363  -8.215  0.00  0.00    -0.004 A 
ATOM     20  C   UNL d   1      11.864   9.034  -7.027  0.00  0.00     0.004 A 
ATOM     21  C   UNL d   1      11.381   8.576  -5.787  0.00  0.00     0.071 A 
ATOM     22  C   UNL d   1      10.537   7.457  -5.750  0.00  0.00     0.004 A 
ATOM     23  C   UNL d   1      10.176   6.802  -6.922  0.00  0.00    -0.004 A 
BRANCH  21  24
ATOM     24  C   UNL d   1      11.773   9.272  -4.505  0.00  0.00     0.419 C 
ATOM     25  F   UNL d   1      11.573   8.493  -3.442  0.00  0.00    -0.166 F 
ATOM     26  F   UNL d   1      13.062   9.582  -4.551  0.00  0.00    -0.166 F 
ATOM     27  F   UNL d   1      11.044  10.380  -4.386  0.00  0.00    -0.166 F 
ENDBRANCH  21  24
ENDBRANCH   4  18
TORSDOF 4
