REMARK  6 active torsions:
REMARK  status: ('A' for Active; 'I' for Inactive)
REMARK    1  A    between atoms: O_2  and  C_3 
REMARK    2  A    between atoms: C_4  and  C_5 
REMARK       I    between atoms: C_5  and  N_7 
REMARK    3  A    between atoms: N_7  and  C_8 
REMARK    4  A    between atoms: C_8  and  C_9 
REMARK    5  A    between atoms: C_9  and  N_10 
REMARK    6  A    between atoms: N_13  and  C_14 
ROOT
ATOM      1  C   UNL d   1       9.242   4.993 -12.823  0.00  0.00     0.277 C 
ATOM      2  O   UNL d   1       9.858   5.984 -13.206  0.00  0.00    -0.266 OA
ATOM      3  N   UNL d   1       8.651   4.919 -11.620  0.00  0.00    -0.232 NA
ENDROOT
BRANCH   3   4
ATOM      4  C   UNL d   1       8.617   6.025 -10.673  0.00  0.00     0.164 C 
BRANCH   4   5
ATOM      5  C   UNL d   1       9.978   6.218  -9.978  0.00  0.00     0.277 C 
BRANCH   5   6
ATOM      6  N   UNL d   1       9.976   7.323  -9.019  0.00  0.00     0.143 N 
ATOM      7  C   UNL d   1       9.250   6.929  -7.803  0.00  0.00     0.274 C 
ATOM      8  C   UNL d   1       9.208   8.097  -6.804  0.00  0.00     0.137 C 
ATOM      9  N   UNL d   1      10.554   8.574  -6.528  0.00  0.00    -0.344 N 
ATOM     10  C   UNL d   1      11.392   8.859  -7.679  0.00  0.00     0.137 C 
ATOM     11  C   UNL d   1      11.360   7.673  -8.669  0.00  0.00     0.274 C 
BRANCH   9  12
ATOM     12  C   UNL d   1      11.066   8.633  -5.228  0.00  0.00     0.052 A 
ATOM     13  C   UNL d   1      11.570   7.501  -4.539  0.00  0.00    -0.010 A 
ATOM     14  C   UNL d   1      12.043   7.605  -3.208  0.00  0.00    -0.024 A 
ATOM     15  C   UNL d   1      11.592   6.160  -5.205  0.00  0.00     0.032 C 
ATOM     16  C   UNL d   1      12.055   8.856  -2.581  0.00  0.00    -0.004 A 
ATOM     17  C   UNL d   1      12.550   6.416  -2.415  0.00  0.00     0.031 C 
ATOM     18  C   UNL d   1      11.576   9.970  -3.268  0.00  0.00     0.001 A 
ATOM     19  C   UNL d   1      11.065   9.873  -4.573  0.00  0.00     0.017 A 
ENDBRANCH   9  12
ENDBRANCH   5   6
ENDBRANCH   4   5
ENDBRANCH   3   4
BRANCH   1  20
ATOM     20  C   UNL d   1       9.141   3.767 -13.685  0.00  0.00     0.080 A 
ATOM     21  C   UNL d   1      10.243   3.314 -14.460  0.00  0.00     0.099 A 
ATOM     22  C   UNL d   1      10.109   2.146 -15.255  0.00  0.00     0.023 A 
ATOM     23  C   UNL d   1       8.885   1.431 -15.275  0.00  0.00     0.008 A 
ATOM     24  C   UNL d   1      11.194   1.679 -16.034  0.00  0.00     0.002 A 
ATOM     25  C   UNL d   1       7.794   1.891 -14.502  0.00  0.00     0.035 A 
ATOM     26  C   UNL d   1       8.771   0.266 -16.070  0.00  0.00     0.001 A 
ATOM     27  C   UNL d   1       7.919   3.071 -13.746  0.00  0.00     0.013 A 
ATOM     28 BR   UNL d   1       6.164   0.911 -14.397  0.00  0.00    -0.049 Br
ATOM     29  C   UNL d   1       9.850  -0.172 -16.858  0.00  0.00     0.000 A 
ATOM     30  C   UNL d   1      11.059   0.540 -16.845  0.00  0.00     0.000 A 
BRANCH  21  31
ATOM     31  O   UNL d   1      11.436   3.992 -14.434  0.00  0.00    -0.328 OA
ATOM     32  C   UNL d   1      11.610   4.878 -15.532  0.00  0.00     0.181 C 
ENDBRANCH  21  31
ENDBRANCH   1  20
TORSDOF 6
