REMARK  4 active torsions:
REMARK  status: ('A' for Active; 'I' for Inactive)
REMARK    1  A    between atoms: S_2  and  C_4 
REMARK    2  A    between atoms: S_2  and  C_11 
REMARK    3  A    between atoms: C_17  and  N_18 
REMARK    4  A    between atoms: N_18  and  C_19 
ROOT
ATOM      1  C   UNL d   1       9.840   2.360 -16.675  0.00  0.00     0.192 A 
ATOM      2  N   UNL d   1      10.669   3.348 -16.914  0.00  0.00    -0.136 NA
ATOM      3  N   UNL d   1      10.455   3.668 -18.217  0.00  0.00    -0.147 NA
ATOM      4  C   UNL d   1       9.466   2.911 -18.828  0.00  0.00     0.105 A 
ATOM      5  C   UNL d   1       8.908   2.899 -20.120  0.00  0.00     0.022 A 
ATOM      6  C   UNL d   1       7.873   1.990 -20.410  0.00  0.00     0.020 A 
ATOM      7  C   UNL d   1       7.389   1.115 -19.413  0.00  0.00     0.076 A 
ATOM      8  C   UNL d   1       7.974   1.137 -18.124  0.00  0.00     0.022 A 
ATOM      9  C   UNL d   1       9.022   2.030 -17.806  0.00  0.00     0.051 A 
ENDROOT
BRANCH   1  10
ATOM     10  S   UNL d   1       9.662   1.632 -15.071  0.00  0.00     0.228 S 
ATOM     11  O   UNL d   1      10.993   1.642 -14.445  0.00  0.00    -0.216 OA
ATOM     12  O   UNL d   1       8.927   0.366 -15.227  0.00  0.00    -0.216 OA
BRANCH  10  13
ATOM     13  C   UNL d   1       8.603   2.787 -14.211  0.00  0.00     0.090 A 
ATOM     14  C   UNL d   1       9.183   3.811 -13.440  0.00  0.00     0.023 A 
ATOM     15  C   UNL d   1       8.354   4.712 -12.745  0.00  0.00     0.058 A 
ATOM     16  C   UNL d   1       6.952   4.599 -12.838  0.00  0.00     0.011 A 
ATOM     17 CL   UNL d   1       9.060   5.954 -11.780  0.00  0.00    -0.082 Cl
ATOM     18  C   UNL d   1       6.375   3.588 -13.632  0.00  0.00     0.002 A 
ATOM     19  C   UNL d   1       7.201   2.679 -14.327  0.00  0.00     0.011 A 
ENDBRANCH  10  13
ENDBRANCH   1  10
BRANCH   7  20
ATOM     20  N   UNL d   1       6.319   0.275 -19.744  0.00  0.00    -0.273 NA
BRANCH  20  21
ATOM     21  C   UNL d   1       5.612  -0.521 -18.747  0.00  0.00     0.108 C 
ATOM     22  C   UNL d   1       4.200  -0.853 -19.239  0.00  0.00     0.062 C 
ATOM     23  C   UNL d   1       3.472  -1.766 -18.241  0.00  0.00     0.292 C 
ATOM     24  N   UNL d   1       4.218  -3.002 -18.039  0.00  0.00     0.339 N 
ATOM     25  C   UNL d   1       5.517  -2.700 -17.456  0.00  0.00     0.292 C 
ATOM     26  C   UNL d   1       6.347  -1.837 -18.423  0.00  0.00     0.062 C 
ENDBRANCH  20  21
ENDBRANCH   7  20
TORSDOF 4
