REMARK  9 active torsions:
REMARK  status: ('A' for Active; 'I' for Inactive)
REMARK    1  A    between atoms: C_2  and  C_4 
REMARK    2  A    between atoms: C_9  and  O_10 
REMARK    3  A    between atoms: O_10  and  C_11 
REMARK    4  A    between atoms: C_11  and  C_12 
REMARK    5  A    between atoms: C_12  and  C_13 
REMARK    6  A    between atoms: C_13  and  N_14 
REMARK    7  A    between atoms: N_17  and  C_18 
REMARK    8  A    between atoms: N_26  and  S_27 
REMARK    9  A    between atoms: S_27  and  C_30 
ROOT
ATOM      1  N   UNL d   1       8.886   3.615 -13.653  0.00  0.00     0.141 N 
ATOM      2  C   UNL d   1       7.847   2.886 -14.396  0.00  0.00     0.274 C 
ATOM      3  C   UNL d   1       8.472   2.103 -15.569  0.00  0.00     0.137 C 
ATOM      4  N   UNL d   1       9.261   2.995 -16.418  0.00  0.00    -0.344 N 
ATOM      5  C   UNL d   1      10.254   3.778 -15.690  0.00  0.00     0.137 C 
ATOM      6  C   UNL d   1       9.557   4.550 -14.567  0.00  0.00     0.274 C 
ENDROOT
BRANCH   4   7
ATOM      7  C   UNL d   1       9.073   3.093 -17.799  0.00  0.00     0.058 A 
ATOM      8  C   UNL d   1       9.274   4.313 -18.523  0.00  0.00     0.034 A 
ATOM      9  C   UNL d   1       9.068   4.296 -19.942  0.00  0.00     0.076 A 
ATOM     10  C   UNL d   1       9.621   5.665 -18.158  0.00  0.00     0.023 A 
ATOM     11  C   UNL d   1       8.661   3.125 -20.608  0.00  0.00     0.018 A 
ATOM     12  N   UNL d   1       9.335   5.590 -20.389  0.00  0.00    -0.231 N 
ATOM     13  C   UNL d   1       8.474   1.939 -19.891  0.00  0.00     0.003 A 
ATOM     14  C   UNL d   1       8.684   1.925 -18.503  0.00  0.00     0.017 A 
ATOM     15  C   UNL d   1       9.736   6.373 -19.317  0.00  0.00     0.092 A 
BRANCH  12  16
ATOM     16  S   UNL d   1       9.202   6.216 -21.994  0.00  0.00     0.271 S 
ATOM     17  O   UNL d   1      10.369   7.097 -22.155  0.00  0.00    -0.200 OA
ATOM     18  O   UNL d   1       8.992   5.073 -22.897  0.00  0.00    -0.200 OA
BRANCH  16  19
ATOM     19  C   UNL d   1       7.713   7.213 -21.968  0.00  0.00     0.104 A 
ATOM     20  C   UNL d   1       6.840   7.195 -23.077  0.00  0.00     0.013 A 
ATOM     21  C   UNL d   1       5.676   7.997 -23.055  0.00  0.00     0.001 A 
ATOM     22  C   UNL d   1       5.385   8.802 -21.931  0.00  0.00     0.000 A 
ATOM     23  C   UNL d   1       6.255   8.809 -20.827  0.00  0.00     0.001 A 
ATOM     24  C   UNL d   1       7.417   8.021 -20.849  0.00  0.00     0.013 A 
ENDBRANCH  16  19
ENDBRANCH  12  16
ENDBRANCH   4   7
BRANCH   1  25
ATOM     25  C   UNL d   1       8.275   4.348 -12.549  0.00  0.00     0.253 C 
BRANCH  25  26
ATOM     26  C   UNL d   1       9.354   4.878 -11.585  0.00  0.00     0.068 C 
BRANCH  26  27
ATOM     27  C   UNL d   1       8.781   5.799 -10.523  0.00  0.00     0.151 C 
BRANCH  27  28
ATOM     28  O   UNL d   1       9.857   6.630 -10.096  0.00  0.00    -0.331 OA
BRANCH  28  29
ATOM     29  C   UNL d   1      10.023   6.956  -8.766  0.00  0.00     0.099 A 
ATOM     30  C   UNL d   1      11.152   7.731  -8.381  0.00  0.00     0.082 A 
ATOM     31  C   UNL d   1      11.391   8.023  -7.015  0.00  0.00     0.007 A 
ATOM     32  C   UNL d   1      10.502   7.552  -6.035  0.00  0.00     0.000 A 
ATOM     33  C   UNL d   1       9.381   6.801  -6.427  0.00  0.00     0.002 A 
ATOM     34  C   UNL d   1       9.128   6.513  -7.775  0.00  0.00     0.024 A 
BRANCH  30  35
ATOM     35  C   UNL d   1      12.155   8.199  -9.389  0.00  0.00     0.299 C 
ATOM     36  N   UNL d   1      11.663   8.864 -10.433  0.00  0.00    -0.102 N 
ATOM     37  O   UNL d   1      13.356   8.004  -9.237  0.00  0.00    -0.264 OA
ENDBRANCH  30  35
ENDBRANCH  28  29
ENDBRANCH  27  28
ENDBRANCH  26  27
ENDBRANCH  25  26
ENDBRANCH   1  25
TORSDOF 9
