REMARK  1 active torsions:
REMARK  status: ('A' for Active; 'I' for Inactive)
REMARK    1  A    between atoms: N_5  and  C_6 
ROOT
ATOM      1  C   UNL d   1       8.379   2.129 -15.703  0.00  0.00     0.141 C 
ATOM      2  N   UNL d   1       8.133   1.403 -16.751  0.00  0.00    -0.227 NA
ATOM      3  C   UNL d   1       6.931   0.739 -17.043  0.00  0.00     0.100 A 
ATOM      4  C   UNL d   1       6.588   0.656 -18.410  0.00  0.00     0.032 A 
ATOM      5  C   UNL d   1       5.460  -0.066 -18.836  0.00  0.00     0.059 A 
ATOM      6 CL   UNL d   1       5.064  -0.125 -20.509  0.00  0.00    -0.082 Cl
ATOM      7  C   UNL d   1       4.661  -0.741 -17.898  0.00  0.00     0.013 A 
ATOM      8  C   UNL d   1       4.996  -0.680 -16.534  0.00  0.00     0.020 A 
ATOM      9  C   UNL d   1       6.121   0.059 -16.090  0.00  0.00     0.078 A 
ATOM     10  N   UNL d   1       6.397   0.176 -14.720  0.00  0.00    -0.324 N 
ATOM     11  C   UNL d   1       6.056  -0.970 -13.878  0.00  0.00     0.131 C 
ATOM     12  C   UNL d   1       6.465   1.437 -14.112  0.00  0.00     0.063 A 
ATOM     13  C   UNL d   1       5.603   1.751 -13.027  0.00  0.00     0.017 A 
ATOM     14  C   UNL d   1       5.636   3.028 -12.434  0.00  0.00     0.002 A 
ATOM     15  C   UNL d   1       6.498   4.008 -12.939  0.00  0.00     0.000 A 
ATOM     16  C   UNL d   1       7.345   3.708 -14.018  0.00  0.00     0.004 A 
ATOM     17  C   UNL d   1       7.366   2.420 -14.611  0.00  0.00     0.050 A 
ENDROOT
BRANCH   1  18
ATOM     18  N   UNL d   1       9.645   2.663 -15.511  0.00  0.00    -0.330 N 
ATOM     19  C   UNL d   1       9.955   4.090 -15.551  0.00  0.00     0.138 C 
ATOM     20  C   UNL d   1      11.101   4.406 -16.518  0.00  0.00     0.274 C 
ATOM     21  N   UNL d   1      12.277   3.625 -16.156  0.00  0.00     0.143 N 
ATOM     22  C   UNL d   1      13.353   3.970 -17.085  0.00  0.00     0.286 C 
ATOM     23  C   UNL d   1      11.946   2.205 -16.276  0.00  0.00     0.274 C 
ATOM     24  C   UNL d   1      10.825   1.835 -15.286  0.00  0.00     0.138 C 
ENDBRANCH   1  18
TORSDOF 1
