REMARK  6 active torsions:
REMARK  status: ('A' for Active; 'I' for Inactive)
REMARK    1  A    between atoms: C_2  and  C_4 
REMARK    2  A    between atoms: C_2  and  C_6 
REMARK    3  A    between atoms: C_6  and  C_8 
REMARK       I    between atoms: C_8  and  N_10 
REMARK    4  A    between atoms: N_10  and  C_11 
REMARK    5  A    between atoms: C_11  and  C_12 
REMARK    6  A    between atoms: C_12  and  C_13 
ROOT
ATOM      1  C   UNL d   1       9.559   7.914  -7.798  0.00  0.00     0.234 C 
ATOM      2  O   UNL d   1       9.364   8.951  -8.748  0.00  0.00    -0.213 OA
ENDROOT
BRANCH   1   3
ATOM      3  C   UNL d   1      10.838   8.248  -6.924  0.00  0.00     0.068 C 
ATOM      4  C   UNL d   1      12.078   8.440  -7.832  0.00  0.00     0.006 C 
ATOM      5  C   UNL d   1      11.112   7.144  -5.864  0.00  0.00     0.006 C 
BRANCH   3   6
ATOM      6  C   UNL d   1      10.590   9.581  -6.164  0.00  0.00     0.185 C 
ATOM      7  O   UNL d   1      11.598   9.914  -5.234  0.00  0.00    -0.221 OA
ENDBRANCH   3   6
ENDBRANCH   1   3
BRANCH   1   8
ATOM      8  C   UNL d   1       9.540   6.543  -8.518  0.00  0.00     0.282 C 
ATOM      9  O   UNL d   1      10.277   5.637  -8.152  0.00  0.00    -0.268 OA
ATOM     10  N   UNL d   1       8.658   6.381  -9.528  0.00  0.00    -0.236 NA
BRANCH  10  11
ATOM     11  C   UNL d   1       8.610   5.213 -10.398  0.00  0.00     0.131 C 
BRANCH  11  12
ATOM     12  C   UNL d   1       9.337   5.526 -11.711  0.00  0.00     0.062 C 
BRANCH  12  13
ATOM     13  C   UNL d   1       9.541   4.276 -12.571  0.00  0.00     0.184 C 
ATOM     14  O   UNL d   1      10.377   4.592 -13.662  0.00  0.00    -0.221 OA
ENDBRANCH  12  13
ENDBRANCH  11  12
ENDBRANCH  10  11
ENDBRANCH   1   8
TORSDOF 6
