REMARK  4 active torsions:
REMARK  status: ('A' for Active; 'I' for Inactive)
REMARK    1  A    between atoms: C_4  and  C_5 
REMARK    2  A    between atoms: C_7  and  C_8 
REMARK    3  A    between atoms: C_8  and  N_9 
REMARK    4  A    between atoms: N_12  and  C_13 
ROOT
ATOM      1  N   UNL d   1       9.910   7.547  -9.187  0.00  0.00     0.147 N 
ATOM      2  C   UNL d   1      10.932   8.537  -8.813  0.00  0.00     0.275 C 
ATOM      3  C   UNL d   1      10.563   9.186  -7.468  0.00  0.00     0.137 C 
ATOM      4  N   UNL d   1      10.368   8.165  -6.449  0.00  0.00    -0.344 N 
ATOM      5  C   UNL d   1       9.451   7.100  -6.823  0.00  0.00     0.137 C 
ATOM      6  C   UNL d   1       9.877   6.492  -8.165  0.00  0.00     0.275 C 
ENDROOT
BRANCH   1   7
ATOM      7  C   UNL d   1      10.234   6.986 -10.489  0.00  0.00     0.297 C 
BRANCH   7   8
ATOM      8  C   UNL d   1       9.332   5.976 -11.149  0.00  0.00     0.113 A 
ATOM      9  N   UNL d   1       9.701   5.262 -12.291  0.00  0.00    -0.228 NA
ATOM     10  C   UNL d   1       8.668   4.465 -12.570  0.00  0.00     0.162 A 
ATOM     11  N   UNL d   1       7.683   4.631 -11.678  0.00  0.00    -0.224 NA
ATOM     12  C   UNL d   1       8.073   5.592 -10.776  0.00  0.00     0.117 A 
BRANCH  10  13
ATOM     13  C   UNL d   1       8.625   3.525 -13.687  0.00  0.00     0.036 A 
ATOM     14  C   UNL d   1       7.409   2.904 -14.047  0.00  0.00     0.003 A 
ATOM     15  C   UNL d   1       7.373   1.989 -15.118  0.00  0.00     0.000 A 
ATOM     16  C   UNL d   1       8.548   1.688 -15.830  0.00  0.00     0.000 A 
ATOM     17  C   UNL d   1       9.765   2.297 -15.469  0.00  0.00     0.000 A 
ATOM     18  C   UNL d   1       9.804   3.212 -14.398  0.00  0.00     0.003 A 
ENDBRANCH  10  13
ENDBRANCH   7   8
ENDBRANCH   1   7
BRANCH   4  19
ATOM     19  C   UNL d   1      11.068   8.167  -5.231  0.00  0.00     0.056 A 
ATOM     20  C   UNL d   1      11.466   6.955  -4.620  0.00  0.00     0.017 A 
ATOM     21  C   UNL d   1      12.140   6.965  -3.385  0.00  0.00     0.002 A 
ATOM     22  C   UNL d   1      12.428   8.180  -2.747  0.00  0.00     0.000 A 
ATOM     23  C   UNL d   1      12.040   9.389  -3.345  0.00  0.00     0.002 A 
ATOM     24  C   UNL d   1      11.370   9.389  -4.584  0.00  0.00     0.017 A 
ENDBRANCH   4  19
TORSDOF 4
