REMARK  4 active torsions:
REMARK  status: ('A' for Active; 'I' for Inactive)
REMARK    1  A    between atoms: C_5  and  N_6 
REMARK    2  A    between atoms: N_9  and  C_10 
REMARK    3  A    between atoms: C_10  and  C_11 
REMARK    4  A    between atoms: C_15  and  C_16 
ROOT
ATOM      1  C   UNL d   1       8.777   4.912 -12.699  0.00  0.00     0.050 A 
ATOM      2  C   UNL d   1       7.387   4.723 -12.532  0.00  0.00     0.120 A 
ATOM      3  N   UNL d   1       6.899   3.713 -13.213  0.00  0.00    -0.164 NA
ATOM      4  N   UNL d   1       8.009   3.124 -13.785  0.00  0.00    -0.230 N 
ATOM      5  C   UNL d   1       8.040   1.950 -14.498  0.00  0.00     0.083 A 
ATOM      6  C   UNL d   1       9.258   1.543 -15.011  0.00  0.00     0.019 A 
ATOM      7  C   UNL d   1      10.443   2.287 -14.795  0.00  0.00     0.003 A 
ATOM      8  C   UNL d   1      10.414   3.437 -14.041  0.00  0.00     0.019 A 
ATOM      9  C   UNL d   1       9.171   3.874 -13.501  0.00  0.00     0.082 A 
ENDROOT
BRANCH   1  10
ATOM     10  C   UNL d   1       9.588   6.015 -12.125  0.00  0.00     0.280 C 
BRANCH  10  11
ATOM     11  N   UNL d   1       9.231   6.638 -10.859  0.00  0.00     0.146 N 
ATOM     12  C   UNL d   1       9.373   5.689  -9.761  0.00  0.00     0.275 C 
ATOM     13  C   UNL d   1       8.939   6.344  -8.440  0.00  0.00     0.137 C 
ATOM     14  N   UNL d   1       9.721   7.563  -8.198  0.00  0.00    -0.344 N 
ATOM     15  C   UNL d   1       9.708   8.530  -9.292  0.00  0.00     0.137 C 
ATOM     16  C   UNL d   1      10.069   7.816 -10.607  0.00  0.00     0.275 C 
BRANCH  14  17
ATOM     17  C   UNL d   1      10.386   7.829  -6.987  0.00  0.00     0.056 A 
ATOM     18  C   UNL d   1      10.678   9.148  -6.565  0.00  0.00     0.018 A 
ATOM     19  C   UNL d   1      11.377   9.385  -5.357  0.00  0.00     0.013 A 
ATOM     20  C   UNL d   1      11.766   8.304  -4.539  0.00  0.00     0.058 A 
ATOM     21 CL   UNL d   1      12.623   8.564  -3.064  0.00  0.00    -0.082 Cl
ATOM     22  C   UNL d   1      11.463   6.992  -4.949  0.00  0.00     0.013 A 
ATOM     23  C   UNL d   1      10.811   6.764  -6.171  0.00  0.00     0.018 A 
ENDBRANCH  14  17
ENDBRANCH  10  11
ENDBRANCH   1  10
BRANCH   5  24
ATOM     24  C   UNL d   1       6.817   1.130 -14.695  0.00  0.00     0.018 A 
ATOM     25  C   UNL d   1       6.522   0.588 -15.968  0.00  0.00     0.002 A 
ATOM     26  C   UNL d   1       5.361  -0.184 -16.183  0.00  0.00     0.000 A 
ATOM     27  C   UNL d   1       4.468  -0.431 -15.124  0.00  0.00     0.000 A 
ATOM     28  C   UNL d   1       4.747   0.099 -13.855  0.00  0.00     0.000 A 
ATOM     29  C   UNL d   1       5.912   0.855 -13.636  0.00  0.00     0.002 A 
ENDBRANCH   5  24
TORSDOF 4
