REMARK  3 active torsions:
REMARK  status: ('A' for Active; 'I' for Inactive)
REMARK    1  A    between atoms: N_5  and  C_6 
REMARK    2  A    between atoms: N_15  and  N_16 
REMARK       I    between atoms: N_16  and  C_17 
REMARK    3  A    between atoms: C_17  and  C_19 
ROOT
ATOM      1  C   UNL d   1       8.737   4.454 -13.864  0.00  0.00     0.060 A 
ATOM      2  C   UNL d   1       7.502   3.956 -13.384  0.00  0.00     0.005 A 
ATOM      3  C   UNL d   1       6.928   4.503 -12.225  0.00  0.00     0.001 A 
ATOM      4  C   UNL d   1       7.573   5.553 -11.552  0.00  0.00     0.010 A 
ATOM      5  C   UNL d   1       8.794   6.070 -12.031  0.00  0.00     0.069 A 
ATOM      6  C   UNL d   1       9.439   7.155 -11.313  0.00  0.00     0.101 C 
ATOM      7  N   UNL d   1       9.943   8.023 -10.729  0.00  0.00    -0.191 NA
ATOM      8  C   UNL d   1       9.361   5.528 -13.209  0.00  0.00     0.015 A 
ENDROOT
BRANCH   1   9
ATOM      9  C   UNL d   1       9.291   3.899 -15.135  0.00  0.00     0.295 C 
ATOM     10  N   UNL d   1       9.411   2.563 -15.166  0.00  0.00    -0.123 NA
ATOM     11  O   UNL d   1       9.512   4.652 -16.086  0.00  0.00    -0.264 OA
BRANCH  10  12
ATOM     12  N   UNL d   1       9.179   1.850 -16.359  0.00  0.00    -0.225 N 
ATOM     13  C   UNL d   1       7.973   1.138 -16.470  0.00  0.00     0.101 A 
ATOM     14  C   UNL d   1       7.215   1.101 -17.688  0.00  0.00     0.101 A 
ATOM     15  C   UNL d   1       7.541   0.353 -15.376  0.00  0.00     0.022 A 
ATOM     16  N   UNL d   1       7.456   1.881 -18.830  0.00  0.00    -0.227 NA
ATOM     17  C   UNL d   1       6.034   0.325 -17.733  0.00  0.00     0.032 A 
ATOM     18  C   UNL d   1       8.591   2.332 -19.233  0.00  0.00     0.142 C 
ATOM     19  C   UNL d   1       9.905   1.896 -18.714  0.00  0.00     0.051 A 
ATOM     20  C   UNL d   1      10.188   1.745 -17.333  0.00  0.00     0.086 A 
ATOM     21  C   UNL d   1      10.903   1.648 -19.688  0.00  0.00     0.004 A 
ATOM     22  C   UNL d   1      11.492   1.416 -16.936  0.00  0.00     0.019 A 
ATOM     23  C   UNL d   1      12.490   1.267 -17.925  0.00  0.00     0.002 A 
ATOM     24  C   UNL d   1      12.196   1.364 -19.283  0.00  0.00     0.000 A 
ATOM     25  C   UNL d   1       5.617  -0.450 -16.638  0.00  0.00     0.059 A 
ATOM     26 CL   UNL d   1       4.264  -1.504 -16.784  0.00  0.00    -0.082 Cl
ATOM     27  C   UNL d   1       6.369  -0.428 -15.454  0.00  0.00     0.013 A 
BRANCH  18  28
ATOM     28  N   UNL d   1       8.682   3.302 -20.233  0.00  0.00    -0.330 N 
ATOM     29  C   UNL d   1       8.803   4.725 -19.955  0.00  0.00     0.138 C 
ATOM     30  C   UNL d   1       9.964   5.309 -20.764  0.00  0.00     0.274 C 
ATOM     31  N   UNL d   1       9.748   5.085 -22.201  0.00  0.00     0.143 N 
ATOM     32  C   UNL d   1      10.878   5.614 -22.928  0.00  0.00     0.286 C 
ATOM     33  C   UNL d   1       9.665   3.646 -22.463  0.00  0.00     0.274 C 
ATOM     34  C   UNL d   1       8.499   3.030 -21.653  0.00  0.00     0.138 C 
ENDBRANCH  18  28
ENDBRANCH  10  12
ENDBRANCH   1   9
TORSDOF 3
