REMARK  6 active torsions:
REMARK  status: ('A' for Active; 'I' for Inactive)
REMARK    1  A    between atoms: S_2  and  C_4 
REMARK    2  A    between atoms: S_2  and  N_14 
REMARK    3  A    between atoms: C_18  and  C_19 
REMARK    4  A    between atoms: C_19  and  C_20 
REMARK    5  A    between atoms: C_20  and  N_21 
REMARK    6  A    between atoms: C_24  and  C_25 
ROOT
ATOM      1  N   UNL d   1       8.238   2.081 -14.441  0.00  0.00    -0.276 N 
ATOM      2  C   UNL d   1       7.329   0.949 -14.171  0.00  0.00     0.113 C 
ATOM      3  C   UNL d   1       5.956   1.580 -13.944  0.00  0.00     0.027 C 
ATOM      4  C   UNL d   1       6.267   2.902 -13.273  0.00  0.00     0.025 C 
ATOM      5  C   UNL d   1       7.687   3.274 -13.733  0.00  0.00     0.094 C 
ENDROOT
BRANCH   5   6
ATOM      6  C   UNL d   1       8.573   3.676 -12.529  0.00  0.00     0.058 C 
BRANCH   6   7
ATOM      7  C   UNL d   1       7.860   4.363 -11.372  0.00  0.00     0.253 C 
BRANCH   7   8
ATOM      8  N   UNL d   1       8.786   5.159 -10.575  0.00  0.00     0.142 N 
ATOM      9  C   UNL d   1       8.154   5.437  -9.293  0.00  0.00     0.255 C 
ATOM     10  C   UNL d   1       9.123   6.154  -8.370  0.00  0.00     0.061 C 
ATOM     11  C   UNL d   1       9.833   7.287  -9.060  0.00  0.00    -0.021 C 
ATOM     12  C   UNL d   1       9.801   7.404 -10.393  0.00  0.00     0.005 C 
ATOM     13  C   UNL d   1       9.100   6.405 -11.278  0.00  0.00     0.276 C 
BRANCH  11  14
ATOM     14  C   UNL d   1      10.505   8.264  -8.248  0.00  0.00     0.017 A 
ATOM     15  C   UNL d   1      10.930   8.095  -6.881  0.00  0.00     0.020 A 
ATOM     16  C   UNL d   1      11.515   9.287  -6.503  0.00  0.00     0.082 A 
ATOM     17  C   UNL d   1      10.926   7.100  -5.892  0.00  0.00     0.013 A 
ATOM     18  N   UNL d   1      11.461  10.059  -7.576  0.00  0.00    -0.244 NA
ATOM     19  C   UNL d   1      12.077   9.559  -5.260  0.00  0.00     0.020 A 
ATOM     20  C   UNL d   1      10.861   9.469  -8.669  0.00  0.00     0.099 A 
ATOM     21  C   UNL d   1      12.056   8.592  -4.290  0.00  0.00     0.013 A 
ATOM     22  C   UNL d   1      11.485   7.381  -4.625  0.00  0.00     0.058 A 
ATOM     23 CL   UNL d   1      11.552   6.356  -3.348  0.00  0.00    -0.082 Cl
ENDBRANCH  11  14
ENDBRANCH   7   8
ENDBRANCH   6   7
ENDBRANCH   5   6
BRANCH   1  24
ATOM     24  S   UNL d   1       8.933   2.210 -16.043  0.00  0.00     0.266 S 
ATOM     25  O   UNL d   1       7.845   2.552 -16.971  0.00  0.00    -0.200 OA
ATOM     26  O   UNL d   1       9.689   0.971 -16.296  0.00  0.00    -0.200 OA
BRANCH  24  27
ATOM     27  C   UNL d   1      10.133   3.569 -15.997  0.00  0.00     0.122 A 
ATOM     28  C   UNL d   1      10.598   4.202 -17.166  0.00  0.00     0.015 A 
ATOM     29  C   UNL d   1      11.532   5.267 -17.031  0.00  0.00     0.020 A 
ATOM     30  C   UNL d   1      10.210   3.798 -18.464  0.00  0.00     0.001 A 
ATOM     31  C   UNL d   1      11.930   5.659 -15.736  0.00  0.00     0.099 A 
ATOM     32  C   UNL d   1      12.054   5.915 -18.166  0.00  0.00     0.002 A 
ATOM     33  N   UNL d   1      11.507   5.037 -14.625  0.00  0.00    -0.242 NA
ATOM     34  C   UNL d   1      10.682   3.993 -14.786  0.00  0.00     0.112 A 
ATOM     35  C   UNL d   1      11.645   5.505 -19.444  0.00  0.00     0.000 A 
ATOM     36  C   UNL d   1      10.729   4.450 -19.598  0.00  0.00     0.000 A 
ENDBRANCH  24  27
ENDBRANCH   1  24
TORSDOF 6
