REMARK  5 active torsions:
REMARK  status: ('A' for Active; 'I' for Inactive)
REMARK    1  A    between atoms: N_13  and  C_14 
REMARK    2  A    between atoms: C_14  and  C_15 
REMARK    3  A    between atoms: C_15  and  C_16 
REMARK    4  A    between atoms: C_16  and  N_17 
REMARK    5  A    between atoms: N_20  and  C_21 
ROOT
ATOM      1  C   UNL d   1       7.830   4.788 -13.186  0.00  0.00     0.108 C 
ENDROOT
BRANCH   1   2
ATOM      2  N   UNL d   1       8.051   3.595 -13.989  0.00  0.00    -0.331 N 
ATOM      3  C   UNL d   1       7.194   2.497 -14.055  0.00  0.00     0.033 A 
ATOM      4  C   UNL d   1       5.881   2.322 -13.330  0.00  0.00     0.046 C 
ATOM      5  C   UNL d   1       7.702   1.563 -14.912  0.00  0.00    -0.007 A 
ATOM      6  C   UNL d   1       5.334   0.881 -13.458  0.00  0.00     0.040 C 
ATOM      7  C   UNL d   1       5.588   0.234 -14.827  0.00  0.00     0.157 C 
ATOM      8  O   UNL d   1       5.142  -1.103 -14.801  0.00  0.00    -0.223 OA
ATOM      9  C   UNL d   1       7.063   0.257 -15.238  0.00  0.00     0.060 C 
ATOM     10  C   UNL d   1       8.924   2.051 -15.393  0.00  0.00     0.013 A 
ATOM     11  C   UNL d   1       9.140   3.343 -14.813  0.00  0.00     0.059 A 
ATOM     12  C   UNL d   1       9.886   1.534 -16.286  0.00  0.00     0.001 A 
ATOM     13  C   UNL d   1      10.258   4.103 -15.114  0.00  0.00     0.017 A 
ATOM     14  C   UNL d   1      11.203   3.580 -15.996  0.00  0.00     0.002 A 
ATOM     15  C   UNL d   1      11.012   2.291 -16.584  0.00  0.00     0.000 A 
ENDBRANCH   1   2
BRANCH   1  16
ATOM     16  C   UNL d   1       8.616   4.774 -11.867  0.00  0.00     0.060 C 
BRANCH  16  17
ATOM     17  C   UNL d   1       8.702   6.176 -11.266  0.00  0.00     0.252 C 
BRANCH  17  18
ATOM     18  N   UNL d   1       9.762   6.260 -10.260  0.00  0.00     0.141 N 
ATOM     19  C   UNL d   1       9.238   5.856  -8.946  0.00  0.00     0.274 C 
ATOM     20  C   UNL d   1      10.326   5.921  -7.862  0.00  0.00     0.137 C 
ATOM     21  N   UNL d   1      10.983   7.224  -7.848  0.00  0.00    -0.344 N 
ATOM     22  C   UNL d   1      11.381   7.760  -9.147  0.00  0.00     0.137 C 
ATOM     23  C   UNL d   1      10.223   7.651 -10.152  0.00  0.00     0.274 C 
BRANCH  21  24
ATOM     24  C   UNL d   1      11.088   7.967  -6.662  0.00  0.00     0.056 A 
ATOM     25  C   UNL d   1      11.331   7.329  -5.428  0.00  0.00     0.017 A 
ATOM     26  C   UNL d   1      11.479   8.074  -4.237  0.00  0.00     0.002 A 
ATOM     27  C   UNL d   1      11.351   9.470  -4.259  0.00  0.00     0.000 A 
ATOM     28  C   UNL d   1      11.073  10.113  -5.478  0.00  0.00     0.002 A 
ATOM     29  C   UNL d   1      10.958   9.372  -6.673  0.00  0.00     0.017 A 
ENDBRANCH  21  24
ENDBRANCH  17  18
ENDBRANCH  16  17
ENDBRANCH   1  16
TORSDOF 5
