REMARK  3 active torsions:
REMARK  status: ('A' for Active; 'I' for Inactive)
REMARK    1  A    between atoms: C_5  and  C_6 
REMARK    2  A    between atoms: C_6  and  N_7 
REMARK    3  A    between atoms: C_10  and  C_11 
ROOT
ATOM      1  N   UNL d   1      10.171   8.074  -8.260  0.00  0.00     0.146 N 
ATOM      2  C   UNL d   1       9.066   7.135  -8.018  0.00  0.00     0.277 C 
ATOM      3  C   UNL d   1       8.842   6.191  -9.160  0.00  0.00     0.007 C 
ATOM      4  C   UNL d   1       9.273   6.428 -10.411  0.00  0.00     0.001 C 
ATOM      5  C   UNL d   1      10.014   7.725 -10.677  0.00  0.00     0.064 C 
ATOM      6  C   UNL d   1       9.913   8.754  -9.534  0.00  0.00     0.256 C 
ENDROOT
BRANCH   4   7
ATOM      7  C   UNL d   1       8.947   5.522 -11.504  0.00  0.00     0.107 A 
ATOM      8  S   UNL d   1       7.310   4.863 -11.691  0.00  0.00    -0.067 SA
ATOM      9  C   UNL d   1       7.895   3.987 -13.096  0.00  0.00     0.049 A 
ATOM     10  C   UNL d   1       9.282   4.266 -13.288  0.00  0.00     0.088 A 
ATOM     11  C   UNL d   1       7.193   3.122 -13.944  0.00  0.00     0.008 A 
ATOM     12  N   UNL d   1       9.851   5.155 -12.411  0.00  0.00    -0.239 NA
ATOM     13  C   UNL d   1       9.942   3.622 -14.358  0.00  0.00     0.020 A 
ATOM     14  C   UNL d   1       9.249   2.747 -15.201  0.00  0.00     0.002 A 
ATOM     15  C   UNL d   1       7.884   2.487 -14.998  0.00  0.00     0.001 A 
ENDBRANCH   4   7
BRANCH   1  16
ATOM     16  C   UNL d   1      10.298   9.056  -7.184  0.00  0.00     0.277 C 
BRANCH  16  17
ATOM     17  C   UNL d   1      10.927   8.550  -5.889  0.00  0.00     0.011 C 
ATOM     18  C   UNL d   1      11.057   7.166  -5.624  0.00  0.00    -0.002 C 
ATOM     19  C   UNL d   1      11.507   6.719  -4.394  0.00  0.00     0.011 C 
ATOM     20  C   UNL d   1      11.986   7.622  -3.461  0.00  0.00     0.058 C 
ATOM     21 CL   UNL d   1      12.640   6.967  -2.039  0.00  0.00    -0.082 Cl
ATOM     22  C   UNL d   1      11.980   9.008  -3.718  0.00  0.00     0.011 C 
ATOM     23  C   UNL d   1      11.412   9.478  -4.937  0.00  0.00    -0.002 C 
ENDBRANCH  16  17
ENDBRANCH   1  16
TORSDOF 3
