REMARK  10 active torsions:
REMARK  status: ('A' for Active; 'I' for Inactive)
REMARK    1  A    between atoms: O_2  and  C_3 
REMARK    2  A    between atoms: C_8  and  N_9 
REMARK    3  A    between atoms: N_12  and  C_13 
REMARK    4  A    between atoms: C_13  and  C_14 
REMARK    5  A    between atoms: C_14  and  C_15 
REMARK    6  A    between atoms: C_15  and  C_16 
REMARK    7  A    between atoms: C_16  and  C_17 
REMARK    8  A    between atoms: C_17  and  C_18 
REMARK    9  A    between atoms: N_20  and  C_21 
REMARK   10  A    between atoms: C_26  and  O_27 
ROOT
ATOM      1  C   UNL d   1       8.728   1.010 -15.341  0.00  0.00     0.035 C 
ENDROOT
BRANCH   1   2
ATOM      2  C   UNL d   1       8.878   0.466 -16.792  0.00  0.00     0.250 C 
BRANCH   2   3
ATOM      3  N   UNL d   1      10.282   0.329 -17.209  0.00  0.00     0.141 N 
ATOM      4  C   UNL d   1      10.359  -0.490 -18.428  0.00  0.00     0.274 C 
ATOM      5  C   UNL d   1      11.845  -0.660 -18.844  0.00  0.00     0.137 C 
ATOM      6  N   UNL d   1      12.528   0.611 -18.988  0.00  0.00    -0.343 N 
ATOM      7  C   UNL d   1      12.345   1.533 -17.897  0.00  0.00     0.137 C 
ATOM      8  C   UNL d   1      10.862   1.633 -17.561  0.00  0.00     0.274 C 
BRANCH   6   9
ATOM      9  C   UNL d   1      13.145   1.067 -20.182  0.00  0.00     0.079 A 
ATOM     10  C   UNL d   1      12.554   0.843 -21.441  0.00  0.00     0.110 A 
ATOM     11  C   UNL d   1      13.239   1.277 -22.594  0.00  0.00     0.026 A 
ATOM     12  C   UNL d   1      14.483   1.933 -22.490  0.00  0.00     0.002 A 
ATOM     13  C   UNL d   1      15.052   2.166 -21.224  0.00  0.00     0.002 A 
ATOM     14  C   UNL d   1      14.374   1.749 -20.069  0.00  0.00     0.019 A 
BRANCH  10  15
ATOM     15  O   UNL d   1      11.309   0.237 -21.483  0.00  0.00    -0.327 OA
ATOM     16  C   UNL d   1      10.751  -0.093 -22.737  0.00  0.00     0.181 C 
ENDBRANCH  10  15
ENDBRANCH   6   9
ENDBRANCH   2   3
ENDBRANCH   1   2
BRANCH   1  17
ATOM     17  C   UNL d   1       8.941   2.538 -15.181  0.00  0.00     0.003 C 
BRANCH  17  18
ATOM     18  C   UNL d   1       8.820   3.041 -13.764  0.00  0.00     0.006 C 
BRANCH  18  19
ATOM     19  C   UNL d   1       9.085   4.553 -13.734  0.00  0.00     0.049 C 
BRANCH  19  20
ATOM     20  C   UNL d   1       8.879   5.069 -12.365  0.00  0.00     0.101 A 
ATOM     21  N   UNL d   1       7.662   4.972 -11.716  0.00  0.00    -0.133 NA
ATOM     22  N   UNL d   1       7.793   5.494 -10.539  0.00  0.00    -0.060 NA
ATOM     23  N   UNL d   1       9.039   5.968 -10.393  0.00  0.00    -0.207 N 
ATOM     24  C   UNL d   1       9.730   5.716 -11.546  0.00  0.00     0.119 A 
BRANCH  23  25
ATOM     25  C   UNL d   1       9.454   6.601  -9.190  0.00  0.00     0.107 A 
ATOM     26  C   UNL d   1      10.402   7.655  -9.191  0.00  0.00     0.112 A 
ATOM     27  C   UNL d   1      10.784   8.248  -7.960  0.00  0.00     0.026 A 
ATOM     28  C   UNL d   1      10.209   7.821  -6.753  0.00  0.00     0.002 A 
ATOM     29  C   UNL d   1       9.252   6.796  -6.763  0.00  0.00     0.002 A 
ATOM     30  C   UNL d   1       8.877   6.187  -7.969  0.00  0.00     0.021 A 
BRANCH  26  31
ATOM     31  O   UNL d   1      10.887   8.083 -10.402  0.00  0.00    -0.327 OA
ATOM     32  C   UNL d   1      11.963   8.998 -10.408  0.00  0.00     0.181 C 
ENDBRANCH  26  31
ENDBRANCH  23  25
ENDBRANCH  19  20
ENDBRANCH  18  19
ENDBRANCH  17  18
ENDBRANCH   1  17
TORSDOF 10
