REMARK  4 active torsions:
REMARK  status: ('A' for Active; 'I' for Inactive)
REMARK    1  A    between atoms: O_2  and  C_3 
REMARK    2  A    between atoms: C_8  and  O_9 
REMARK    3  A    between atoms: C_16  and  O_17 
REMARK    4  A    between atoms: C_19  and  O_20 
ROOT
ATOM      1  C   UNL d   1      11.726   4.698 -15.522  0.00  0.00     0.116 A 
ATOM      2  C   UNL d   1      10.509   4.738 -14.805  0.00  0.00     0.022 A 
ATOM      3  C   UNL d   1       9.601   3.660 -14.867  0.00  0.00    -0.020 A 
ATOM      4  C   UNL d   1       9.918   2.529 -15.650  0.00  0.00     0.007 A 
ATOM      5  C   UNL d   1      11.127   2.488 -16.371  0.00  0.00     0.024 A 
ATOM      6  C   UNL d   1      12.039   3.569 -16.311  0.00  0.00     0.116 A 
ATOM      7  C   UNL d   1       8.929   1.376 -15.764  0.00  0.00     0.246 C 
ATOM      8  C   UNL d   1       8.184   1.465 -17.126  0.00  0.00     0.064 C 
ATOM      9  C   UNL d   1       6.960   0.569 -17.230  0.00  0.00    -0.020 A 
ATOM     10  C   UNL d   1       6.347   0.357 -18.480  0.00  0.00    -0.002 A 
ATOM     11  C   UNL d   1       5.195  -0.445 -18.566  0.00  0.00     0.026 A 
ATOM     12  C   UNL d   1       4.637  -1.035 -17.408  0.00  0.00     0.116 A 
ATOM     13  C   UNL d   1       5.238  -0.792 -16.147  0.00  0.00     0.114 A 
ATOM     14  C   UNL d   1       6.411  -0.007 -16.065  0.00  0.00     0.031 A 
ATOM     15  C   UNL d   1       7.113   0.169 -14.724  0.00  0.00     0.279 C 
ATOM     16  N   UNL d   1       8.005   1.322 -14.622  0.00  0.00     0.144 N 
ATOM     17  C   UNL d   1       7.294   2.586 -14.454  0.00  0.00     0.256 C 
ATOM     18  C   UNL d   1       8.313   3.679 -14.050  0.00  0.00     0.061 C 
ENDROOT
BRANCH   1  19
ATOM     19  O   UNL d   1      12.658   5.708 -15.455  0.00  0.00    -0.326 OA
ATOM     20  C   UNL d   1      12.176   7.031 -15.629  0.00  0.00     0.181 C 
ENDBRANCH   1  19
BRANCH   6  21
ATOM     21  O   UNL d   1      13.237   3.605 -16.994  0.00  0.00    -0.326 OA
ATOM     22  C   UNL d   1      13.455   2.650 -18.020  0.00  0.00     0.181 C 
ENDBRANCH   6  21
BRANCH  13  23
ATOM     23  O   UNL d   1       4.733  -1.366 -15.006  0.00  0.00    -0.326 OA
ATOM     24  C   UNL d   1       3.487  -0.837 -14.579  0.00  0.00     0.181 C 
ENDBRANCH  13  23
BRANCH  12  25
ATOM     25  O   UNL d   1       3.511  -1.831 -17.441  0.00  0.00    -0.326 OA
ATOM     26  C   UNL d   1       3.240  -2.565 -18.621  0.00  0.00     0.181 C 
ENDBRANCH  12  25
TORSDOF 4
