REMARK  2 active torsions:
REMARK  status: ('A' for Active; 'I' for Inactive)
REMARK    1  A    between atoms: C_2  and  C_3 
REMARK    2  A    between atoms: C_3  and  N_4 
ROOT
ATOM      1  N   UNL d   1       6.890   3.612 -12.729  0.00  0.00     0.137 N 
ATOM      2  C   UNL d   1       7.618   4.838 -12.410  0.00  0.00     0.253 C 
ATOM      3  C   UNL d   1       9.093   4.506 -12.734  0.00  0.00     0.070 C 
ATOM      4  C   UNL d   1       9.714   5.586 -13.605  0.00  0.00     0.151 C 
ATOM      5  O   UNL d   1      10.969   5.191 -14.158  0.00  0.00    -0.331 OA
ATOM      6  C   UNL d   1      10.937   4.049 -14.921  0.00  0.00     0.090 A 
ATOM      7  C   UNL d   1      11.879   3.873 -15.951  0.00  0.00     0.025 A 
ATOM      8  C   UNL d   1      11.863   2.704 -16.739  0.00  0.00     0.012 A 
ATOM      9  C   UNL d   1      10.904   1.696 -16.491  0.00  0.00     0.068 A 
ATOM     10  C   UNL d   1      10.888   0.487 -17.301  0.00  0.00     0.101 C 
ATOM     11  N   UNL d   1      10.874  -0.474 -17.944  0.00  0.00    -0.191 NA
ATOM     12  C   UNL d   1       9.969   1.864 -15.454  0.00  0.00     0.008 A 
ATOM     13  C   UNL d   1       9.983   3.039 -14.679  0.00  0.00     0.003 A 
ATOM     14  C   UNL d   1       9.032   3.187 -13.509  0.00  0.00     0.062 C 
ATOM     15  C   UNL d   1       7.566   3.081 -13.904  0.00  0.00     0.255 C 
ENDROOT
BRANCH   1  16
ATOM     16  C   UNL d   1       5.457   3.795 -12.930  0.00  0.00     0.250 C 
BRANCH  16  17
ATOM     17  C   UNL d   1       4.661   2.521 -12.585  0.00  0.00     0.035 C 
ATOM     18  C   UNL d   1       5.161   1.224 -13.254  0.00  0.00     0.002 C 
ENDBRANCH  16  17
ENDBRANCH   1  16
TORSDOF 2
