REMARK  10 active torsions:
REMARK  status: ('A' for Active; 'I' for Inactive)
REMARK    1  A    between atoms: C_2  and  C_3 
REMARK    2  A    between atoms: C_3  and  C_4 
REMARK       I    between atoms: C_4  and  N_6 
REMARK    3  A    between atoms: N_6  and  C_7 
REMARK    4  A    between atoms: C_10  and  O_11 
REMARK    5  A    between atoms: O_11  and  C_12 
REMARK    6  A    between atoms: C_12  and  C_13 
REMARK    7  A    between atoms: C_13  and  C_15 
REMARK    8  A    between atoms: C_15  and  N_16 
REMARK    9  A    between atoms: N_16  and  C_17 
REMARK   10  A    between atoms: C_20  and  C_21 
ROOT
ATOM      1  C   UNL d   1       9.955   7.636 -10.461  0.00  0.00     0.085 A 
ATOM      2  C   UNL d   1      11.000   8.558 -10.346  0.00  0.00     0.021 A 
ATOM      3  C   UNL d   1      11.605   8.791  -9.112  0.00  0.00     0.026 A 
ATOM      4  C   UNL d   1      11.147   8.150  -7.962  0.00  0.00     0.097 A 
ATOM      5  C   UNL d   1      10.065   7.253  -8.063  0.00  0.00     0.059 A 
ATOM      6  C   UNL d   1       9.493   6.965  -9.322  0.00  0.00     0.024 A 
ENDROOT
BRANCH   4   7
ATOM      7  O   UNL d   1      11.767   8.348  -6.757  0.00  0.00    -0.328 OA
BRANCH   7   8
ATOM      8  C   UNL d   1      12.021   9.677  -6.343  0.00  0.00     0.184 C 
BRANCH   8   9
ATOM      9  C   UNL d   1      11.874   9.745  -4.803  0.00  0.00     0.206 C 
ATOM     10  O   UNL d   1      10.698  10.448  -4.503  0.00  0.00    -0.219 OA
BRANCH   9  11
ATOM     11  C   UNL d   1      11.808   8.426  -4.091  0.00  0.00     0.155 C 
BRANCH  11  12
ATOM     12  N   UNL d   1      12.070   8.500  -2.651  0.00  0.00    -0.295 NA
BRANCH  12  13
ATOM     13  C   UNL d   1      12.137   7.195  -1.962  0.00  0.00     0.098 C 
ATOM     14  C   UNL d   1      12.925   6.138  -2.711  0.00  0.00     0.026 C 
ATOM     15  C   UNL d   1      10.777   6.545  -1.700  0.00  0.00     0.026 C 
ENDBRANCH  12  13
ENDBRANCH  11  12
ENDBRANCH   9  11
ENDBRANCH   8   9
ENDBRANCH   7   8
ENDBRANCH   4   7
BRANCH   5  16
ATOM     16  C   UNL d   1       9.559   6.594  -6.846  0.00  0.00     0.175 C 
ATOM     17  C   UNL d   1       8.152   6.015  -6.939  0.00  0.00     0.077 C 
ATOM     18  O   UNL d   1      10.225   6.455  -5.834  0.00  0.00    -0.291 OA
ENDBRANCH   5  16
BRANCH   1  19
ATOM     19  N   UNL d   1       9.322   7.455 -11.703  0.00  0.00    -0.212 NA
ATOM     20  C   UNL d   1       9.019   6.253 -12.207  0.00  0.00     0.256 C 
ATOM     21  O   UNL d   1       9.682   5.259 -11.934  0.00  0.00    -0.270 OA
BRANCH  20  22
ATOM     22  C   UNL d   1       7.864   6.189 -13.224  0.00  0.00     0.090 C 
BRANCH  22  23
ATOM     23  C   UNL d   1       6.688   5.281 -12.784  0.00  0.00     0.010 C 
ATOM     24  C   UNL d   1       7.020   3.787 -12.759  0.00  0.00     0.001 C 
ENDBRANCH  22  23
ENDBRANCH  20  22
ENDBRANCH   1  19
TORSDOF 10
