REMARK  6 active torsions:
REMARK  status: ('A' for Active; 'I' for Inactive)
REMARK    1  A    between atoms: C_9  and  O_10 
REMARK    2  A    between atoms: O_10  and  C_11 
REMARK    3  A    between atoms: C_11  and  C_12 
REMARK    4  A    between atoms: C_12  and  C_13 
REMARK    5  A    between atoms: C_13  and  N_14 
REMARK    6  A    between atoms: N_17  and  C_18 
ROOT
ATOM      1  N   UNL d   1       9.739   6.339  -8.985  0.00  0.00     0.141 N 
ATOM      2  C   UNL d   1      10.969   7.137  -8.921  0.00  0.00     0.274 C 
ATOM      3  C   UNL d   1      11.602   6.977  -7.526  0.00  0.00     0.137 C 
ATOM      4  N   UNL d   1      10.643   7.357  -6.530  0.00  0.00    -0.344 N 
ATOM      5  C   UNL d   1       9.335   6.761  -6.615  0.00  0.00     0.137 C 
ATOM      6  C   UNL d   1       8.780   6.877  -8.022  0.00  0.00     0.274 C 
ENDROOT
BRANCH   1   7
ATOM      7  C   UNL d   1       9.109   6.444 -10.305  0.00  0.00     0.253 C 
BRANCH   7   8
ATOM      8  C   UNL d   1       9.789   5.514 -11.301  0.00  0.00     0.068 C 
BRANCH   8   9
ATOM      9  C   UNL d   1       8.865   5.091 -12.434  0.00  0.00     0.151 C 
BRANCH   9  10
ATOM     10  O   UNL d   1       9.630   5.046 -13.642  0.00  0.00    -0.329 OA
BRANCH  10  11
ATOM     11  C   UNL d   1       9.520   3.979 -14.507  0.00  0.00     0.121 A 
ATOM     12  C   UNL d   1      10.459   3.909 -15.579  0.00  0.00     0.162 A 
ATOM     13  C   UNL d   1      10.460   2.825 -16.491  0.00  0.00     0.029 A 
ATOM     14  F   UNL d   1      11.380   4.896 -15.732  0.00  0.00    -0.202 F 
ATOM     15  C   UNL d   1       9.498   1.817 -16.305  0.00  0.00     0.009 A 
ATOM     16  C   UNL d   1       9.233   0.564 -17.092  0.00  0.00     0.156 A 
ATOM     17  C   UNL d   1       8.573   1.894 -15.282  0.00  0.00     0.058 A 
ATOM     18  N   UNL d   1       8.075  -0.013 -16.378  0.00  0.00    -0.229 NA
ATOM     19  C   UNL d   1       7.683   0.715 -15.321  0.00  0.00     0.275 A 
ATOM     20  O   UNL d   1       6.781   0.467 -14.523  0.00  0.00    -0.266 OA
ATOM     21  C   UNL d   1       8.537   2.957 -14.377  0.00  0.00     0.031 A 
ENDBRANCH  10  11
ENDBRANCH   9  10
ENDBRANCH   8   9
ENDBRANCH   7   8
ENDBRANCH   1   7
BRANCH   4  22
ATOM     22  C   UNL d   1      10.961   8.273  -5.541  0.00  0.00     0.056 A 
ATOM     23  C   UNL d   1      11.528   7.894  -4.309  0.00  0.00     0.015 A 
ATOM     24  C   UNL d   1      11.811   8.873  -3.313  0.00  0.00     0.001 A 
ATOM     25  C   UNL d   1      11.823   6.576  -4.000  0.00  0.00     0.001 A 
ATOM     26  C   UNL d   1      11.460  10.169  -3.555  0.00  0.00     0.000 A 
ATOM     27  C   UNL d   1      12.367   8.591  -2.060  0.00  0.00     0.000 A 
ATOM     28  C   UNL d   1      10.883  10.540  -4.771  0.00  0.00     0.002 A 
ATOM     29  C   UNL d   1      10.665   9.600  -5.795  0.00  0.00     0.017 A 
ATOM     30  C   UNL d   1      12.652   7.266  -1.786  0.00  0.00     0.000 A 
ATOM     31  C   UNL d   1      12.407   6.296  -2.759  0.00  0.00     0.000 A 
ENDBRANCH   4  22
TORSDOF 6
