REMARK  9 active torsions:
REMARK  status: ('A' for Active; 'I' for Inactive)
REMARK       I    between atoms: C_2  and  N_3 
REMARK    1  A    between atoms: C_2  and  C_28 
REMARK    2  A    between atoms: N_3  and  C_4 
REMARK    3  A    between atoms: C_4  and  C_5 
REMARK    4  A    between atoms: C_5  and  C_6 
REMARK    5  A    between atoms: C_6  and  C_7 
REMARK    6  A    between atoms: C_7  and  N_8 
REMARK    7  A    between atoms: N_11  and  C_12 
REMARK    8  A    between atoms: C_12  and  C_13 
REMARK    9  A    between atoms: C_12  and  C_19 
ROOT
ATOM      1  N   UNL d   1      10.398   2.574 -15.631  0.00  0.00     0.141 N 
ATOM      2  C   UNL d   1       9.302   2.933 -16.549  0.00  0.00     0.285 C 
ATOM      3  C   UNL d   1       9.522   4.311 -17.212  0.00  0.00     0.286 C 
ATOM      4  N   UNL d   1      10.787   4.379 -17.965  0.00  0.00     0.147 N 
ATOM      5  C   UNL d   1      11.873   3.990 -17.044  0.00  0.00     0.286 C 
ATOM      6  C   UNL d   1      11.631   2.609 -16.407  0.00  0.00     0.285 C 
ENDROOT
BRANCH   4   7
ATOM      7  C   UNL d   1      10.957   5.734 -18.538  0.00  0.00     0.264 C 
BRANCH   7   8
ATOM      8  C   UNL d   1      12.382   6.062 -18.998  0.00  0.00     0.013 A 
ATOM      9  C   UNL d   1      13.168   5.130 -19.707  0.00  0.00    -0.002 A 
ATOM     10  C   UNL d   1      14.534   5.401 -19.942  0.00  0.00    -0.000 A 
ATOM     11  C   UNL d   1      15.088   6.632 -19.549  0.00  0.00    -0.000 A 
ATOM     12  C   UNL d   1      14.293   7.585 -18.887  0.00  0.00    -0.000 A 
ATOM     13  C   UNL d   1      12.944   7.295 -18.599  0.00  0.00    -0.002 A 
ENDBRANCH   7   8
BRANCH   7  14
ATOM     14  C   UNL d   1       9.937   6.034 -19.642  0.00  0.00     0.013 A 
ATOM     15  C   UNL d   1       8.969   7.042 -19.455  0.00  0.00    -0.001 A 
ATOM     16  C   UNL d   1       8.036   7.356 -20.461  0.00  0.00     0.011 A 
ATOM     17  C   UNL d   1       8.068   6.661 -21.687  0.00  0.00     0.058 A 
ATOM     18  C   UNL d   1       9.029   5.654 -21.895  0.00  0.00     0.011 A 
ATOM     19 CL   UNL d   1       6.927   7.051 -22.925  0.00  0.00    -0.082 Cl
ATOM     20  C   UNL d   1       9.957   5.342 -20.881  0.00  0.00    -0.001 A 
ENDBRANCH   7  14
ENDBRANCH   4   7
BRANCH   1  21
ATOM     21  C   UNL d   1      10.512   3.406 -14.430  0.00  0.00     0.251 C 
BRANCH  21  22
ATOM     22  C   UNL d   1       9.268   3.477 -13.551  0.00  0.00     0.037 C 
BRANCH  22  23
ATOM     23  C   UNL d   1       9.457   4.433 -12.379  0.00  0.00     0.029 C 
BRANCH  23  24
ATOM     24  C   UNL d   1       8.127   4.812 -11.700  0.00  0.00     0.129 C 
BRANCH  24  25
ATOM     25  N   UNL d   1       8.334   5.785 -10.636  0.00  0.00    -0.238 NA
ATOM     26  C   UNL d   1       9.078   5.562  -9.545  0.00  0.00     0.251 C 
ATOM     27  O   UNL d   1       9.495   4.445  -9.234  0.00  0.00    -0.271 OA
BRANCH  26  28
ATOM     28  C   UNL d   1       9.470   6.796  -8.722  0.00  0.00     0.081 C 
ATOM     29  C   UNL d   1       9.742   6.443  -7.247  0.00  0.00     0.009 C 
ATOM     30  C   UNL d   1      10.157   7.674  -6.433  0.00  0.00     0.001 C 
ATOM     31  C   UNL d   1      11.374   8.356  -7.070  0.00  0.00     0.000 C 
ATOM     32  C   UNL d   1      11.111   8.739  -8.531  0.00  0.00     0.001 C 
ATOM     33  C   UNL d   1      10.678   7.516  -9.357  0.00  0.00     0.009 C 
ENDBRANCH  26  28
ENDBRANCH  24  25
ENDBRANCH  23  24
ENDBRANCH  22  23
ENDBRANCH  21  22
ENDBRANCH   1  21
TORSDOF 9
