REMARK  8 active torsions:
REMARK  status: ('A' for Active; 'I' for Inactive)
REMARK    1  A    between atoms: O_2  and  C_3 
REMARK    2  A    between atoms: C_3  and  C_5 
REMARK    3  A    between atoms: C_5  and  C_6 
REMARK       I    between atoms: C_6  and  N_8 
REMARK    4  A    between atoms: N_8  and  C_9 
REMARK    5  A    between atoms: C_12  and  C_13 
REMARK    6  A    between atoms: C_13  and  C_14 
REMARK    7  A    between atoms: C_14  and  N_15 
REMARK    8  A    between atoms: N_18  and  C_19 
ROOT
ATOM      1  C   UNL d   1       9.905   6.433 -10.552  0.00  0.00     0.250 C 
ENDROOT
BRANCH   1   2
ATOM      2  C   UNL d   1       8.749   5.809 -11.326  0.00  0.00     0.035 C 
BRANCH   2   3
ATOM      3  C   UNL d   1       9.193   4.639 -12.223  0.00  0.00     0.002 C 
ATOM      4  C   UNL d   1       7.946   3.975 -12.823  0.00  0.00     0.002 C 
ATOM      5  C   UNL d   1       8.334   2.842 -13.780  0.00  0.00     0.024 C 
ATOM      6  C   UNL d   1       9.250   3.340 -14.893  0.00  0.00     0.106 C 
ATOM      7  C   UNL d   1      10.513   3.971 -14.307  0.00  0.00     0.024 C 
ATOM      8  C   UNL d   1      10.131   5.088 -13.349  0.00  0.00     0.002 C 
BRANCH   6   9
ATOM      9  N   UNL d   1       9.609   2.204 -15.711  0.00  0.00    -0.240 NA
ATOM     10  C   UNL d   1       8.976   1.826 -16.827  0.00  0.00     0.254 C 
ATOM     11  O   UNL d   1       7.974   2.384 -17.262  0.00  0.00    -0.271 OA
BRANCH  10  12
ATOM     12  C   UNL d   1       9.590   0.663 -17.604  0.00  0.00     0.119 C 
BRANCH  12  13
ATOM     13  C   UNL d   1      11.120   0.460 -17.407  0.00  0.00     0.125 C 
ATOM     14  C   UNL d   1      12.013   1.718 -17.605  0.00  0.00     0.033 C 
BRANCH  13  15
ATOM     15  O   UNL d   1      11.570  -0.619 -18.227  0.00  0.00    -0.353 OA
ATOM     16  C   UNL d   1      11.587  -0.390 -19.634  0.00  0.00     0.174 C 
ENDBRANCH  13  15
ENDBRANCH  12  13
ENDBRANCH  10  12
ENDBRANCH   6   9
ENDBRANCH   2   3
ENDBRANCH   1   2
BRANCH   1  17
ATOM     17  N   UNL d   1       9.474   7.574  -9.745  0.00  0.00     0.141 N 
ATOM     18  C   UNL d   1       8.771   7.180  -8.528  0.00  0.00     0.274 C 
ATOM     19  C   UNL d   1       9.661   6.402  -7.538  0.00  0.00     0.137 C 
ATOM     20  N   UNL d   1      10.884   7.165  -7.311  0.00  0.00    -0.343 N 
ATOM     21  C   UNL d   1      11.559   7.755  -8.461  0.00  0.00     0.137 C 
ATOM     22  C   UNL d   1      10.582   8.492  -9.387  0.00  0.00     0.274 C 
BRANCH  20  23
ATOM     23  C   UNL d   1      11.291   7.424  -6.012  0.00  0.00     0.081 A 
ATOM     24  C   UNL d   1      11.210   8.697  -5.446  0.00  0.00     0.135 A 
ATOM     25  C   UNL d   1      11.608   8.951  -4.156  0.00  0.00     0.121 A 
ATOM     26  O   UNL d   1      10.732   9.810  -6.031  0.00  0.00    -0.298 OA
ATOM     27  C   UNL d   1      12.141   7.970  -3.316  0.00  0.00     0.026 A 
ATOM     28  O   UNL d   1      11.364  10.248  -3.873  0.00  0.00    -0.299 OA
ATOM     29  C   UNL d   1      12.220   6.664  -3.849  0.00  0.00     0.004 A 
ATOM     30  C   UNL d   1      11.815   6.412  -5.184  0.00  0.00     0.019 A 
ATOM     31  C   UNL d   1      10.842  10.797  -5.054  0.00  0.00     0.304 A 
ENDBRANCH  20  23
ENDBRANCH   1  17
TORSDOF 8
