REMARK  6 active torsions:
REMARK  status: ('A' for Active; 'I' for Inactive)
REMARK    1  A    between atoms: O_2  and  N_3 
REMARK    2  A    between atoms: C_4  and  C_5 
REMARK    3  A    between atoms: C_4  and  C_19 
REMARK    4  A    between atoms: C_5  and  C_6 
REMARK    5  A    between atoms: C_6  and  N_7 
REMARK    6  A    between atoms: N_10  and  C_11 
ROOT
ATOM      1  C   UNL d   1       9.844   5.090 -11.569  0.00  0.00     0.257 C 
ENDROOT
BRANCH   1   2
ATOM      2  C   UNL d   1       8.697   4.837 -12.562  0.00  0.00     0.083 C 
BRANCH   2   3
ATOM      3  C   UNL d   1       9.098   4.037 -13.826  0.00  0.00     0.087 C 
ATOM      4  N   UNL d   1       9.996   4.418 -14.645  0.00  0.00    -0.136 NA
BRANCH   4   5
ATOM      5  O   UNL d   1      10.664   5.579 -14.259  0.00  0.00    -0.234 OA
ATOM      6  C   UNL d   1      11.549   5.953 -15.300  0.00  0.00     0.211 C 
ENDBRANCH   4   5
BRANCH   3   7
ATOM      7  C   UNL d   1       8.344   2.773 -14.081  0.00  0.00     0.012 A 
ATOM      8  C   UNL d   1       8.966   1.544 -14.471  0.00  0.00    -0.021 A 
ATOM      9  C   UNL d   1       8.168   0.398 -14.680  0.00  0.00    -0.004 A 
ATOM     10  C   UNL d   1      10.476   1.383 -14.659  0.00  0.00     0.031 C 
ATOM     11  C   UNL d   1       6.775   0.435 -14.503  0.00  0.00    -0.000 A 
ATOM     12  C   UNL d   1       6.164   1.635 -14.112  0.00  0.00     0.000 A 
ATOM     13  C   UNL d   1       6.934   2.798 -13.933  0.00  0.00     0.001 A 
ENDBRANCH   3   7
ENDBRANCH   2   3
ENDBRANCH   1   2
BRANCH   1  14
ATOM     14  N   UNL d   1       9.433   6.010 -10.509  0.00  0.00     0.141 N 
ATOM     15  C   UNL d   1      10.366   7.147 -10.445  0.00  0.00     0.274 C 
ATOM     16  C   UNL d   1       9.991   8.161  -9.355  0.00  0.00     0.138 C 
ATOM     17  N   UNL d   1       9.862   7.458  -8.078  0.00  0.00    -0.330 N 
ATOM     18  C   UNL d   1       8.991   6.278  -8.112  0.00  0.00     0.138 C 
ATOM     19  C   UNL d   1       9.439   5.314  -9.225  0.00  0.00     0.274 C 
BRANCH  17  20
ATOM     20  C   UNL d   1      10.531   7.904  -6.923  0.00  0.00     0.140 A 
ATOM     21  N   UNL d   1      10.918   9.201  -6.896  0.00  0.00    -0.227 NA
ATOM     22  C   UNL d   1      11.567   9.666  -5.810  0.00  0.00     0.101 A 
ATOM     23  C   UNL d   1      11.861   8.875  -4.684  0.00  0.00     0.021 A 
ATOM     24  C   UNL d   1      11.465   7.523  -4.712  0.00  0.00     0.005 A 
ATOM     25  C   UNL d   1      10.797   7.035  -5.845  0.00  0.00     0.037 A 
ENDBRANCH  17  20
ENDBRANCH   1  14
TORSDOF 6
