REMARK  6 active torsions:
REMARK  status: ('A' for Active; 'I' for Inactive)
REMARK    1  A    between atoms: C_4  and  C_5 
REMARK    2  A    between atoms: C_5  and  C_6 
REMARK    3  A    between atoms: C_11  and  O_12 
REMARK    4  A    between atoms: O_12  and  C_13 
REMARK    5  A    between atoms: C_13  and  C_14 
REMARK    6  A    between atoms: C_14  and  N_15 
ROOT
ATOM      1  C   UNL d   1       7.017   1.544 -14.447  0.00  0.00     0.004 A 
ATOM      2  C   UNL d   1       5.865   1.419 -13.640  0.00  0.00    -0.002 A 
ATOM      3  C   UNL d   1       5.443   2.491 -12.836  0.00  0.00    -0.000 A 
ATOM      4  C   UNL d   1       6.162   3.696 -12.834  0.00  0.00     0.002 A 
ATOM      5  C   UNL d   1       7.314   3.830 -13.632  0.00  0.00     0.024 A 
ATOM      6  C   UNL d   1       7.760   2.752 -14.441  0.00  0.00     0.090 A 
ENDROOT
BRANCH   6   7
ATOM      7  O   UNL d   1       8.887   2.817 -15.236  0.00  0.00    -0.329 OA
BRANCH   7   8
ATOM      8  C   UNL d   1       9.657   4.014 -15.240  0.00  0.00     0.184 C 
BRANCH   8   9
ATOM      9  C   UNL d   1      10.952   3.752 -16.027  0.00  0.00     0.283 C 
BRANCH   9  10
ATOM     10  N   UNL d   1      11.781   4.952 -16.093  0.00  0.00     0.140 N 
ATOM     11  C   UNL d   1      13.151   4.648 -16.483  0.00  0.00     0.250 C 
ATOM     12  C   UNL d   1      13.725   6.008 -16.886  0.00  0.00     0.037 C 
ATOM     13  C   UNL d   1      12.509   6.822 -17.317  0.00  0.00     0.037 C 
ATOM     14  C   UNL d   1      11.327   5.874 -17.128  0.00  0.00     0.250 C 
ENDBRANCH   9  10
ENDBRANCH   8   9
ENDBRANCH   7   8
ENDBRANCH   6   7
BRANCH   1  15
ATOM     15  C   UNL d   1       7.444   0.362 -15.309  0.00  0.00     0.055 C 
BRANCH  15  16
ATOM     16  C   UNL d   1       6.429   0.041 -16.394  0.00  0.00    -0.018 A 
ATOM     17  C   UNL d   1       6.498   0.693 -17.644  0.00  0.00    -0.004 A 
ATOM     18  C   UNL d   1       5.559   0.389 -18.650  0.00  0.00    -0.000 A 
ATOM     19  C   UNL d   1       4.549  -0.563 -18.409  0.00  0.00    -0.000 A 
ATOM     20  C   UNL d   1       4.478  -1.214 -17.163  0.00  0.00    -0.000 A 
ATOM     21  C   UNL d   1       5.419  -0.914 -16.159  0.00  0.00    -0.004 A 
ENDBRANCH  15  16
ENDBRANCH   1  15
TORSDOF 6
