REMARK  6 active torsions:
REMARK  status: ('A' for Active; 'I' for Inactive)
REMARK    1  A    between atoms: C_3  and  C_4 
REMARK    2  A    between atoms: C_3  and  C_20 
REMARK    3  A    between atoms: C_3  and  C_26 
REMARK    4  A    between atoms: C_4  and  C_5 
REMARK    5  A    between atoms: C_5  and  N_6 
REMARK    6  A    between atoms: N_9  and  C_10 
ROOT
ATOM      1  N   UNL d   1       9.455   8.391 -12.410  0.00  0.00    -0.196 NA
ATOM      2  C   UNL d   1       9.340   7.271 -12.305  0.00  0.00     0.080 C 
ATOM      3  C   UNL d   1       9.208   5.820 -12.078  0.00  0.00     0.118 C 
ENDROOT
BRANCH   3   4
ATOM      4  C   UNL d   1      10.191   4.975 -12.862  0.00  0.00     0.058 C 
BRANCH   4   5
ATOM      5  C   UNL d   1      10.269   5.190 -14.376  0.00  0.00     0.252 C 
BRANCH   5   6
ATOM      6  N   UNL d   1      11.053   4.133 -14.996  0.00  0.00     0.141 N 
ATOM      7  C   UNL d   1      10.143   3.388 -15.865  0.00  0.00     0.274 C 
ATOM      8  C   UNL d   1      10.875   2.215 -16.543  0.00  0.00     0.137 C 
ATOM      9  N   UNL d   1      12.045   2.702 -17.248  0.00  0.00    -0.344 N 
ATOM     10  C   UNL d   1      12.932   3.559 -16.489  0.00  0.00     0.137 C 
ATOM     11  C   UNL d   1      12.153   4.686 -15.801  0.00  0.00     0.274 C 
BRANCH   9  12
ATOM     12  C   UNL d   1      12.314   2.358 -18.614  0.00  0.00     0.068 A 
ATOM     13  C   UNL d   1      12.146   1.054 -19.125  0.00  0.00     0.084 A 
ATOM     14  C   UNL d   1      12.438   0.788 -20.485  0.00  0.00     0.070 A 
ATOM     15 CL   UNL d   1      11.647  -0.287 -18.127  0.00  0.00    -0.080 Cl
ATOM     16  C   UNL d   1      12.880   1.813 -21.334  0.00  0.00     0.012 A 
ATOM     17 CL   UNL d   1      12.270  -0.794 -21.154  0.00  0.00    -0.081 Cl
ATOM     18  C   UNL d   1      13.053   3.110 -20.819  0.00  0.00     0.002 A 
ATOM     19  C   UNL d   1      12.773   3.380 -19.466  0.00  0.00     0.018 A 
ENDBRANCH   9  12
ENDBRANCH   5   6
ENDBRANCH   4   5
ENDBRANCH   3   4
BRANCH   3  20
ATOM     20  C   UNL d   1       9.449   5.788 -10.593  0.00  0.00    -0.006 A 
ATOM     21  C   UNL d   1      10.310   6.714  -9.938  0.00  0.00    -0.003 A 
ATOM     22  C   UNL d   1      10.494   6.603  -8.548  0.00  0.00    -0.000 A 
ATOM     23  C   UNL d   1       9.855   5.621  -7.823  0.00  0.00    -0.000 A 
ATOM     24  C   UNL d   1       9.024   4.685  -8.478  0.00  0.00    -0.000 A 
ATOM     25  C   UNL d   1       8.807   4.802  -9.845  0.00  0.00    -0.003 A 
ENDBRANCH   3  20
BRANCH   3  26
ATOM     26  C   UNL d   1       7.813   5.380 -12.419  0.00  0.00    -0.006 C 
ATOM     27  C   UNL d   1       7.508   4.009 -12.639  0.00  0.00    -0.003 C 
ATOM     28  C   UNL d   1       6.186   3.600 -12.893  0.00  0.00    -0.000 C 
ATOM     29  C   UNL d   1       5.210   4.580 -13.058  0.00  0.00    -0.000 C 
ATOM     30  C   UNL d   1       5.517   5.932 -12.782  0.00  0.00    -0.000 C 
ATOM     31  C   UNL d   1       6.783   6.338 -12.450  0.00  0.00    -0.003 C 
ENDBRANCH   3  26
TORSDOF 6
