REMARK  6 active torsions:
REMARK  status: ('A' for Active; 'I' for Inactive)
REMARK       I    between atoms: C_2  and  N_3 
REMARK    1  A    between atoms: C_2  and  C_16 
REMARK    2  A    between atoms: N_3  and  C_4 
REMARK    3  A    between atoms: N_7  and  C_8 
REMARK    4  A    between atoms: C_8  and  C_9 
REMARK    5  A    between atoms: C_19  and  C_20 
REMARK    6  A    between atoms: C_23  and  C_24 
ROOT
ATOM      1  C   UNL d   1       9.060   6.453 -11.202  0.00  0.00     0.058 A 
ATOM      2  C   UNL d   1       9.526   7.768 -11.052  0.00  0.00     0.005 A 
ATOM      3  C   UNL d   1      10.040   8.195  -9.815  0.00  0.00     0.000 A 
ATOM      4  C   UNL d   1      10.096   7.324  -8.699  0.00  0.00     0.000 A 
ATOM      5  C   UNL d   1       9.611   6.004  -8.883  0.00  0.00     0.000 A 
ATOM      6  C   UNL d   1       9.093   5.571 -10.113  0.00  0.00     0.005 A 
ENDROOT
BRANCH   1   7
ATOM      7  C   UNL d   1       8.496   6.010 -12.502  0.00  0.00     0.275 C 
ATOM      8  O   UNL d   1       7.852   6.785 -13.203  0.00  0.00    -0.266 OA
ATOM      9  N   UNL d   1       8.837   4.787 -12.890  0.00  0.00    -0.234 NA
BRANCH   9  10
ATOM     10  C   UNL d   1       8.656   4.270 -14.238  0.00  0.00     0.142 C 
ATOM     11  C   UNL d   1       8.225   2.809 -14.218  0.00  0.00     0.275 C 
ATOM     12  N   UNL d   1       8.796   2.252 -15.431  0.00  0.00     0.143 N 
ATOM     13  C   UNL d   1      10.143   2.799 -15.440  0.00  0.00     0.253 C 
ATOM     14  C   UNL d   1       9.941   4.272 -15.065  0.00  0.00     0.062 C 
BRANCH  12  15
ATOM     15  C   UNL d   1       8.805   0.791 -15.401  0.00  0.00     0.277 C 
BRANCH  15  16
ATOM     16  C   UNL d   1       7.415   0.203 -15.527  0.00  0.00     0.011 A 
ATOM     17  C   UNL d   1       6.709  -0.224 -14.383  0.00  0.00    -0.002 A 
ATOM     18  C   UNL d   1       5.434  -0.805 -14.518  0.00  0.00    -0.000 A 
ATOM     19  C   UNL d   1       4.856  -0.966 -15.790  0.00  0.00    -0.000 A 
ATOM     20  C   UNL d   1       5.557  -0.542 -16.935  0.00  0.00    -0.000 A 
ATOM     21  C   UNL d   1       6.837   0.038 -16.804  0.00  0.00    -0.002 A 
ENDBRANCH  15  16
ENDBRANCH  12  15
ENDBRANCH   9  10
ENDBRANCH   1   7
BRANCH   4  22
ATOM     22  C   UNL d   1      10.630   7.778  -7.382  0.00  0.00    -0.000 A 
ATOM     23  C   UNL d   1      11.248   9.043  -7.218  0.00  0.00    -0.000 A 
ATOM     24  C   UNL d   1      11.734   9.464  -5.971  0.00  0.00     0.004 A 
ATOM     25  C   UNL d   1      11.628   8.614  -4.855  0.00  0.00     0.071 A 
ATOM     26  C   UNL d   1      11.060   7.345  -4.990  0.00  0.00     0.004 A 
ATOM     27  C   UNL d   1      10.546   6.955  -6.234  0.00  0.00    -0.000 A 
BRANCH  25  28
ATOM     28  C   UNL d   1      12.196   9.052  -3.541  0.00  0.00     0.419 C 
ATOM     29  F   UNL d   1      12.416   8.067  -2.670  0.00  0.00    -0.166 F 
ATOM     30  F   UNL d   1      13.339   9.616  -3.872  0.00  0.00    -0.166 F 
ATOM     31  F   UNL d   1      11.426   9.979  -2.993  0.00  0.00    -0.166 F 
ENDBRANCH  25  28
ENDBRANCH   4  22
TORSDOF 6
