REMARK  19 active torsions:
REMARK  status: ('A' for Active; 'I' for Inactive)
REMARK    1  A    between atoms: C_2  and  C_3 
REMARK    2  A    between atoms: C_2  and  O_33 
REMARK    3  A    between atoms: C_3  and  C_4 
REMARK    4  A    between atoms: C_4  and  C_5 
REMARK    5  A    between atoms: C_5  and  O_7 
REMARK    6  A    between atoms: O_7  and  C_8 
REMARK    7  A    between atoms: C_8  and  C_9 
REMARK    8  A    between atoms: N_18  and  C_19 
REMARK    9  A    between atoms: C_19  and  C_20 
REMARK   10  A    between atoms: C_20  and  C_21 
REMARK   11  A    between atoms: C_21  and  C_22 
REMARK   12  A    between atoms: C_22  and  C_24 
REMARK   13  A    between atoms: O_33  and  C_34 
REMARK   14  A    between atoms: C_34  and  C_35 
REMARK   15  A    between atoms: N_44  and  C_45 
REMARK   16  A    between atoms: C_45  and  C_46 
REMARK   17  A    between atoms: C_46  and  C_47 
REMARK   18  A    between atoms: C_47  and  C_48 
REMARK   19  A    between atoms: C_48  and  C_50 
ROOT
ATOM      1  C   UNL d   1      10.837   5.382 -15.447  0.00  0.00     0.106 C 
ENDROOT
BRANCH   1   2
ATOM      2  C   UNL d   1       9.669   5.187 -14.537  0.00  0.00     0.273 C 
ATOM      3  O   UNL d   1       8.548   5.170 -14.995  0.00  0.00    -0.264 OA
BRANCH   2   4
ATOM      4  O   UNL d   1       9.877   4.897 -13.233  0.00  0.00    -0.302 OA
BRANCH   4   5
ATOM      5  C   UNL d   1       8.749   4.846 -12.345  0.00  0.00     0.124 C 
ATOM      6  C   UNL d   1       7.967   6.214 -12.178  0.00  0.00     0.068 C 
ATOM      7  C   UNL d   1       8.875   7.345 -11.654  0.00  0.00     0.253 C 
ATOM      8  N   UNL d   1       9.342   6.940 -10.317  0.00  0.00     0.137 N 
ATOM      9  C   UNL d   1      10.162   5.755 -10.451  0.00  0.00     0.253 C 
ATOM     10  C   UNL d   1       9.386   4.541 -10.996  0.00  0.00     0.068 C 
BRANCH   8  11
ATOM     11  C   UNL d   1      10.127   8.058  -9.788  0.00  0.00     0.251 C 
BRANCH  11  12
ATOM     12  C   UNL d   1      11.043   7.627  -8.615  0.00  0.00     0.043 C 
BRANCH  12  13
ATOM     13  C   UNL d   1      11.894   8.785  -8.026  0.00  0.00     0.071 C 
BRANCH  13  14
ATOM     14  C   UNL d   1      11.413   9.317  -6.664  0.00  0.00     0.173 C 
ATOM     15  O   UNL d   1      10.872  10.396  -6.552  0.00  0.00    -0.291 OA
BRANCH  14  16
ATOM     16  C   UNL d   1      11.695   8.527  -5.467  0.00  0.00     0.035 A 
ATOM     17  C   UNL d   1      12.516   9.100  -4.461  0.00  0.00     0.005 A 
ATOM     18  C   UNL d   1      12.738   8.428  -3.241  0.00  0.00     0.030 A 
ATOM     19  C   UNL d   1      12.245   7.122  -3.082  0.00  0.00     0.140 A 
ATOM     20  C   UNL d   1      11.455   6.567  -4.103  0.00  0.00     0.030 A 
ATOM     21  F   UNL d   1      12.582   6.394  -1.982  0.00  0.00    -0.204 F 
ATOM     22  C   UNL d   1      11.120   7.246  -5.274  0.00  0.00     0.005 A 
ENDBRANCH  14  16
ENDBRANCH  13  14
ENDBRANCH  12  13
ENDBRANCH  11  12
ENDBRANCH   8  11
BRANCH   5  23
ATOM     23  C   UNL d   1       7.773   3.724 -12.829  0.00  0.00     0.003 A 
ATOM     24  C   UNL d   1       8.203   2.712 -13.747  0.00  0.00    -0.001 A 
ATOM     25  C   UNL d   1       7.348   1.687 -14.200  0.00  0.00     0.011 A 
ATOM     26  C   UNL d   1       6.042   1.607 -13.687  0.00  0.00     0.058 A 
ATOM     27  C   UNL d   1       5.574   2.613 -12.794  0.00  0.00     0.011 A 
ATOM     28 CL   UNL d   1       5.046   0.244 -14.109  0.00  0.00    -0.082 Cl
ATOM     29  C   UNL d   1       6.430   3.658 -12.377  0.00  0.00    -0.001 A 
ENDBRANCH   5  23
ENDBRANCH   4   5
ENDBRANCH   2   4
ENDBRANCH   1   2
BRANCH   1  30
ATOM     30  C   UNL d   1      10.367   5.753 -16.924  0.00  0.00     0.106 C 
BRANCH  30  31
ATOM     31  C   UNL d   1      11.317   5.209 -17.976  0.00  0.00     0.273 C 
ATOM     32  O   UNL d   1      11.643   5.834 -18.989  0.00  0.00    -0.264 OA
BRANCH  31  33
ATOM     33  O   UNL d   1      11.743   4.003 -17.588  0.00  0.00    -0.302 OA
BRANCH  33  34
ATOM     34  C   UNL d   1      12.733   3.248 -18.249  0.00  0.00     0.124 C 
ATOM     35  C   UNL d   1      12.128   2.601 -19.513  0.00  0.00     0.068 C 
ATOM     36  C   UNL d   1      10.922   1.700 -19.193  0.00  0.00     0.253 C 
ATOM     37  N   UNL d   1      11.326   0.627 -18.275  0.00  0.00     0.137 N 
ATOM     38  C   UNL d   1      11.783   1.221 -17.018  0.00  0.00     0.253 C 
ATOM     39  C   UNL d   1      12.995   2.093 -17.284  0.00  0.00     0.068 C 
BRANCH  37  40
ATOM     40  C   UNL d   1      10.182  -0.233 -17.964  0.00  0.00     0.251 C 
BRANCH  40  41
ATOM     41  C   UNL d   1       9.682  -0.987 -19.207  0.00  0.00     0.043 C 
BRANCH  41  42
ATOM     42  C   UNL d   1       8.549  -1.977 -18.902  0.00  0.00     0.071 C 
BRANCH  42  43
ATOM     43  C   UNL d   1       7.180  -1.307 -18.672  0.00  0.00     0.173 C 
ATOM     44  O   UNL d   1       7.120  -0.115 -18.360  0.00  0.00    -0.291 OA
BRANCH  43  45
ATOM     45  C   UNL d   1       5.971  -2.150 -18.861  0.00  0.00     0.035 A 
ATOM     46  C   UNL d   1       6.053  -3.518 -19.224  0.00  0.00     0.005 A 
ATOM     47  C   UNL d   1       4.881  -4.274 -19.412  0.00  0.00     0.030 A 
ATOM     48  C   UNL d   1       3.619  -3.678 -19.229  0.00  0.00     0.140 A 
ATOM     49  C   UNL d   1       3.531  -2.326 -18.848  0.00  0.00     0.030 A 
ATOM     50  F   UNL d   1       2.494  -4.404 -19.427  0.00  0.00    -0.204 F 
ATOM     51  C   UNL d   1       4.699  -1.563 -18.674  0.00  0.00     0.005 A 
ENDBRANCH  43  45
ENDBRANCH  42  43
ENDBRANCH  41  42
ENDBRANCH  40  41
ENDBRANCH  37  40
BRANCH  34  52
ATOM     52  C   UNL d   1      14.024   4.061 -18.481  0.00  0.00     0.003 A 
ATOM     53  C   UNL d   1      14.592   4.789 -17.411  0.00  0.00    -0.001 A 
ATOM     54  C   UNL d   1      15.751   5.576 -17.614  0.00  0.00     0.011 A 
ATOM     55  C   UNL d   1      16.341   5.639 -18.890  0.00  0.00     0.058 A 
ATOM     56  C   UNL d   1      15.790   4.899 -19.956  0.00  0.00     0.011 A 
ATOM     57 CL   UNL d   1      17.788   6.536 -19.123  0.00  0.00    -0.082 Cl
ATOM     58  C   UNL d   1      14.635   4.111 -19.747  0.00  0.00    -0.001 A 
ENDBRANCH  34  52
ENDBRANCH  33  34
ENDBRANCH  31  33
ENDBRANCH  30  31
ENDBRANCH   1  30
TORSDOF 19
