REMARK  4 active torsions:
REMARK  status: ('A' for Active; 'I' for Inactive)
REMARK    1  A    between atoms: N_2  and  C_3 
REMARK    2  A    between atoms: C_3  and  C_4 
REMARK    3  A    between atoms: N_11  and  S_12 
REMARK    4  A    between atoms: S_12  and  C_15 
ROOT
ATOM      1  C   UNL d   1      11.692   8.501  -7.732  0.00  0.00     0.062 A 
ATOM      2  C   UNL d   1      11.330   7.433  -6.591  0.00  0.00     0.033 A 
ATOM      3  C   UNL d   1      10.580   6.750  -7.637  0.00  0.00    -0.026 A 
ATOM      4  C   UNL d   1       9.701   5.737  -7.768  0.00  0.00    -0.003 C 
ATOM      5  C   UNL d   1       9.149   5.480  -9.021  0.00  0.00     0.018 A 
ATOM      6  C   UNL d   1       8.288   4.456  -9.457  0.00  0.00     0.021 A 
ATOM      7  C   UNL d   1       8.066   4.746 -10.754  0.00  0.00     0.092 A 
ATOM      8  N   UNL d   1       8.731   5.882 -11.162  0.00  0.00    -0.231 N 
ATOM      9  C   UNL d   1       9.452   6.392 -10.107  0.00  0.00     0.075 A 
ATOM     10  C   UNL d   1      10.309   7.529  -9.926  0.00  0.00     0.014 C 
ATOM     11  C   UNL d   1      10.850   7.670  -8.651  0.00  0.00    -0.023 A 
ENDROOT
BRANCH   8  12
ATOM     12  S   UNL d   1       8.594   6.539 -12.717  0.00  0.00     0.271 S 
ATOM     13  O   UNL d   1       7.206   6.976 -12.806  0.00  0.00    -0.200 OA
ATOM     14  O   UNL d   1       9.667   7.550 -12.827  0.00  0.00    -0.200 OA
BRANCH  12  15
ATOM     15  C   UNL d   1       8.988   5.151 -13.834  0.00  0.00     0.104 A 
ATOM     16  C   UNL d   1       8.096   4.057 -14.051  0.00  0.00     0.012 A 
ATOM     17  C   UNL d   1       8.511   2.983 -14.890  0.00  0.00     0.001 A 
ATOM     18  C   UNL d   1       6.784   4.001 -13.510  0.00  0.00     0.001 C 
ATOM     19  C   UNL d   1       9.752   3.029 -15.552  0.00  0.00     0.000 A 
ATOM     20  C   UNL d   1       7.663   1.872 -15.094  0.00  0.00     0.000 C 
ATOM     21  C   UNL d   1      10.610   4.127 -15.367  0.00  0.00     0.001 A 
ATOM     22  C   UNL d   1      10.236   5.167 -14.499  0.00  0.00     0.013 A 
ATOM     23  C   UNL d   1       6.420   1.785 -14.445  0.00  0.00     0.000 C 
ATOM     24  C   UNL d   1       5.988   2.853 -13.637  0.00  0.00     0.000 C 
ENDBRANCH  12  15
ENDBRANCH   8  12
BRANCH   1  25
ATOM     25  C   UNL d   1      11.189   9.909  -7.611  0.00  0.00     0.295 C 
BRANCH  25  26
ATOM     26  N   UNL d   1      11.811  10.638  -6.486  0.00  0.00     0.342 N 
ATOM     27  C   UNL d   1      11.368  10.108  -5.226  0.00  0.00     0.328 C 
ENDBRANCH  25  26
ENDBRANCH   1  25
TORSDOF 4
