REMARK  9 active torsions:
REMARK  status: ('A' for Active; 'I' for Inactive)
REMARK    1  A    between atoms: O_2  and  C_3 
REMARK    2  A    between atoms: C_8  and  N_9 
REMARK    3  A    between atoms: N_13  and  C_14 
REMARK    4  A    between atoms: C_14  and  C_15 
REMARK    5  A    between atoms: C_15  and  C_16 
REMARK    6  A    between atoms: C_16  and  C_17 
REMARK    7  A    between atoms: C_17  and  N_18 
REMARK       I    between atoms: N_18  and  C_19 
REMARK    8  A    between atoms: C_19  and  C_21 
REMARK    9  A    between atoms: C_24  and  C_25 
ROOT
ATOM      1  C   UNL d   1       9.256   3.386 -13.821  0.00  0.00     0.037 C 
ENDROOT
BRANCH   1   2
ATOM      2  C   UNL d   1       9.878   3.985 -15.093  0.00  0.00     0.250 C 
BRANCH   2   3
ATOM      3  N   UNL d   1       9.605   3.168 -16.272  0.00  0.00     0.139 N 
ATOM      4  C   UNL d   1       9.789   4.008 -17.464  0.00  0.00     0.252 C 
ATOM      5  C   UNL d   1       9.180   3.364 -18.720  0.00  0.00     0.059 C 
ATOM      6  C   UNL d   1      10.140   2.444 -19.497  0.00  0.00     0.104 C 
ATOM      7  N   UNL d   1      10.789   1.435 -18.664  0.00  0.00    -0.345 N 
ATOM      8  C   UNL d   1      10.201   1.010 -17.402  0.00  0.00     0.137 C 
ATOM      9  C   UNL d   1      10.513   2.013 -16.282  0.00  0.00     0.274 C 
BRANCH   7  10
ATOM     10  C   UNL d   1      12.059   0.950 -19.028  0.00  0.00     0.079 A 
ATOM     11  C   UNL d   1      13.166   1.819 -19.220  0.00  0.00     0.110 A 
ATOM     12  C   UNL d   1      14.404   1.267 -19.642  0.00  0.00     0.026 A 
ATOM     13  C   UNL d   1      14.547  -0.114 -19.854  0.00  0.00     0.002 A 
ATOM     14  C   UNL d   1      13.458  -0.970 -19.637  0.00  0.00     0.002 A 
ATOM     15  C   UNL d   1      12.222  -0.440 -19.223  0.00  0.00     0.019 A 
BRANCH  11  16
ATOM     16  O   UNL d   1      12.992   3.166 -18.963  0.00  0.00    -0.327 OA
ATOM     17  C   UNL d   1      14.106   4.035 -19.110  0.00  0.00     0.181 C 
ENDBRANCH  11  16
ENDBRANCH   7  10
ENDBRANCH   2   3
ENDBRANCH   1   2
BRANCH   1  18
ATOM     18  C   UNL d   1       9.582   4.208 -12.579  0.00  0.00     0.029 C 
BRANCH  18  19
ATOM     19  C   UNL d   1       8.830   5.553 -12.505  0.00  0.00     0.129 C 
BRANCH  19  20
ATOM     20  N   UNL d   1       9.254   6.353 -11.367  0.00  0.00    -0.234 NA
ATOM     21  C   UNL d   1       9.173   5.998 -10.077  0.00  0.00     0.281 C 
ATOM     22  O   UNL d   1       8.670   4.939  -9.696  0.00  0.00    -0.265 OA
BRANCH  21  23
ATOM     23  C   UNL d   1       9.789   6.946  -9.129  0.00  0.00     0.087 A 
ATOM     24  S   UNL d   1       9.889   6.425  -7.470  0.00  0.00    -0.082 SA
ATOM     25  C   UNL d   1      10.666   7.909  -6.993  0.00  0.00     0.030 A 
ATOM     26  C   UNL d   1      10.792   8.764  -8.063  0.00  0.00     0.007 A 
ATOM     27  C   UNL d   1      10.294   8.214  -9.282  0.00  0.00     0.012 A 
BRANCH  25  28
ATOM     28  C   UNL d   1      11.069   8.100  -5.602  0.00  0.00     0.006 A 
ATOM     29  C   UNL d   1      11.457   7.002  -4.798  0.00  0.00     0.001 A 
ATOM     30  C   UNL d   1      11.864   7.190  -3.462  0.00  0.00     0.000 A 
ATOM     31  C   UNL d   1      11.883   8.486  -2.911  0.00  0.00     0.000 A 
ATOM     32  C   UNL d   1      11.496   9.586  -3.697  0.00  0.00     0.000 A 
ATOM     33  C   UNL d   1      11.101   9.395  -5.038  0.00  0.00     0.001 A 
ENDBRANCH  25  28
ENDBRANCH  21  23
ENDBRANCH  19  20
ENDBRANCH  18  19
ENDBRANCH   1  18
TORSDOF 9
