REMARK  10 active torsions:
REMARK  status: ('A' for Active; 'I' for Inactive)
REMARK    1  A    between atoms: C_3  and  N_8 
REMARK    2  A    between atoms: C_3  and  C_4 
REMARK    3  A    between atoms: C_4  and  N_5 
REMARK    4  A    between atoms: N_8  and  C_9 
REMARK    5  A    between atoms: C_9  and  C_10 
REMARK    6  A    between atoms: C_10  and  S_11 
REMARK    7  A    between atoms: S_11  and  C_12 
REMARK    8  A    between atoms: C_12  and  C_13 
REMARK    9  A    between atoms: C_16  and  C_17 
REMARK   10  A    between atoms: C_17  and  N_18 
ROOT
ATOM      1  S   UNL d   1       9.432   5.194 -10.218  0.00  0.00    -0.131 SA
ENDROOT
BRANCH   1   2
ATOM      2  C   UNL d   1       8.053   5.076 -11.382  0.00  0.00     0.084 C 
BRANCH   2   3
ATOM      3  C   UNL d   1       8.558   5.147 -12.832  0.00  0.00     0.139 C 
BRANCH   3   4
ATOM      4  N   UNL d   1       8.506   3.842 -13.477  0.00  0.00    -0.254 NA
BRANCH   4   5
ATOM      5  C   UNL d   1       9.099   3.438 -14.677  0.00  0.00     0.160 C 
ATOM      6  N   UNL d   1       8.875   2.336 -15.305  0.00  0.00    -0.253 NA
ATOM      7  C   UNL d   1       7.939   1.383 -14.738  0.00  0.00     0.153 C 
BRANCH   5   8
ATOM      8  C   UNL d   1      10.101   4.418 -15.295  0.00  0.00     0.240 C 
BRANCH   8   9
ATOM      9  N   UNL d   1      11.461   3.878 -14.977  0.00  0.00    -0.130 N 
ATOM     10  O   UNL d   1      11.896   2.973 -15.675  0.00  0.00    -0.535 OA
ATOM     11  O   UNL d   1      12.069   4.397 -14.044  0.00  0.00    -0.535 OA
ENDBRANCH   8   9
ENDBRANCH   5   8
ENDBRANCH   4   5
ENDBRANCH   3   4
ENDBRANCH   2   3
ENDBRANCH   1   2
BRANCH   1  12
ATOM     12  C   UNL d   1       9.076   6.806  -9.457  0.00  0.00     0.109 C 
BRANCH  12  13
ATOM     13  C   UNL d   1      10.053   7.078  -8.387  0.00  0.00     0.088 A 
ATOM     14  O   UNL d   1      10.470   8.362  -8.195  0.00  0.00    -0.313 OA
ATOM     15  C   UNL d   1      11.332   8.342  -7.134  0.00  0.00     0.111 A 
ATOM     16  C   UNL d   1      11.462   7.052  -6.632  0.00  0.00     0.024 A 
ATOM     17  C   UNL d   1      10.602   6.264  -7.447  0.00  0.00     0.023 A 
BRANCH  15  18
ATOM     18  C   UNL d   1      11.902   9.665  -6.715  0.00  0.00     0.301 C 
BRANCH  18  19
ATOM     19  N   UNL d   1      11.915   9.952  -5.277  0.00  0.00     0.148 N 
ATOM     20  C   UNL d   1      12.880   9.134  -4.535  0.00  0.00     0.286 C 
ATOM     21  C   UNL d   1      10.604   9.782  -4.686  0.00  0.00     0.286 C 
ENDBRANCH  18  19
ENDBRANCH  15  18
ENDBRANCH  12  13
ENDBRANCH   1  12
TORSDOF 10
