REMARK  2 active torsions:
REMARK  status: ('A' for Active; 'I' for Inactive)
REMARK    1  A    between atoms: C_7  and  N_8 
REMARK    2  A    between atoms: C_13  and  S_14 
ROOT
ATOM      1  N   UNL d   1       6.782   1.497 -14.981  0.00  0.00    -0.278 N 
ATOM      2  C   UNL d   1       7.004   1.374 -16.320  0.00  0.00     0.264 C 
ATOM      3  O   UNL d   1       7.669   2.153 -16.998  0.00  0.00    -0.267 OA
ATOM      4  C   UNL d   1       6.326   0.203 -16.984  0.00  0.00     0.074 A 
ATOM      5  C   UNL d   1       6.714  -0.210 -18.276  0.00  0.00     0.020 A 
ATOM      6  C   UNL d   1       6.015  -1.242 -18.933  0.00  0.00     0.117 A 
ATOM      7  C   UNL d   1       4.907  -1.859 -18.294  0.00  0.00     0.071 A 
ATOM      8 CL   UNL d   1       3.949  -3.079 -19.052  0.00  0.00    -0.082 Cl
ATOM      9  C   UNL d   1       4.541  -1.457 -16.993  0.00  0.00     0.031 A 
ATOM     10  C   UNL d   1       5.254  -0.433 -16.336  0.00  0.00     0.084 A 
ATOM     11  N   UNL d   1       4.884  -0.042 -15.044  0.00  0.00    -0.249 NA
ATOM     12  C   UNL d   1       5.963   0.516 -14.220  0.00  0.00     0.193 C 
ATOM     13  C   UNL d   1       6.841  -0.597 -13.641  0.00  0.00     0.052 C 
ENDROOT
BRANCH   1  14
ATOM     14  C   UNL d   1       7.337   2.598 -14.256  0.00  0.00     0.060 A 
ATOM     15  C   UNL d   1       8.740   2.758 -14.089  0.00  0.00    -0.006 A 
ATOM     16  C   UNL d   1       9.746   1.754 -14.630  0.00  0.00     0.033 C 
ATOM     17  C   UNL d   1       9.224   3.864 -13.352  0.00  0.00    -0.003 A 
ATOM     18  C   UNL d   1       8.338   4.792 -12.772  0.00  0.00    -0.000 A 
ATOM     19  C   UNL d   1       6.951   4.618 -12.911  0.00  0.00     0.002 A 
ATOM     20  C   UNL d   1       6.454   3.524 -13.644  0.00  0.00     0.017 A 
ENDBRANCH   1  14
BRANCH   6  21
ATOM     21  S   UNL d   1       6.576  -1.683 -20.591  0.00  0.00     0.303 S 
ATOM     22  N   UNL d   1       5.462  -0.841 -21.593  0.00  0.00    -0.043 N 
ATOM     23  O   UNL d   1       7.894  -1.098 -20.827  0.00  0.00    -0.197 OA
ATOM     24  O   UNL d   1       6.357  -3.128 -20.815  0.00  0.00    -0.197 OA
ENDBRANCH   6  21
TORSDOF 2
