REMARK  6 active torsions:
REMARK  status: ('A' for Active; 'I' for Inactive)
REMARK    1  A    between atoms: N_12  and  C_13 
REMARK    2  A    between atoms: C_13  and  C_14 
REMARK    3  A    between atoms: C_14  and  C_15 
REMARK    4  A    between atoms: C_15  and  C_16 
REMARK    5  A    between atoms: C_16  and  N_17 
REMARK    6  A    between atoms: N_20  and  C_21 
ROOT
ATOM      1  N   UNL d   1       7.312   5.396 -12.831  0.00  0.00     0.141 N 
ATOM      2  C   UNL d   1       7.526   6.782 -12.396  0.00  0.00     0.274 C 
ATOM      3  C   UNL d   1       8.900   6.959 -11.696  0.00  0.00     0.137 C 
ATOM      4  N   UNL d   1       9.075   5.971 -10.630  0.00  0.00    -0.343 N 
ATOM      5  C   UNL d   1       8.662   4.597 -10.883  0.00  0.00     0.137 C 
ATOM      6  C   UNL d   1       7.305   4.558 -11.629  0.00  0.00     0.274 C 
ENDROOT
BRANCH   1   7
ATOM      7  C   UNL d   1       8.283   4.990 -13.842  0.00  0.00     0.251 C 
BRANCH   7   8
ATOM      8  C   UNL d   1       8.016   3.597 -14.415  0.00  0.00     0.037 C 
BRANCH   8   9
ATOM      9  C   UNL d   1       9.052   3.295 -15.497  0.00  0.00     0.027 C 
BRANCH   9  10
ATOM     10  C   UNL d   1       8.725   1.966 -16.183  0.00  0.00     0.112 C 
BRANCH  10  11
ATOM     11  N   UNL d   1       9.641   1.707 -17.287  0.00  0.00    -0.271 N 
ATOM     12  C   UNL d   1      10.766   0.998 -17.156  0.00  0.00     0.240 A 
ATOM     13  O   UNL d   1      11.143   0.443 -16.122  0.00  0.00    -0.272 OA
ATOM     14  C   UNL d   1      11.540   0.929 -18.468  0.00  0.00     0.093 A 
ATOM     15  C   UNL d   1      10.619   1.716 -19.439  0.00  0.00     0.093 A 
ATOM     16  C   UNL d   1      11.600  -0.479 -19.121  0.00  0.00     0.031 C 
ATOM     17  C   UNL d   1      10.269   0.651 -20.516  0.00  0.00     0.031 C 
ATOM     18  C   UNL d   1       9.459   2.133 -18.544  0.00  0.00     0.240 A 
ATOM     19  C   UNL d   1      11.552   0.351 -21.262  0.00  0.00    -0.030 C 
ATOM     20  C   UNL d   1      10.172  -0.633 -19.675  0.00  0.00     0.010 C 
ATOM     21  C   UNL d   1      12.348  -0.325 -20.428  0.00  0.00    -0.030 C 
ATOM     22  O   UNL d   1       8.492   2.776 -18.965  0.00  0.00    -0.272 OA
ENDBRANCH  10  11
ENDBRANCH   9  10
ENDBRANCH   8   9
ENDBRANCH   7   8
ENDBRANCH   1   7
BRANCH   4  23
ATOM     23  C   UNL d   1       9.370   6.386  -9.312  0.00  0.00     0.081 A 
ATOM     24  C   UNL d   1      10.483   7.193  -9.042  0.00  0.00     0.132 A 
ATOM     25  C   UNL d   1      10.770   7.590  -7.710  0.00  0.00     0.118 A 
ATOM     26  O   UNL d   1      11.303   7.562 -10.078  0.00  0.00    -0.325 OA
ATOM     27  C   UNL d   1       9.938   7.190  -6.653  0.00  0.00     0.026 A 
ATOM     28  O   UNL d   1      11.867   8.345  -7.423  0.00  0.00    -0.326 OA
ATOM     29  C   UNL d   1       8.829   6.391  -6.928  0.00  0.00     0.004 A 
ATOM     30  C   UNL d   1       8.557   5.983  -8.251  0.00  0.00     0.019 A 
ATOM     31  C   UNL d   1      12.426   8.960  -8.553  0.00  0.00     0.181 C 
ATOM     32  C   UNL d   1      12.597   8.018  -9.721  0.00  0.00     0.182 C 
ENDBRANCH   4  23
TORSDOF 6
