REMARK  9 active torsions:
REMARK  status: ('A' for Active; 'I' for Inactive)
REMARK    1  A    between atoms: C_2  and  C_3 
REMARK    2  A    between atoms: C_3  and  N_4 
REMARK    3  A    between atoms: N_4  and  C_5 
REMARK    4  A    between atoms: N_4  and  C_21 
REMARK    5  A    between atoms: C_5  and  C_6 
REMARK    6  A    between atoms: C_6  and  C_7 
REMARK    7  A    between atoms: C_7  and  C_8 
REMARK    8  A    between atoms: C_8  and  N_9 
REMARK    9  A    between atoms: N_12  and  C_13 
ROOT
ATOM      1  C   UNL d   1       9.225   4.986 -13.031  0.00  0.00     0.250 C 
ENDROOT
BRANCH   1   2
ATOM      2  N   UNL d   1       9.297   4.019 -14.143  0.00  0.00     0.135 N 
BRANCH   2   3
ATOM      3  C   UNL d   1       9.405   4.714 -15.430  0.00  0.00     0.250 C 
BRANCH   3   4
ATOM      4  C   UNL d   1      10.817   5.283 -15.659  0.00  0.00     0.035 C 
ATOM      5  C   UNL d   1      11.858   4.174 -15.867  0.00  0.00     0.002 C 
ENDBRANCH   3   4
ENDBRANCH   2   3
BRANCH   2   6
ATOM      6  C   UNL d   1       8.232   3.001 -14.086  0.00  0.00     0.224 C 
ATOM      7  C   UNL d   1       8.146   2.084 -15.326  0.00  0.00     0.059 C 
ATOM      8  C   UNL d   1       6.998   1.088 -15.270  0.00  0.00    -0.022 A 
ATOM      9  C   UNL d   1       5.928   1.233 -14.352  0.00  0.00    -0.026 A 
ATOM     10  C   UNL d   1       6.952   0.065 -16.237  0.00  0.00     0.023 A 
ATOM     11  C   UNL d   1       5.869   2.394 -13.368  0.00  0.00     0.028 C 
ATOM     12  C   UNL d   1       4.854   0.320 -14.380  0.00  0.00    -0.003 A 
ATOM     13  C   UNL d   1       6.825   3.541 -13.700  0.00  0.00     0.038 C 
ATOM     14  C   UNL d   1       4.812  -0.701 -15.349  0.00  0.00     0.027 A 
ATOM     15  C   UNL d   1       5.855  -0.820 -16.288  0.00  0.00     0.131 A 
ATOM     16  O   UNL d   1       5.808  -1.791 -17.248  0.00  0.00    -0.190 OA
ENDBRANCH   2   6
ENDBRANCH   1   2
BRANCH   1  17
ATOM     17  C   UNL d   1       9.046   4.350 -11.637  0.00  0.00     0.037 C 
BRANCH  17  18
ATOM     18  C   UNL d   1       8.623   5.358 -10.562  0.00  0.00     0.037 C 
BRANCH  18  19
ATOM     19  C   UNL d   1       9.781   6.297 -10.189  0.00  0.00     0.251 C 
BRANCH  19  20
ATOM     20  N   UNL d   1       9.542   7.083  -8.985  0.00  0.00     0.141 N 
ATOM     21  C   UNL d   1       9.446   6.211  -7.806  0.00  0.00     0.274 C 
ATOM     22  C   UNL d   1       9.167   7.051  -6.555  0.00  0.00     0.137 C 
ATOM     23  N   UNL d   1      10.183   8.080  -6.407  0.00  0.00    -0.344 N 
ATOM     24  C   UNL d   1      10.419   8.912  -7.569  0.00  0.00     0.137 C 
ATOM     25  C   UNL d   1      10.665   8.016  -8.802  0.00  0.00     0.274 C 
BRANCH  23  26
ATOM     26  C   UNL d   1      10.969   8.195  -5.246  0.00  0.00     0.056 A 
ATOM     27  C   UNL d   1      11.482   7.052  -4.607  0.00  0.00     0.017 A 
ATOM     28  C   UNL d   1      12.213   7.164  -3.404  0.00  0.00     0.002 A 
ATOM     29  C   UNL d   1      12.404   8.438  -2.824  0.00  0.00     0.000 A 
ATOM     30  C   UNL d   1      11.870   9.565  -3.441  0.00  0.00     0.002 A 
ATOM     31  C   UNL d   1      11.158   9.463  -4.661  0.00  0.00     0.017 A 
ENDBRANCH  23  26
ENDBRANCH  19  20
ENDBRANCH  18  19
ENDBRANCH  17  18
ENDBRANCH   1  17
TORSDOF 9
