REMARK  8 active torsions:
REMARK  status: ('A' for Active; 'I' for Inactive)
REMARK    1  A    between atoms: C_2  and  C_4 
REMARK    2  A    between atoms: N_6  and  C_7 
REMARK    3  A    between atoms: C_11  and  O_12 
REMARK    4  A    between atoms: O_12  and  C_13 
REMARK       I    between atoms: C_13  and  N_15 
REMARK    5  A    between atoms: N_15  and  C_16 
REMARK    6  A    between atoms: C_16  and  C_17 
REMARK    7  A    between atoms: C_17  and  N_18 
REMARK    8  A    between atoms: N_21  and  C_22 
ROOT
ATOM      1  C   UNL d   1       8.734   4.586 -12.130  0.00  0.00     0.388 C 
ATOM      2  O   UNL d   1       9.825   4.064 -11.917  0.00  0.00    -0.236 OA
ATOM      3  N   UNL d   1       8.162   5.590 -11.379  0.00  0.00    -0.210 NA
ENDROOT
BRANCH   1   4
ATOM      4  O   UNL d   1       7.944   4.302 -13.169  0.00  0.00    -0.258 OA
BRANCH   4   5
ATOM      5  C   UNL d   1       8.426   3.574 -14.237  0.00  0.00     0.106 A 
ATOM      6  C   UNL d   1       9.727   3.756 -14.774  0.00  0.00     0.025 A 
ATOM      7  C   UNL d   1      10.154   3.003 -15.879  0.00  0.00     0.004 A 
ATOM      8  C   UNL d   1       9.271   2.096 -16.486  0.00  0.00     0.019 A 
ATOM      9  C   UNL d   1       7.967   1.921 -15.981  0.00  0.00     0.086 A 
ATOM     10  C   UNL d   1       7.555   2.644 -14.833  0.00  0.00     0.044 A 
BRANCH   9  11
ATOM     11  N   UNL d   1       7.069   1.039 -16.614  0.00  0.00    -0.209 N 
ATOM     12  C   UNL d   1       6.127   0.221 -16.030  0.00  0.00     0.128 A 
ATOM     13  C   UNL d   1       5.557  -0.422 -17.095  0.00  0.00     0.183 A 
ATOM     14  N   UNL d   1       6.138   0.059 -18.268  0.00  0.00    -0.123 NA
ATOM     15  N   UNL d   1       7.059   0.914 -17.962  0.00  0.00    -0.059 NA
BRANCH  13  16
ATOM     16  C   UNL d   1       4.476  -1.445 -17.043  0.00  0.00     0.318 C 
ATOM     17  N   UNL d   1       4.662  -2.407 -16.137  0.00  0.00    -0.101 N 
ATOM     18  O   UNL d   1       3.506  -1.427 -17.795  0.00  0.00    -0.262 OA
ENDBRANCH  13  16
ENDBRANCH   9  11
ENDBRANCH   4   5
ENDBRANCH   1   4
BRANCH   3  19
ATOM     19  C   UNL d   1       8.894   6.219 -10.289  0.00  0.00     0.166 C 
BRANCH  19  20
ATOM     20  C   UNL d   1       9.549   7.559 -10.734  0.00  0.00     0.277 C 
BRANCH  20  21
ATOM     21  N   UNL d   1      10.386   8.200  -9.716  0.00  0.00     0.143 N 
ATOM     22  C   UNL d   1      11.299   7.240  -9.097  0.00  0.00     0.274 C 
ATOM     23  C   UNL d   1      12.249   7.875  -8.085  0.00  0.00     0.137 C 
ATOM     24  N   UNL d   1      11.458   8.582  -7.086  0.00  0.00    -0.344 N 
ATOM     25  C   UNL d   1      10.503   9.521  -7.632  0.00  0.00     0.137 C 
ATOM     26  C   UNL d   1       9.583   8.846  -8.677  0.00  0.00     0.274 C 
BRANCH  24  27
ATOM     27  C   UNL d   1      11.488   8.325  -5.719  0.00  0.00     0.056 A 
ATOM     28  C   UNL d   1      11.449   7.005  -5.223  0.00  0.00     0.017 A 
ATOM     29  C   UNL d   1      11.648   6.766  -3.849  0.00  0.00     0.002 A 
ATOM     30  C   UNL d   1      11.865   7.823  -2.953  0.00  0.00     0.000 A 
ATOM     31  C   UNL d   1      11.873   9.142  -3.429  0.00  0.00     0.002 A 
ATOM     32  C   UNL d   1      11.690   9.390  -4.808  0.00  0.00     0.017 A 
ENDBRANCH  24  27
ENDBRANCH  20  21
ENDBRANCH  19  20
ENDBRANCH   3  19
TORSDOF 8
