REMARK  5 active torsions:
REMARK  status: ('A' for Active; 'I' for Inactive)
REMARK    1  A    between atoms: O_2  and  C_3 
REMARK    2  A    between atoms: C_22  and  C_24 
REMARK    3  A    between atoms: C_24  and  C_26 
REMARK    4  A    between atoms: C_29  and  O_30 
REMARK    5  A    between atoms: O_30  and  C_31 
ROOT
ATOM      1  C   UNL d   1       7.006   1.324 -14.330  0.00  0.00     0.097 A 
ATOM      2  C   UNL d   1       5.891   1.937 -13.712  0.00  0.00     0.024 A 
ATOM      3  C   UNL d   1       5.957   3.264 -13.243  0.00  0.00     0.002 A 
ATOM      4  C   UNL d   1       7.137   4.003 -13.374  0.00  0.00     0.003 A 
ATOM      5  C   UNL d   1       8.268   3.415 -13.968  0.00  0.00     0.044 A 
ATOM      6  C   UNL d   1       8.210   2.069 -14.444  0.00  0.00     0.064 A 
ATOM      7  C   UNL d   1       9.454   1.444 -14.963  0.00  0.00     0.200 C 
ATOM      8  O   UNL d   1       9.616   0.218 -14.953  0.00  0.00    -0.286 OA
ATOM      9  C   UNL d   1      10.468   2.393 -15.513  0.00  0.00     0.069 C 
ATOM     10  C   UNL d   1      11.439   1.918 -16.456  0.00  0.00     0.132 C 
ATOM     11  O   UNL d   1      11.498   0.588 -16.825  0.00  0.00    -0.190 OA
ATOM     12  C   UNL d   1      12.307   2.841 -17.096  0.00  0.00     0.028 C 
ATOM     13  C   UNL d   1      12.326   4.204 -16.672  0.00  0.00     0.006 C 
ATOM     14  C   UNL d   1      11.431   4.644 -15.671  0.00  0.00     0.130 C 
ATOM     15  O   UNL d   1      11.513   5.964 -15.274  0.00  0.00    -0.190 OA
ATOM     16  C   UNL d   1      10.476   3.763 -15.100  0.00  0.00     0.069 C 
ATOM     17  C   UNL d   1       9.520   4.218 -14.060  0.00  0.00     0.198 C 
ATOM     18  O   UNL d   1       9.701   5.182 -13.308  0.00  0.00    -0.286 OA
ATOM     19  C   UNL d   1      13.330   5.208 -17.236  0.00  0.00     0.066 C 
ATOM     20  C   UNL d   1      14.020   4.791 -18.546  0.00  0.00     0.187 C 
ATOM     21  O   UNL d   1      13.097   4.967 -19.615  0.00  0.00    -0.218 OA
ATOM     22  C   UNL d   1      14.410   3.302 -18.476  0.00  0.00     0.072 C 
ATOM     23  C   UNL d   1      13.218   2.365 -18.232  0.00  0.00     0.145 C 
ENDROOT
BRANCH  23  24
ATOM     24  O   UNL d   1      12.533   2.228 -19.479  0.00  0.00    -0.329 OA
BRANCH  24  25
ATOM     25  C   UNL d   1      11.865   1.007 -19.683  0.00  0.00     0.238 C 
ATOM     26  O   UNL d   1      12.762  -0.063 -19.822  0.00  0.00    -0.331 OA
ATOM     27  C   UNL d   1      13.718   0.080 -20.856  0.00  0.00     0.150 C 
ATOM     28  C   UNL d   1      12.935   0.130 -22.182  0.00  0.00     0.216 C 
ATOM     29  C   UNL d   1      14.675  -1.116 -20.796  0.00  0.00     0.035 C 
ATOM     30  C   UNL d   1      11.886   1.256 -22.174  0.00  0.00     0.339 C 
ATOM     31  O   UNL d   1      13.835   0.399 -23.231  0.00  0.00    -0.219 OA
ATOM     32  C   UNL d   1      11.021   1.121 -20.947  0.00  0.00     0.103 C 
ATOM     33  N   UNL d   1      11.027   1.188 -23.371  0.00  0.00     0.619 N 
ENDBRANCH  24  25
ENDBRANCH  23  24
BRANCH  20  34
ATOM     34  C   UNL d   1      15.259   5.664 -18.849  0.00  0.00     0.211 C 
ATOM     35  O   UNL d   1      15.809   6.357 -17.986  0.00  0.00    -0.291 OA
BRANCH  34  36
ATOM     36  C   UNL d   1      15.751   5.690 -20.300  0.00  0.00     0.249 C 
ATOM     37  O   UNL d   1      17.155   5.818 -20.344  0.00  0.00    -0.212 OA
ENDBRANCH  34  36
ENDBRANCH  20  34
BRANCH   1  38
ATOM     38  O   UNL d   1       6.976   0.027 -14.806  0.00  0.00    -0.328 OA
ATOM     39  C   UNL d   1       5.775  -0.718 -14.692  0.00  0.00     0.181 C 
ENDBRANCH   1  38
TORSDOF 5
