REMARK  11 active torsions:
REMARK  status: ('A' for Active; 'I' for Inactive)
REMARK    1  A    between atoms: O_2  and  C_3 
REMARK    2  A    between atoms: C_7  and  C_8 
REMARK    3  A    between atoms: C_8  and  N_9 
REMARK    4  A    between atoms: N_9  and  N_10 
REMARK    5  A    between atoms: N_9  and  C_31 
REMARK       I    between atoms: N_10  and  C_11 
REMARK       I    between atoms: C_11  and  N_13 
REMARK    6  A    between atoms: N_13  and  C_14 
REMARK    7  A    between atoms: C_14  and  C_15 
REMARK    8  A    between atoms: C_15  and  C_16 
REMARK    9  A    between atoms: C_16  and  N_17 
REMARK   10  A    between atoms: N_20  and  C_21 
REMARK   11  A    between atoms: C_26  and  O_27 
ROOT
ATOM      1  N   UNL d   1       6.153   1.489 -14.095  0.00  0.00    -0.110 NA
ATOM      2  C   UNL d   1       6.574   2.748 -13.875  0.00  0.00     0.381 C 
ATOM      3  O   UNL d   1       7.515   3.265 -14.467  0.00  0.00    -0.241 OA
ATOM      4  N   UNL d   1       5.903   3.360 -12.894  0.00  0.00    -0.216 NA
ENDROOT
BRANCH   1   5
ATOM      5  N   UNL d   1       6.777   0.666 -15.051  0.00  0.00    -0.243 N 
BRANCH   5   6
ATOM      6  C   UNL d   1       8.152   0.282 -14.670  0.00  0.00     0.154 C 
BRANCH   6   7
ATOM      7  C   UNL d   1       9.293   0.647 -15.605  0.00  0.00     0.004 A 
ATOM      8  C   UNL d   1       9.542  -0.141 -16.748  0.00  0.00    -0.002 A 
ATOM      9  C   UNL d   1      10.518   0.232 -17.681  0.00  0.00     0.002 A 
ATOM     10  C   UNL d   1      11.276   1.389 -17.460  0.00  0.00     0.024 A 
ATOM     11  C   UNL d   1      11.088   2.178 -16.298  0.00  0.00     0.094 A 
ATOM     12  C   UNL d   1      10.080   1.798 -15.372  0.00  0.00     0.022 A 
BRANCH  11  13
ATOM     13  O   UNL d   1      11.868   3.295 -16.051  0.00  0.00    -0.328 OA
ATOM     14  C   UNL d   1      12.843   3.628 -17.036  0.00  0.00     0.181 C 
ENDBRANCH  11  13
ENDBRANCH   6   7
ENDBRANCH   5   6
BRANCH   5  15
ATOM     15  C   UNL d   1       6.045   0.015 -16.075  0.00  0.00     0.079 A 
ATOM     16  C   UNL d   1       4.771  -0.566 -15.825  0.00  0.00     0.021 A 
ATOM     17  C   UNL d   1       4.062  -1.210 -16.869  0.00  0.00     0.031 A 
ATOM     18  C   UNL d   1       4.609  -1.290 -18.166  0.00  0.00     0.140 A 
ATOM     19  C   UNL d   1       5.866  -0.715 -18.419  0.00  0.00     0.031 A 
ATOM     20  F   UNL d   1       3.921  -1.868 -19.183  0.00  0.00    -0.204 F 
ATOM     21  C   UNL d   1       6.548  -0.033 -17.397  0.00  0.00     0.021 A 
ENDBRANCH   5  15
ENDBRANCH   1   5
BRANCH   4  22
ATOM     22  C   UNL d   1       6.261   4.683 -12.400  0.00  0.00     0.133 C 
BRANCH  22  23
ATOM     23  C   UNL d   1       7.535   4.610 -11.541  0.00  0.00     0.062 C 
BRANCH  23  24
ATOM     24  C   UNL d   1       8.099   5.996 -11.224  0.00  0.00     0.253 C 
BRANCH  24  25
ATOM     25  N   UNL d   1       9.210   5.907 -10.274  0.00  0.00     0.141 N 
ATOM     26  C   UNL d   1       9.976   7.147 -10.399  0.00  0.00     0.274 C 
ATOM     27  C   UNL d   1      11.146   7.158  -9.387  0.00  0.00     0.137 C 
ATOM     28  N   UNL d   1      10.755   6.799  -7.999  0.00  0.00    -0.343 N 
ATOM     29  C   UNL d   1       9.852   5.666  -7.878  0.00  0.00     0.137 C 
ATOM     30  C   UNL d   1       8.685   5.778  -8.893  0.00  0.00     0.274 C 
BRANCH  28  31
ATOM     31  C   UNL d   1      11.041   7.572  -6.850  0.00  0.00     0.079 A 
ATOM     32  C   UNL d   1      10.985   8.976  -6.918  0.00  0.00     0.110 A 
ATOM     33  C   UNL d   1      11.318   9.790  -5.801  0.00  0.00     0.026 A 
ATOM     34  C   UNL d   1      11.703   9.181  -4.596  0.00  0.00     0.002 A 
ATOM     35  C   UNL d   1      11.744   7.783  -4.514  0.00  0.00     0.002 A 
ATOM     36  C   UNL d   1      11.406   6.983  -5.625  0.00  0.00     0.019 A 
BRANCH  32  37
ATOM     37  O   UNL d   1      10.647   9.546  -8.105  0.00  0.00    -0.327 OA
ATOM     38  C   UNL d   1       9.264   9.469  -8.469  0.00  0.00     0.181 C 
ENDBRANCH  32  37
ENDBRANCH  28  31
ENDBRANCH  24  25
ENDBRANCH  23  24
ENDBRANCH  22  23
ENDBRANCH   4  22
TORSDOF 11
