REMARK  2 active torsions:
REMARK  status: ('A' for Active; 'I' for Inactive)
REMARK    1  A    between atoms: N_2  and  C_3 
REMARK    2  A    between atoms: C_6  and  N_7 
ROOT
ATOM      1  C   UNL d   1      10.739   3.753 -14.815  0.00  0.00     0.160 C 
ATOM      2  C   UNL d   1      10.617   2.406 -15.578  0.00  0.00     0.201 C 
ATOM      3  O   UNL d   1      10.951   1.286 -14.763  0.00  0.00    -0.219 OA
ATOM      4  C   UNL d   1       9.171   2.175 -16.076  0.00  0.00     0.163 C 
ATOM      5  C   UNL d   1       8.176   2.280 -14.884  0.00  0.00     0.206 C 
ATOM      6  O   UNL d   1       6.883   2.249 -15.422  0.00  0.00    -0.219 OA
ATOM      7  C   UNL d   1       8.350   3.608 -14.112  0.00  0.00     0.179 C 
ATOM      8  O   UNL d   1       7.540   3.597 -12.953  0.00  0.00    -0.324 OA
ATOM      9  C   UNL d   1       7.554   4.741 -12.192  0.00  0.00     0.299 C 
ATOM     10  O   UNL d   1       6.875   5.752 -12.858  0.00  0.00    -0.329 OA
ATOM     11  C   UNL d   1       6.840   6.958 -12.175  0.00  0.00     0.126 C 
ATOM     12  C   UNL d   1       5.914   7.873 -12.902  0.00  0.00     0.033 C 
ATOM     13  C   UNL d   1       8.223   7.575 -12.138  0.00  0.00     0.100 C 
ATOM     14  C   UNL d   1       9.119   6.642 -11.385  0.00  0.00     0.211 C 
ATOM     15  O   UNL d   1       9.909   7.036 -10.515  0.00  0.00    -0.291 OA
ATOM     16  C   UNL d   1       9.019   5.191 -11.844  0.00  0.00     0.323 C 
ATOM     17  O   UNL d   1       9.428   4.392 -10.752  0.00  0.00    -0.182 OA
ATOM     18  O   UNL d   1       9.846   5.049 -12.968  0.00  0.00    -0.322 OA
ATOM     19  C   UNL d   1       9.790   3.787 -13.616  0.00  0.00     0.172 C 
ENDROOT
BRANCH   1  20
ATOM     20  N   UNL d   1      12.120   4.025 -14.423  0.00  0.00    -0.290 NA
ATOM     21  C   UNL d   1      13.034   4.320 -15.525  0.00  0.00     0.146 C 
ENDBRANCH   1  20
BRANCH   4  22
ATOM     22  N   UNL d   1       9.061   0.851 -16.727  0.00  0.00    -0.290 NA
ATOM     23  C   UNL d   1       9.777   0.725 -18.010  0.00  0.00     0.146 C 
ENDBRANCH   4  22
TORSDOF 2
