REMARK  8 active torsions:
REMARK  status: ('A' for Active; 'I' for Inactive)
REMARK    1  A    between atoms: O_2  and  C_3 
REMARK    2  A    between atoms: C_8  and  N_9 
REMARK    3  A    between atoms: N_12  and  C_13 
REMARK    4  A    between atoms: C_13  and  C_14 
REMARK    5  A    between atoms: C_14  and  C_15 
REMARK    6  A    between atoms: C_15  and  C_16 
REMARK    7  A    between atoms: C_16  and  C_17 
REMARK    8  A    between atoms: N_19  and  C_20 
ROOT
ATOM      1  C   UNL d   1       7.822   2.546 -14.792  0.00  0.00     0.250 C 
ENDROOT
BRANCH   1   2
ATOM      2  N   UNL d   1       6.861   1.812 -15.610  0.00  0.00     0.141 N 
ATOM      3  C   UNL d   1       6.499   0.542 -14.969  0.00  0.00     0.274 C 
ATOM      4  C   UNL d   1       5.449  -0.227 -15.800  0.00  0.00     0.137 C 
ATOM      5  N   UNL d   1       5.909  -0.399 -17.172  0.00  0.00    -0.343 N 
ATOM      6  C   UNL d   1       6.369   0.818 -17.825  0.00  0.00     0.137 C 
ATOM      7  C   UNL d   1       7.418   1.534 -16.939  0.00  0.00     0.274 C 
BRANCH   5   8
ATOM      8  C   UNL d   1       6.022  -1.679 -17.751  0.00  0.00     0.079 A 
ATOM      9  C   UNL d   1       7.193  -2.086 -18.449  0.00  0.00     0.110 A 
ATOM     10  C   UNL d   1       7.237  -3.384 -19.025  0.00  0.00     0.026 A 
ATOM     11  C   UNL d   1       6.154  -4.273 -18.895  0.00  0.00     0.002 A 
ATOM     12  C   UNL d   1       5.013  -3.876 -18.182  0.00  0.00     0.002 A 
ATOM     13  C   UNL d   1       4.950  -2.588 -17.616  0.00  0.00     0.019 A 
BRANCH   9  14
ATOM     14  O   UNL d   1       8.248  -1.195 -18.500  0.00  0.00    -0.327 OA
ATOM     15  C   UNL d   1       9.476  -1.609 -19.059  0.00  0.00     0.181 C 
ENDBRANCH   9  14
ENDBRANCH   5   8
ENDBRANCH   1   2
BRANCH   1  16
ATOM     16  C   UNL d   1       7.105   3.341 -13.682  0.00  0.00     0.036 C 
BRANCH  16  17
ATOM     17  C   UNL d   1       8.113   4.084 -12.797  0.00  0.00     0.009 C 
BRANCH  17  18
ATOM     18  C   UNL d   1       7.462   4.768 -11.584  0.00  0.00     0.049 C 
BRANCH  18  19
ATOM     19  C   UNL d   1       8.433   5.635 -10.849  0.00  0.00     0.101 A 
ATOM     20  N   UNL d   1       9.160   6.631 -11.501  0.00  0.00    -0.133 NA
ATOM     21  N   UNL d   1       9.858   7.283 -10.632  0.00  0.00    -0.060 NA
ATOM     22  N   UNL d   1       9.616   6.745  -9.408  0.00  0.00    -0.209 N 
ATOM     23  C   UNL d   1       8.715   5.692  -9.515  0.00  0.00     0.119 A 
BRANCH  22  24
ATOM     24  C   UNL d   1      10.229   7.286  -8.244  0.00  0.00     0.085 A 
ATOM     25  C   UNL d   1      11.207   8.311  -8.333  0.00  0.00     0.021 A 
ATOM     26  C   UNL d   1      11.816   8.823  -7.167  0.00  0.00     0.031 A 
ATOM     27  C   UNL d   1      11.452   8.319  -5.903  0.00  0.00     0.140 A 
ATOM     28  C   UNL d   1      10.494   7.298  -5.806  0.00  0.00     0.031 A 
ATOM     29  F   UNL d   1      12.032   8.814  -4.783  0.00  0.00    -0.204 F 
ATOM     30  C   UNL d   1       9.873   6.795  -6.966  0.00  0.00     0.021 A 
ENDBRANCH  22  24
ENDBRANCH  18  19
ENDBRANCH  17  18
ENDBRANCH  16  17
ENDBRANCH   1  16
TORSDOF 8
