REMARK  7 active torsions:
REMARK  status: ('A' for Active; 'I' for Inactive)
REMARK    1  A    between atoms: C_2  and  C_3 
REMARK    2  A    between atoms: C_3  and  N_4 
REMARK    3  A    between atoms: N_4  and  C_5 
REMARK    4  A    between atoms: N_4  and  C_19 
REMARK    5  A    between atoms: C_5  and  C_6 
REMARK    6  A    between atoms: C_6  and  N_7 
REMARK    7  A    between atoms: N_10  and  C_11 
ROOT
ATOM      1  N   UNL d   1       8.838   4.520 -13.411  0.00  0.00     0.137 N 
ENDROOT
BRANCH   1   2
ATOM      2  C   UNL d   1      10.188   3.922 -13.504  0.00  0.00     0.250 C 
BRANCH   2   3
ATOM      3  C   UNL d   1      11.141   4.697 -14.413  0.00  0.00     0.035 C 
ATOM      4  C   UNL d   1      12.170   3.741 -15.017  0.00  0.00     0.002 C 
ENDBRANCH   2   3
ENDBRANCH   1   2
BRANCH   1   5
ATOM      5  C   UNL d   1       8.797   5.555 -12.352  0.00  0.00     0.285 C 
BRANCH   5   6
ATOM      6  C   UNL d   1       9.138   5.035 -10.919  0.00  0.00     0.286 C 
BRANCH   6   7
ATOM      7  N   UNL d   1       8.947   5.984  -9.852  0.00  0.00     0.143 N 
ATOM      8  C   UNL d   1       9.156   5.316  -8.567  0.00  0.00     0.274 C 
ATOM      9  C   UNL d   1       8.900   6.284  -7.414  0.00  0.00     0.137 C 
ATOM     10  N   UNL d   1       9.762   7.454  -7.543  0.00  0.00    -0.344 N 
ATOM     11  C   UNL d   1       9.662   8.131  -8.834  0.00  0.00     0.137 C 
ATOM     12  C   UNL d   1       9.881   7.111  -9.956  0.00  0.00     0.274 C 
BRANCH  10  13
ATOM     13  C   UNL d   1      10.597   7.905  -6.502  0.00  0.00     0.056 A 
ATOM     14  C   UNL d   1      11.002   7.051  -5.445  0.00  0.00     0.017 A 
ATOM     15  C   UNL d   1      11.827   7.519  -4.406  0.00  0.00     0.002 A 
ATOM     16  C   UNL d   1      12.288   8.847  -4.420  0.00  0.00     0.000 A 
ATOM     17  C   UNL d   1      11.910   9.694  -5.479  0.00  0.00     0.002 A 
ATOM     18  C   UNL d   1      11.061   9.237  -6.497  0.00  0.00     0.017 A 
ENDBRANCH  10  13
ENDBRANCH   6   7
ENDBRANCH   5   6
ENDBRANCH   1   5
BRANCH   1  19
ATOM     19  C   UNL d   1       7.733   3.542 -13.279  0.00  0.00     0.224 C 
ATOM     20  C   UNL d   1       7.866   2.296 -14.197  0.00  0.00     0.059 C 
ATOM     21  C   UNL d   1       6.719   1.325 -14.104  0.00  0.00    -0.024 A 
ATOM     22  C   UNL d   1       5.468   1.718 -13.597  0.00  0.00    -0.024 A 
ATOM     23  C   UNL d   1       6.942  -0.005 -14.534  0.00  0.00    -0.002 A 
ATOM     24  C   UNL d   1       5.223   3.127 -13.039  0.00  0.00     0.028 C 
ATOM     25  C   UNL d   1       4.437   0.767 -13.632  0.00  0.00     0.023 A 
ATOM     26  C   UNL d   1       6.311   4.126 -13.444  0.00  0.00     0.038 C 
ATOM     27  C   UNL d   1       4.610  -0.528 -14.125  0.00  0.00     0.131 A 
ATOM     28  O   UNL d   1       3.504  -1.317 -14.217  0.00  0.00    -0.190 OA
ATOM     29  C   UNL d   1       5.882  -0.931 -14.534  0.00  0.00     0.027 A 
ENDBRANCH   1  19
TORSDOF 7
