REMARK  5 active torsions:
REMARK  status: ('A' for Active; 'I' for Inactive)
REMARK    1  A    between atoms: C_4  and  C_5 
REMARK    2  A    between atoms: C_5  and  C_6 
REMARK    3  A    between atoms: C_6  and  N_7 
REMARK    4  A    between atoms: C_10  and  C_11 
REMARK    5  A    between atoms: C_13  and  C_14 
ROOT
ATOM      1  N   UNL d   1      10.268   6.759  -8.539  0.00  0.00     0.137 N 
ATOM      2  C   UNL d   1       9.933   7.668  -9.640  0.00  0.00     0.251 C 
ATOM      3  C   UNL d   1       9.664   6.868 -10.924  0.00  0.00     0.041 C 
ATOM      4  C   UNL d   1       8.543   5.835 -10.729  0.00  0.00     0.046 C 
ATOM      5  C   UNL d   1       8.837   5.000  -9.479  0.00  0.00     0.041 C 
ATOM      6  C   UNL d   1       9.122   5.889  -8.271  0.00  0.00     0.251 C 
ENDROOT
BRANCH   4   7
ATOM      7  C   UNL d   1       8.361   4.970 -11.933  0.00  0.00     0.082 A 
ATOM      8  N   UNL d   1       7.151   4.827 -12.569  0.00  0.00    -0.152 NA
ATOM      9  N   UNL d   1       7.206   3.993 -13.621  0.00  0.00    -0.148 NA
ATOM     10  C   UNL d   1       8.472   3.584 -13.654  0.00  0.00     0.104 A 
ATOM     11  C   UNL d   1       9.239   4.168 -12.604  0.00  0.00     0.037 A 
BRANCH  10  12
ATOM     12  C   UNL d   1       8.930   2.633 -14.679  0.00  0.00     0.023 A 
ATOM     13  C   UNL d   1      10.306   2.347 -14.838  0.00  0.00     0.022 A 
ATOM     14  C   UNL d   1      10.700   1.429 -15.832  0.00  0.00     0.099 A 
ATOM     15  N   UNL d   1       9.829   0.798 -16.644  0.00  0.00    -0.242 NA
ATOM     16  C   UNL d   1       8.517   1.067 -16.489  0.00  0.00     0.099 A 
ATOM     17  C   UNL d   1       8.020   1.969 -15.530  0.00  0.00     0.022 A 
ENDBRANCH  10  12
ENDBRANCH   4   7
BRANCH   1  18
ATOM     18  C   UNL d   1      10.574   7.557  -7.355  0.00  0.00     0.255 C 
BRANCH  18  19
ATOM     19  C   UNL d   1      11.117   6.718  -6.175  0.00  0.00     0.062 C 
BRANCH  19  20
ATOM     20  C   UNL d   1      11.458   7.510  -4.924  0.00  0.00    -0.020 A 
ATOM     21  C   UNL d   1      11.299   8.915  -4.865  0.00  0.00    -0.004 A 
ATOM     22  C   UNL d   1      11.609   9.599  -3.679  0.00  0.00    -0.000 A 
ATOM     23  C   UNL d   1      12.099   8.911  -2.557  0.00  0.00    -0.000 A 
ATOM     24  C   UNL d   1      12.259   7.515  -2.607  0.00  0.00    -0.000 A 
ATOM     25  C   UNL d   1      11.936   6.819  -3.790  0.00  0.00    -0.004 A 
ENDBRANCH  19  20
ENDBRANCH  18  19
ENDBRANCH   1  18
TORSDOF 5
