REMARK  8 active torsions:
REMARK  status: ('A' for Active; 'I' for Inactive)
REMARK    1  A    between atoms: S_2  and  N_4 
REMARK    2  A    between atoms: S_2  and  C_24 
REMARK    3  A    between atoms: N_4  and  C_5 
REMARK    4  A    between atoms: C_5  and  C_6 
REMARK    5  A    between atoms: C_6  and  C_7 
REMARK    6  A    between atoms: C_7  and  C_8 
REMARK    7  A    between atoms: C_8  and  N_9 
REMARK    8  A    between atoms: N_12  and  C_13 
ROOT
ATOM      1  C   UNL d   1       7.891   2.146 -14.088  0.00  0.00     0.037 C 
ENDROOT
BRANCH   1   2
ATOM      2  C   UNL d   1       7.543   1.673 -15.497  0.00  0.00     0.029 C 
BRANCH   2   3
ATOM      3  C   UNL d   1       6.684   0.396 -15.525  0.00  0.00     0.139 C 
BRANCH   3   4
ATOM      4  N   UNL d   1       5.849   0.385 -16.723  0.00  0.00    -0.184 NA
BRANCH   4   5
ATOM      5  S   UNL d   1       6.498  -0.024 -18.259  0.00  0.00     0.287 S 
ATOM      6  O   UNL d   1       5.599   0.536 -19.279  0.00  0.00    -0.198 OA
ATOM      7  O   UNL d   1       7.938   0.279 -18.265  0.00  0.00    -0.198 OA
BRANCH   5   8
ATOM      8  C   UNL d   1       6.350  -1.791 -18.333  0.00  0.00     0.134 A 
ATOM      9  S   UNL d   1       5.075  -2.600 -17.471  0.00  0.00    -0.074 SA
ATOM     10  C   UNL d   1       5.672  -4.164 -18.006  0.00  0.00     0.030 A 
ATOM     11  C   UNL d   1       6.828  -4.014 -18.837  0.00  0.00     0.007 A 
ATOM     12  C   UNL d   1       5.136  -5.431 -17.709  0.00  0.00     0.006 A 
ATOM     13  C   UNL d   1       7.206  -2.628 -19.003  0.00  0.00     0.020 A 
ATOM     14  C   UNL d   1       7.401  -5.201 -19.354  0.00  0.00     0.001 A 
ATOM     15  C   UNL d   1       6.864  -6.470 -19.064  0.00  0.00     0.000 A 
ATOM     16  C   UNL d   1       5.732  -6.587 -18.239  0.00  0.00     0.001 A 
ENDBRANCH   5   8
ENDBRANCH   4   5
ENDBRANCH   3   4
ENDBRANCH   2   3
ENDBRANCH   1   2
BRANCH   1  17
ATOM     17  C   UNL d   1       8.549   3.535 -14.068  0.00  0.00     0.251 C 
BRANCH  17  18
ATOM     18  N   UNL d   1       8.361   4.191 -12.776  0.00  0.00     0.141 N 
ATOM     19  C   UNL d   1       8.170   5.628 -12.984  0.00  0.00     0.274 C 
ATOM     20  C   UNL d   1       7.941   6.357 -11.650  0.00  0.00     0.138 C 
ATOM     21  N   UNL d   1       9.042   6.103 -10.743  0.00  0.00    -0.329 N 
ATOM     22  C   UNL d   1       9.339   4.698 -10.549  0.00  0.00     0.138 C 
ATOM     23  C   UNL d   1       9.541   4.006 -11.925  0.00  0.00     0.274 C 
BRANCH  21  24
ATOM     24  C   UNL d   1       9.730   7.154 -10.102  0.00  0.00     0.148 A 
ATOM     25  C   UNL d   1       9.890   7.223  -8.666  0.00  0.00     0.042 A 
ATOM     26  C   UNL d   1      10.668   8.377  -8.335  0.00  0.00     0.050 A 
ATOM     27  C   UNL d   1       9.430   6.437  -7.582  0.00  0.00     0.004 A 
ATOM     28  S   UNL d   1      11.076   9.181  -9.813  0.00  0.00     0.015 SA
ATOM     29  C   UNL d   1      10.987   8.729  -7.017  0.00  0.00     0.008 A 
ATOM     30  N   UNL d   1      10.225   8.145 -10.810  0.00  0.00    -0.192 NA
ATOM     31  C   UNL d   1      10.518   7.928  -5.965  0.00  0.00     0.001 A 
ATOM     32  C   UNL d   1       9.736   6.797  -6.253  0.00  0.00     0.000 A 
ENDBRANCH  21  24
ENDBRANCH  17  18
ENDBRANCH   1  17
TORSDOF 8
