REMARK  0 active torsions:
REMARK  status: ('A' for Active; 'I' for Inactive)
REMARK       I    between atoms: C_2  and  N_4 
ROOT
ATOM      1  N   UNL d   1      12.886   8.787  -1.643  0.00  0.00    -0.082 N 
ATOM      2  C   UNL d   1      12.257   8.287  -2.700  0.00  0.00     0.411 C 
ATOM      3  O   UNL d   1      11.867   7.126  -2.733  0.00  0.00    -0.239 OA
ATOM      4  N   UNL d   1      12.124   9.189  -3.681  0.00  0.00    -0.034 NA
ATOM      5  O   UNL d   1      11.458   8.764  -4.854  0.00  0.00    -0.056 OA
ENDROOT
TORSDOF 0
