REMARK  5 active torsions:
REMARK  status: ('A' for Active; 'I' for Inactive)
REMARK    1  A    between atoms: N_2  and  C_4 
REMARK    2  A    between atoms: C_4  and  C_5 
REMARK    3  A    between atoms: C_5  and  C_6 
REMARK    4  A    between atoms: N_14  and  S_15 
REMARK    5  A    between atoms: S_15  and  C_18 
ROOT
ATOM      1  C   UNL d   1       9.637   6.169  -8.955  0.00  0.00    -0.019 A 
ATOM      2  C   UNL d   1       8.584   5.782  -8.110  0.00  0.00    -0.004 A 
ATOM      3  C   UNL d   1       8.355   6.436  -6.899  0.00  0.00     0.001 A 
ATOM      4  C   UNL d   1       9.210   7.463  -6.504  0.00  0.00     0.018 A 
ATOM      5  C   UNL d   1      10.283   7.838  -7.315  0.00  0.00     0.075 A 
ATOM      6  C   UNL d   1      10.528   7.191  -8.563  0.00  0.00     0.014 A 
ATOM      7  C   UNL d   1      11.715   7.770  -9.112  0.00  0.00     0.021 A 
ATOM      8  C   UNL d   1      12.188   8.643  -8.172  0.00  0.00     0.092 A 
ATOM      9  N   UNL d   1      11.294   8.732  -7.102  0.00  0.00    -0.231 N 
ENDROOT
BRANCH   9  10
ATOM     10  S   UNL d   1      11.538   9.683  -5.679  0.00  0.00     0.271 S 
ATOM     11  O   UNL d   1      12.654  10.552  -6.040  0.00  0.00    -0.200 OA
ATOM     12  O   UNL d   1      10.258  10.236  -5.222  0.00  0.00    -0.200 OA
BRANCH  10  13
ATOM     13  C   UNL d   1      11.975   8.602  -4.377  0.00  0.00     0.104 A 
ATOM     14  C   UNL d   1      11.877   7.219  -4.552  0.00  0.00     0.013 A 
ATOM     15  C   UNL d   1      12.241   6.384  -3.503  0.00  0.00     0.001 A 
ATOM     16  C   UNL d   1      12.589   6.896  -2.248  0.00  0.00     0.000 A 
ATOM     17  C   UNL d   1      12.630   8.286  -2.056  0.00  0.00     0.001 A 
ATOM     18  C   UNL d   1      12.315   9.152  -3.124  0.00  0.00     0.013 A 
ENDBRANCH  10  13
ENDBRANCH   9  10
BRANCH   1  19
ATOM     19  C   UNL d   1       9.806   5.466 -10.277  0.00  0.00     0.062 C 
BRANCH  19  20
ATOM     20  C   UNL d   1       8.509   5.395 -11.099  0.00  0.00     0.255 C 
BRANCH  20  21
ATOM     21  N   UNL d   1       8.645   4.518 -12.257  0.00  0.00     0.142 N 
ATOM     22  C   UNL d   1       7.324   4.333 -12.840  0.00  0.00     0.285 C 
ATOM     23  C   UNL d   1       9.530   5.086 -13.260  0.00  0.00     0.285 C 
ENDBRANCH  20  21
ENDBRANCH  19  20
ENDBRANCH   1  19
TORSDOF 5
