REMARK  10 active torsions:
REMARK  status: ('A' for Active; 'I' for Inactive)
REMARK       I    between atoms: C_2  and  N_3 
REMARK    1  A    between atoms: C_2  and  C_24 
REMARK    2  A    between atoms: N_3  and  C_4 
REMARK    3  A    between atoms: C_4  and  C_5 
REMARK    4  A    between atoms: C_5  and  C_6 
REMARK    5  A    between atoms: C_6  and  C_7 
REMARK    6  A    between atoms: C_7  and  N_8 
REMARK    7  A    between atoms: N_11  and  C_12 
REMARK    8  A    between atoms: C_16  and  O_17 
REMARK    9  A    between atoms: O_17  and  C_18 
REMARK   10  A    between atoms: C_18  and  C_19 
ROOT
ATOM      1  N   UNL d   1       8.435   4.394 -12.594  0.00  0.00     0.141 N 
ATOM      2  C   UNL d   1       9.055   3.288 -13.349  0.00  0.00     0.274 C 
ATOM      3  C   UNL d   1       8.202   2.904 -14.562  0.00  0.00     0.137 C 
ATOM      4  N   UNL d   1       6.805   2.669 -14.157  0.00  0.00    -0.344 N 
ATOM      5  C   UNL d   1       6.202   3.746 -13.356  0.00  0.00     0.137 C 
ATOM      6  C   UNL d   1       7.074   4.060 -12.150  0.00  0.00     0.274 C 
ENDROOT
BRANCH   1   7
ATOM      7  C   UNL d   1       9.305   4.763 -11.476  0.00  0.00     0.251 C 
BRANCH   7   8
ATOM      8  C   UNL d   1       8.849   5.988 -10.670  0.00  0.00     0.037 C 
BRANCH   8   9
ATOM      9  C   UNL d   1       9.760   6.287  -9.467  0.00  0.00     0.029 C 
BRANCH   9  10
ATOM     10  C   UNL d   1       9.038   7.153  -8.429  0.00  0.00     0.129 C 
BRANCH  10  11
ATOM     11  N   UNL d   1       9.809   7.325  -7.224  0.00  0.00    -0.234 NA
ATOM     12  C   UNL d   1      10.530   8.426  -6.987  0.00  0.00     0.275 C 
ATOM     13  O   UNL d   1      10.736   9.323  -7.798  0.00  0.00    -0.266 OA
BRANCH  12  14
ATOM     14  C   UNL d   1      11.014   8.555  -5.589  0.00  0.00     0.059 A 
ATOM     15  C   UNL d   1      11.428   7.406  -4.887  0.00  0.00     0.028 A 
ATOM     16  C   UNL d   1      11.867   7.545  -3.593  0.00  0.00     0.130 A 
ATOM     17  C   UNL d   1      11.911   8.834  -2.976  0.00  0.00     0.130 A 
ATOM     18  N   UNL d   1      12.277   6.618  -2.758  0.00  0.00    -0.102 NA
ATOM     19  C   UNL d   1      11.471   9.948  -3.644  0.00  0.00     0.023 A 
ATOM     20  N   UNL d   1      12.400   8.734  -1.756  0.00  0.00    -0.102 NA
ATOM     21  C   UNL d   1      11.055   9.828  -4.983  0.00  0.00     0.006 A 
ATOM     22  O   UNL d   1      12.644   7.371  -1.641  0.00  0.00    -0.106 OA
ENDBRANCH  12  14
ENDBRANCH  10  11
ENDBRANCH   9  10
ENDBRANCH   8   9
ENDBRANCH   7   8
ENDBRANCH   1   7
BRANCH   4  23
ATOM     23  C   UNL d   1       6.146   1.466 -14.393  0.00  0.00     0.058 A 
ATOM     24  C   UNL d   1       6.332   0.735 -15.607  0.00  0.00     0.041 A 
ATOM     25  C   UNL d   1       5.572  -0.415 -15.923  0.00  0.00     0.096 A 
ATOM     26  C   UNL d   1       4.582  -0.843 -14.999  0.00  0.00     0.024 A 
ATOM     27  C   UNL d   1       4.360  -0.121 -13.815  0.00  0.00     0.004 A 
ATOM     28  C   UNL d   1       5.158   0.980 -13.492  0.00  0.00     0.017 A 
BRANCH  25  29
ATOM     29  O   UNL d   1       5.835  -1.045 -17.124  0.00  0.00    -0.328 OA
BRANCH  29  30
ATOM     30  C   UNL d   1       5.079  -2.158 -17.600  0.00  0.00     0.187 C 
BRANCH  30  31
ATOM     31  C   UNL d   1       4.315  -1.744 -18.855  0.00  0.00     0.226 C 
ATOM     32  F   UNL d   1       3.505  -2.730 -19.218  0.00  0.00    -0.232 F 
ENDBRANCH  30  31
ENDBRANCH  29  30
ENDBRANCH  25  29
ENDBRANCH   4  23
TORSDOF 10
