REMARK  7 active torsions:
REMARK  status: ('A' for Active; 'I' for Inactive)
REMARK    1  A    between atoms: C_8  and  O_9 
REMARK    2  A    between atoms: O_9  and  C_10 
REMARK    3  A    between atoms: C_10  and  C_11 
REMARK    4  A    between atoms: C_11  and  C_12 
REMARK    5  A    between atoms: C_12  and  C_13 
REMARK    6  A    between atoms: C_13  and  N_14 
REMARK    7  A    between atoms: N_17  and  C_18 
ROOT
ATOM      1  N   UNL d   1       7.923   4.544 -12.410  0.00  0.00     0.141 N 
ATOM      2  C   UNL d   1       6.667   3.840 -12.757  0.00  0.00     0.274 C 
ATOM      3  C   UNL d   1       6.606   3.650 -14.252  0.00  0.00     0.137 C 
ATOM      4  N   UNL d   1       7.796   3.011 -14.798  0.00  0.00    -0.344 N 
ATOM      5  C   UNL d   1       9.046   3.615 -14.378  0.00  0.00     0.137 C 
ATOM      6  C   UNL d   1       9.096   3.770 -12.866  0.00  0.00     0.274 C 
ENDROOT
BRANCH   1   7
ATOM      7  C   UNL d   1       7.881   4.694 -10.965  0.00  0.00     0.251 C 
BRANCH   7   8
ATOM      8  C   UNL d   1       9.107   5.461 -10.421  0.00  0.00     0.038 C 
BRANCH   8   9
ATOM      9  C   UNL d   1       9.277   5.351  -8.905  0.00  0.00     0.035 C 
BRANCH   9  10
ATOM     10  C   UNL d   1      10.313   6.384  -8.430  0.00  0.00     0.149 C 
BRANCH  10  11
ATOM     11  O   UNL d   1      10.670   6.078  -7.090  0.00  0.00    -0.331 OA
BRANCH  11  12
ATOM     12  C   UNL d   1      11.006   7.075  -6.201  0.00  0.00     0.094 A 
ATOM     13  C   UNL d   1      10.920   8.469  -6.495  0.00  0.00     0.024 A 
ATOM     14  C   UNL d   1      11.241   9.441  -5.520  0.00  0.00    -0.000 A 
ATOM     15  C   UNL d   1      11.680   9.003  -4.262  0.00  0.00     0.007 A 
ATOM     16  C   UNL d   1      12.058   9.781  -3.040  0.00  0.00     0.155 A 
ATOM     17  C   UNL d   1      11.773   7.657  -3.975  0.00  0.00     0.057 A 
ATOM     18  N   UNL d   1      12.349   8.716  -2.074  0.00  0.00    -0.229 NA
ATOM     19  C   UNL d   1      12.228   7.468  -2.584  0.00  0.00     0.275 A 
ATOM     20  O   UNL d   1      12.454   6.384  -2.059  0.00  0.00    -0.266 OA
ATOM     21  C   UNL d   1      11.439   6.667  -4.912  0.00  0.00     0.029 A 
ENDBRANCH  11  12
ENDBRANCH  10  11
ENDBRANCH   9  10
ENDBRANCH   8   9
ENDBRANCH   7   8
ENDBRANCH   1   7
BRANCH   4  22
ATOM     22  C   UNL d   1       7.705   1.982 -15.751  0.00  0.00     0.056 A 
ATOM     23  C   UNL d   1       8.486   1.944 -16.957  0.00  0.00     0.018 A 
ATOM     24  C   UNL d   1       8.363   0.831 -17.808  0.00  0.00     0.002 A 
ATOM     25  C   UNL d   1       9.343   3.020 -17.345  0.00  0.00     0.031 A 
ATOM     26  C   UNL d   1       7.464  -0.208 -17.508  0.00  0.00     0.000 A 
ATOM     27  C   UNL d   1       9.144   0.744 -18.989  0.00  0.00     0.002 A 
ATOM     28  C   UNL d   1       6.661  -0.146 -16.357  0.00  0.00     0.002 A 
ATOM     29  C   UNL d   1       6.789   0.940 -15.479  0.00  0.00     0.017 A 
ATOM     30  C   UNL d   1      10.034   1.784 -19.329  0.00  0.00     0.030 A 
ATOM     31  C   UNL d   1      10.121   2.911 -18.515  0.00  0.00     0.140 A 
ATOM     32  F   UNL d   1      10.968   3.922 -18.835  0.00  0.00    -0.204 F 
ENDBRANCH   4  22
TORSDOF 7
