REMARK  4 active torsions:
REMARK  status: ('A' for Active; 'I' for Inactive)
REMARK    1  A    between atoms: S_2  and  C_4 
REMARK    2  A    between atoms: S_2  and  N_10 
REMARK    3  A    between atoms: C_14  and  N_15 
REMARK    4  A    between atoms: N_18  and  C_19 
ROOT
ATOM      1  N   UNL d   1      10.283   7.564  -8.052  0.00  0.00    -0.254 N 
ATOM      2  C   UNL d   1      10.241   6.124  -7.777  0.00  0.00     0.123 C 
ATOM      3  C   UNL d   1       9.575   5.338  -8.883  0.00  0.00     0.055 C 
ATOM      4  C   UNL d   1       9.475   6.408  -9.902  0.00  0.00     0.012 A 
ATOM      5  C   UNL d   1       9.061   6.272 -11.220  0.00  0.00     0.054 A 
ATOM      6  C   UNL d   1       9.052   7.415 -12.059  0.00  0.00     0.017 A 
ATOM      7  C   UNL d   1       9.447   8.636 -11.521  0.00  0.00     0.003 A 
ATOM      8  C   UNL d   1       9.870   8.775 -10.192  0.00  0.00     0.018 A 
ATOM      9  C   UNL d   1       9.869   7.622  -9.395  0.00  0.00     0.068 A 
ENDROOT
BRANCH   5  10
ATOM     10  N   UNL d   1       8.669   5.043 -11.685  0.00  0.00    -0.344 N 
ATOM     11  C   UNL d   1       9.570   4.209 -12.458  0.00  0.00     0.137 C 
ATOM     12  C   UNL d   1       8.880   3.845 -13.772  0.00  0.00     0.274 C 
ATOM     13  N   UNL d   1       7.589   3.196 -13.475  0.00  0.00     0.139 N 
ATOM     14  C   UNL d   1       6.679   4.139 -12.791  0.00  0.00     0.274 C 
ATOM     15  C   UNL d   1       7.317   4.560 -11.459  0.00  0.00     0.137 C 
BRANCH  13  16
ATOM     16  C   UNL d   1       6.973   2.627 -14.651  0.00  0.00     0.220 C 
ATOM     17  C   UNL d   1       7.838   1.986 -15.769  0.00  0.00     0.033 C 
ATOM     18  C   UNL d   1       6.732   0.973 -16.005  0.00  0.00     0.004 C 
ATOM     19  C   UNL d   1       6.228   1.285 -14.587  0.00  0.00     0.033 C 
ENDBRANCH  13  16
ENDBRANCH   5  10
BRANCH   1  20
ATOM     20  S   UNL d   1      11.517   8.575  -7.350  0.00  0.00     0.268 S 
ATOM     21  O   UNL d   1      11.057   9.958  -7.389  0.00  0.00    -0.200 OA
ATOM     22  O   UNL d   1      12.764   8.170  -8.034  0.00  0.00    -0.200 OA
BRANCH  20  23
ATOM     23  C   UNL d   1      11.573   8.187  -5.592  0.00  0.00     0.104 A 
ATOM     24  C   UNL d   1      11.742   9.302  -4.708  0.00  0.00     0.013 A 
ATOM     25  C   UNL d   1      11.855   9.063  -3.300  0.00  0.00     0.001 A 
ATOM     26  C   UNL d   1      11.753   7.727  -2.816  0.00  0.00     0.000 A 
ATOM     27  C   UNL d   1      11.574   6.670  -3.730  0.00  0.00     0.001 A 
ATOM     28  C   UNL d   1      11.514   6.852  -5.124  0.00  0.00     0.013 A 
ENDBRANCH  20  23
ENDBRANCH   1  20
TORSDOF 4
