REMARK  8 active torsions:
REMARK  status: ('A' for Active; 'I' for Inactive)
REMARK    1  A    between atoms: O_2  and  C_3 
REMARK    2  A    between atoms: C_7  and  C_8 
REMARK       I    between atoms: C_8  and  N_10 
REMARK    3  A    between atoms: N_10  and  C_11 
REMARK    4  A    between atoms: C_11  and  C_12 
REMARK    5  A    between atoms: C_12  and  C_13 
REMARK    6  A    between atoms: C_13  and  N_14 
REMARK    7  A    between atoms: N_17  and  C_18 
REMARK    8  A    between atoms: C_23  and  O_24 
ROOT
ATOM      1  N   UNL d   1      10.516   6.810  -9.154  0.00  0.00     0.141 N 
ATOM      2  C   UNL d   1      11.181   8.074  -8.799  0.00  0.00     0.274 C 
ATOM      3  C   UNL d   1      12.188   7.843  -7.662  0.00  0.00     0.137 C 
ATOM      4  N   UNL d   1      11.459   7.249  -6.541  0.00  0.00    -0.343 N 
ATOM      5  C   UNL d   1      10.799   6.022  -6.866  0.00  0.00     0.137 C 
ATOM      6  C   UNL d   1       9.799   6.290  -7.982  0.00  0.00     0.274 C 
ENDROOT
BRANCH   1   7
ATOM      7  C   UNL d   1       9.556   7.066 -10.209  0.00  0.00     0.253 C 
BRANCH   7   8
ATOM      8  C   UNL d   1       9.122   5.767 -10.893  0.00  0.00     0.062 C 
BRANCH   8   9
ATOM      9  C   UNL d   1       8.480   6.034 -12.265  0.00  0.00     0.131 C 
BRANCH   9  10
ATOM     10  N   UNL d   1       8.440   4.825 -13.081  0.00  0.00    -0.234 NA
ATOM     11  C   UNL d   1       9.510   4.257 -13.664  0.00  0.00     0.275 C 
ATOM     12  O   UNL d   1      10.646   4.738 -13.590  0.00  0.00    -0.266 OA
BRANCH  11  13
ATOM     13  C   UNL d   1       9.252   2.984 -14.430  0.00  0.00     0.059 A 
ATOM     14  C   UNL d   1       7.976   2.366 -14.444  0.00  0.00     0.005 A 
ATOM     15  C   UNL d   1       7.763   1.179 -15.163  0.00  0.00     0.002 A 
ATOM     16  C   UNL d   1       8.811   0.603 -15.899  0.00  0.00     0.024 A 
ATOM     17  C   UNL d   1      10.094   1.203 -15.904  0.00  0.00     0.094 A 
ATOM     18  C   UNL d   1      10.301   2.382 -15.161  0.00  0.00     0.029 A 
BRANCH  17  19
ATOM     19  O   UNL d   1      11.171   0.713 -16.607  0.00  0.00    -0.328 OA
ATOM     20  C   UNL d   1      10.945  -0.365 -17.503  0.00  0.00     0.181 C 
ENDBRANCH  17  19
ENDBRANCH  11  13
ENDBRANCH   9  10
ENDBRANCH   8   9
ENDBRANCH   7   8
ENDBRANCH   1   7
BRANCH   4  21
ATOM     21  C   UNL d   1      11.556   7.716  -5.216  0.00  0.00     0.079 A 
ATOM     22  C   UNL d   1      11.458   9.095  -4.962  0.00  0.00     0.110 A 
ATOM     23  C   UNL d   1      11.624   9.586  -3.641  0.00  0.00     0.026 A 
ATOM     24  C   UNL d   1      11.902   8.713  -2.584  0.00  0.00     0.002 A 
ATOM     25  C   UNL d   1      12.005   7.335  -2.827  0.00  0.00     0.002 A 
ATOM     26  C   UNL d   1      11.854   6.846  -4.145  0.00  0.00     0.019 A 
BRANCH  22  27
ATOM     27  O   UNL d   1      11.110   9.890  -6.015  0.00  0.00    -0.327 OA
ATOM     28  C   UNL d   1      11.776  11.122  -6.072  0.00  0.00     0.181 C 
ENDBRANCH  22  27
ENDBRANCH   4  21
TORSDOF 8
