REMARK  4 active torsions:
REMARK  status: ('A' for Active; 'I' for Inactive)
REMARK    1  A    between atoms: C_4  and  C_5 
REMARK    2  A    between atoms: C_5  and  C_6 
REMARK    3  A    between atoms: C_10  and  N_11 
REMARK    4  A    between atoms: N_11  and  C_12 
ROOT
ATOM      1  C   UNL d   1       7.789   4.843 -13.050  0.00  0.00     0.145 A 
ATOM      2  N   UNL d   1       6.745   4.074 -12.748  0.00  0.00    -0.235 NA
ATOM      3  C   UNL d   1       6.619   2.887 -13.392  0.00  0.00     0.061 A 
ATOM      4  C   UNL d   1       7.537   2.531 -14.409  0.00  0.00     0.029 A 
ATOM      5  C   UNL d   1       8.587   3.434 -14.642  0.00  0.00     0.161 A 
ATOM      6  N   UNL d   1       8.726   4.578 -13.967  0.00  0.00    -0.212 NA
ATOM      7  C   UNL d   1       7.455   1.275 -15.248  0.00  0.00     0.069 C 
ATOM      8  C   UNL d   1       7.351   0.004 -14.426  0.00  0.00     0.295 C 
ATOM      9  N   UNL d   1       6.012  -0.263 -13.916  0.00  0.00     0.340 N 
ATOM     10  C   UNL d   1       5.811   0.483 -12.692  0.00  0.00     0.296 C 
ATOM     11  C   UNL d   1       5.485   1.975 -12.929  0.00  0.00     0.084 C 
ENDROOT
BRANCH   1  12
ATOM     12  C   UNL d   1       7.927   6.141 -12.267  0.00  0.00     0.092 C 
BRANCH  12  13
ATOM     13  C   UNL d   1       8.665   5.971 -10.947  0.00  0.00    -0.015 A 
ATOM     14  C   UNL d   1       8.310   4.928 -10.064  0.00  0.00    -0.004 A 
ATOM     15  C   UNL d   1       8.973   4.786  -8.833  0.00  0.00    -0.000 A 
ATOM     16  C   UNL d   1       9.976   5.700  -8.463  0.00  0.00    -0.000 A 
ATOM     17  C   UNL d   1      10.335   6.742  -9.340  0.00  0.00    -0.000 A 
ATOM     18  C   UNL d   1       9.686   6.873 -10.582  0.00  0.00    -0.004 A 
ENDBRANCH  12  13
ENDBRANCH   1  12
BRANCH   5  19
ATOM     19  N   UNL d   1       9.550   3.144 -15.633  0.00  0.00    -0.227 NA
BRANCH  19  20
ATOM     20  C   UNL d   1      10.560   3.962 -16.105  0.00  0.00     0.083 A 
ATOM     21  C   UNL d   1      11.901   3.521 -16.053  0.00  0.00     0.019 A 
ATOM     22  C   UNL d   1      12.945   4.339 -16.529  0.00  0.00     0.002 A 
ATOM     23  C   UNL d   1      12.649   5.607 -17.076  0.00  0.00     0.000 A 
ATOM     24  C   UNL d   1      11.309   6.042 -17.155  0.00  0.00     0.002 A 
ATOM     25  C   UNL d   1      10.273   5.222 -16.665  0.00  0.00     0.019 A 
ENDBRANCH  19  20
ENDBRANCH   5  19
TORSDOF 4
