REMARK  3 active torsions:
REMARK  status: ('A' for Active; 'I' for Inactive)
REMARK    1  A    between atoms: N_5  and  C_6 
REMARK    2  A    between atoms: C_18  and  C_19 
REMARK    3  A    between atoms: C_19  and  C_20 
ROOT
ATOM      1  C   UNL d   1       7.976   1.999 -15.672  0.00  0.00     0.264 C 
ATOM      2  C   UNL d   1       7.160   1.563 -16.920  0.00  0.00     0.011 C 
ATOM      3  C   UNL d   1       6.079   0.514 -16.895  0.00  0.00     0.004 A 
ATOM      4  C   UNL d   1       5.332   0.464 -18.089  0.00  0.00     0.000 A 
ATOM      5  C   UNL d   1       4.264  -0.429 -18.237  0.00  0.00     0.000 A 
ATOM      6  C   UNL d   1       3.959  -1.302 -17.177  0.00  0.00     0.001 A 
ATOM      7  C   UNL d   1       4.723  -1.297 -15.992  0.00  0.00     0.006 A 
ATOM      8  C   UNL d   1       5.789  -0.396 -15.849  0.00  0.00     0.029 A 
ATOM      9  S   UNL d   1       6.680  -0.413 -14.345  0.00  0.00    -0.087 SA
ATOM     10  C   UNL d   1       6.368   1.209 -13.865  0.00  0.00     0.028 A 
ATOM     11  C   UNL d   1       5.472   1.424 -12.815  0.00  0.00     0.006 A 
ATOM     12  C   UNL d   1       5.246   2.726 -12.361  0.00  0.00    -0.003 A 
ATOM     13  C   UNL d   1       5.890   3.822 -12.972  0.00  0.00    -0.015 A 
ATOM     14  C   UNL d   1       6.790   3.595 -14.028  0.00  0.00    -0.005 A 
ATOM     15  C   UNL d   1       7.035   2.279 -14.496  0.00  0.00     0.018 A 
ENDROOT
BRANCH   1  16
ATOM     16  N   UNL d   1       8.891   3.154 -15.930  0.00  0.00     0.147 N 
ATOM     17  C   UNL d   1       9.317   3.377 -17.322  0.00  0.00     0.286 C 
ATOM     18  C   UNL d   1      10.283   2.281 -17.797  0.00  0.00     0.286 C 
ATOM     19  N   UNL d   1      11.466   2.273 -16.971  0.00  0.00     0.143 N 
ATOM     20  C   UNL d   1      12.302   1.202 -17.420  0.00  0.00     0.285 C 
ATOM     21  C   UNL d   1      11.112   2.105 -15.547  0.00  0.00     0.286 C 
ATOM     22  C   UNL d   1      10.083   3.166 -15.081  0.00  0.00     0.286 C 
ENDBRANCH   1  16
BRANCH  13  23
ATOM     23  C   UNL d   1       5.665   5.241 -12.475  0.00  0.00     0.094 C 
BRANCH  23  24
ATOM     24  C   UNL d   1       6.904   6.063 -12.300  0.00  0.00     0.165 A 
ATOM     25  N   UNL d   1       8.007   5.655 -11.664  0.00  0.00    -0.215 N 
ATOM     26  N   UNL d   1       8.937   6.636 -11.776  0.00  0.00    -0.043 NA
ATOM     27  C   UNL d   1       8.308   4.432 -10.972  0.00  0.00     0.157 C 
ATOM     28  N   UNL d   1       8.370   7.607 -12.438  0.00  0.00    -0.023 NA
ATOM     29  N   UNL d   1       7.064   7.293 -12.776  0.00  0.00    -0.112 NA
ENDBRANCH  23  24
ENDBRANCH  13  23
TORSDOF 3
