REMARK  7 active torsions:
REMARK  status: ('A' for Active; 'I' for Inactive)
REMARK    1  A    between atoms: C_2  and  C_3 
REMARK    2  A    between atoms: C_2  and  C_15 
REMARK    3  A    between atoms: C_3  and  O_4 
REMARK    4  A    between atoms: O_4  and  C_5 
REMARK    5  A    between atoms: C_15  and  N_16 
REMARK    6  A    between atoms: C_19  and  O_20 
REMARK    7  A    between atoms: O_20  and  C_21 
ROOT
ATOM      1  O   UNL d   1       8.361   6.769 -12.129  0.00  0.00    -0.219 OA
ATOM      2  C   UNL d   1       8.513   5.368 -12.018  0.00  0.00     0.215 C 
ENDROOT
BRANCH   2   3
ATOM      3  C   UNL d   1       9.749   4.848 -12.782  0.00  0.00     0.184 C 
BRANCH   3   4
ATOM      4  O   UNL d   1       9.443   4.788 -14.179  0.00  0.00    -0.328 OA
BRANCH   4   5
ATOM      5  C   UNL d   1       9.867   3.714 -14.944  0.00  0.00     0.094 A 
ATOM      6  C   UNL d   1       9.882   3.876 -16.353  0.00  0.00     0.022 A 
ATOM      7  C   UNL d   1      10.284   2.798 -17.188  0.00  0.00     0.002 A 
ATOM      8  C   UNL d   1       9.501   5.097 -16.956  0.00  0.00     0.002 A 
ATOM      9  C   UNL d   1      10.671   1.569 -16.619  0.00  0.00     0.000 A 
ATOM     10  C   UNL d   1      10.301   2.954 -18.585  0.00  0.00     0.000 A 
ATOM     11  C   UNL d   1      10.649   1.405 -15.226  0.00  0.00     0.002 A 
ATOM     12  C   UNL d   1      10.245   2.471 -14.393  0.00  0.00     0.024 A 
ATOM     13  C   UNL d   1       9.917   4.178 -19.171  0.00  0.00     0.000 A 
ATOM     14  C   UNL d   1       9.515   5.250 -18.356  0.00  0.00     0.000 A 
ENDBRANCH   4   5
ENDBRANCH   3   4
ENDBRANCH   2   3
BRANCH   2  15
ATOM     15  C   UNL d   1       8.572   4.942 -10.534  0.00  0.00     0.285 C 
BRANCH  15  16
ATOM     16  N   UNL d   1       8.922   5.996  -9.573  0.00  0.00     0.140 N 
ATOM     17  C   UNL d   1       8.722   5.542  -8.191  0.00  0.00     0.253 C 
ATOM     18  C   UNL d   1       9.009   6.666  -7.173  0.00  0.00     0.066 C 
ATOM     19  C   UNL d   1      10.438   7.208  -7.362  0.00  0.00     0.125 C 
ATOM     20  C   UNL d   1      10.646   7.607  -8.823  0.00  0.00     0.066 C 
ATOM     21  C   UNL d   1      10.304   6.431  -9.745  0.00  0.00     0.253 C 
BRANCH  19  22
ATOM     22  O   UNL d   1      10.640   8.370  -6.575  0.00  0.00    -0.333 OA
BRANCH  22  23
ATOM     23  C   UNL d   1      11.138   8.296  -5.291  0.00  0.00     0.094 A 
ATOM     24  C   UNL d   1      11.453   7.091  -4.608  0.00  0.00     0.024 A 
ATOM     25  C   UNL d   1      11.981   7.141  -3.299  0.00  0.00     0.002 A 
ATOM     26  C   UNL d   1      12.191   8.376  -2.665  0.00  0.00     0.000 A 
ATOM     27  C   UNL d   1      11.858   9.571  -3.328  0.00  0.00     0.002 A 
ATOM     28  C   UNL d   1      11.343   9.523  -4.640  0.00  0.00     0.024 A 
ENDBRANCH  22  23
ENDBRANCH  19  22
ENDBRANCH  15  16
ENDBRANCH   2  15
TORSDOF 7
