REMARK  9 active torsions:
REMARK  status: ('A' for Active; 'I' for Inactive)
REMARK    1  A    between atoms: O_2  and  C_3 
REMARK    2  A    between atoms: C_8  and  C_9 
REMARK       I    between atoms: C_9  and  N_11 
REMARK    3  A    between atoms: N_11  and  C_12 
REMARK    4  A    between atoms: C_12  and  C_13 
REMARK    5  A    between atoms: C_13  and  C_14 
REMARK    6  A    between atoms: C_14  and  C_16 
REMARK    7  A    between atoms: C_16  and  N_17 
REMARK    8  A    between atoms: N_20  and  C_21 
REMARK    9  A    between atoms: C_26  and  O_27 
ROOT
ATOM      1  C   UNL d   1       9.175   4.054 -13.820  0.00  0.00     0.196 C 
ATOM      2  F   UNL d   1      10.002   4.710 -14.634  0.00  0.00    -0.235 F 
ENDROOT
BRANCH   1   3
ATOM      3  C   UNL d   1       9.482   4.449 -12.374  0.00  0.00     0.064 C 
BRANCH   3   4
ATOM      4  C   UNL d   1       9.166   5.920 -12.068  0.00  0.00     0.132 C 
BRANCH   4   5
ATOM      5  N   UNL d   1       9.503   6.237 -10.688  0.00  0.00    -0.233 NA
ATOM      6  C   UNL d   1       9.862   7.454 -10.256  0.00  0.00     0.298 C 
ATOM      7  O   UNL d   1       9.860   8.450 -10.977  0.00  0.00    -0.263 OA
BRANCH   6   8
ATOM      8  C   UNL d   1      10.250   7.546  -8.838  0.00  0.00     0.157 A 
ATOM      9  O   UNL d   1      10.518   8.794  -8.339  0.00  0.00    -0.302 OA
ATOM     10  C   UNL d   1      10.874   8.644  -7.026  0.00  0.00     0.100 A 
ATOM     11  C   UNL d   1      11.220   9.667  -6.146  0.00  0.00     0.027 A 
ATOM     12  C   UNL d   1      10.853   7.278  -6.662  0.00  0.00     0.027 A 
ATOM     13  C   UNL d   1      11.568   9.337  -4.830  0.00  0.00     0.026 A 
ATOM     14  C   UNL d   1      11.582   7.974  -4.399  0.00  0.00     0.094 A 
ATOM     15  C   UNL d   1      11.217   6.968  -5.324  0.00  0.00     0.026 A 
ATOM     16  C   UNL d   1      10.450   6.582  -7.864  0.00  0.00     0.032 A 
BRANCH  14  17
ATOM     17  O   UNL d   1      11.914   7.554  -3.127  0.00  0.00    -0.328 OA
ATOM     18  C   UNL d   1      12.282   8.554  -2.183  0.00  0.00     0.181 C 
ENDBRANCH  14  17
ENDBRANCH   6   8
ENDBRANCH   4   5
ENDBRANCH   3   4
ENDBRANCH   1   3
BRANCH   1  19
ATOM     19  C   UNL d   1       9.361   2.539 -14.060  0.00  0.00     0.285 C 
BRANCH  19  20
ATOM     20  N   UNL d   1       8.901   2.125 -15.388  0.00  0.00     0.144 N 
ATOM     21  C   UNL d   1       7.433   2.052 -15.419  0.00  0.00     0.274 C 
ATOM     22  C   UNL d   1       6.941   1.649 -16.820  0.00  0.00     0.137 C 
ATOM     23  N   UNL d   1       7.540   0.384 -17.212  0.00  0.00    -0.343 N 
ATOM     24  C   UNL d   1       8.991   0.333 -17.097  0.00  0.00     0.137 C 
ATOM     25  C   UNL d   1       9.430   0.788 -15.689  0.00  0.00     0.274 C 
BRANCH  23  26
ATOM     26  C   UNL d   1       6.764  -0.689 -17.657  0.00  0.00     0.079 A 
ATOM     27  C   UNL d   1       7.134  -1.441 -18.807  0.00  0.00     0.110 A 
ATOM     28  C   UNL d   1       6.326  -2.531 -19.209  0.00  0.00     0.026 A 
ATOM     29  C   UNL d   1       5.162  -2.871 -18.494  0.00  0.00     0.002 A 
ATOM     30  C   UNL d   1       4.785  -2.115 -17.373  0.00  0.00     0.002 A 
ATOM     31  C   UNL d   1       5.579  -1.029 -16.962  0.00  0.00     0.019 A 
BRANCH  27  32
ATOM     32  O   UNL d   1       8.275  -1.053 -19.487  0.00  0.00    -0.327 OA
ATOM     33  C   UNL d   1       8.530  -1.605 -20.765  0.00  0.00     0.181 C 
ENDBRANCH  27  32
ENDBRANCH  23  26
ENDBRANCH  19  20
ENDBRANCH   1  19
TORSDOF 9
