REMARK  5 active torsions:
REMARK  status: ('A' for Active; 'I' for Inactive)
REMARK    1  A    between atoms: C_2  and  C_3 
REMARK    2  A    between atoms: C_2  and  C_10 
REMARK    3  A    between atoms: N_13  and  C_14 
REMARK    4  A    between atoms: C_14  and  C_15 
REMARK    5  A    between atoms: C_15  and  C_16 
ROOT
ATOM      1  C   UNL d   1      10.688   3.667 -15.780  0.00  0.00     0.066 C 
ATOM      2  C   UNL d   1      12.121   3.091 -15.797  0.00  0.00     0.043 C 
ATOM      3  C   UNL d   1      12.524   2.711 -17.231  0.00  0.00     0.251 C 
ATOM      4  N   UNL d   1      12.421   3.870 -18.120  0.00  0.00     0.137 N 
ATOM      5  C   UNL d   1      11.016   4.295 -18.215  0.00  0.00     0.251 C 
ATOM      6  C   UNL d   1      10.487   4.772 -16.843  0.00  0.00     0.043 C 
ENDROOT
BRANCH   4   7
ATOM      7  C   UNL d   1      13.349   4.912 -17.712  0.00  0.00     0.251 C 
BRANCH   7   8
ATOM      8  C   UNL d   1      13.484   6.030 -18.765  0.00  0.00     0.043 C 
BRANCH   8   9
ATOM      9  C   UNL d   1      14.407   7.149 -18.268  0.00  0.00     0.064 C 
ATOM     10  C   UNL d   1      15.895   6.742 -18.380  0.00  0.00     0.174 C 
ATOM     11  C   UNL d   1      16.860   7.834 -18.442  0.00  0.00     0.055 A 
ATOM     12  O   UNL d   1      16.278   5.577 -18.391  0.00  0.00    -0.291 OA
ATOM     13  C   UNL d   1      16.451   9.126 -18.549  0.00  0.00     0.080 A 
ATOM     14  C   UNL d   1      18.273   7.867 -18.430  0.00  0.00     0.031 A 
ATOM     15  C   UNL d   1      15.038   9.640 -18.620  0.00  0.00     0.052 C 
ATOM     16  O   UNL d   1      17.483   9.970 -18.561  0.00  0.00    -0.309 OA
ATOM     17  C   UNL d   1      14.089   8.496 -18.981  0.00  0.00     0.015 C 
ATOM     18  C   UNL d   1      18.603   9.196 -18.495  0.00  0.00     0.122 A 
ENDBRANCH   8   9
ENDBRANCH   7   8
ENDBRANCH   4   7
BRANCH   1  19
ATOM     19  C   UNL d   1      10.336   4.198 -14.384  0.00  0.00     0.173 C 
ATOM     20  O   UNL d   1      11.192   4.768 -13.710  0.00  0.00    -0.291 OA
BRANCH  19  21
ATOM     21  C   UNL d   1       8.928   4.075 -13.903  0.00  0.00     0.035 A 
ATOM     22  C   UNL d   1       8.033   3.123 -14.435  0.00  0.00     0.005 A 
ATOM     23  C   UNL d   1       6.720   3.040 -13.953  0.00  0.00     0.030 A 
ATOM     24  C   UNL d   1       6.303   3.882 -12.907  0.00  0.00     0.140 A 
ATOM     25  C   UNL d   1       7.194   4.818 -12.350  0.00  0.00     0.030 A 
ATOM     26  F   UNL d   1       5.042   3.776 -12.439  0.00  0.00    -0.204 F 
ATOM     27  C   UNL d   1       8.504   4.916 -12.847  0.00  0.00     0.005 A 
ENDBRANCH  19  21
ENDBRANCH   1  19
TORSDOF 5
