REMARK  5 active torsions:
REMARK  status: ('A' for Active; 'I' for Inactive)
REMARK    1  A    between atoms: N_11  and  C_12 
REMARK    2  A    between atoms: C_12  and  C_13 
REMARK    3  A    between atoms: C_15  and  C_16 
REMARK    4  A    between atoms: C_16  and  N_17 
REMARK       I    between atoms: N_17  and  C_18 
REMARK    5  A    between atoms: C_18  and  C_20 
ROOT
ATOM      1  N   UNL d   1      15.465   6.345 -16.854  0.00  0.00    -0.191 NA
ATOM      2  C   UNL d   1      14.451   5.789 -16.876  0.00  0.00     0.101 C 
ATOM      3  C   UNL d   1      13.177   5.072 -16.900  0.00  0.00     0.068 A 
ATOM      4  C   UNL d   1      12.386   5.036 -18.071  0.00  0.00     0.010 A 
ATOM      5  C   UNL d   1      11.183   4.305 -18.091  0.00  0.00    -0.002 A 
ATOM      6  C   UNL d   1      10.752   3.624 -16.945  0.00  0.00     0.007 A 
ATOM      7  C   UNL d   1      11.531   3.665 -15.771  0.00  0.00    -0.022 A 
ATOM      8  C   UNL d   1      12.734   4.391 -15.745  0.00  0.00     0.006 A 
ATOM      9  C   UNL d   1      11.060   2.936 -14.529  0.00  0.00     0.061 C 
ATOM     10  C   UNL d   1       9.979   1.896 -14.819  0.00  0.00     0.255 C 
ATOM     11  N   UNL d   1       8.922   2.516 -15.627  0.00  0.00     0.142 N 
ATOM     12  C   UNL d   1       9.477   2.798 -16.964  0.00  0.00     0.276 C 
ENDROOT
BRANCH  11  13
ATOM     13  C   UNL d   1       7.745   1.649 -15.758  0.00  0.00     0.251 C 
BRANCH  13  14
ATOM     14  C   UNL d   1       7.006   1.464 -14.444  0.00  0.00     0.035 A 
ATOM     15  C   UNL d   1       5.937   2.460 -14.042  0.00  0.00     0.026 A 
ATOM     16  C   UNL d   1       5.557   1.040 -14.440  0.00  0.00     0.004 A 
BRANCH  15  17
ATOM     17  C   UNL d   1       5.790   2.916 -12.606  0.00  0.00     0.129 C 
BRANCH  17  18
ATOM     18  N   UNL d   1       6.750   3.950 -12.259  0.00  0.00    -0.234 NA
ATOM     19  C   UNL d   1       6.527   5.256 -12.355  0.00  0.00     0.275 C 
ATOM     20  O   UNL d   1       5.510   5.736 -12.835  0.00  0.00    -0.266 OA
BRANCH  19  21
ATOM     21  C   UNL d   1       7.670   6.134 -11.916  0.00  0.00     0.060 A 
ATOM     22  C   UNL d   1       8.483   5.912 -10.763  0.00  0.00     0.022 A 
ATOM     23  C   UNL d   1       9.486   6.884 -10.443  0.00  0.00     0.082 A 
ATOM     24  C   UNL d   1       8.283   4.832  -9.876  0.00  0.00     0.002 A 
ATOM     25  N   UNL d   1       9.703   7.981 -11.187  0.00  0.00    -0.244 NA
ATOM     26  C   UNL d   1      10.294   6.711  -9.307  0.00  0.00     0.019 A 
ATOM     27  C   UNL d   1       8.895   8.207 -12.232  0.00  0.00     0.099 A 
ATOM     28  C   UNL d   1       7.872   7.331 -12.620  0.00  0.00     0.025 A 
ATOM     29  C   UNL d   1      10.110   5.608  -8.457  0.00  0.00     0.002 A 
ATOM     30  C   UNL d   1       9.104   4.672  -8.749  0.00  0.00     0.000 A 
ENDBRANCH  19  21
ENDBRANCH  17  18
ENDBRANCH  15  17
ENDBRANCH  13  14
ENDBRANCH  11  13
TORSDOF 5
