REMARK  2 active torsions:
REMARK  status: ('A' for Active; 'I' for Inactive)
REMARK    1  A    between atoms: C_6  and  C_7 
REMARK    2  A    between atoms: C_13  and  C_14 
ROOT
ATOM      1  C   UNL d   1       6.792   3.592 -13.059  0.00  0.00     0.040 A 
ATOM      2  C   UNL d   1       5.676   3.250 -12.333  0.00  0.00     0.101 A 
ATOM      3  N   UNL d   1       5.116   2.090 -12.839  0.00  0.00    -0.244 NA
ATOM      4  C   UNL d   1       5.869   1.612 -13.884  0.00  0.00     0.084 A 
ATOM      5  C   UNL d   1       5.714   0.486 -14.702  0.00  0.00     0.019 A 
ATOM      6  C   UNL d   1       6.651   0.243 -15.718  0.00  0.00     0.009 A 
ATOM      7  C   UNL d   1       7.754   1.113 -15.903  0.00  0.00     0.087 A 
ATOM      8  C   UNL d   1       7.886   2.252 -15.065  0.00  0.00     0.146 A 
ATOM      9  F   UNL d   1       8.938   3.091 -15.239  0.00  0.00    -0.204 F 
ATOM     10  C   UNL d   1       6.942   2.539 -14.046  0.00  0.00     0.048 A 
ENDROOT
BRANCH   1  11
ATOM     11  C   UNL d   1       7.670   4.742 -12.834  0.00  0.00     0.082 A 
ATOM     12  N   UNL d   1       7.219   6.005 -12.436  0.00  0.00    -0.307 N 
ATOM     13  C   UNL d   1       5.862   6.469 -12.203  0.00  0.00     0.132 C 
ATOM     14  C   UNL d   1       8.324   6.758 -12.360  0.00  0.00     0.179 A 
ATOM     15  N   UNL d   1       9.453   6.129 -12.648  0.00  0.00    -0.223 NA
ATOM     16  C   UNL d   1       9.043   4.832 -12.942  0.00  0.00     0.118 A 
ENDBRANCH   1  11
BRANCH   7  17
ATOM     17  C   UNL d   1       8.749   0.851 -17.003  0.00  0.00     0.299 C 
ATOM     18  N   UNL d   1       8.915  -0.427 -17.335  0.00  0.00    -0.102 N 
ATOM     19  O   UNL d   1       9.388   1.750 -17.543  0.00  0.00    -0.264 OA
ENDBRANCH   7  17
TORSDOF 2
