REMARK  9 active torsions:
REMARK  status: ('A' for Active; 'I' for Inactive)
REMARK    1  A    between atoms: N_13  and  C_14 
REMARK    2  A    between atoms: C_14  and  C_15 
REMARK    3  A    between atoms: C_15  and  C_16 
REMARK    4  A    between atoms: C_16  and  C_17 
REMARK    5  A    between atoms: C_17  and  C_18 
REMARK    6  A    between atoms: C_18  and  C_19 
REMARK    7  A    between atoms: C_19  and  N_20 
REMARK    8  A    between atoms: N_23  and  C_24 
REMARK    9  A    between atoms: C_28  and  C_29 
ROOT
ATOM      1  C   UNL d   1       7.426   4.353 -11.581  0.00  0.00     0.035 C 
ENDROOT
BRANCH   1   2
ATOM      2  C   UNL d   1       6.099   4.286 -12.354  0.00  0.00     0.002 C 
BRANCH   2   3
ATOM      3  C   UNL d   1       5.684   2.852 -12.728  0.00  0.00     0.002 C 
BRANCH   3   4
ATOM      4  C   UNL d   1       6.458   2.339 -13.953  0.00  0.00     0.025 C 
BRANCH   4   5
ATOM      5  C   UNL d   1       6.212   0.845 -14.251  0.00  0.00     0.109 C 
BRANCH   5   6
ATOM      6  N   UNL d   1       6.867   0.406 -15.486  0.00  0.00    -0.296 N 
ATOM      7  C   UNL d   1       6.255  -0.135 -16.568  0.00  0.00     0.261 A 
ATOM      8  O   UNL d   1       5.060  -0.379 -16.742  0.00  0.00    -0.267 OA
ATOM      9  C   UNL d   1       7.351  -0.394 -17.545  0.00  0.00     0.058 A 
ATOM     10  C   UNL d   1       8.554   0.001 -17.004  0.00  0.00     0.021 A 
ATOM     11  C   UNL d   1       7.361  -0.966 -18.832  0.00  0.00     0.005 A 
ATOM     12  C   UNL d   1       9.811  -0.095 -17.610  0.00  0.00     0.002 A 
ATOM     13  C   UNL d   1       8.272   0.492 -15.739  0.00  0.00     0.063 A 
ATOM     14  C   UNL d   1       9.816  -0.666 -18.903  0.00  0.00     0.000 A 
ATOM     15  C   UNL d   1      10.890   0.392 -16.843  0.00  0.00     0.000 A 
ATOM     16  C   UNL d   1       8.603  -1.098 -19.505  0.00  0.00     0.000 A 
ATOM     17  C   UNL d   1      10.662   0.907 -15.539  0.00  0.00     0.002 A 
ATOM     18  C   UNL d   1       9.368   0.940 -14.972  0.00  0.00     0.017 A 
ENDBRANCH   5   6
ENDBRANCH   4   5
ENDBRANCH   3   4
ENDBRANCH   2   3
ENDBRANCH   1   2
BRANCH   1  19
ATOM     19  C   UNL d   1       7.900   5.792 -11.338  0.00  0.00     0.250 C 
BRANCH  19  20
ATOM     20  N   UNL d   1       9.077   5.828 -10.473  0.00  0.00     0.141 N 
ATOM     21  C   UNL d   1       8.659   5.682  -9.069  0.00  0.00     0.274 C 
ATOM     22  C   UNL d   1       9.873   5.731  -8.136  0.00  0.00     0.137 C 
ATOM     23  N   UNL d   1      10.622   6.960  -8.338  0.00  0.00    -0.344 N 
ATOM     24  C   UNL d   1      10.972   7.243  -9.723  0.00  0.00     0.137 C 
ATOM     25  C   UNL d   1       9.729   7.139 -10.618  0.00  0.00     0.274 C 
BRANCH  23  26
ATOM     26  C   UNL d   1      10.963   7.803  -7.262  0.00  0.00     0.056 A 
ATOM     27  C   UNL d   1      11.183   7.273  -5.971  0.00  0.00     0.021 A 
ATOM     28  C   UNL d   1      11.515   8.112  -4.887  0.00  0.00     0.073 A 
ATOM     29  C   UNL d   1      11.633   9.499  -5.096  0.00  0.00     0.004 A 
ATOM     30  C   UNL d   1      11.436  10.036  -6.380  0.00  0.00     0.001 A 
ATOM     31  C   UNL d   1      11.098   9.190  -7.457  0.00  0.00     0.017 A 
BRANCH  28  32
ATOM     32  C   UNL d   1      11.782   7.517  -3.509  0.00  0.00     0.419 C 
ATOM     33  F   UNL d   1      13.061   7.222  -3.369  0.00  0.00    -0.166 F 
ATOM     34  F   UNL d   1      11.454   8.374  -2.543  0.00  0.00    -0.166 F 
ATOM     35  F   UNL d   1      11.079   6.396  -3.347  0.00  0.00    -0.166 F 
ENDBRANCH  28  32
ENDBRANCH  23  26
ENDBRANCH  19  20
ENDBRANCH   1  19
TORSDOF 9
