REMARK  7 active torsions:
REMARK  status: ('A' for Active; 'I' for Inactive)
REMARK    1  A    between atoms: C_5  and  C_6 
REMARK    2  A    between atoms: C_6  and  N_7 
REMARK    3  A    between atoms: N_7  and  C_8 
REMARK    4  A    between atoms: C_8  and  C_9 
REMARK    5  A    between atoms: C_9  and  N_10 
REMARK    6  A    between atoms: N_13  and  C_14 
REMARK    7  A    between atoms: C_14  and  C_15 
ROOT
ATOM      1  N   UNL d   1       8.680   5.972 -10.414  0.00  0.00     0.143 N 
ATOM      2  C   UNL d   1       9.723   6.831 -10.964  0.00  0.00     0.286 C 
ATOM      3  C   UNL d   1       9.953   8.073 -10.080  0.00  0.00     0.286 C 
ATOM      4  N   UNL d   1      10.274   7.691  -8.696  0.00  0.00     0.147 N 
ATOM      5  C   UNL d   1       9.168   6.857  -8.193  0.00  0.00     0.286 C 
ATOM      6  C   UNL d   1       9.014   5.603  -9.052  0.00  0.00     0.286 C 
ENDROOT
BRANCH   1   7
ATOM      7  C   UNL d   1       8.400   4.806 -11.224  0.00  0.00     0.276 C 
BRANCH   7   8
ATOM      8  C   UNL d   1       7.452   5.109 -12.407  0.00  0.00     0.156 C 
BRANCH   8   9
ATOM      9  N   UNL d   1       6.438   4.043 -12.451  0.00  0.00    -0.289 NA
BRANCH   9  10
ATOM     10  C   UNL d   1       6.054   3.554 -13.769  0.00  0.00     0.146 C 
BRANCH  10  11
ATOM     11  C   UNL d   1       7.081   2.627 -14.438  0.00  0.00     0.002 A 
ATOM     12  C   UNL d   1       8.385   3.082 -14.781  0.00  0.00    -0.002 A 
ATOM     13  C   UNL d   1       9.313   2.188 -15.330  0.00  0.00     0.006 A 
ATOM     14  C   UNL d   1       8.957   0.853 -15.633  0.00  0.00     0.035 A 
ATOM     15 BR   UNL d   1      10.247  -0.273 -16.488  0.00  0.00    -0.049 Br
ATOM     16  C   UNL d   1       7.644   0.405 -15.353  0.00  0.00     0.006 A 
ATOM     17  C   UNL d   1       6.713   1.285 -14.743  0.00  0.00    -0.002 A 
ENDBRANCH  10  11
ENDBRANCH   9  10
ENDBRANCH   8   9
ENDBRANCH   7   8
ENDBRANCH   1   7
BRANCH   4  18
ATOM     18  C   UNL d   1      10.514   8.870  -7.869  0.00  0.00     0.296 C 
BRANCH  18  19
ATOM     19  C   UNL d   1      10.975   8.566  -6.476  0.00  0.00     0.092 A 
ATOM     20  N   UNL d   1      11.164   9.566  -5.531  0.00  0.00    -0.248 NA
ATOM     21  C   UNL d   1      11.554   9.035  -4.326  0.00  0.00     0.081 A 
ATOM     22  C   UNL d   1      11.603   7.619  -4.528  0.00  0.00     0.019 A 
ATOM     23  C   UNL d   1      11.870   9.592  -3.083  0.00  0.00     0.019 A 
ATOM     24  C   UNL d   1      11.285   7.361  -5.890  0.00  0.00     0.018 A 
ATOM     25  C   UNL d   1      11.949   6.800  -3.437  0.00  0.00     0.002 A 
ATOM     26  C   UNL d   1      12.274   7.356  -2.193  0.00  0.00     0.000 A 
ATOM     27  C   UNL d   1      12.240   8.757  -2.025  0.00  0.00     0.002 A 
ENDBRANCH  18  19
ENDBRANCH   4  18
TORSDOF 7
