REMARK  7 active torsions:
REMARK  status: ('A' for Active; 'I' for Inactive)
REMARK    1  A    between atoms: C_2  and  C_3 
REMARK    2  A    between atoms: C_3  and  N_4 
REMARK    3  A    between atoms: N_4  and  C_5 
REMARK    4  A    between atoms: N_4  and  C_19 
REMARK    5  A    between atoms: C_5  and  C_6 
REMARK    6  A    between atoms: C_6  and  N_7 
REMARK    7  A    between atoms: N_10  and  C_11 
ROOT
ATOM      1  N   UNL d   1       8.637   5.717 -11.903  0.00  0.00     0.137 N 
ENDROOT
BRANCH   1   2
ATOM      2  C   UNL d   1       7.918   6.793 -12.621  0.00  0.00     0.250 C 
BRANCH   2   3
ATOM      3  C   UNL d   1       6.351   6.820 -12.529  0.00  0.00     0.035 C 
ATOM      4  C   UNL d   1       5.745   8.136 -12.941  0.00  0.00     0.002 C 
ENDBRANCH   2   3
ENDBRANCH   1   2
BRANCH   1   5
ATOM      5  C   UNL d   1       8.202   5.675 -10.527  0.00  0.00     0.285 C 
BRANCH   5   6
ATOM      6  C   UNL d   1       9.197   5.173  -9.459  0.00  0.00     0.286 C 
BRANCH   6   7
ATOM      7  N   UNL d   1      10.071   6.197  -8.878  0.00  0.00     0.143 N 
ATOM      8  C   UNL d   1      10.791   5.630  -7.756  0.00  0.00     0.274 C 
ATOM      9  C   UNL d   1      11.845   6.569  -7.159  0.00  0.00     0.137 C 
ATOM     10  N   UNL d   1      11.168   7.760  -6.731  0.00  0.00    -0.344 N 
ATOM     11  C   UNL d   1      10.324   8.387  -7.743  0.00  0.00     0.137 C 
ATOM     12  C   UNL d   1       9.367   7.361  -8.319  0.00  0.00     0.274 C 
BRANCH  10  13
ATOM     13  C   UNL d   1      11.329   8.261  -5.432  0.00  0.00     0.056 A 
ATOM     14  C   UNL d   1      10.994   9.592  -5.209  0.00  0.00     0.017 A 
ATOM     15  C   UNL d   1      11.134  10.092  -3.922  0.00  0.00     0.002 A 
ATOM     16  C   UNL d   1      11.651   9.338  -2.867  0.00  0.00     0.000 A 
ATOM     17  C   UNL d   1      11.992   8.008  -3.078  0.00  0.00     0.002 A 
ATOM     18  C   UNL d   1      11.824   7.460  -4.371  0.00  0.00     0.017 A 
ENDBRANCH  10  13
ENDBRANCH   6   7
ENDBRANCH   5   6
ENDBRANCH   1   5
BRANCH   1  19
ATOM     19  C   UNL d   1       8.631   4.410 -12.543  0.00  0.00     0.224 C 
ATOM     20  C   UNL d   1       7.237   3.889 -12.957  0.00  0.00     0.059 C 
ATOM     21  C   UNL d   1       7.216   2.621 -13.733  0.00  0.00    -0.023 A 
ATOM     22  C   UNL d   1       8.406   2.125 -14.323  0.00  0.00    -0.026 A 
ATOM     23  C   UNL d   1       6.011   1.885 -13.812  0.00  0.00     0.010 A 
ATOM     24  C   UNL d   1       9.731   2.867 -14.185  0.00  0.00     0.028 C 
ATOM     25  C   UNL d   1       8.374   0.892 -14.990  0.00  0.00    -0.004 A 
ATOM     26  C   UNL d   1       9.574   4.331 -13.740  0.00  0.00     0.038 C 
ATOM     27  C   UNL d   1       7.162   0.171 -15.084  0.00  0.00     0.014 A 
ATOM     28  C   UNL d   1       5.981   0.665 -14.490  0.00  0.00     0.070 A 
ATOM     29  N   UNL d   1       4.798  -0.070 -14.558  0.00  0.00    -0.101 NA
ENDBRANCH   1  19
TORSDOF 7
