REMARK  5 active torsions:
REMARK  status: ('A' for Active; 'I' for Inactive)
REMARK       I    between atoms: C_2  and  N_3 
REMARK    1  A    between atoms: C_2  and  C_16 
REMARK    2  A    between atoms: N_3  and  C_4 
REMARK    3  A    between atoms: N_7  and  C_8 
REMARK    4  A    between atoms: C_8  and  C_9 
REMARK    5  A    between atoms: C_19  and  C_20 
ROOT
ATOM      1  O   UNL d   1       9.498   8.119 -11.222  0.00  0.00    -0.266 OA
ATOM      2  C   UNL d   1       9.480   7.152 -10.459  0.00  0.00     0.275 C 
ATOM      3  N   UNL d   1       8.997   5.937 -10.780  0.00  0.00    -0.234 NA
ENDROOT
BRANCH   2   4
ATOM      4  C   UNL d   1      10.003   7.260  -9.061  0.00  0.00     0.058 A 
ATOM      5  C   UNL d   1       9.317   6.641  -7.996  0.00  0.00     0.005 A 
ATOM      6  C   UNL d   1       9.767   6.810  -6.674  0.00  0.00     0.000 A 
ATOM      7  C   UNL d   1      10.913   7.593  -6.409  0.00  0.00     0.000 A 
ATOM      8  C   UNL d   1      11.583   8.229  -7.474  0.00  0.00     0.000 A 
ATOM      9  C   UNL d   1      11.132   8.061  -8.793  0.00  0.00     0.005 A 
BRANCH   7  10
ATOM     10  C   UNL d   1      11.403   7.752  -5.041  0.00  0.00     0.002 A 
ATOM     11  C   UNL d   1      11.438   9.019  -4.444  0.00  0.00     0.030 A 
ATOM     12  C   UNL d   1      11.861   9.154  -3.120  0.00  0.00     0.140 A 
ATOM     13  C   UNL d   1      12.291   8.043  -2.375  0.00  0.00     0.030 A 
ATOM     14  F   UNL d   1      11.828  10.372  -2.553  0.00  0.00    -0.204 F 
ATOM     15  C   UNL d   1      12.271   6.772  -2.969  0.00  0.00     0.002 A 
ATOM     16  C   UNL d   1      11.827   6.631  -4.298  0.00  0.00     0.000 A 
ENDBRANCH   7  10
ENDBRANCH   2   4
BRANCH   3  17
ATOM     17  C   UNL d   1       8.193   5.618 -11.945  0.00  0.00     0.142 C 
ATOM     18  C   UNL d   1       8.196   4.122 -12.264  0.00  0.00     0.275 C 
ATOM     19  N   UNL d   1       8.101   4.067 -13.718  0.00  0.00     0.143 N 
ATOM     20  C   UNL d   1       9.037   5.075 -14.161  0.00  0.00     0.253 C 
ATOM     21  C   UNL d   1       8.726   6.232 -13.216  0.00  0.00     0.062 C 
BRANCH  19  22
ATOM     22  C   UNL d   1       8.449   2.752 -14.279  0.00  0.00     0.277 C 
BRANCH  22  23
ATOM     23  C   UNL d   1       7.331   1.737 -14.145  0.00  0.00     0.011 A 
ATOM     24  C   UNL d   1       7.557   0.395 -14.520  0.00  0.00    -0.002 A 
ATOM     25  C   UNL d   1       6.522  -0.556 -14.397  0.00  0.00    -0.000 A 
ATOM     26  C   UNL d   1       5.267  -0.180 -13.906  0.00  0.00    -0.000 A 
ATOM     27  C   UNL d   1       5.059   1.149 -13.519  0.00  0.00    -0.000 A 
ATOM     28  C   UNL d   1       6.066   2.112 -13.648  0.00  0.00    -0.002 A 
ENDBRANCH  22  23
ENDBRANCH  19  22
ENDBRANCH   3  17
TORSDOF 5
