REMARK  6 active torsions:
REMARK  status: ('A' for Active; 'I' for Inactive)
REMARK    1  A    between atoms: C_7  and  N_8 
REMARK    2  A    between atoms: N_11  and  C_12 
REMARK    3  A    between atoms: C_12  and  C_13 
REMARK    4  A    between atoms: C_13  and  C_14 
REMARK    5  A    between atoms: C_14  and  N_15 
REMARK    6  A    between atoms: N_15  and  C_16 
ROOT
ATOM      1  N   UNL d   1      10.588   8.080  -6.404  0.00  0.00    -0.343 N 
ATOM      2  C   UNL d   1       9.167   7.854  -6.592  0.00  0.00     0.137 C 
ATOM      3  C   UNL d   1       8.943   6.638  -7.513  0.00  0.00     0.274 C 
ATOM      4  N   UNL d   1       9.639   6.821  -8.787  0.00  0.00     0.141 N 
ATOM      5  C   UNL d   1      11.070   6.980  -8.514  0.00  0.00     0.274 C 
ATOM      6  C   UNL d   1      11.368   8.196  -7.616  0.00  0.00     0.137 C 
ENDROOT
BRANCH   4   7
ATOM      7  C   UNL d   1       9.410   5.666  -9.655  0.00  0.00     0.253 C 
BRANCH   7   8
ATOM      8  C   UNL d   1       9.641   6.048 -11.124  0.00  0.00     0.062 C 
BRANCH   8   9
ATOM      9  C   UNL d   1       9.441   4.870 -12.092  0.00  0.00     0.129 C 
BRANCH   9  10
ATOM     10  N   UNL d   1       9.949   5.180 -13.425  0.00  0.00    -0.252 NA
BRANCH  10  11
ATOM     11  C   UNL d   1      10.431   4.173 -14.275  0.00  0.00     0.178 A 
ATOM     12  N   UNL d   1      11.127   4.599 -15.355  0.00  0.00    -0.212 NA
ATOM     13  C   UNL d   1      11.601   3.651 -16.198  0.00  0.00     0.159 A 
ATOM     14  C   UNL d   1      11.367   2.278 -15.966  0.00  0.00     0.130 A 
ATOM     15 CL   UNL d   1      12.518   4.129 -17.578  0.00  0.00    -0.060 Cl
ATOM     16  N   UNL d   1      10.667   1.842 -14.895  0.00  0.00    -0.237 NA
ATOM     17  C   UNL d   1      10.204   2.791 -14.052  0.00  0.00     0.137 A 
ENDBRANCH  10  11
ENDBRANCH   9  10
ENDBRANCH   8   9
ENDBRANCH   7   8
ENDBRANCH   4   7
BRANCH   1  18
ATOM     18  C   UNL d   1      11.174   8.204  -5.140  0.00  0.00     0.084 A 
ATOM     19  C   UNL d   1      11.293   9.471  -4.528  0.00  0.00     0.155 A 
ATOM     20  F   UNL d   1      10.837  10.575  -5.161  0.00  0.00    -0.203 F 
ATOM     21  C   UNL d   1      11.866   9.588  -3.243  0.00  0.00     0.031 A 
ATOM     22  C   UNL d   1      12.351   8.449  -2.578  0.00  0.00     0.002 A 
ATOM     23  C   UNL d   1      12.245   7.181  -3.182  0.00  0.00     0.002 A 
ATOM     24  C   UNL d   1      11.646   7.062  -4.458  0.00  0.00     0.019 A 
ENDBRANCH   1  18
TORSDOF 6
