REMARK  4 active torsions:
REMARK  status: ('A' for Active; 'I' for Inactive)
REMARK    1  A    between atoms: C_4  and  C_5 
REMARK    2  A    between atoms: C_12  and  C_13 
REMARK    3  A    between atoms: C_13  and  N_14 
REMARK    4  A    between atoms: N_17  and  C_18 
ROOT
ATOM      1  C   UNL d   1       9.930   6.686 -11.017  0.00  0.00     0.277 C 
ENDROOT
BRANCH   1   2
ATOM      2  C   UNL d   1       9.059   5.533 -11.594  0.00  0.00     0.166 C 
ATOM      3  C   UNL d   1       7.880   6.018 -12.452  0.00  0.00     0.147 C 
ATOM      4  C   UNL d   1       6.514   5.778 -11.798  0.00  0.00     0.035 C 
ATOM      5  O   UNL d   1       8.014   5.233 -13.623  0.00  0.00    -0.316 OA
ATOM      6  C   UNL d   1       9.203   4.572 -13.569  0.00  0.00     0.173 C 
ATOM      7  N   UNL d   1       9.847   4.733 -12.498  0.00  0.00    -0.246 NA
BRANCH   6   8
ATOM      8  C   UNL d   1       9.686   3.732 -14.675  0.00  0.00     0.041 A 
ATOM      9  C   UNL d   1      10.308   2.486 -14.437  0.00  0.00     0.004 A 
ATOM     10  C   UNL d   1      10.750   1.701 -15.519  0.00  0.00     0.000 A 
ATOM     11  C   UNL d   1      10.587   2.173 -16.837  0.00  0.00     0.000 A 
ATOM     12  C   UNL d   1       9.976   3.421 -17.074  0.00  0.00     0.000 A 
ATOM     13  C   UNL d   1       9.525   4.199 -15.993  0.00  0.00     0.004 A 
ENDBRANCH   6   8
ENDBRANCH   1   2
BRANCH   1  14
ATOM     14  N   UNL d   1       9.526   7.144  -9.702  0.00  0.00     0.143 N 
ATOM     15  C   UNL d   1      10.281   8.358  -9.375  0.00  0.00     0.274 C 
ATOM     16  C   UNL d   1       9.827   8.932  -8.016  0.00  0.00     0.137 C 
ATOM     17  N   UNL d   1       9.940   7.907  -6.979  0.00  0.00    -0.344 N 
ATOM     18  C   UNL d   1       9.277   6.659  -7.323  0.00  0.00     0.137 C 
ATOM     19  C   UNL d   1       9.789   6.139  -8.668  0.00  0.00     0.274 C 
BRANCH  17  20
ATOM     20  C   UNL d   1      10.674   8.088  -5.797  0.00  0.00     0.056 A 
ATOM     21  C   UNL d   1      11.253   6.989  -5.102  0.00  0.00     0.017 A 
ATOM     22  C   UNL d   1      11.927   7.167  -3.882  0.00  0.00     0.002 A 
ATOM     23  C   UNL d   1      12.073   8.453  -3.339  0.00  0.00     0.000 A 
ATOM     24  C   UNL d   1      11.506   9.554  -4.005  0.00  0.00     0.002 A 
ATOM     25  C   UNL d   1      10.834   9.378  -5.230  0.00  0.00     0.017 A 
ENDBRANCH  17  20
ENDBRANCH   1  14
TORSDOF 4
