REMARK  6 active torsions:
REMARK  status: ('A' for Active; 'I' for Inactive)
REMARK    1  A    between atoms: C_8  and  C_9 
REMARK    2  A    between atoms: C_12  and  O_13 
REMARK    3  A    between atoms: O_13  and  C_14 
REMARK    4  A    between atoms: C_14  and  C_15 
REMARK    5  A    between atoms: C_15  and  C_16 
REMARK    6  A    between atoms: C_16  and  N_17 
ROOT
ATOM      1  C   UNL d   1      12.855   7.804 -16.577  0.00  0.00     0.033 C 
ATOM      2  C   UNL d   1      13.911   7.595 -17.643  0.00  0.00    -0.006 A 
ATOM      3  C   UNL d   1      14.731   8.549 -18.094  0.00  0.00     0.009 A 
ATOM      4  C   UNL d   1      15.562   7.960 -19.054  0.00  0.00     0.029 A 
ATOM      5  C   UNL d   1      16.625   8.732 -19.770  0.00  0.00     0.049 C 
ATOM      6  N   UNL d   1      15.299   6.712 -19.233  0.00  0.00    -0.311 N 
ATOM      7  C   UNL d   1      14.228   6.369 -18.365  0.00  0.00     0.049 A 
ATOM      8  C   UNL d   1      13.734   5.108 -18.351  0.00  0.00     0.029 A 
ATOM      9  C   UNL d   1      14.242   4.041 -19.190  0.00  0.00     0.049 A 
ATOM     10  C   UNL d   1      13.911   2.711 -19.333  0.00  0.00    -0.006 A 
ATOM     11  C   UNL d   1      12.850   1.917 -18.612  0.00  0.00     0.033 C 
ATOM     12  C   UNL d   1      14.775   2.169 -20.327  0.00  0.00     0.009 A 
ATOM     13  C   UNL d   1      15.610   3.150 -20.774  0.00  0.00     0.029 A 
ATOM     14  C   UNL d   1      16.702   3.109 -21.792  0.00  0.00     0.049 C 
ATOM     15  N   UNL d   1      15.291   4.299 -20.071  0.00  0.00    -0.311 N 
ATOM     16  B   UNL d   1      16.015   5.694 -20.236  0.00  0.00     0.773 B 
ATOM     17  F   UNL d   1      15.870   6.163 -21.517  0.00  0.00    -0.253 F 
ATOM     18  F   UNL d   1      17.339   5.588 -19.883  0.00  0.00    -0.253 F 
ENDROOT
BRANCH   8  19
ATOM     19  C   UNL d   1      12.635   4.809 -17.427  0.00  0.00     0.003 A 
ATOM     20  C   UNL d   1      11.293   4.859 -17.867  0.00  0.00     0.002 A 
ATOM     21  C   UNL d   1      10.255   4.536 -16.967  0.00  0.00     0.024 A 
ATOM     22  C   UNL d   1      10.551   4.149 -15.643  0.00  0.00     0.094 A 
ATOM     23  C   UNL d   1      11.894   4.147 -15.204  0.00  0.00     0.024 A 
ATOM     24  C   UNL d   1      12.931   4.449 -16.103  0.00  0.00     0.002 A 
BRANCH  22  25
ATOM     25  O   UNL d   1       9.518   3.812 -14.806  0.00  0.00    -0.331 OA
BRANCH  25  26
ATOM     26  C   UNL d   1       9.692   2.652 -13.998  0.00  0.00     0.151 C 
BRANCH  26  27
ATOM     27  C   UNL d   1       9.026   1.467 -14.705  0.00  0.00     0.068 C 
BRANCH  27  28
ATOM     28  C   UNL d   1       7.502   1.589 -14.669  0.00  0.00     0.253 C 
BRANCH  28  29
ATOM     29  N   UNL d   1       6.875   0.351 -15.121  0.00  0.00     0.137 N 
ATOM     30  C   UNL d   1       6.564   0.452 -16.550  0.00  0.00     0.250 C 
ATOM     31  C   UNL d   1       5.932  -0.852 -17.064  0.00  0.00     0.035 C 
ATOM     32  C   UNL d   1       4.674  -1.213 -16.265  0.00  0.00     0.004 C 
ATOM     33  C   UNL d   1       5.000  -1.213 -14.769  0.00  0.00     0.035 C 
ATOM     34  C   UNL d   1       5.656   0.111 -14.347  0.00  0.00     0.250 C 
ENDBRANCH  28  29
ENDBRANCH  27  28
ENDBRANCH  26  27
ENDBRANCH  25  26
ENDBRANCH  22  25
ENDBRANCH   8  19
TORSDOF 6
