REMARK  6 active torsions:
REMARK  status: ('A' for Active; 'I' for Inactive)
REMARK    1  A    between atoms: N_2  and  C_3 
REMARK    2  A    between atoms: C_5  and  O_6 
REMARK    3  A    between atoms: C_8  and  C_9 
REMARK       I    between atoms: C_9  and  N_11 
REMARK    4  A    between atoms: N_11  and  C_12 
REMARK    5  A    between atoms: N_16  and  C_17 
REMARK    6  A    between atoms: C_17  and  C_18 
ROOT
ATOM      1  C   UNL d   1       9.275   5.134 -12.606  0.00  0.00     0.277 C 
ATOM      2  O   UNL d   1      10.197   5.604 -13.256  0.00  0.00    -0.266 OA
ATOM      3  N   UNL d   1       8.940   5.536 -11.365  0.00  0.00    -0.234 NA
ENDROOT
BRANCH   3   4
ATOM      4  C   UNL d   1       9.756   6.376 -10.504  0.00  0.00     0.140 C 
ATOM      5  C   UNL d   1       9.351   6.158  -9.031  0.00  0.00     0.275 C 
ATOM      6  N   UNL d   1      10.199   6.969  -8.148  0.00  0.00     0.143 N 
ATOM      7  C   UNL d   1      10.018   8.374  -8.502  0.00  0.00     0.251 C 
ATOM      8  C   UNL d   1      10.479   8.671  -9.907  0.00  0.00     0.037 C 
ATOM      9  C   UNL d   1       9.697   7.850 -10.933  0.00  0.00     0.029 C 
BRANCH   6  10
ATOM     10  C   UNL d   1       9.801   6.745  -6.755  0.00  0.00     0.277 C 
BRANCH  10  11
ATOM     11  C   UNL d   1      10.622   7.495  -5.701  0.00  0.00     0.011 A 
ATOM     12  C   UNL d   1      10.532   8.902  -5.583  0.00  0.00    -0.002 A 
ATOM     13  C   UNL d   1      11.321   9.595  -4.652  0.00  0.00    -0.000 A 
ATOM     14  C   UNL d   1      12.172   8.898  -3.771  0.00  0.00    -0.000 A 
ATOM     15  C   UNL d   1      12.223   7.489  -3.838  0.00  0.00    -0.000 A 
ATOM     16  C   UNL d   1      11.461   6.800  -4.804  0.00  0.00    -0.002 A 
ENDBRANCH  10  11
ENDBRANCH   6  10
ENDBRANCH   3   4
BRANCH   1  17
ATOM     17  C   UNL d   1       8.454   4.015 -13.168  0.00  0.00     0.081 A 
ATOM     18  C   UNL d   1       9.039   3.022 -14.007  0.00  0.00     0.100 A 
ATOM     19  C   UNL d   1       8.215   1.973 -14.483  0.00  0.00     0.044 A 
ATOM     20  C   UNL d   1       6.838   1.920 -14.150  0.00  0.00     0.089 A 
ATOM     21  C   UNL d   1       6.293   2.946 -13.350  0.00  0.00     0.075 A 
ATOM     22  C   UNL d   1       7.082   3.982 -12.862  0.00  0.00     0.020 A 
ATOM     23 CL   UNL d   1       4.673   2.924 -12.834  0.00  0.00    -0.081 Cl
BRANCH  18  24
ATOM     24  O   UNL d   1      10.390   3.095 -14.292  0.00  0.00    -0.328 OA
ATOM     25  C   UNL d   1      10.988   2.072 -15.078  0.00  0.00     0.181 C 
ENDBRANCH  18  24
BRANCH  20  26
ATOM     26  N   UNL d   1       6.011   0.867 -14.565  0.00  0.00    -0.268 NA
ATOM     27  C   UNL d   1       6.551  -0.326 -15.191  0.00  0.00     0.152 C 
ENDBRANCH  20  26
ENDBRANCH   1  17
TORSDOF 6
