REMARK  6 active torsions:
REMARK  status: ('A' for Active; 'I' for Inactive)
REMARK    1  A    between atoms: C_7  and  N_8 
REMARK    2  A    between atoms: N_11  and  C_12 
REMARK    3  A    between atoms: C_12  and  C_13 
REMARK    4  A    between atoms: C_13  and  C_15 
REMARK    5  A    between atoms: C_15  and  N_16 
REMARK    6  A    between atoms: C_20  and  C_22 
ROOT
ATOM      1  C   UNL d   1       9.447   5.148 -11.692  0.00  0.00     0.208 C 
ATOM      2  O   UNL d   1       8.335   5.801 -12.261  0.00  0.00    -0.219 OA
ENDROOT
BRANCH   1   3
ATOM      3  C   UNL d   1       9.090   4.961 -10.189  0.00  0.00     0.285 C 
BRANCH   3   4
ATOM      4  N   UNL d   1       9.191   6.200  -9.394  0.00  0.00     0.144 N 
ATOM      5  C   UNL d   1      10.601   6.555  -9.273  0.00  0.00     0.274 C 
ATOM      6  C   UNL d   1      10.892   7.824  -8.473  0.00  0.00     0.137 C 
ATOM      7  N   UNL d   1      10.298   7.661  -7.152  0.00  0.00    -0.344 N 
ATOM      8  C   UNL d   1       8.905   7.236  -7.137  0.00  0.00     0.137 C 
ATOM      9  C   UNL d   1       8.726   5.975  -8.023  0.00  0.00     0.274 C 
BRANCH   7  10
ATOM     10  C   UNL d   1      11.033   7.933  -5.945  0.00  0.00     0.052 A 
ATOM     11  C   UNL d   1      11.855   9.062  -5.845  0.00  0.00    -0.006 A 
ATOM     12  C   UNL d   1      12.640   9.336  -4.704  0.00  0.00    -0.003 A 
ATOM     13  C   UNL d   1      12.022  10.037  -6.938  0.00  0.00     0.033 C 
ATOM     14  C   UNL d   1      12.530   8.543  -3.569  0.00  0.00    -0.004 A 
ATOM     15  C   UNL d   1      11.678   7.438  -3.636  0.00  0.00    -0.020 A 
ATOM     16  C   UNL d   1      11.553   6.606  -2.410  0.00  0.00     0.031 C 
ATOM     17  C   UNL d   1      10.970   7.098  -4.831  0.00  0.00     0.012 A 
ENDBRANCH   7  10
ENDBRANCH   3   4
ENDBRANCH   1   3
BRANCH   1  18
ATOM     18  C   UNL d   1       9.629   3.792 -12.384  0.00  0.00     0.148 C 
BRANCH  18  19
ATOM     19  N   UNL d   1      10.169   3.909 -13.762  0.00  0.00    -0.247 N 
ATOM     20  C   UNL d   1       9.377   3.644 -14.819  0.00  0.00     0.265 C 
ATOM     21  C   UNL d   1      10.184   3.885 -16.099  0.00  0.00     0.179 C 
ATOM     22  O   UNL d   1       8.231   3.204 -14.782  0.00  0.00    -0.269 OA
ATOM     23  N   UNL d   1      11.433   4.289 -15.495  0.00  0.00    -0.209 NA
ATOM     24  C   UNL d   1       9.651   5.069 -16.936  0.00  0.00     0.039 C 
ATOM     25  C   UNL d   1      11.422   4.178 -14.177  0.00  0.00     0.348 C 
ATOM     26  O   UNL d   1      12.454   4.331 -13.508  0.00  0.00    -0.245 OA
BRANCH  21  27
ATOM     27  C   UNL d   1      10.319   2.582 -16.890  0.00  0.00     0.006 A 
ATOM     28  C   UNL d   1      11.548   1.881 -16.960  0.00  0.00     0.000 A 
ATOM     29  C   UNL d   1      11.644   0.692 -17.703  0.00  0.00     0.029 A 
ATOM     30  C   UNL d   1      10.515   0.184 -18.366  0.00  0.00     0.140 A 
ATOM     31  C   UNL d   1       9.287   0.868 -18.294  0.00  0.00     0.029 A 
ATOM     32  F   UNL d   1      10.610  -0.968 -19.068  0.00  0.00    -0.204 F 
ATOM     33  C   UNL d   1       9.188   2.058 -17.556  0.00  0.00     0.000 A 
ENDBRANCH  21  27
ENDBRANCH  18  19
ENDBRANCH   1  18
TORSDOF 6
