REMARK  5 active torsions:
REMARK  status: ('A' for Active; 'I' for Inactive)
REMARK    1  A    between atoms: C_2  and  C_4 
REMARK    2  A    between atoms: C_4  and  S_5 
REMARK    3  A    between atoms: S_5  and  C_7 
REMARK    4  A    between atoms: C_7  and  C_8 
REMARK    5  A    between atoms: C_7  and  C_14 
ROOT
ATOM      1  C   UNL d   1       9.021   4.434 -12.254  0.00  0.00     0.124 C 
ENDROOT
BRANCH   1   2
ATOM      2  S   UNL d   1       9.972   4.253 -13.860  0.00  0.00     0.059 S 
ATOM      3  O   UNL d   1      11.402   4.739 -13.649  0.00  0.00    -0.255 OA
BRANCH   2   4
ATOM      4  C   UNL d   1       9.977   2.392 -13.945  0.00  0.00     0.183 C 
BRANCH   4   5
ATOM      5  C   UNL d   1      10.123   1.802 -15.345  0.00  0.00     0.287 C 
ATOM      6  N   UNL d   1       9.720   0.539 -15.523  0.00  0.00    -0.106 N 
ATOM      7  O   UNL d   1      10.594   2.452 -16.269  0.00  0.00    -0.268 OA
ENDBRANCH   4   5
ENDBRANCH   2   4
ENDBRANCH   1   2
BRANCH   1   8
ATOM      8  C   UNL d   1       7.518   4.226 -12.499  0.00  0.00    -0.006 C 
ATOM      9  C   UNL d   1       6.637   3.658 -11.538  0.00  0.00    -0.003 C 
ATOM     10  C   UNL d   1       5.411   3.191 -11.940  0.00  0.00    -0.000 C 
ATOM     11  C   UNL d   1       4.787   3.698 -13.062  0.00  0.00    -0.000 C 
ATOM     12  C   UNL d   1       5.576   4.387 -13.958  0.00  0.00    -0.000 C 
ATOM     13  C   UNL d   1       6.943   4.553 -13.700  0.00  0.00    -0.003 C 
ENDBRANCH   1   8
BRANCH   1  14
ATOM     14  C   UNL d   1       9.291   5.795 -11.639  0.00  0.00    -0.006 A 
ATOM     15  C   UNL d   1       8.993   6.987 -12.320  0.00  0.00    -0.003 A 
ATOM     16  C   UNL d   1       9.288   8.243 -11.746  0.00  0.00    -0.000 A 
ATOM     17  C   UNL d   1       9.893   8.300 -10.469  0.00  0.00    -0.000 A 
ATOM     18  C   UNL d   1      10.116   7.108  -9.756  0.00  0.00    -0.000 A 
ATOM     19  C   UNL d   1       9.814   5.864 -10.336  0.00  0.00    -0.003 A 
ENDBRANCH   1  14
TORSDOF 5
