REMARK  3 active torsions:
REMARK  status: ('A' for Active; 'I' for Inactive)
REMARK    1  A    between atoms: C_7  and  N_8 
REMARK    2  A    between atoms: N_11  and  C_12 
REMARK    3  A    between atoms: C_12  and  C_13 
ROOT
ATOM      1  N   UNL d   1      10.408   7.534  -6.002  0.00  0.00    -0.344 N 
ATOM      2  C   UNL d   1       9.292   8.331  -6.485  0.00  0.00     0.137 C 
ATOM      3  C   UNL d   1       9.551   8.761  -7.939  0.00  0.00     0.275 C 
ATOM      4  N   UNL d   1       9.717   7.579  -8.765  0.00  0.00     0.146 N 
ATOM      5  C   UNL d   1      10.889   6.855  -8.285  0.00  0.00     0.275 C 
ATOM      6  C   UNL d   1      10.703   6.392  -6.843  0.00  0.00     0.137 C 
ENDROOT
BRANCH   1   7
ATOM      7  C   UNL d   1      11.196   7.817  -4.870  0.00  0.00     0.067 A 
ATOM      8  C   UNL d   1      11.684   9.120  -4.596  0.00  0.00     0.073 A 
ATOM      9 CL   UNL d   1      11.522  10.408  -5.713  0.00  0.00    -0.081 Cl
ATOM     10  C   UNL d   1      12.372   9.371  -3.396  0.00  0.00     0.013 A 
ATOM     11  C   UNL d   1      12.638   8.354  -2.475  0.00  0.00     0.001 A 
ATOM     12  C   UNL d   1      12.203   7.049  -2.747  0.00  0.00     0.002 A 
ATOM     13  C   UNL d   1      11.485   6.791  -3.940  0.00  0.00     0.018 A 
ENDBRANCH   1   7
BRANCH   4  14
ATOM     14  C   UNL d   1       9.868   7.962 -10.168  0.00  0.00     0.283 C 
BRANCH  14  15
ATOM     15  C   UNL d   1       9.398   6.908 -11.129  0.00  0.00     0.041 A 
ATOM     16  S   UNL d   1       8.333   7.356 -12.436  0.00  0.00    -0.089 SA
ATOM     17  C   UNL d   1       8.256   5.728 -13.030  0.00  0.00     0.035 A 
ATOM     18  C   UNL d   1       8.979   4.885 -12.245  0.00  0.00     0.007 A 
ATOM     19  C   UNL d   1       9.586   5.552 -11.150  0.00  0.00     0.005 A 
ENDBRANCH  14  15
ENDBRANCH   4  14
TORSDOF 3
