REMARK  8 active torsions:
REMARK  status: ('A' for Active; 'I' for Inactive)
REMARK    1  A    between atoms: C_6  and  S_7 
REMARK    2  A    between atoms: S_7  and  N_10 
REMARK    3  A    between atoms: N_10  and  C_11 
REMARK    4  A    between atoms: C_11  and  C_12 
REMARK    5  A    between atoms: C_12  and  C_13 
REMARK    6  A    between atoms: C_13  and  C_14 
REMARK    7  A    between atoms: C_14  and  N_15 
REMARK    8  A    between atoms: N_18  and  C_19 
ROOT
ATOM      1  N   UNL d   1       8.706   3.278 -13.816  0.00  0.00     0.141 N 
ATOM      2  C   UNL d   1       7.296   2.876 -13.877  0.00  0.00     0.274 C 
ATOM      3  C   UNL d   1       7.144   1.513 -14.554  0.00  0.00     0.138 C 
ATOM      4  N   UNL d   1       7.752   1.525 -15.878  0.00  0.00    -0.328 N 
ATOM      5  C   UNL d   1       9.121   2.027 -15.920  0.00  0.00     0.138 C 
ATOM      6  C   UNL d   1       9.226   3.381 -15.183  0.00  0.00     0.274 C 
ENDROOT
BRANCH   1   7
ATOM      7  C   UNL d   1       8.806   4.570 -13.146  0.00  0.00     0.251 C 
BRANCH   7   8
ATOM      8  C   UNL d   1       8.820   4.402 -11.618  0.00  0.00     0.037 C 
BRANCH   8   9
ATOM      9  C   UNL d   1       9.022   5.729 -10.900  0.00  0.00     0.029 C 
BRANCH   9  10
ATOM     10  C   UNL d   1       9.067   5.575  -9.368  0.00  0.00     0.139 C 
BRANCH  10  11
ATOM     11  N   UNL d   1       9.060   6.880  -8.721  0.00  0.00    -0.185 NA
BRANCH  11  12
ATOM     12  S   UNL d   1      10.383   7.949  -8.946  0.00  0.00     0.281 S 
ATOM     13  O   UNL d   1       9.852   9.187  -9.535  0.00  0.00    -0.199 OA
ATOM     14  O   UNL d   1      11.461   7.217  -9.623  0.00  0.00    -0.199 OA
BRANCH  12  15
ATOM     15  C   UNL d   1      10.915   8.279  -7.277  0.00  0.00     0.105 A 
ATOM     16  C   UNL d   1      11.223   9.595  -6.907  0.00  0.00     0.013 A 
ATOM     17  C   UNL d   1      11.609   9.877  -5.586  0.00  0.00     0.000 A 
ATOM     18  C   UNL d   1      11.727   8.847  -4.639  0.00  0.00    -0.004 A 
ATOM     19  C   UNL d   1      11.446   7.520  -5.025  0.00  0.00    -0.021 A 
ATOM     20  C   UNL d   1      11.555   6.409  -4.024  0.00  0.00     0.031 C 
ATOM     21  C   UNL d   1      11.022   7.231  -6.344  0.00  0.00     0.009 A 
ENDBRANCH  12  15
ENDBRANCH  11  12
ENDBRANCH  10  11
ENDBRANCH   9  10
ENDBRANCH   8   9
ENDBRANCH   7   8
ENDBRANCH   1   7
BRANCH   4  22
ATOM     22  C   UNL d   1       7.067   1.138 -17.031  0.00  0.00     0.169 A 
ATOM     23  C   UNL d   1       5.970   0.235 -17.125  0.00  0.00     0.061 A 
ATOM     24  C   UNL d   1       5.586   0.146 -18.473  0.00  0.00     0.128 A 
ATOM     25  C   UNL d   1       5.285  -0.552 -16.168  0.00  0.00     0.005 A 
ATOM     26  O   UNL d   1       6.464   0.979 -19.158  0.00  0.00    -0.210 OA
ATOM     27  C   UNL d   1       4.532  -0.675 -18.920  0.00  0.00     0.027 A 
ATOM     28  N   UNL d   1       7.377   1.580 -18.246  0.00  0.00    -0.109 NA
ATOM     29  C   UNL d   1       3.839  -1.438 -17.954  0.00  0.00     0.002 A 
ATOM     30  C   UNL d   1       4.208  -1.365 -16.590  0.00  0.00     0.000 A 
ENDBRANCH   4  22
TORSDOF 8
