REMARK  6 active torsions:
REMARK  status: ('A' for Active; 'I' for Inactive)
REMARK       I    between atoms: N_10  and  C_11 
REMARK    1  A    between atoms: C_11  and  C_13 
REMARK    2  A    between atoms: C_13  and  N_14 
REMARK    3  A    between atoms: N_17  and  C_18 
REMARK    4  A    between atoms: C_18  and  C_19 
REMARK    5  A    between atoms: C_23  and  O_24 
REMARK    6  A    between atoms: O_24  and  C_25 
ROOT
ATOM      1  N   UNL d   1      10.478   2.881 -15.273  0.00  0.00     0.151 N 
ATOM      2  C   UNL d   1      10.074   2.609 -13.890  0.00  0.00     0.286 C 
ATOM      3  C   UNL d   1       9.335   3.782 -13.241  0.00  0.00     0.286 C 
ATOM      4  N   UNL d   1      10.118   5.025 -13.263  0.00  0.00     0.146 N 
ATOM      5  C   UNL d   1      10.479   5.293 -14.655  0.00  0.00     0.286 C 
ATOM      6  C   UNL d   1      11.258   4.123 -15.281  0.00  0.00     0.286 C 
ENDROOT
BRANCH   1   7
ATOM      7  C   UNL d   1      11.208   1.740 -15.844  0.00  0.00     0.337 C 
BRANCH   7   8
ATOM      8  C   UNL d   1      10.286   0.615 -16.343  0.00  0.00     0.271 C 
ATOM      9  N   UNL d   1       9.584   0.727 -17.500  0.00  0.00    -0.299 N 
ATOM     10  C   UNL d   1       8.614  -0.308 -17.928  0.00  0.00     0.093 C 
ATOM     11  C   UNL d   1       9.540   1.812 -18.428  0.00  0.00     0.058 A 
ATOM     12  C   UNL d   1       9.323  -1.601 -18.381  0.00  0.00     0.025 C 
ATOM     13  C   UNL d   1       7.802   0.320 -19.100  0.00  0.00     0.051 C 
ATOM     14  C   UNL d   1       8.518   1.614 -19.358  0.00  0.00    -0.004 A 
ATOM     15  C   UNL d   1       8.260   2.530 -20.396  0.00  0.00    -0.003 A 
ATOM     16  C   UNL d   1       9.060   3.687 -20.485  0.00  0.00    -0.000 A 
ATOM     17  C   UNL d   1      10.112   3.891 -19.567  0.00  0.00     0.002 A 
ATOM     18  C   UNL d   1      10.374   2.950 -18.546  0.00  0.00     0.017 A 
ATOM     19  O   UNL d   1      10.201  -0.391 -15.639  0.00  0.00    -0.270 OA
ENDBRANCH   7   8
ENDBRANCH   1   7
BRANCH   4  20
ATOM     20  C   UNL d   1       9.396   6.153 -12.651  0.00  0.00     0.277 C 
BRANCH  20  21
ATOM     21  C   UNL d   1       9.370   6.127 -11.130  0.00  0.00     0.013 A 
ATOM     22  C   UNL d   1      10.101   7.088 -10.397  0.00  0.00     0.022 A 
ATOM     23  C   UNL d   1      10.114   7.068  -8.986  0.00  0.00     0.102 A 
ATOM     24  C   UNL d   1       9.396   6.054  -8.307  0.00  0.00     0.025 A 
ATOM     25  C   UNL d   1       8.658   5.104  -9.031  0.00  0.00     0.002 A 
ATOM     26  C   UNL d   1       8.616   5.162 -10.433  0.00  0.00    -0.002 A 
BRANCH  23  27
ATOM     27  O   UNL d   1      10.841   8.050  -8.349  0.00  0.00    -0.254 OA
BRANCH  27  28
ATOM     28  C   UNL d   1      10.899   8.103  -6.992  0.00  0.00     0.530 C 
ATOM     29  F   UNL d   1      11.450   6.976  -6.474  0.00  0.00    -0.144 F 
ATOM     30  F   UNL d   1      11.685   9.138  -6.610  0.00  0.00    -0.144 F 
ATOM     31  F   UNL d   1       9.675   8.294  -6.436  0.00  0.00    -0.144 F 
ENDBRANCH  27  28
ENDBRANCH  23  27
ENDBRANCH  20  21
ENDBRANCH   4  20
TORSDOF 6
