REMARK  4 active torsions:
REMARK  status: ('A' for Active; 'I' for Inactive)
REMARK    1  A    between atoms: N_7  and  C_8 
REMARK    2  A    between atoms: C_8  and  C_9 
REMARK    3  A    between atoms: C_9  and  N_10 
REMARK    4  A    between atoms: N_13  and  C_14 
ROOT
ATOM      1  N   UNL d   1       7.082   2.994 -13.915  0.00  0.00    -0.298 N 
ATOM      2  C   UNL d   1       6.004   2.799 -12.930  0.00  0.00     0.131 A 
ATOM      3  C   UNL d   1       6.375   3.829 -11.839  0.00  0.00     0.135 A 
ATOM      4  N   UNL d   1       7.570   4.472 -12.417  0.00  0.00    -0.280 N 
ATOM      5  C   UNL d   1       7.918   4.000 -13.617  0.00  0.00     0.328 A 
ATOM      6  O   UNL d   1       8.806   4.414 -14.343  0.00  0.00    -0.247 OA
ENDROOT
BRANCH   1   7
ATOM      7  C   UNL d   1       7.152   2.185 -15.139  0.00  0.00     0.141 C 
BRANCH   7   8
ATOM      8  C   UNL d   1       8.567   1.565 -15.334  0.00  0.00     0.274 C 
BRANCH   8   9
ATOM      9  N   UNL d   1       9.076   1.769 -16.701  0.00  0.00     0.137 N 
ATOM     10  C   UNL d   1      10.159   0.846 -17.078  0.00  0.00     0.219 C 
ATOM     11  C   UNL d   1       9.771  -0.637 -16.949  0.00  0.00     0.035 C 
ATOM     12  C   UNL d   1      11.457   1.163 -16.278  0.00  0.00     0.033 C 
ATOM     13  C   UNL d   1      11.941   2.609 -16.479  0.00  0.00     0.004 C 
ATOM     14  C   UNL d   1      10.778   3.537 -16.107  0.00  0.00     0.035 C 
ATOM     15  C   UNL d   1       9.521   3.155 -16.952  0.00  0.00     0.250 C 
ENDBRANCH   8   9
ENDBRANCH   7   8
ENDBRANCH   1   7
BRANCH   4  16
ATOM     16  C   UNL d   1       8.291   5.465 -11.699  0.00  0.00     0.065 A 
ATOM     17  C   UNL d   1       8.680   5.282 -10.361  0.00  0.00     0.029 A 
ATOM     18  C   UNL d   1       9.467   6.270  -9.707  0.00  0.00     0.059 A 
ATOM     19  C   UNL d   1       9.862   7.442 -10.410  0.00  0.00     0.011 A 
ATOM     20 CL   UNL d   1       9.886   6.078  -8.041  0.00  0.00    -0.082 Cl
ATOM     21  C   UNL d   1       9.448   7.600 -11.745  0.00  0.00     0.002 A 
ATOM     22  C   UNL d   1       8.688   6.627 -12.374  0.00  0.00     0.017 A 
ENDBRANCH   4  16
TORSDOF 4
