REMARK  5 active torsions:
REMARK  status: ('A' for Active; 'I' for Inactive)
REMARK    1  A    between atoms: O_2  and  C_3 
REMARK    2  A    between atoms: C_9  and  C_10 
REMARK    3  A    between atoms: C_13  and  N_14 
REMARK       I    between atoms: N_14  and  C_15 
REMARK    4  A    between atoms: N_20  and  S_21 
REMARK    5  A    between atoms: S_21  and  C_24 
ROOT
ATOM      1  C   UNL d   1       7.843   1.237 -16.245  0.00  0.00     0.094 A 
ATOM      2  C   UNL d   1       8.794   1.301 -17.304  0.00  0.00     0.026 A 
ATOM      3  C   UNL d   1       9.825   2.231 -17.267  0.00  0.00     0.020 A 
ATOM      4  C   UNL d   1       9.952   3.107 -16.182  0.00  0.00     0.075 A 
ATOM      5  C   UNL d   1       9.026   3.098 -15.093  0.00  0.00     0.022 A 
ATOM      6  C   UNL d   1       7.979   2.131 -15.161  0.00  0.00     0.026 A 
ATOM      7  C   UNL d   1       9.436   4.156 -14.186  0.00  0.00     0.040 A 
ATOM      8  C   UNL d   1      10.541   4.737 -14.752  0.00  0.00     0.093 A 
ATOM      9  N   UNL d   1      10.860   4.112 -15.944  0.00  0.00    -0.231 N 
ENDROOT
BRANCH   9  10
ATOM     10  S   UNL d   1      12.154   4.606 -16.974  0.00  0.00     0.271 S 
ATOM     11  O   UNL d   1      13.092   5.344 -16.110  0.00  0.00    -0.200 OA
ATOM     12  O   UNL d   1      12.594   3.404 -17.698  0.00  0.00    -0.200 OA
BRANCH  10  13
ATOM     13  C   UNL d   1      11.399   5.752 -18.135  0.00  0.00     0.106 A 
ATOM     14  C   UNL d   1      12.228   6.680 -18.799  0.00  0.00     0.043 A 
ATOM     15  C   UNL d   1      11.664   7.583 -19.721  0.00  0.00     0.141 A 
ATOM     16  C   UNL d   1      10.277   7.569 -19.972  0.00  0.00     0.030 A 
ATOM     17  F   UNL d   1      12.457   8.459 -20.380  0.00  0.00    -0.204 F 
ATOM     18  C   UNL d   1       9.450   6.643 -19.308  0.00  0.00     0.003 A 
ATOM     19  C   UNL d   1      10.010   5.730 -18.393  0.00  0.00     0.013 A 
ENDBRANCH  10  13
ENDBRANCH   9  10
BRANCH   7  20
ATOM     20  C   UNL d   1       8.758   4.526 -12.949  0.00  0.00     0.121 A 
ATOM     21  C   UNL d   1       7.455   4.297 -12.520  0.00  0.00     0.138 A 
ATOM     22  N   UNL d   1       7.388   4.823 -11.236  0.00  0.00    -0.056 NA
ATOM     23  C   UNL d   1       8.574   5.357 -10.964  0.00  0.00     0.753 A 
ATOM     24  N   UNL d   1       9.446   5.222 -11.955  0.00  0.00    -0.058 NA
BRANCH  23  25
ATOM     25  N   UNL d   1       8.787   5.965  -9.698  0.00  0.00    -0.023 NA
ATOM     26  C   UNL d   1       9.858   6.650  -9.273  0.00  0.00     0.273 C 
ATOM     27  O   UNL d   1      10.853   6.888  -9.958  0.00  0.00    -0.270 OA
ATOM     28  C   UNL d   1       9.802   7.174  -7.844  0.00  0.00     0.101 C 
ENDBRANCH  23  25
ENDBRANCH   7  20
BRANCH   1  29
ATOM     29  O   UNL d   1       6.793   0.337 -16.211  0.00  0.00    -0.328 OA
ATOM     30  C   UNL d   1       6.679  -0.566 -17.306  0.00  0.00     0.181 C 
ENDBRANCH   1  29
TORSDOF 5
