REMARK  7 active torsions:
REMARK  status: ('A' for Active; 'I' for Inactive)
REMARK    1  A    between atoms: S_2  and  N_4 
REMARK    2  A    between atoms: S_2  and  C_23 
REMARK    3  A    between atoms: N_4  and  C_5 
REMARK    4  A    between atoms: C_5  and  C_6 
REMARK    5  A    between atoms: C_6  and  C_7 
REMARK    6  A    between atoms: C_7  and  N_8 
REMARK    7  A    between atoms: N_11  and  C_12 
ROOT
ATOM      1  C   UNL d   1       9.420   6.683 -10.866  0.00  0.00     0.253 C 
ENDROOT
BRANCH   1   2
ATOM      2  C   UNL d   1       8.908   5.360 -11.455  0.00  0.00     0.062 C 
BRANCH   2   3
ATOM      3  C   UNL d   1       8.660   5.471 -12.972  0.00  0.00     0.141 C 
BRANCH   3   4
ATOM      4  N   UNL d   1       8.849   4.172 -13.626  0.00  0.00    -0.185 NA
BRANCH   4   5
ATOM      5  S   UNL d   1      10.358   3.757 -14.357  0.00  0.00     0.283 S 
ATOM      6  O   UNL d   1      11.342   4.787 -13.995  0.00  0.00    -0.199 OA
ATOM      7  O   UNL d   1      10.632   2.349 -14.046  0.00  0.00    -0.199 OA
BRANCH   5   8
ATOM      8  C   UNL d   1       9.986   3.905 -16.106  0.00  0.00     0.123 A 
ATOM      9  C   UNL d   1       9.351   2.841 -16.801  0.00  0.00     0.100 A 
ATOM     10  C   UNL d   1       9.085   3.043 -18.193  0.00  0.00     0.049 A 
ATOM     11  N   UNL d   1       8.927   1.608 -16.299  0.00  0.00    -0.236 NA
ATOM     12  C   UNL d   1       9.435   4.240 -18.847  0.00  0.00     0.008 A 
ATOM     13  S   UNL d   1       8.290   1.620 -18.872  0.00  0.00    -0.064 SA
ATOM     14  C   UNL d   1      10.061   5.273 -18.128  0.00  0.00     0.001 A 
ATOM     15  C   UNL d   1      10.339   5.105 -16.759  0.00  0.00     0.015 A 
ATOM     16  C   UNL d   1       8.376   0.883 -17.275  0.00  0.00     0.135 A 
ENDBRANCH   5   8
ENDBRANCH   4   5
ENDBRANCH   3   4
ENDBRANCH   2   3
ENDBRANCH   1   2
BRANCH   1  17
ATOM     17  N   UNL d   1       9.870   6.517  -9.477  0.00  0.00     0.141 N 
ATOM     18  C   UNL d   1      11.130   7.232  -9.283  0.00  0.00     0.274 C 
ATOM     19  C   UNL d   1      11.637   7.069  -7.829  0.00  0.00     0.138 C 
ATOM     20  N   UNL d   1      10.626   7.482  -6.891  0.00  0.00    -0.328 N 
ATOM     21  C   UNL d   1       9.292   6.957  -7.080  0.00  0.00     0.138 C 
ATOM     22  C   UNL d   1       8.883   7.085  -8.554  0.00  0.00     0.274 C 
BRANCH  20  23
ATOM     23  C   UNL d   1      10.908   8.427  -5.921  0.00  0.00     0.169 A 
ATOM     24  C   UNL d   1      11.461   8.147  -4.656  0.00  0.00     0.061 A 
ATOM     25  C   UNL d   1      11.548   9.350  -3.960  0.00  0.00     0.128 A 
ATOM     26  C   UNL d   1      11.857   6.942  -4.042  0.00  0.00     0.005 A 
ATOM     27  O   UNL d   1      11.049  10.317  -4.822  0.00  0.00    -0.210 OA
ATOM     28  C   UNL d   1      12.031   9.421  -2.651  0.00  0.00     0.027 A 
ATOM     29  N   UNL d   1      10.666   9.722  -6.059  0.00  0.00    -0.109 NA
ATOM     30  C   UNL d   1      12.437   8.223  -2.031  0.00  0.00     0.002 A 
ATOM     31  C   UNL d   1      12.347   6.990  -2.719  0.00  0.00     0.000 A 
ENDBRANCH  20  23
ENDBRANCH   1  17
TORSDOF 7
