REMARK  7 active torsions:
REMARK  status: ('A' for Active; 'I' for Inactive)
REMARK    1  A    between atoms: S_2  and  N_4 
REMARK    2  A    between atoms: S_2  and  C_19 
REMARK    3  A    between atoms: N_4  and  C_5 
REMARK    4  A    between atoms: N_8  and  C_9 
REMARK    5  A    between atoms: C_9  and  C_10 
REMARK    6  A    between atoms: C_10  and  O_11 
REMARK    7  A    between atoms: O_11  and  C_12 
ROOT
ATOM      1  C   UNL d   1       9.142   5.075 -12.938  0.00  0.00     0.151 C 
ATOM      2  C   UNL d   1       7.644   4.923 -12.672  0.00  0.00     0.063 C 
ATOM      3  C   UNL d   1       7.507   5.163 -11.171  0.00  0.00     0.253 C 
ATOM      4  N   UNL d   1       8.672   5.969 -10.839  0.00  0.00     0.142 N 
ATOM      5  C   UNL d   1       9.756   5.337 -11.568  0.00  0.00     0.275 C 
ENDROOT
BRANCH   1   6
ATOM      6  N   UNL d   1       9.701   3.868 -13.536  0.00  0.00    -0.185 NA
BRANCH   6   7
ATOM      7  S   UNL d   1      10.937   3.974 -14.735  0.00  0.00     0.281 S 
ATOM      8  O   UNL d   1      10.563   5.049 -15.669  0.00  0.00    -0.199 OA
ATOM      9  O   UNL d   1      12.233   4.009 -14.041  0.00  0.00    -0.199 OA
BRANCH   7  10
ATOM     10  C   UNL d   1      10.780   2.412 -15.597  0.00  0.00     0.105 A 
ATOM     11  C   UNL d   1      10.186   1.305 -14.956  0.00  0.00     0.015 A 
ATOM     12  C   UNL d   1      10.033   0.094 -15.653  0.00  0.00     0.030 A 
ATOM     13  C   UNL d   1      10.471  -0.013 -16.987  0.00  0.00     0.140 A 
ATOM     14  C   UNL d   1      11.059   1.098 -17.628  0.00  0.00     0.030 A 
ATOM     15  F   UNL d   1      10.332  -1.187 -17.648  0.00  0.00    -0.204 F 
ATOM     16  C   UNL d   1      11.210   2.317 -16.936  0.00  0.00     0.015 A 
ENDBRANCH   7  10
ENDBRANCH   6   7
ENDBRANCH   1   6
BRANCH   4  17
ATOM     17  C   UNL d   1       8.887   6.058  -9.393  0.00  0.00     0.283 C 
BRANCH  17  18
ATOM     18  C   UNL d   1      10.010   7.071  -9.055  0.00  0.00     0.184 C 
BRANCH  18  19
ATOM     19  O   UNL d   1       9.612   8.031  -8.074  0.00  0.00    -0.329 OA
BRANCH  19  20
ATOM     20  C   UNL d   1      10.322   8.068  -6.894  0.00  0.00     0.094 A 
ATOM     21  C   UNL d   1      10.658   9.322  -6.353  0.00  0.00     0.024 A 
ATOM     22  C   UNL d   1      11.420   9.416  -5.169  0.00  0.00     0.002 A 
ATOM     23  C   UNL d   1      11.829   8.245  -4.503  0.00  0.00     0.000 A 
ATOM     24  C   UNL d   1      11.457   6.984  -5.016  0.00  0.00     0.002 A 
ATOM     25  C   UNL d   1      10.705   6.899  -6.204  0.00  0.00     0.024 A 
ENDBRANCH  19  20
ENDBRANCH  18  19
ENDBRANCH  17  18
ENDBRANCH   4  17
TORSDOF 7
