REMARK  2 active torsions:
REMARK  status: ('A' for Active; 'I' for Inactive)
REMARK    1  A    between atoms: C_12  and  C_13 
REMARK    2  A    between atoms: C_13  and  C_14 
ROOT
ATOM      1  C   UNL d   1       8.029   6.412 -12.532  0.00  0.00     0.068 C 
ENDROOT
BRANCH   1   2
ATOM      2  C   UNL d   1       8.795   6.461 -11.194  0.00  0.00     0.071 A 
ATOM      3  C   UNL d   1       8.587   5.350 -10.218  0.00  0.00     0.298 A 
ATOM      4  O   UNL d   1       7.863   4.400 -10.455  0.00  0.00    -0.259 OA
ATOM      5  O   UNL d   1       9.185   5.466  -8.995  0.00  0.00    -0.273 OA
ATOM      6  C   UNL d   1       9.960   6.540  -8.640  0.00  0.00     0.105 A 
ATOM      7  C   UNL d   1      10.182   7.620  -9.516  0.00  0.00     0.048 A 
ATOM      8  C   UNL d   1      10.552   6.535  -7.369  0.00  0.00     0.025 A 
ATOM      9  C   UNL d   1      10.985   8.709  -9.098  0.00  0.00     0.004 A 
ATOM     10  C   UNL d   1       9.526   7.529 -10.825  0.00  0.00     0.134 A 
ATOM     11  C   UNL d   1      11.572   8.691  -7.816  0.00  0.00     0.000 A 
ATOM     12  C   UNL d   1      11.361   7.601  -6.952  0.00  0.00     0.002 A 
ATOM     13  O   UNL d   1       9.595   8.625 -11.587  0.00  0.00    -0.190 OA
ENDBRANCH   1   2
BRANCH   1  14
ATOM     14  C   UNL d   1       8.107   5.056 -13.237  0.00  0.00     0.071 A 
ATOM     15  C   UNL d   1       9.450   4.644 -13.748  0.00  0.00     0.298 A 
ATOM     16  O   UNL d   1       9.548   3.409 -14.312  0.00  0.00    -0.273 OA
ATOM     17  O   UNL d   1      10.446   5.354 -13.660  0.00  0.00    -0.259 OA
ATOM     18  C   UNL d   1       8.483   2.548 -14.436  0.00  0.00     0.105 A 
ATOM     19  C   UNL d   1       7.198   2.902 -13.980  0.00  0.00     0.048 A 
ATOM     20  C   UNL d   1       8.710   1.286 -15.014  0.00  0.00     0.025 A 
ATOM     21  C   UNL d   1       7.052   4.218 -13.363  0.00  0.00     0.134 A 
ATOM     22  C   UNL d   1       6.151   1.960 -14.040  0.00  0.00     0.004 A 
ATOM     23  O   UNL d   1       5.839   4.505 -12.858  0.00  0.00    -0.190 OA
ATOM     24  C   UNL d   1       6.369   0.706 -14.643  0.00  0.00     0.000 A 
ATOM     25  C   UNL d   1       7.644   0.379 -15.135  0.00  0.00     0.002 A 
ENDBRANCH   1  14
TORSDOF 2
