REMARK  2 active torsions:
REMARK  status: ('A' for Active; 'I' for Inactive)
REMARK    1  A    between atoms: C_8  and  N_9 
REMARK    2  A    between atoms: C_14  and  C_15 
ROOT
ATOM      1  C   UNL d   1      11.477   0.852 -18.028  0.00  0.00     0.285 C 
ATOM      2  N   UNL d   1      10.984   0.982 -16.663  0.00  0.00     0.140 N 
ATOM      3  C   UNL d   1      11.621   2.145 -16.052  0.00  0.00     0.255 C 
ATOM      4  C   UNL d   1      11.404   2.205 -14.536  0.00  0.00     0.061 C 
ATOM      5  C   UNL d   1      10.083   2.838 -14.171  0.00  0.00    -0.024 A 
ATOM      6  C   UNL d   1      10.098   4.035 -13.429  0.00  0.00    -0.003 A 
ATOM      7  C   UNL d   1       8.896   4.671 -13.074  0.00  0.00     0.017 A 
ATOM      8  C   UNL d   1       7.656   4.116 -13.448  0.00  0.00     0.056 A 
ATOM      9  C   UNL d   1       7.655   2.916 -14.194  0.00  0.00     0.013 A 
ATOM     10  C   UNL d   1       8.851   2.257 -14.561  0.00  0.00    -0.019 A 
ATOM     11  C   UNL d   1       8.811   0.936 -15.350  0.00  0.00     0.078 C 
ATOM     12  C   UNL d   1       9.523   1.048 -16.721  0.00  0.00     0.259 C 
ENDROOT
BRANCH  11  13
ATOM     13  C   UNL d   1       7.391   0.366 -15.495  0.00  0.00    -0.017 A 
ATOM     14  C   UNL d   1       6.781  -0.260 -14.384  0.00  0.00    -0.004 A 
ATOM     15  C   UNL d   1       5.488  -0.809 -14.490  0.00  0.00    -0.000 A 
ATOM     16  C   UNL d   1       4.790  -0.749 -15.709  0.00  0.00    -0.000 A 
ATOM     17  C   UNL d   1       5.383  -0.118 -16.819  0.00  0.00    -0.000 A 
ATOM     18  C   UNL d   1       6.667   0.448 -16.711  0.00  0.00    -0.004 A 
ENDBRANCH  11  13
BRANCH   8  19
ATOM     19  N   UNL d   1       6.456   4.747 -13.066  0.00  0.00    -0.344 N 
ATOM     20  C   UNL d   1       5.236   4.282 -13.716  0.00  0.00     0.126 C 
ATOM     21  C   UNL d   1       6.338   5.011 -11.643  0.00  0.00     0.126 C 
ENDBRANCH   8  19
TORSDOF 2
