REMARK  7 active torsions:
REMARK  status: ('A' for Active; 'I' for Inactive)
REMARK    1  A    between atoms: C_2  and  O_3 
REMARK    2  A    between atoms: O_3  and  C_4 
REMARK    3  A    between atoms: C_4  and  C_6 
REMARK    4  A    between atoms: N_9  and  C_10 
REMARK    5  A    between atoms: C_10  and  C_11 
REMARK    6  A    between atoms: C_19  and  C_20 
REMARK    7  A    between atoms: C_20  and  O_22 
ROOT
ATOM      1  C   UNL d   1       9.469   3.980 -13.250  0.00  0.00     0.185 C 
ATOM      2  C   UNL d   1      10.772   4.386 -13.957  0.00  0.00     0.181 C 
ATOM      3  O   UNL d   1      11.377   3.233 -14.496  0.00  0.00    -0.326 OA
ATOM      4  C   UNL d   1      10.548   2.387 -15.182  0.00  0.00     0.116 A 
ATOM      5  C   UNL d   1      11.198   1.444 -15.993  0.00  0.00     0.028 A 
ATOM      6  C   UNL d   1      10.472   0.520 -16.733  0.00  0.00     0.021 A 
ATOM      7  C   UNL d   1       9.087   0.583 -16.650  0.00  0.00     0.084 A 
ATOM      8  N   UNL d   1       8.167  -0.186 -17.315  0.00  0.00    -0.240 NA
ATOM      9  C   UNL d   1       6.890   0.142 -16.936  0.00  0.00     0.144 A 
ATOM     10  C   UNL d   1       6.956   1.172 -16.017  0.00  0.00     0.028 A 
ATOM     11  C   UNL d   1       8.360   1.499 -15.818  0.00  0.00     0.044 A 
ATOM     12  C   UNL d   1       9.144   2.424 -15.049  0.00  0.00     0.118 A 
ATOM     13  O   UNL d   1       8.557   3.345 -14.182  0.00  0.00    -0.327 OA
ENDROOT
BRANCH   1  14
ATOM     14  C   UNL d   1       8.826   5.236 -12.634  0.00  0.00     0.283 C 
BRANCH  14  15
ATOM     15  N   UNL d   1       9.466   5.694 -11.391  0.00  0.00     0.140 N 
ATOM     16  C   UNL d   1       8.823   5.082 -10.219  0.00  0.00     0.251 C 
ATOM     17  C   UNL d   1       9.515   5.504  -8.910  0.00  0.00     0.045 C 
ATOM     18  C   UNL d   1       9.509   7.030  -8.733  0.00  0.00     0.090 C 
ATOM     19  C   UNL d   1      10.070   7.683 -10.009  0.00  0.00     0.045 C 
ATOM     20  C   UNL d   1       9.356   7.153 -11.272  0.00  0.00     0.251 C 
BRANCH  18  21
ATOM     21  C   UNL d   1      10.286   7.471  -7.487  0.00  0.00     0.272 C 
ATOM     22  O   UNL d   1      11.153   6.767  -6.966  0.00  0.00    -0.264 OA
BRANCH  21  23
ATOM     23  O   UNL d   1       9.932   8.689  -7.055  0.00  0.00    -0.302 OA
BRANCH  23  24
ATOM     24  C   UNL d   1      10.567   9.219  -5.902  0.00  0.00     0.152 C 
ATOM     25  C   UNL d   1      11.838   9.980  -6.288  0.00  0.00     0.035 C 
ENDBRANCH  23  24
ENDBRANCH  21  23
ENDBRANCH  18  21
ENDBRANCH  14  15
ENDBRANCH   1  14
BRANCH   9  26
ATOM     26  C   UNL d   1       5.823  -0.648 -17.532  0.00  0.00     0.314 C 
ATOM     27  O   UNL d   1       6.054  -1.333 -18.533  0.00  0.00    -0.257 OA
BRANCH  26  28
ATOM     28  O   UNL d   1       4.636  -0.611 -16.890  0.00  0.00    -0.295 OA
ATOM     29  C   UNL d   1       3.554  -1.413 -17.383  0.00  0.00     0.185 C 
ENDBRANCH  26  28
ENDBRANCH   9  26
TORSDOF 7
