REMARK  3 active torsions:
REMARK  status: ('A' for Active; 'I' for Inactive)
REMARK    1  A    between atoms: C_7  and  C_8 
REMARK    2  A    between atoms: C_8  and  CA_9 
REMARK    3  A    between atoms: CA_9  and  C_11 
ROOT
ATOM      1  C   UNL d   1      12.076   6.388  -3.364  0.00  0.00     0.060 C 
ATOM      2  C   UNL d   1      11.810   7.728  -3.927  0.00  0.00     0.103 A 
ATOM      3  O   UNL d   1      11.800   8.755  -3.031  0.00  0.00    -0.214 OA
ATOM      4  N   UNL d   1      11.462   9.930  -3.714  0.00  0.00    -0.099 NA
ATOM      5  C   UNL d   1      11.332   9.560  -4.972  0.00  0.00     0.235 A 
ATOM      6  O   UNL d   1      11.090  10.510  -5.911  0.00  0.00    -0.167 OA
ATOM      7  C   UNL d   1      11.474   8.164  -5.182  0.00  0.00     0.047 A 
ENDROOT
BRANCH   7   8
ATOM      8  C   UNL d   1      11.328   7.405  -6.486  0.00  0.00     0.082 C 
BRANCH   8   9
ATOM      9  CA  UNL d   1       9.862   7.106  -6.847  0.00  0.00     0.392 C 
ATOM     10  N   UNL d   1       9.047   8.312  -6.882  0.00  0.00     0.628 N 
BRANCH   9  11
ATOM     11  C   UNL d   1       9.720   6.396  -8.204  0.00  0.00     0.224 C 
ATOM     12  O   UNL d   1      10.504   6.631  -9.121  0.00  0.00    -0.646 OA
ATOM     13  OXT UNL d   1       8.648   5.572  -8.356  0.00  0.00    -0.646 OA
ENDBRANCH   9  11
ENDBRANCH   8   9
ENDBRANCH   7   8
TORSDOF 3
