REMARK  8 active torsions:
REMARK  status: ('A' for Active; 'I' for Inactive)
REMARK    1  A    between atoms: O_2  and  C_3 
REMARK    2  A    between atoms: C_8  and  O_9 
REMARK    3  A    between atoms: O_9  and  C_10 
REMARK    4  A    between atoms: C_10  and  C_11 
REMARK    5  A    between atoms: C_11  and  N_12 
REMARK    6  A    between atoms: N_12  and  C_13 
REMARK    7  A    between atoms: C_13  and  C_14 
REMARK    8  A    between atoms: C_14  and  C_16 
ROOT
ATOM      1  N   UNL d   1       9.483   6.556  -9.958  0.00  0.00     0.345 N 
ENDROOT
BRANCH   1   2
ATOM      2  C   UNL d   1       9.375   5.556 -11.007  0.00  0.00     0.323 C 
BRANCH   2   3
ATOM      3  C   UNL d   1       9.088   6.218 -12.371  0.00  0.00     0.187 C 
BRANCH   3   4
ATOM      4  O   UNL d   1       9.108   5.242 -13.408  0.00  0.00    -0.327 OA
BRANCH   4   5
ATOM      5  C   UNL d   1       8.095   4.308 -13.452  0.00  0.00     0.116 A 
ATOM      6  C   UNL d   1       8.260   3.201 -14.320  0.00  0.00     0.116 A 
ATOM      7  C   UNL d   1       7.233   2.249 -14.443  0.00  0.00     0.026 A 
ATOM      8  C   UNL d   1       6.064   2.356 -13.663  0.00  0.00     0.002 A 
ATOM      9  C   UNL d   1       5.894   3.443 -12.797  0.00  0.00     0.002 A 
ATOM     10  C   UNL d   1       6.898   4.412 -12.691  0.00  0.00     0.026 A 
BRANCH   6  11
ATOM     11  O   UNL d   1       9.368   3.038 -15.116  0.00  0.00    -0.326 OA
ATOM     12  C   UNL d   1      10.563   2.712 -14.415  0.00  0.00     0.181 C 
ENDBRANCH   6  11
ENDBRANCH   4   5
ENDBRANCH   3   4
ENDBRANCH   2   3
ENDBRANCH   1   2
BRANCH   1  13
ATOM     13  C   UNL d   1       9.396   5.976  -8.626  0.00  0.00     0.327 C 
BRANCH  13  14
ATOM     14  C   UNL d   1       8.851   7.012  -7.637  0.00  0.00     0.211 C 
ATOM     15  O   UNL d   1       7.870   6.393  -6.841  0.00  0.00    -0.216 OA
BRANCH  14  16
ATOM     16  C   UNL d   1       9.930   7.699  -6.830  0.00  0.00     0.012 A 
ATOM     17  C   UNL d   1      10.452   7.076  -5.678  0.00  0.00     0.028 A 
ATOM     18  C   UNL d   1      11.433   7.721  -4.902  0.00  0.00     0.156 A 
ATOM     19  C   UNL d   1      11.894   8.987  -5.278  0.00  0.00     0.156 A 
ATOM     20  O   UNL d   1      11.912   7.098  -3.781  0.00  0.00    -0.188 OA
ATOM     21  C   UNL d   1      11.403   9.604  -6.442  0.00  0.00     0.029 A 
ATOM     22  O   UNL d   1      12.840   9.588  -4.520  0.00  0.00    -0.188 OA
ATOM     23  C   UNL d   1      10.416   8.961  -7.219  0.00  0.00     0.001 A 
ENDBRANCH  14  16
ENDBRANCH  13  14
ENDBRANCH   1  13
TORSDOF 8
