REMARK  0 active torsions:
REMARK  status: ('A' for Active; 'I' for Inactive)
ROOT
ATOM      1  C   UNL d   1       7.401   5.903 -11.784  0.00  0.00     0.286 C 
ATOM      2  N   UNL d   1       6.911   4.869 -12.697  0.00  0.00     0.142 N 
ATOM      3  C   UNL d   1       6.063   3.978 -11.915  0.00  0.00     0.255 C 
ATOM      4  C   UNL d   1       5.333   3.040 -12.876  0.00  0.00     0.061 C 
ATOM      5  C   UNL d   1       6.255   2.241 -13.780  0.00  0.00    -0.022 A 
ATOM      6  C   UNL d   1       5.997   0.991 -14.365  0.00  0.00    -0.004 A 
ATOM      7  C   UNL d   1       6.985   0.375 -15.155  0.00  0.00     0.001 A 
ATOM      8  C   UNL d   1       8.236   0.988 -15.400  0.00  0.00     0.019 A 
ATOM      9  C   UNL d   1       9.247   0.371 -16.151  0.00  0.00     0.099 A 
ATOM     10  N   UNL d   1      10.448   0.918 -16.390  0.00  0.00    -0.244 NA
ATOM     11  C   UNL d   1      10.725   2.161 -15.945  0.00  0.00     0.081 A 
ATOM     12  C   UNL d   1      11.963   2.782 -16.217  0.00  0.00     0.019 A 
ATOM     13  C   UNL d   1      12.257   4.089 -15.800  0.00  0.00     0.001 A 
ATOM     14  C   UNL d   1      11.282   4.823 -15.118  0.00  0.00    -0.004 A 
ATOM     15  C   UNL d   1      10.037   4.240 -14.824  0.00  0.00    -0.018 A 
ATOM     16  C   UNL d   1       9.755   2.900 -15.198  0.00  0.00     0.014 A 
ATOM     17  C   UNL d   1       8.518   2.275 -14.870  0.00  0.00     0.000 A 
ATOM     18  C   UNL d   1       7.508   2.834 -14.040  0.00  0.00     0.005 A 
ATOM     19  C   UNL d   1       8.004   4.085 -13.295  0.00  0.00     0.246 C 
ATOM     20  C   UNL d   1       8.879   4.975 -14.187  0.00  0.00     0.064 C 
ENDROOT
TORSDOF 0
