REMARK  4 active torsions:
REMARK  status: ('A' for Active; 'I' for Inactive)
REMARK       I    between atoms: N_10  and  C_11 
REMARK    1  A    between atoms: C_11  and  C_13 
REMARK    2  A    between atoms: C_13  and  C_14 
REMARK    3  A    between atoms: N_17  and  C_18 
REMARK    4  A    between atoms: C_18  and  C_19 
ROOT
ATOM      1  C   UNL d   1       9.591   7.068 -11.165  0.00  0.00     0.013 C 
ATOM      2  C   UNL d   1       9.691   6.312  -9.839  0.00  0.00     0.036 C 
ATOM      3  C   UNL d   1      10.877   6.832  -9.091  0.00  0.00     0.251 C 
ATOM      4  N   UNL d   1      10.728   8.235  -8.759  0.00  0.00     0.141 N 
ATOM      5  C   UNL d   1      10.809   8.971 -10.034  0.00  0.00     0.251 C 
ATOM      6  C   UNL d   1       9.622   8.577 -10.917  0.00  0.00     0.036 C 
ENDROOT
BRANCH   1   7
ATOM      7  C   UNL d   1       8.362   6.686 -11.982  0.00  0.00     0.088 C 
BRANCH   7   8
ATOM      8  C   UNL d   1       8.588   5.536 -12.982  0.00  0.00     0.237 C 
ATOM      9  N   UNL d   1       7.630   4.610 -13.167  0.00  0.00    -0.301 N 
ATOM     10  C   UNL d   1       6.178   4.816 -12.907  0.00  0.00     0.093 A 
ATOM     11  C   UNL d   1       7.781   3.374 -13.824  0.00  0.00     0.058 A 
ATOM     12  C   UNL d   1       5.809   4.690 -11.459  0.00  0.00     0.025 C 
ATOM     13  C   UNL d   1       5.443   3.663 -13.612  0.00  0.00     0.051 A 
ATOM     14  C   UNL d   1       6.556   2.789 -14.091  0.00  0.00    -0.004 A 
ATOM     15  C   UNL d   1       6.458   1.537 -14.722  0.00  0.00    -0.003 A 
ATOM     16  C   UNL d   1       7.654   0.880 -15.086  0.00  0.00    -0.000 A 
ATOM     17  C   UNL d   1       8.902   1.466 -14.799  0.00  0.00     0.002 A 
ATOM     18  C   UNL d   1       8.986   2.712 -14.160  0.00  0.00     0.017 A 
ATOM     19  O   UNL d   1       9.667   5.490 -13.606  0.00  0.00    -0.272 OA
ENDBRANCH   7   8
ENDBRANCH   1   7
BRANCH   4  20
ATOM     20  C   UNL d   1      11.818   8.688  -7.891  0.00  0.00     0.277 C 
BRANCH  20  21
ATOM     21  C   UNL d   1      11.664   8.338  -6.412  0.00  0.00     0.011 A 
ATOM     22  C   UNL d   1      11.446   7.015  -5.964  0.00  0.00    -0.000 A 
ATOM     23  C   UNL d   1      11.345   6.731  -4.624  0.00  0.00     0.029 A 
ATOM     24  C   UNL d   1      11.511   7.724  -3.647  0.00  0.00     0.140 A 
ATOM     25  C   UNL d   1      11.743   9.057  -4.055  0.00  0.00     0.029 A 
ATOM     26  F   UNL d   1      11.441   7.391  -2.327  0.00  0.00    -0.204 F 
ATOM     27  C   UNL d   1      11.821   9.376  -5.441  0.00  0.00    -0.000 A 
ENDBRANCH  20  21
ENDBRANCH   4  20
TORSDOF 4
