REMARK  12 active torsions:
REMARK  status: ('A' for Active; 'I' for Inactive)
REMARK    1  A    between atoms: C_2  and  C_3 
REMARK    2  A    between atoms: C_3  and  N_4 
REMARK    3  A    between atoms: N_4  and  C_5 
REMARK    4  A    between atoms: N_4  and  C_24 
REMARK    5  A    between atoms: C_5  and  C_6 
REMARK    6  A    between atoms: C_6  and  C_7 
REMARK    7  A    between atoms: C_7  and  C_8 
REMARK    8  A    between atoms: C_8  and  N_9 
REMARK       I    between atoms: N_9  and  C_10 
REMARK    9  A    between atoms: C_10  and  C_12 
REMARK   10  A    between atoms: C_15  and  C_16 
REMARK   11  A    between atoms: C_27  and  C_28 
REMARK   12  A    between atoms: C_29  and  SI_30 
ROOT
ATOM      1  C   UNL d   1       9.918   4.182 -14.421  0.00  0.00     0.037 C 
ENDROOT
BRANCH   1   2
ATOM      2  C   UNL d   1      11.216   3.671 -15.072  0.00  0.00     0.250 C 
BRANCH   2   3
ATOM      3  N   UNL d   1      11.088   3.421 -16.515  0.00  0.00     0.135 N 
BRANCH   3   4
ATOM      4  C   UNL d   1      12.365   2.947 -17.087  0.00  0.00     0.250 C 
BRANCH   4   5
ATOM      5  C   UNL d   1      13.498   3.997 -17.048  0.00  0.00     0.035 C 
ATOM      6  C   UNL d   1      13.189   5.186 -17.963  0.00  0.00     0.002 C 
ENDBRANCH   4   5
ENDBRANCH   3   4
BRANCH   3   7
ATOM      7  C   UNL d   1       9.971   2.517 -16.859  0.00  0.00     0.224 C 
ATOM      8  C   UNL d   1      10.130   1.108 -16.248  0.00  0.00     0.039 C 
ATOM      9  C   UNL d   1       8.901   0.232 -16.518  0.00  0.00     0.036 C 
ATOM     10  C   UNL d   1       8.381   0.368 -17.944  0.00  0.00     0.016 C 
ATOM     11  C   UNL d   1       8.742   1.367 -18.764  0.00  0.00    -0.020 C 
ATOM     12  C   UNL d   1       9.722   2.474 -18.389  0.00  0.00     0.059 C 
BRANCH  10  13
ATOM     13  C   UNL d   1       7.529  -0.654 -18.406  0.00  0.00    -0.056 C 
ATOM     14  C   UNL d   1       6.750  -1.527 -18.778  0.00  0.00    -0.009 C 
BRANCH  14  15
ATOM     15 SI   UNL d   1       5.602  -2.846 -19.312  0.00  0.00     0.000 Si
ATOM     16  C   UNL d   1       5.330  -2.647 -21.175  0.00  0.00     0.000 C 
ATOM     17  C   UNL d   1       6.426  -4.506 -18.916  0.00  0.00     0.000 C 
ATOM     18  C   UNL d   1       3.977  -2.631 -18.361  0.00  0.00     0.000 C 
ENDBRANCH  14  15
ENDBRANCH  10  13
ENDBRANCH   3   7
ENDBRANCH   2   3
ENDBRANCH   1   2
BRANCH   1  19
ATOM     19  C   UNL d   1      10.108   4.546 -12.945  0.00  0.00     0.029 C 
BRANCH  19  20
ATOM     20  C   UNL d   1       8.856   5.213 -12.352  0.00  0.00     0.129 C 
BRANCH  20  21
ATOM     21  N   UNL d   1       9.116   5.706 -11.005  0.00  0.00    -0.234 NA
ATOM     22  C   UNL d   1       9.459   6.969 -10.710  0.00  0.00     0.275 C 
ATOM     23  O   UNL d   1       9.473   7.879 -11.540  0.00  0.00    -0.266 OA
BRANCH  22  24
ATOM     24  C   UNL d   1       9.928   7.192  -9.299  0.00  0.00     0.058 A 
ATOM     25  C   UNL d   1      11.022   8.046  -9.041  0.00  0.00     0.005 A 
ATOM     26  C   UNL d   1      11.463   8.266  -7.720  0.00  0.00     0.000 A 
ATOM     27  C   UNL d   1      10.813   7.650  -6.627  0.00  0.00     0.000 A 
ATOM     28  C   UNL d   1       9.708   6.815  -6.891  0.00  0.00     0.000 A 
ATOM     29  C   UNL d   1       9.268   6.582  -8.210  0.00  0.00     0.005 A 
BRANCH  27  30
ATOM     30  C   UNL d   1      11.274   7.876  -5.241  0.00  0.00     0.000 A 
ATOM     31  C   UNL d   1      11.464   6.789  -4.359  0.00  0.00     0.000 A 
ATOM     32  C   UNL d   1      11.916   6.993  -3.037  0.00  0.00     0.000 A 
ATOM     33  C   UNL d   1      12.178   8.296  -2.583  0.00  0.00     0.000 A 
ATOM     34  C   UNL d   1      11.980   9.389  -3.446  0.00  0.00     0.000 A 
ATOM     35  C   UNL d   1      11.538   9.180  -4.768  0.00  0.00     0.000 A 
ENDBRANCH  27  30
ENDBRANCH  22  24
ENDBRANCH  20  21
ENDBRANCH  19  20
ENDBRANCH   1  19
TORSDOF 12
