REMARK  5 active torsions:
REMARK  status: ('A' for Active; 'I' for Inactive)
REMARK    1  A    between atoms: C_2  and  C_3 
REMARK    2  A    between atoms: C_3  and  N_4 
REMARK    3  A    between atoms: N_4  and  C_5 
REMARK    4  A    between atoms: N_4  and  C_8 
REMARK    5  A    between atoms: C_5  and  C_6 
ROOT
ATOM      1  C   UNL d   1      11.418   7.410  -7.945  0.00  0.00     0.253 C 
ATOM      2  C   UNL d   1      11.981   8.827  -7.577  0.00  0.00     0.182 C 
ATOM      3  O   UNL d   1      11.417   9.362  -6.415  0.00  0.00    -0.327 OA
ATOM      4  C   UNL d   1      11.506   8.517  -5.367  0.00  0.00     0.115 A 
ATOM      5  C   UNL d   1      11.376   9.095  -4.120  0.00  0.00     0.153 A 
ATOM      6  O   UNL d   1      11.038  10.379  -4.031  0.00  0.00    -0.188 OA
ATOM      7  C   UNL d   1      11.524   8.316  -2.975  0.00  0.00     0.029 A 
ATOM      8  C   UNL d   1      11.797   6.966  -3.083  0.00  0.00     0.002 A 
ATOM      9  C   UNL d   1      11.907   6.404  -4.353  0.00  0.00    -0.002 A 
ATOM     10  C   UNL d   1      11.744   7.160  -5.505  0.00  0.00     0.004 A 
ATOM     11  C   UNL d   1      11.935   6.505  -6.860  0.00  0.00     0.064 C 
ENDROOT
BRANCH   1  12
ATOM     12  N   UNL d   1       9.955   7.391  -8.055  0.00  0.00     0.138 N 
BRANCH  12  13
ATOM     13  C   UNL d   1       9.372   8.596  -8.668  0.00  0.00     0.250 C 
BRANCH  13  14
ATOM     14  C   UNL d   1       9.801   8.806 -10.141  0.00  0.00     0.035 C 
ATOM     15  C   UNL d   1      11.244   9.214 -10.320  0.00  0.00     0.002 C 
ENDBRANCH  13  14
ENDBRANCH  12  13
BRANCH  12  16
ATOM     16  C   UNL d   1       9.520   6.173  -8.751  0.00  0.00     0.250 C 
BRANCH  16  17
ATOM     17  C   UNL d   1       8.411   5.487  -7.976  0.00  0.00     0.035 C 
ATOM     18  C   UNL d   1       8.281   4.002  -8.312  0.00  0.00     0.002 C 
ENDBRANCH  16  17
ENDBRANCH  12  16
ENDBRANCH   1  12
TORSDOF 5
