REMARK  6 active torsions:
REMARK  status: ('A' for Active; 'I' for Inactive)
REMARK    1  A    between atoms: C_6  and  C_7 
REMARK    2  A    between atoms: C_10  and  S_11 
REMARK    3  A    between atoms: S_11  and  C_12 
REMARK    4  A    between atoms: C_12  and  C_13 
REMARK    5  A    between atoms: C_13  and  C_14 
REMARK    6  A    between atoms: C_14  and  N_15 
ROOT
ATOM      1  C   UNL d   1      10.505   1.363 -21.640  0.00  0.00     0.067 C 
ENDROOT
BRANCH   1   2
ATOM      2  S   UNL d   1       8.683   1.249 -21.656  0.00  0.00    -0.075 SA
BRANCH   2   3
ATOM      3  C   UNL d   1       8.374   0.552 -20.064  0.00  0.00     0.193 A 
ATOM      4  N   UNL d   1       9.317   0.102 -19.232  0.00  0.00    -0.122 NA
ATOM      5  N   UNL d   1       8.648  -0.330 -18.112  0.00  0.00    -0.128 NA
ATOM      6  C   UNL d   1       7.353  -0.116 -18.362  0.00  0.00     0.167 A 
ATOM      7  N   UNL d   1       7.124   0.428 -19.575  0.00  0.00    -0.289 N 
ATOM      8  C   UNL d   1       5.855   0.768 -20.206  0.00  0.00     0.134 C 
BRANCH   6   9
ATOM      9  C   UNL d   1       6.316  -0.488 -17.416  0.00  0.00     0.037 A 
ATOM     10  C   UNL d   1       6.169   0.154 -16.159  0.00  0.00     0.021 A 
ATOM     11  C   UNL d   1       7.000   1.234 -15.777  0.00  0.00     0.003 A 
ATOM     12  C   UNL d   1       5.163  -0.283 -15.248  0.00  0.00     0.081 A 
ATOM     13  C   UNL d   1       6.793   1.851 -14.531  0.00  0.00     0.015 A 
ATOM     14  C   UNL d   1       5.781   1.344 -13.700  0.00  0.00     0.059 A 
ATOM     15  C   UNL d   1       5.457   2.010 -12.388  0.00  0.00     0.052 C 
ATOM     16  N   UNL d   1       4.997   0.297 -14.035  0.00  0.00    -0.250 NA
ATOM     17  C   UNL d   1       4.304  -1.327 -15.643  0.00  0.00     0.019 A 
ATOM     18  C   UNL d   1       4.460  -1.971 -16.885  0.00  0.00     0.002 A 
ATOM     19  C   UNL d   1       5.468  -1.554 -17.764  0.00  0.00     0.003 A 
ENDBRANCH   6   9
ENDBRANCH   2   3
ENDBRANCH   1   2
BRANCH   1  20
ATOM     20  C   UNL d   1      11.025   2.462 -20.689  0.00  0.00     0.047 C 
BRANCH  20  21
ATOM     21  C   UNL d   1      12.526   2.726 -20.851  0.00  0.00     0.251 C 
BRANCH  21  22
ATOM     22  N   UNL d   1      12.930   3.759 -19.894  0.00  0.00     0.138 N 
ATOM     23  C   UNL d   1      13.036   5.050 -20.578  0.00  0.00     0.255 C 
ATOM     24  C   UNL d   1      13.099   6.250 -19.617  0.00  0.00     0.062 C 
ATOM     25  C   UNL d   1      14.499   6.520 -19.075  0.00  0.00    -0.016 A 
ATOM     26  C   UNL d   1      15.138   5.537 -18.273  0.00  0.00    -0.022 A 
ATOM     27  C   UNL d   1      15.176   7.738 -19.355  0.00  0.00     0.055 A 
ATOM     28  C   UNL d   1      14.452   4.216 -17.955  0.00  0.00     0.061 C 
ATOM     29  C   UNL d   1      16.432   5.767 -17.751  0.00  0.00     0.017 A 
ATOM     30  C   UNL d   1      14.152   3.359 -19.199  0.00  0.00     0.255 C 
ATOM     31  C   UNL d   1      17.122   6.959 -18.041  0.00  0.00     0.106 A 
ATOM     32  C   UNL d   1      16.463   7.928 -18.827  0.00  0.00     0.125 A 
ATOM     33  N   UNL d   1      18.367   7.429 -17.667  0.00  0.00    -0.224 NA
ATOM     34  O   UNL d   1      17.299   9.026 -18.933  0.00  0.00    -0.291 OA
ATOM     35  C   UNL d   1      18.405   8.652 -18.217  0.00  0.00     0.159 A 
ATOM     36  C   UNL d   1      19.525   9.628 -18.113  0.00  0.00     0.080 C 
ATOM     37 BR   UNL d   1      14.409   9.135 -20.409  0.00  0.00    -0.047 Br
ENDBRANCH  21  22
ENDBRANCH  20  21
ENDBRANCH   1  20
TORSDOF 6
