REMARK  7 active torsions:
REMARK  status: ('A' for Active; 'I' for Inactive)
REMARK    1  A    between atoms: C_2  and  C_3 
REMARK       I    between atoms: C_2  and  N_10 
REMARK    2  A    between atoms: C_3  and  C_4 
REMARK    3  A    between atoms: N_10  and  C_11 
REMARK    4  A    between atoms: C_14  and  C_15 
REMARK    5  A    between atoms: C_15  and  C_16 
REMARK    6  A    between atoms: C_16  and  N_17 
REMARK    7  A    between atoms: C_20  and  C_21 
ROOT
ATOM      1  C   UNL d   1       9.046   5.499 -11.896  0.00  0.00     0.035 C 
ENDROOT
BRANCH   1   2
ATOM      2  C   UNL d   1       9.262   4.300 -12.850  0.00  0.00     0.002 C 
ATOM      3  C   UNL d   1       7.978   3.999 -13.640  0.00  0.00     0.002 C 
ATOM      4  C   UNL d   1       8.193   2.882 -14.669  0.00  0.00     0.024 C 
ATOM      5  C   UNL d   1       9.394   3.239 -15.575  0.00  0.00     0.106 C 
ATOM      6  C   UNL d   1      10.675   3.388 -14.710  0.00  0.00     0.024 C 
ATOM      7  C   UNL d   1      10.452   4.592 -13.797  0.00  0.00     0.002 C 
BRANCH   5   8
ATOM      8  N   UNL d   1       9.552   2.176 -16.576  0.00  0.00    -0.240 NA
ATOM      9  C   UNL d   1       9.728   2.337 -17.902  0.00  0.00     0.254 C 
ATOM     10  O   UNL d   1       9.901   1.342 -18.618  0.00  0.00    -0.271 OA
BRANCH   9  11
ATOM     11  C   UNL d   1       9.706   3.753 -18.535  0.00  0.00     0.122 C 
BRANCH  11  12
ATOM     12  C   UNL d   1      11.070   4.493 -18.436  0.00  0.00     0.154 C 
ATOM     13  O   UNL d   1      11.387   4.716 -17.088  0.00  0.00    -0.351 OA
ATOM     14  C   UNL d   1      12.674   5.264 -16.874  0.00  0.00     0.174 C 
ATOM     15  C   UNL d   1      13.770   4.406 -17.555  0.00  0.00     0.174 C 
ATOM     16  O   UNL d   1      13.472   4.307 -18.953  0.00  0.00    -0.349 OA
ATOM     17  C   UNL d   1      12.205   3.679 -19.127  0.00  0.00     0.172 C 
ENDBRANCH  11  12
ENDBRANCH   9  11
ENDBRANCH   5   8
ENDBRANCH   1   2
BRANCH   1  18
ATOM     18  C   UNL d   1       8.633   5.038 -10.466  0.00  0.00     0.250 C 
BRANCH  18  19
ATOM     19  N   UNL d   1       9.063   6.028  -9.459  0.00  0.00     0.137 N 
ATOM     20  C   UNL d   1       8.559   5.622  -8.142  0.00  0.00     0.251 C 
ATOM     21  C   UNL d   1       8.936   6.667  -7.078  0.00  0.00     0.040 C 
ATOM     22  C   UNL d   1      10.451   6.896  -7.019  0.00  0.00     0.028 C 
ATOM     23  C   UNL d   1      10.972   7.164  -8.428  0.00  0.00     0.040 C 
ATOM     24  C   UNL d   1      10.515   6.093  -9.400  0.00  0.00     0.251 C 
BRANCH  22  25
ATOM     25  C   UNL d   1      10.813   8.014  -6.115  0.00  0.00     0.004 A 
ATOM     26  C   UNL d   1      11.384   7.929  -4.789  0.00  0.00     0.021 A 
ATOM     27  C   UNL d   1      11.502   9.257  -4.339  0.00  0.00     0.100 A 
ATOM     28  C   UNL d   1      11.772   6.897  -3.906  0.00  0.00     0.002 A 
ATOM     29  O   UNL d   1      11.070  10.137  -5.310  0.00  0.00    -0.305 OA
ATOM     30  C   UNL d   1      11.987   9.588  -3.071  0.00  0.00     0.025 A 
ATOM     31  C   UNL d   1      10.662   9.357  -6.353  0.00  0.00     0.118 A 
ATOM     32  C   UNL d   1      12.380   8.543  -2.207  0.00  0.00     0.002 A 
ATOM     33  C   UNL d   1      12.261   7.208  -2.618  0.00  0.00     0.000 A 
ENDBRANCH  22  25
ENDBRANCH  18  19
ENDBRANCH   1  18
TORSDOF 7
