REMARK  7 active torsions:
REMARK  status: ('A' for Active; 'I' for Inactive)
REMARK       I    between atoms: C_2  and  N_4 
REMARK    1  A    between atoms: N_4  and  C_5 
REMARK    2  A    between atoms: C_9  and  C_10 
REMARK    3  A    between atoms: C_11  and  C_12 
REMARK       I    between atoms: C_12  and  N_14 
REMARK    4  A    between atoms: N_14  and  C_15 
REMARK    5  A    between atoms: C_18  and  C_19 
REMARK    6  A    between atoms: C_19  and  C_20 
REMARK    7  A    between atoms: C_20  and  N_21 
ROOT
ATOM      1  N   UNL d   1       5.665   0.363 -15.213  0.00  0.00     0.138 N 
ATOM      2  C   UNL d   1       5.479  -1.067 -14.984  0.00  0.00     0.255 C 
ATOM      3  C   UNL d   1       4.598  -1.732 -16.047  0.00  0.00     0.061 C 
ATOM      4  C   UNL d   1       5.274  -2.049 -17.371  0.00  0.00    -0.024 A 
ATOM      5  C   UNL d   1       5.174  -3.371 -17.858  0.00  0.00    -0.004 A 
ATOM      6  C   UNL d   1       5.743  -3.730 -19.091  0.00  0.00     0.010 A 
ATOM      7  C   UNL d   1       6.432  -2.762 -19.847  0.00  0.00     0.068 A 
ATOM      8  C   UNL d   1       7.023  -3.124 -21.125  0.00  0.00     0.101 C 
ATOM      9  N   UNL d   1       7.495  -3.413 -22.145  0.00  0.00    -0.191 NA
ATOM     10  C   UNL d   1       6.545  -1.440 -19.367  0.00  0.00     0.006 A 
ATOM     11  C   UNL d   1       5.971  -1.071 -18.133  0.00  0.00    -0.023 A 
ATOM     12  C   UNL d   1       6.102   0.379 -17.683  0.00  0.00     0.061 C 
ATOM     13  C   UNL d   1       6.658   0.590 -16.269  0.00  0.00     0.255 C 
ENDROOT
BRANCH   1  14
ATOM     14  C   UNL d   1       6.126   0.977 -13.965  0.00  0.00     0.250 C 
BRANCH  14  15
ATOM     15  C   UNL d   1       5.816   2.491 -13.923  0.00  0.00     0.035 C 
BRANCH  15  16
ATOM     16  C   UNL d   1       6.675   3.309 -12.980  0.00  0.00     0.002 C 
ATOM     17  C   UNL d   1       8.120   3.369 -13.552  0.00  0.00     0.002 C 
ATOM     18  C   UNL d   1       9.025   4.173 -12.641  0.00  0.00     0.024 C 
ATOM     19  C   UNL d   1       8.470   5.590 -12.389  0.00  0.00     0.107 C 
ATOM     20  C   UNL d   1       7.005   5.563 -11.889  0.00  0.00     0.024 C 
ATOM     21  C   UNL d   1       6.097   4.720 -12.791  0.00  0.00     0.002 C 
BRANCH  19  22
ATOM     22  N   UNL d   1       9.315   6.347 -11.469  0.00  0.00    -0.236 NA
ATOM     23  C   UNL d   1       9.578   6.021 -10.192  0.00  0.00     0.275 C 
ATOM     24  O   UNL d   1       9.401   4.898  -9.712  0.00  0.00    -0.266 OA
BRANCH  23  25
ATOM     25  C   UNL d   1      10.055   7.164  -9.455  0.00  0.00     0.062 C 
ATOM     26  C   UNL d   1      10.318   6.992  -8.147  0.00  0.00     0.005 C 
BRANCH  26  27
ATOM     27  C   UNL d   1      10.766   8.023  -7.219  0.00  0.00     0.002 A 
ATOM     28  C   UNL d   1      10.963   9.347  -7.629  0.00  0.00     0.000 A 
ATOM     29  C   UNL d   1      11.362  10.299  -6.680  0.00  0.00     0.002 A 
ATOM     30  C   UNL d   1      11.547   9.943  -5.335  0.00  0.00     0.019 A 
ATOM     31  C   UNL d   1      11.403   8.599  -4.936  0.00  0.00     0.084 A 
ATOM     32  C   UNL d   1      10.976   7.644  -5.889  0.00  0.00     0.019 A 
BRANCH  31  33
ATOM     33  N   UNL d   1      11.640   8.275  -3.586  0.00  0.00    -0.212 NA
ATOM     34  C   UNL d   1      11.951   7.067  -3.135  0.00  0.00     0.256 C 
ATOM     35  C   UNL d   1      11.956   6.874  -1.647  0.00  0.00     0.100 C 
ATOM     36  O   UNL d   1      12.231   6.117  -3.834  0.00  0.00    -0.270 OA
ENDBRANCH  31  33
ENDBRANCH  26  27
ENDBRANCH  23  25
ENDBRANCH  19  22
ENDBRANCH  15  16
ENDBRANCH  14  15
ENDBRANCH   1  14
TORSDOF 7
