REMARK  12 active torsions:
REMARK  status: ('A' for Active; 'I' for Inactive)
REMARK    1  A    between atoms: O_2  and  C_3 
REMARK    2  A    between atoms: C_4  and  O_5 
REMARK    3  A    between atoms: C_9  and  C_10 
REMARK    4  A    between atoms: C_10  and  C_11 
REMARK    5  A    between atoms: C_11  and  C_12 
REMARK    6  A    between atoms: C_12  and  C_13 
REMARK    7  A    between atoms: C_13  and  C_14 
REMARK    8  A    between atoms: C_14  and  C_15 
REMARK    9  A    between atoms: C_15  and  C_16 
REMARK   10  A    between atoms: C_16  and  C_17 
REMARK   11  A    between atoms: C_17  and  C_18 
REMARK   12  A    between atoms: C_18  and  C_19 
ROOT
ATOM      1  C   UNL d   1       8.027   2.263 -15.165  0.00  0.00     0.158 A 
ATOM      2  C   UNL d   1       9.022   3.152 -15.016  0.00  0.00     0.158 A 
ATOM      3  C   UNL d   1       8.972   4.221 -13.973  0.00  0.00     0.215 A 
ATOM      4  O   UNL d   1       9.892   5.027 -13.869  0.00  0.00    -0.285 OA
ATOM      5  C   UNL d   1       7.759   4.281 -13.080  0.00  0.00     0.018 A 
ATOM      6  C   UNL d   1       6.724   3.414 -13.265  0.00  0.00     0.018 A 
ATOM      7  C   UNL d   1       5.446   3.380 -12.412  0.00  0.00     0.034 C 
ATOM      8  C   UNL d   1       6.806   2.324 -14.301  0.00  0.00     0.215 A 
ATOM      9  O   UNL d   1       5.912   1.490 -14.421  0.00  0.00    -0.285 OA
ENDROOT
BRANCH   5  10
ATOM     10  C   UNL d   1       7.812   5.348 -11.970  0.00  0.00     0.029 C 
BRANCH  10  11
ATOM     11  C   UNL d   1       8.930   5.089 -10.939  0.00  0.00     0.005 C 
BRANCH  11  12
ATOM     12  C   UNL d   1       8.861   6.032  -9.733  0.00  0.00     0.000 C 
BRANCH  12  13
ATOM     13  C   UNL d   1      10.108   5.956  -8.843  0.00  0.00     0.000 C 
BRANCH  13  14
ATOM     14  C   UNL d   1       9.924   6.696  -7.514  0.00  0.00     0.000 C 
BRANCH  14  15
ATOM     15  C   UNL d   1      11.198   6.685  -6.657  0.00  0.00     0.000 C 
BRANCH  15  16
ATOM     16  C   UNL d   1      10.932   7.163  -5.221  0.00  0.00     0.000 C 
BRANCH  16  17
ATOM     17  C   UNL d   1      11.996   6.701  -4.208  0.00  0.00     0.003 C 
BRANCH  17  18
ATOM     18  C   UNL d   1      12.007   7.452  -2.874  0.00  0.00     0.036 C 
BRANCH  18  19
ATOM     19  C   UNL d   1      12.112   8.977  -3.032  0.00  0.00     0.182 C 
ATOM     20  O   UNL d   1      12.287   9.530  -1.749  0.00  0.00    -0.221 OA
ENDBRANCH  18  19
ENDBRANCH  17  18
ENDBRANCH  16  17
ENDBRANCH  15  16
ENDBRANCH  14  15
ENDBRANCH  13  14
ENDBRANCH  12  13
ENDBRANCH  11  12
ENDBRANCH  10  11
ENDBRANCH   5  10
BRANCH   2  21
ATOM     21  O   UNL d   1      10.095   3.208 -15.882  0.00  0.00    -0.323 OA
ATOM     22  C   UNL d   1       9.779   3.308 -17.259  0.00  0.00     0.182 C 
ENDBRANCH   2  21
BRANCH   1  23
ATOM     23  O   UNL d   1       8.092   1.201 -16.050  0.00  0.00    -0.323 OA
ATOM     24  C   UNL d   1       9.306   0.462 -16.087  0.00  0.00     0.182 C 
ENDBRANCH   1  23
TORSDOF 12
