REMARK  9 active torsions:
REMARK  status: ('A' for Active; 'I' for Inactive)
REMARK    1  A    between atoms: C_1  and  C_9 
REMARK    2  A    between atoms: C_2  and  C_3 
REMARK    3  A    between atoms: C_9  and  O_10 
REMARK    4  A    between atoms: O_10  and  C_11 
REMARK    5  A    between atoms: C_11  and  C_12 
REMARK    6  A    between atoms: C_12  and  C_13 
REMARK    7  A    between atoms: N_16  and  C_17 
REMARK    8  A    between atoms: C_17  and  C_18 
REMARK    9  A    between atoms: C_18  and  C_19 
ROOT
ATOM      1  C   UNL d   1       8.449   5.686 -10.952  0.00  0.00     0.006 C 
ATOM      2  C   UNL d   1       9.586   6.678 -11.237  0.00  0.00     0.035 C 
ATOM      3  C   UNL d   1       9.941   7.529 -10.008  0.00  0.00     0.250 C 
ATOM      4  N   UNL d   1      10.242   6.642  -8.883  0.00  0.00     0.137 N 
ATOM      5  C   UNL d   1       9.058   5.862  -8.527  0.00  0.00     0.250 C 
ATOM      6  C   UNL d   1       8.728   4.907  -9.668  0.00  0.00     0.035 C 
ENDROOT
BRANCH   1   7
ATOM      7  C   UNL d   1       8.227   4.729 -12.130  0.00  0.00     0.032 C 
BRANCH   7   8
ATOM      8  C   UNL d   1       9.492   3.987 -12.608  0.00  0.00     0.144 C 
BRANCH   8   9
ATOM      9  O   UNL d   1       9.139   2.924 -13.464  0.00  0.00    -0.341 OA
BRANCH   9  10
ATOM     10  C   UNL d   1       8.583   3.326 -14.690  0.00  0.00     0.218 C 
BRANCH  10  11
ATOM     11  C   UNL d   1       7.716   2.257 -15.165  0.00  0.00    -0.054 C 
ATOM     12  C   UNL d   1       6.940   1.389 -15.520  0.00  0.00    -0.062 C 
BRANCH  12  13
ATOM     13  C   UNL d   1       6.019   0.382 -15.983  0.00  0.00     0.042 A 
ATOM     14  C   UNL d   1       5.104  -0.217 -15.088  0.00  0.00     0.008 A 
ATOM     15  C   UNL d   1       4.222  -1.213 -15.544  0.00  0.00     0.001 A 
ATOM     16  C   UNL d   1       4.251  -1.619 -16.895  0.00  0.00     0.000 A 
ATOM     17  C   UNL d   1       5.161  -1.019 -17.791  0.00  0.00     0.001 A 
ATOM     18  C   UNL d   1       6.041  -0.019 -17.335  0.00  0.00     0.008 A 
ENDBRANCH  12  13
ENDBRANCH  10  11
ENDBRANCH   9  10
ENDBRANCH   8   9
ENDBRANCH   7   8
ENDBRANCH   1   7
BRANCH   4  19
ATOM     19  C   UNL d   1      10.587   7.515  -7.748  0.00  0.00     0.255 C 
BRANCH  19  20
ATOM     20  C   UNL d   1      11.056   6.734  -6.511  0.00  0.00     0.062 C 
BRANCH  20  21
ATOM     21  C   UNL d   1      11.340   7.632  -5.316  0.00  0.00    -0.020 A 
ATOM     22  C   UNL d   1      11.852   7.058  -4.138  0.00  0.00    -0.004 A 
ATOM     23  C   UNL d   1      12.128   7.864  -3.014  0.00  0.00    -0.000 A 
ATOM     24  C   UNL d   1      11.859   9.248  -3.064  0.00  0.00    -0.000 A 
ATOM     25  C   UNL d   1      11.326   9.816  -4.234  0.00  0.00    -0.000 A 
ATOM     26  C   UNL d   1      11.075   9.017  -5.363  0.00  0.00    -0.004 A 
ENDBRANCH  20  21
ENDBRANCH  19  20
ENDBRANCH   4  19
TORSDOF 9
