REMARK  6 active torsions:
REMARK  status: ('A' for Active; 'I' for Inactive)
REMARK    1  A    between atoms: O_2  and  C_3 
REMARK    2  A    between atoms: N_14  and  C_15 
REMARK    3  A    between atoms: C_15  and  C_16 
REMARK    4  A    between atoms: C_16  and  C_17 
REMARK    5  A    between atoms: C_17  and  C_18 
REMARK    6  A    between atoms: C_18  and  C_20 
ROOT
ATOM      1  C   UNL d   1       6.283   0.649 -14.502  0.00  0.00     0.094 A 
ATOM      2  C   UNL d   1       5.471   1.407 -13.612  0.00  0.00     0.026 A 
ATOM      3  C   UNL d   1       5.861   2.692 -13.231  0.00  0.00     0.026 A 
ATOM      4  C   UNL d   1       7.064   3.261 -13.679  0.00  0.00     0.090 A 
ATOM      5  C   UNL d   1       7.893   2.500 -14.580  0.00  0.00     0.002 A 
ATOM      6  C   UNL d   1       7.491   1.206 -14.958  0.00  0.00     0.022 A 
ATOM      7  C   UNL d   1       9.189   3.103 -15.076  0.00  0.00     0.031 C 
ATOM      8  C   UNL d   1       9.284   4.598 -14.750  0.00  0.00     0.033 C 
ATOM      9  C   UNL d   1       8.785   4.867 -13.312  0.00  0.00     0.103 C 
ATOM     10  C   UNL d   1       8.854   6.357 -12.973  0.00  0.00     0.063 C 
ATOM     11  C   UNL d   1       8.507   6.635 -11.508  0.00  0.00     0.253 C 
ATOM     12  N   UNL d   1       9.402   5.899 -10.621  0.00  0.00     0.137 N 
ATOM     13  C   UNL d   1       9.227   4.469 -10.837  0.00  0.00     0.253 C 
ATOM     14  C   UNL d   1       9.615   4.095 -12.266  0.00  0.00     0.063 C 
ATOM     15  O   UNL d   1       7.410   4.483 -13.221  0.00  0.00    -0.336 OA
ENDROOT
BRANCH  12  16
ATOM     16  C   UNL d   1       9.032   6.218  -9.244  0.00  0.00     0.251 C 
BRANCH  16  17
ATOM     17  C   UNL d   1      10.254   6.129  -8.341  0.00  0.00     0.043 C 
BRANCH  17  18
ATOM     18  C   UNL d   1       9.898   6.572  -6.912  0.00  0.00     0.071 C 
BRANCH  18  19
ATOM     19  C   UNL d   1      10.433   7.957  -6.512  0.00  0.00     0.173 C 
ATOM     20  O   UNL d   1      10.300   8.905  -7.289  0.00  0.00    -0.291 OA
BRANCH  19  21
ATOM     21  C   UNL d   1      11.064   8.108  -5.168  0.00  0.00     0.035 A 
ATOM     22  C   UNL d   1      11.272   9.402  -4.625  0.00  0.00     0.005 A 
ATOM     23  C   UNL d   1      11.855   9.564  -3.345  0.00  0.00     0.030 A 
ATOM     24  C   UNL d   1      12.259   8.439  -2.601  0.00  0.00     0.140 A 
ATOM     25  C   UNL d   1      12.085   7.156  -3.137  0.00  0.00     0.030 A 
ATOM     26  F   UNL d   1      12.828   8.591  -1.388  0.00  0.00    -0.204 F 
ATOM     27  C   UNL d   1      11.503   6.990  -4.407  0.00  0.00     0.005 A 
ENDBRANCH  19  21
ENDBRANCH  18  19
ENDBRANCH  17  18
ENDBRANCH  16  17
ENDBRANCH  12  16
BRANCH   1  28
ATOM     28  O   UNL d   1       5.939  -0.598 -14.961  0.00  0.00    -0.328 OA
ATOM     29  C   UNL d   1       4.604  -1.041 -14.741  0.00  0.00     0.181 C 
ENDBRANCH   1  28
TORSDOF 6
