REMARK  9 active torsions:
REMARK  status: ('A' for Active; 'I' for Inactive)
REMARK    1  A    between atoms: C_6  and  N_7 
REMARK    2  A    between atoms: N_7  and  C_8 
REMARK    3  A    between atoms: N_7  and  C_11 
REMARK    4  A    between atoms: C_8  and  C_9 
REMARK    5  A    between atoms: C_11  and  C_12 
REMARK    6  A    between atoms: C_12  and  C_13 
REMARK    7  A    between atoms: C_13  and  C_14 
REMARK    8  A    between atoms: C_14  and  N_15 
REMARK       I    between atoms: N_15  and  C_16 
REMARK    9  A    between atoms: C_16  and  C_18 
ROOT
ATOM      1  C   UNL d   1      11.427   6.114  -6.562  0.00  0.00    -0.009 C 
ATOM      2  C   UNL d   1      10.771   6.113  -7.590  0.00  0.00    -0.056 C 
ATOM      3  C   UNL d   1      10.072   6.136  -8.820  0.00  0.00     0.016 C 
ATOM      4  C   UNL d   1       9.811   5.006  -9.499  0.00  0.00    -0.020 C 
ATOM      5  C   UNL d   1       9.171   4.952 -10.877  0.00  0.00     0.059 C 
ATOM      6  C   UNL d   1       8.479   6.271 -11.242  0.00  0.00     0.224 C 
ATOM      7  C   UNL d   1       9.391   7.469 -10.884  0.00  0.00     0.039 C 
ATOM      8  C   UNL d   1       9.738   7.494  -9.380  0.00  0.00     0.036 C 
ENDROOT
BRANCH   6   9
ATOM      9  N   UNL d   1       8.011   6.331 -12.655  0.00  0.00     0.135 N 
BRANCH   9  10
ATOM     10  C   UNL d   1       7.122   7.476 -12.849  0.00  0.00     0.250 C 
BRANCH  10  11
ATOM     11  C   UNL d   1       5.680   7.228 -12.332  0.00  0.00     0.035 C 
ATOM     12  C   UNL d   1       4.918   8.501 -12.527  0.00  0.00     0.002 C 
ENDBRANCH  10  11
ENDBRANCH   9  10
BRANCH   9  13
ATOM     13  C   UNL d   1       7.480   5.069 -13.206  0.00  0.00     0.250 C 
BRANCH  13  14
ATOM     14  C   UNL d   1       8.516   4.437 -14.171  0.00  0.00     0.037 C 
BRANCH  14  15
ATOM     15  C   UNL d   1       8.198   2.963 -14.436  0.00  0.00     0.029 C 
BRANCH  15  16
ATOM     16  C   UNL d   1       9.324   2.205 -15.178  0.00  0.00     0.129 C 
BRANCH  16  17
ATOM     17  N   UNL d   1       8.781   1.199 -16.083  0.00  0.00    -0.233 NA
ATOM     18  C   UNL d   1       8.196   1.530 -17.250  0.00  0.00     0.294 C 
ATOM     19  O   UNL d   1       8.384   2.600 -17.819  0.00  0.00    -0.264 OA
BRANCH  18  20
ATOM     20  C   UNL d   1       7.226   0.514 -17.747  0.00  0.00     0.160 A 
ATOM     21  N   UNL d   1       6.803   0.459 -18.998  0.00  0.00    -0.160 NA
ATOM     22  N   UNL d   1       5.870  -0.548 -19.006  0.00  0.00    -0.228 N 
ATOM     23  C   UNL d   1       5.694  -1.102 -17.727  0.00  0.00     0.085 A 
ATOM     24  C   UNL d   1       5.181  -0.989 -20.096  0.00  0.00     0.101 A 
ATOM     25  C   UNL d   1       6.549  -0.415 -16.907  0.00  0.00     0.045 A 
ATOM     26  C   UNL d   1       4.759  -2.159 -17.571  0.00  0.00     0.019 A 
ATOM     27  C   UNL d   1       4.072  -2.614 -18.675  0.00  0.00     0.003 A 
ATOM     28  C   UNL d   1       4.290  -2.025 -19.949  0.00  0.00     0.021 A 
ENDBRANCH  18  20
ENDBRANCH  16  17
ENDBRANCH  15  16
ENDBRANCH  14  15
ENDBRANCH  13  14
ENDBRANCH   9  13
ENDBRANCH   6   9
TORSDOF 9
