REMARK  10 active torsions:
REMARK  status: ('A' for Active; 'I' for Inactive)
REMARK    1  A    between atoms: O_2  and  C_3 
REMARK    2  A    between atoms: C_8  and  N_9 
REMARK    3  A    between atoms: N_12  and  C_13 
REMARK    4  A    between atoms: C_13  and  C_14 
REMARK    5  A    between atoms: C_14  and  C_15 
REMARK    6  A    between atoms: C_15  and  N_16 
REMARK       I    between atoms: N_16  and  C_17 
REMARK       I    between atoms: C_17  and  N_19 
REMARK    7  A    between atoms: N_19  and  N_20 
REMARK    8  A    between atoms: N_20  and  C_21 
REMARK    9  A    between atoms: N_20  and  C_28 
REMARK   10  A    between atoms: C_21  and  C_22 
ROOT
ATOM      1  N   UNL d   1       8.079   4.253 -12.416  0.00  0.00    -0.216 NA
ATOM      2  C   UNL d   1       8.380   4.131 -13.708  0.00  0.00     0.381 C 
ATOM      3  O   UNL d   1       8.526   5.101 -14.450  0.00  0.00    -0.241 OA
ATOM      4  N   UNL d   1       8.480   2.849 -14.105  0.00  0.00    -0.110 NA
ENDROOT
BRANCH   1   5
ATOM      5  C   UNL d   1       8.104   5.470 -11.619  0.00  0.00     0.133 C 
BRANCH   5   6
ATOM      6  C   UNL d   1       9.502   6.138 -11.664  0.00  0.00     0.062 C 
BRANCH   6   7
ATOM      7  C   UNL d   1       9.627   7.386 -10.800  0.00  0.00     0.253 C 
BRANCH   7   8
ATOM      8  N   UNL d   1       9.485   7.117  -9.384  0.00  0.00     0.141 N 
ATOM      9  C   UNL d   1      10.573   6.316  -8.862  0.00  0.00     0.274 C 
ATOM     10  C   UNL d   1      10.382   6.017  -7.376  0.00  0.00     0.137 C 
ATOM     11  N   UNL d   1      10.195   7.253  -6.625  0.00  0.00    -0.343 N 
ATOM     12  C   UNL d   1       9.167   8.146  -7.178  0.00  0.00     0.137 C 
ATOM     13  C   UNL d   1       9.471   8.399  -8.669  0.00  0.00     0.274 C 
BRANCH  11  14
ATOM     14  C   UNL d   1      11.040   7.588  -5.579  0.00  0.00     0.079 A 
ATOM     15  C   UNL d   1      11.626   8.880  -5.453  0.00  0.00     0.110 A 
ATOM     16  C   UNL d   1      12.412   9.158  -4.305  0.00  0.00     0.026 A 
ATOM     17  C   UNL d   1      12.620   8.217  -3.290  0.00  0.00     0.002 A 
ATOM     18  C   UNL d   1      12.100   6.928  -3.433  0.00  0.00     0.002 A 
ATOM     19  C   UNL d   1      11.337   6.625  -4.578  0.00  0.00     0.019 A 
BRANCH  15  20
ATOM     20  O   UNL d   1      11.446   9.748  -6.504  0.00  0.00    -0.327 OA
ATOM     21  C   UNL d   1      11.867  11.079  -6.367  0.00  0.00     0.181 C 
ENDBRANCH  15  20
ENDBRANCH  11  14
ENDBRANCH   7   8
ENDBRANCH   6   7
ENDBRANCH   5   6
ENDBRANCH   1   5
BRANCH   4  22
ATOM     22  N   UNL d   1       8.294   2.482 -15.441  0.00  0.00    -0.243 N 
BRANCH  22  23
ATOM     23  C   UNL d   1       6.887   2.340 -15.792  0.00  0.00     0.154 C 
BRANCH  23  24
ATOM     24  C   UNL d   1       6.357   0.932 -15.669  0.00  0.00     0.002 A 
ATOM     25  C   UNL d   1       6.351   0.306 -14.410  0.00  0.00    -0.002 A 
ATOM     26  C   UNL d   1       5.855  -1.001 -14.292  0.00  0.00    -0.000 A 
ATOM     27  C   UNL d   1       5.353  -1.671 -15.421  0.00  0.00    -0.000 A 
ATOM     28  C   UNL d   1       5.350  -1.044 -16.678  0.00  0.00    -0.000 A 
ATOM     29  C   UNL d   1       5.847   0.264 -16.803  0.00  0.00    -0.002 A 
ENDBRANCH  23  24
ENDBRANCH  22  23
BRANCH  22  30
ATOM     30  C   UNL d   1       9.327   1.985 -16.261  0.00  0.00     0.079 A 
ATOM     31  C   UNL d   1       9.046   1.406 -17.525  0.00  0.00     0.020 A 
ATOM     32  C   UNL d   1      10.073   0.865 -18.316  0.00  0.00     0.013 A 
ATOM     33  C   UNL d   1      11.404   0.943 -17.874  0.00  0.00     0.058 A 
ATOM     34  C   UNL d   1      11.703   1.568 -16.645  0.00  0.00     0.013 A 
ATOM     35 CL   UNL d   1      12.656   0.267 -18.841  0.00  0.00    -0.082 Cl
ATOM     36  C   UNL d   1      10.669   2.087 -15.844  0.00  0.00     0.020 A 
ENDBRANCH  22  30
ENDBRANCH   4  22
TORSDOF 10
