REMARK  6 active torsions:
REMARK  status: ('A' for Active; 'I' for Inactive)
REMARK    1  A    between atoms: C_2  and  C_3 
REMARK    2  A    between atoms: C_3  and  C_4 
REMARK    3  A    between atoms: C_4  and  N_5 
REMARK    4  A    between atoms: C_8  and  C_9 
REMARK    5  A    between atoms: C_9  and  N_10 
REMARK       I    between atoms: N_10  and  C_11 
REMARK    6  A    between atoms: C_11  and  C_13 
ROOT
ATOM      1  N   UNL d   1       9.687   6.335 -10.781  0.00  0.00    -0.234 NA
ATOM      2  C   UNL d   1       9.251   6.590 -12.015  0.00  0.00     0.278 C 
ATOM      3  O   UNL d   1       9.024   7.724 -12.442  0.00  0.00    -0.265 OA
ENDROOT
BRANCH   2   4
ATOM      4  C   UNL d   1       9.096   5.393 -12.859  0.00  0.00     0.098 A 
ATOM      5  C   UNL d   1       7.892   4.642 -12.904  0.00  0.00     0.024 A 
ATOM      6  C   UNL d   1       8.093   3.583 -13.829  0.00  0.00     0.062 A 
ATOM      7  C   UNL d   1       6.631   4.735 -12.267  0.00  0.00     0.002 A 
ATOM      8  N   UNL d   1       9.393   3.709 -14.309  0.00  0.00    -0.309 N 
ATOM      9  C   UNL d   1       7.091   2.644 -14.113  0.00  0.00     0.017 A 
ATOM     10  C   UNL d   1       9.991   4.825 -13.727  0.00  0.00     0.164 A 
ATOM     11  C   UNL d   1      10.030   2.846 -15.283  0.00  0.00     0.111 C 
ATOM     12  O   UNL d   1      11.267   5.160 -14.048  0.00  0.00    -0.316 OA
ATOM     13  C   UNL d   1      11.760   4.664 -15.292  0.00  0.00     0.152 C 
ATOM     14  C   UNL d   1      11.527   3.153 -15.392  0.00  0.00     0.057 C 
ATOM     15  C   UNL d   1       5.862   2.740 -13.447  0.00  0.00     0.002 A 
ATOM     16  C   UNL d   1       5.620   3.792 -12.543  0.00  0.00     0.000 A 
ENDBRANCH   2   4
BRANCH   1  17
ATOM     17  C   UNL d   1       9.985   7.386  -9.823  0.00  0.00     0.129 C 
BRANCH  17  18
ATOM     18  C   UNL d   1       9.330   7.084  -8.458  0.00  0.00     0.029 C 
ATOM     19  C   UNL d   1       8.960   8.361  -7.707  0.00  0.00     0.037 C 
ATOM     20  C   UNL d   1      10.209   9.111  -7.254  0.00  0.00     0.250 C 
ATOM     21  N   UNL d   1      10.977   8.283  -6.330  0.00  0.00     0.137 N 
ATOM     22  C   UNL d   1      11.451   7.068  -7.012  0.00  0.00     0.250 C 
ATOM     23  C   UNL d   1      10.242   6.263  -7.534  0.00  0.00     0.037 C 
BRANCH  21  24
ATOM     24  C   UNL d   1      12.093   9.072  -5.857  0.00  0.00     0.250 C 
BRANCH  24  25
ATOM     25  C   UNL d   1      12.559   8.523  -4.492  0.00  0.00     0.035 C 
BRANCH  25  26
ATOM     26  C   UNL d   1      11.891   9.206  -3.298  0.00  0.00     0.002 C 
ATOM     27  C   UNL d   1      12.399   8.639  -1.967  0.00  0.00     0.000 C 
ENDBRANCH  25  26
ENDBRANCH  24  25
ENDBRANCH  21  24
ENDBRANCH  17  18
ENDBRANCH   1  17
TORSDOF 6
