REMARK  4 active torsions:
REMARK  status: ('A' for Active; 'I' for Inactive)
REMARK    1  A    between atoms: C_2  and  C_4 
REMARK    2  A    between atoms: C_7  and  N_8 
REMARK    3  A    between atoms: N_18  and  C_19 
REMARK    4  A    between atoms: C_19  and  C_20 
ROOT
ATOM      1  C   UNL d   1       7.544   5.458 -13.190  0.00  0.00     0.121 A 
ATOM      2  N   UNL d   1       7.436   4.308 -13.881  0.00  0.00    -0.228 NA
ATOM      3  C   UNL d   1       8.748   3.996 -14.171  0.00  0.00     0.132 A 
ATOM      4  C   UNL d   1       9.353   2.948 -14.906  0.00  0.00     0.079 A 
ATOM      5  C   UNL d   1      10.770   2.936 -14.993  0.00  0.00     0.039 A 
ATOM      6  C   UNL d   1      11.526   3.937 -14.358  0.00  0.00     0.102 A 
ATOM      7  N   UNL d   1      10.992   4.945 -13.655  0.00  0.00    -0.225 NA
ATOM      8  C   UNL d   1       9.628   4.952 -13.595  0.00  0.00     0.164 A 
ATOM      9  N   UNL d   1       8.815   5.894 -12.966  0.00  0.00    -0.296 N 
ENDROOT
BRANCH   9  10
ATOM     10  C   UNL d   1       9.305   7.056 -12.223  0.00  0.00     0.136 C 
BRANCH  10  11
ATOM     11  C   UNL d   1       9.533   6.733 -10.757  0.00  0.00     0.001 A 
ATOM     12  C   UNL d   1      10.301   7.614  -9.973  0.00  0.00     0.009 A 
ATOM     13  C   UNL d   1      10.533   7.332  -8.613  0.00  0.00     0.058 A 
ATOM     14  C   UNL d   1       9.947   6.198  -8.022  0.00  0.00     0.011 A 
ATOM     15 CL   UNL d   1      11.562   8.354  -7.693  0.00  0.00    -0.082 Cl
ATOM     16  C   UNL d   1       9.130   5.337  -8.767  0.00  0.00     0.001 A 
ATOM     17  C   UNL d   1       8.950   5.593 -10.139  0.00  0.00    -0.002 A 
ENDBRANCH  10  11
ENDBRANCH   9  10
BRANCH   1  18
ATOM     18  C   UNL d   1       6.288   6.181 -12.717  0.00  0.00     0.057 C 
ATOM     19  C   UNL d   1       6.308   7.721 -12.833  0.00  0.00     0.008 C 
ATOM     20  C   UNL d   1       5.867   5.744 -11.321  0.00  0.00     0.008 C 
ENDBRANCH   1  18
BRANCH   4  21
ATOM     21  N   UNL d   1       8.601   1.957 -15.505  0.00  0.00    -0.343 N 
ATOM     22  C   UNL d   1       7.801   1.038 -14.707  0.00  0.00     0.140 C 
ATOM     23  C   UNL d   1       6.340   1.034 -15.194  0.00  0.00     0.314 C 
ATOM     24  N   UNL d   1       6.275   0.754 -16.630  0.00  0.00     0.343 N 
ATOM     25  C   UNL d   1       6.997   1.793 -17.361  0.00  0.00     0.314 C 
ATOM     26  C   UNL d   1       8.486   1.828 -16.953  0.00  0.00     0.140 C 
ENDBRANCH   4  21
TORSDOF 4
