REMARK  6 active torsions:
REMARK  status: ('A' for Active; 'I' for Inactive)
REMARK    1  A    between atoms: C_10  and  C_11 
REMARK    2  A    between atoms: C_11  and  C_12 
REMARK    3  A    between atoms: C_12  and  C_13 
REMARK    4  A    between atoms: C_13  and  C_14 
REMARK    5  A    between atoms: C_14  and  N_15 
REMARK    6  A    between atoms: C_18  and  C_19 
ROOT
ATOM      1  C   UNL d   1       9.181   5.361 -12.112  0.00  0.00     0.003 C 
ENDROOT
BRANCH   1   2
ATOM      2  C   UNL d   1       8.506   3.990 -12.304  0.00  0.00     0.013 C 
BRANCH   2   3
ATOM      3  C   UNL d   1       7.723   3.808 -13.630  0.00  0.00     0.093 C 
ATOM      4  C   UNL d   1       8.725   3.987 -14.832  0.00  0.00     0.259 C 
ATOM      5  O   UNL d   1       9.188   5.062 -15.182  0.00  0.00    -0.270 OA
ATOM      6  N   UNL d   1       8.937   2.826 -15.464  0.00  0.00    -0.212 NA
ATOM      7  C   UNL d   1       8.033   1.884 -14.974  0.00  0.00     0.081 A 
ATOM      8  C   UNL d   1       7.252   2.424 -14.005  0.00  0.00    -0.001 A 
ATOM      9  C   UNL d   1       7.789   0.547 -15.370  0.00  0.00     0.019 A 
ATOM     10  C   UNL d   1       6.183   1.784 -13.395  0.00  0.00    -0.024 A 
ATOM     11  C   UNL d   1       5.958   0.438 -13.717  0.00  0.00    -0.004 A 
ATOM     12  C   UNL d   1       5.484   2.654 -12.343  0.00  0.00     0.026 C 
ATOM     13  C   UNL d   1       6.763  -0.175 -14.706  0.00  0.00     0.001 A 
ATOM     14  C   UNL d   1       5.268   4.094 -12.768  0.00  0.00     0.005 C 
ATOM     15  C   UNL d   1       6.449   4.679 -13.545  0.00  0.00     0.013 C 
ENDBRANCH   2   3
ENDBRANCH   1   2
BRANCH   1  16
ATOM     16  C   UNL d   1       9.750   5.529 -10.702  0.00  0.00     0.035 C 
BRANCH  16  17
ATOM     17  C   UNL d   1       8.893   6.357  -9.781  0.00  0.00     0.251 C 
BRANCH  17  18
ATOM     18  N   UNL d   1       9.661   6.959  -8.682  0.00  0.00     0.142 N 
ATOM     19  C   UNL d   1       8.814   7.793  -7.853  0.00  0.00     0.255 C 
ATOM     20  C   UNL d   1       9.656   8.537  -6.799  0.00  0.00     0.061 C 
ATOM     21  C   UNL d   1      10.641   7.615  -6.093  0.00  0.00    -0.022 C 
ATOM     22  C   UNL d   1      10.891   6.411  -6.606  0.00  0.00     0.005 C 
ATOM     23  C   UNL d   1      10.254   5.902  -7.885  0.00  0.00     0.276 C 
BRANCH  21  24
ATOM     24  C   UNL d   1      11.249   8.041  -4.803  0.00  0.00    -0.004 A 
ATOM     25  C   UNL d   1      11.279   9.407  -4.470  0.00  0.00    -0.000 A 
ATOM     26  C   UNL d   1      11.808   9.805  -3.231  0.00  0.00    -0.000 A 
ATOM     27  C   UNL d   1      12.312   8.866  -2.321  0.00  0.00    -0.000 A 
ATOM     28  C   UNL d   1      12.277   7.501  -2.638  0.00  0.00    -0.000 A 
ATOM     29  C   UNL d   1      11.753   7.086  -3.876  0.00  0.00    -0.000 A 
ENDBRANCH  21  24
ENDBRANCH  17  18
ENDBRANCH  16  17
ENDBRANCH   1  16
TORSDOF 6
