REMARK  4 active torsions:
REMARK  status: ('A' for Active; 'I' for Inactive)
REMARK    1  A    between atoms: C_7  and  N_8 
REMARK    2  A    between atoms: N_11  and  C_12 
REMARK    3  A    between atoms: C_12  and  C_13 
REMARK    4  A    between atoms: C_15  and  C_16 
ROOT
ATOM      1  N   UNL d   1       9.140   3.901 -13.561  0.00  0.00    -0.344 N 
ATOM      2  C   UNL d   1       9.994   3.799 -12.396  0.00  0.00     0.137 C 
ATOM      3  C   UNL d   1       9.505   4.740 -11.280  0.00  0.00     0.274 C 
ATOM      4  N   UNL d   1       9.466   6.108 -11.793  0.00  0.00     0.141 N 
ATOM      5  C   UNL d   1       8.473   6.171 -12.870  0.00  0.00     0.274 C 
ATOM      6  C   UNL d   1       8.909   5.245 -14.037  0.00  0.00     0.137 C 
ENDROOT
BRANCH   4   7
ATOM      7  C   UNL d   1       9.079   7.044 -10.736  0.00  0.00     0.251 C 
BRANCH   7   8
ATOM      8  C   UNL d   1      10.236   7.340  -9.784  0.00  0.00     0.038 A 
ATOM      9  C   UNL d   1      10.125   8.491  -8.798  0.00  0.00     0.024 A 
ATOM     10  C   UNL d   1      11.108   8.565  -9.944  0.00  0.00     0.007 A 
BRANCH   9  11
ATOM     11  C   UNL d   1      10.605   8.330  -7.386  0.00  0.00    -0.022 A 
ATOM     12  C   UNL d   1      11.283   9.383  -6.735  0.00  0.00    -0.004 A 
ATOM     13  C   UNL d   1      11.775   9.210  -5.428  0.00  0.00    -0.000 A 
ATOM     14  C   UNL d   1      11.589   7.986  -4.761  0.00  0.00    -0.000 A 
ATOM     15  C   UNL d   1      10.902   6.937  -5.397  0.00  0.00    -0.000 A 
ATOM     16  C   UNL d   1      10.402   7.113  -6.700  0.00  0.00    -0.004 A 
ENDBRANCH   9  11
ENDBRANCH   7   8
ENDBRANCH   4   7
BRANCH   1  17
ATOM     17  C   UNL d   1       8.479   2.794 -14.097  0.00  0.00     0.067 A 
ATOM     18  C   UNL d   1       7.068   2.656 -14.044  0.00  0.00     0.073 A 
ATOM     19 CL   UNL d   1       6.037   3.788 -13.239  0.00  0.00    -0.081 Cl
ATOM     20  C   UNL d   1       6.460   1.529 -14.617  0.00  0.00     0.013 A 
ATOM     21  C   UNL d   1       7.220   0.543 -15.257  0.00  0.00     0.001 A 
ATOM     22  C   UNL d   1       8.615   0.662 -15.303  0.00  0.00     0.002 A 
ATOM     23  C   UNL d   1       9.247   1.781 -14.714  0.00  0.00     0.018 A 
ENDBRANCH   1  17
TORSDOF 4
