REMARK  6 active torsions:
REMARK  status: ('A' for Active; 'I' for Inactive)
REMARK    1  A    between atoms: C_2  and  C_3 
REMARK    2  A    between atoms: C_2  and  C_20 
REMARK    3  A    between atoms: C_3  and  C_4 
REMARK    4  A    between atoms: C_4  and  C_5 
REMARK    5  A    between atoms: C_5  and  N_6 
REMARK    6  A    between atoms: C_9  and  C_10 
ROOT
ATOM      1  N   UNL d   1       8.981   4.765 -12.681  0.00  0.00     0.137 N 
ATOM      2  C   UNL d   1       7.586   4.386 -12.455  0.00  0.00     0.251 C 
ATOM      3  C   UNL d   1       6.971   3.917 -13.770  0.00  0.00     0.039 C 
ATOM      4  C   UNL d   1       7.824   2.882 -14.495  0.00  0.00     0.023 A 
ATOM      5  C   UNL d   1       8.975   3.373 -15.370  0.00  0.00     0.006 A 
ATOM      6  C   UNL d   1       9.266   2.727 -14.049  0.00  0.00     0.037 A 
ATOM      7  C   UNL d   1       9.783   3.555 -12.895  0.00  0.00     0.251 C 
ENDROOT
BRANCH   1   8
ATOM      8  C   UNL d   1       9.530   5.431 -11.510  0.00  0.00     0.251 C 
BRANCH   8   9
ATOM      9  C   UNL d   1       8.912   6.803 -11.251  0.00  0.00     0.043 C 
BRANCH   9  10
ATOM     10  C   UNL d   1       9.627   7.585 -10.138  0.00  0.00     0.071 C 
BRANCH  10  11
ATOM     11  C   UNL d   1       9.762   6.872  -8.785  0.00  0.00     0.173 C 
ATOM     12  O   UNL d   1       9.424   5.678  -8.686  0.00  0.00    -0.291 OA
BRANCH  11  13
ATOM     13  C   UNL d   1      10.338   7.660  -7.653  0.00  0.00     0.035 A 
ATOM     14  C   UNL d   1      10.523   7.034  -6.399  0.00  0.00     0.005 A 
ATOM     15  C   UNL d   1      11.051   7.760  -5.309  0.00  0.00     0.030 A 
ATOM     16  C   UNL d   1      11.387   9.120  -5.462  0.00  0.00     0.140 A 
ATOM     17  C   UNL d   1      11.223   9.748  -6.715  0.00  0.00     0.030 A 
ATOM     18  F   UNL d   1      11.851   9.821  -4.397  0.00  0.00    -0.204 F 
ATOM     19  C   UNL d   1      10.707   9.025  -7.808  0.00  0.00     0.005 A 
ENDBRANCH  11  13
ENDBRANCH  10  11
ENDBRANCH   9  10
ENDBRANCH   8   9
ENDBRANCH   1   8
BRANCH   4  20
ATOM     20  C   UNL d   1       7.026   1.667 -14.878  0.00  0.00    -0.023 A 
ATOM     21  C   UNL d   1       6.995   1.220 -16.219  0.00  0.00    -0.003 A 
ATOM     22  C   UNL d   1       6.237   0.091 -16.576  0.00  0.00     0.011 A 
ATOM     23  C   UNL d   1       5.496  -0.592 -15.601  0.00  0.00     0.058 A 
ATOM     24  C   UNL d   1       5.502  -0.149 -14.268  0.00  0.00     0.011 A 
ATOM     25 CL   UNL d   1       4.588  -1.982 -16.045  0.00  0.00    -0.082 Cl
ATOM     26  C   UNL d   1       6.273   0.973 -13.905  0.00  0.00    -0.003 A 
ENDBRANCH   4  20
TORSDOF 6
