REMARK  6 active torsions:
REMARK  status: ('A' for Active; 'I' for Inactive)
REMARK    1  A    between atoms: C_2  and  C_3 
REMARK    2  A    between atoms: N_13  and  C_14 
REMARK    3  A    between atoms: C_14  and  C_15 
REMARK    4  A    between atoms: C_15  and  C_17 
REMARK    5  A    between atoms: C_17  and  N_18 
REMARK    6  A    between atoms: N_21  and  C_22 
ROOT
ATOM      1  C   UNL d   1       9.092   4.871 -11.412  0.00  0.00     0.148 C 
ENDROOT
BRANCH   1   2
ATOM      2  N   UNL d   1       8.617   4.075 -12.553  0.00  0.00    -0.247 N 
ATOM      3  C   UNL d   1       7.334   3.981 -12.975  0.00  0.00     0.348 A 
ATOM      4  N   UNL d   1       7.314   3.249 -14.094  0.00  0.00    -0.209 NA
ATOM      5  O   UNL d   1       6.342   4.480 -12.445  0.00  0.00    -0.245 OA
ATOM      6  C   UNL d   1       8.633   2.807 -14.528  0.00  0.00     0.179 A 
ATOM      7  C   UNL d   1       8.678   1.251 -14.541  0.00  0.00     0.039 C 
ATOM      8  C   UNL d   1       9.433   3.400 -13.376  0.00  0.00     0.265 A 
ATOM      9  O   UNL d   1      10.649   3.344 -13.315  0.00  0.00    -0.269 OA
BRANCH   6  10
ATOM     10  C   UNL d   1       9.095   3.451 -15.860  0.00  0.00     0.006 A 
ATOM     11  C   UNL d   1       8.971   2.762 -17.094  0.00  0.00     0.000 A 
ATOM     12  C   UNL d   1       9.378   3.366 -18.297  0.00  0.00     0.029 A 
ATOM     13  C   UNL d   1       9.913   4.668 -18.303  0.00  0.00     0.140 A 
ATOM     14  C   UNL d   1      10.043   5.366 -17.091  0.00  0.00     0.029 A 
ATOM     15  F   UNL d   1      10.297   5.242 -19.464  0.00  0.00    -0.204 F 
ATOM     16  C   UNL d   1       9.632   4.775 -15.888  0.00  0.00     0.000 A 
ENDBRANCH   6  10
ENDBRANCH   1   2
BRANCH   1  17
ATOM     17  C   UNL d   1       8.641   6.347 -11.438  0.00  0.00     0.208 C 
ATOM     18  O   UNL d   1       8.717   6.820 -12.759  0.00  0.00    -0.219 OA
BRANCH  17  19
ATOM     19  C   UNL d   1       9.532   7.310 -10.623  0.00  0.00     0.285 C 
BRANCH  19  20
ATOM     20  N   UNL d   1       9.898   6.842  -9.280  0.00  0.00     0.144 N 
ATOM     21  C   UNL d   1       8.958   7.267  -8.235  0.00  0.00     0.274 C 
ATOM     22  C   UNL d   1       9.327   6.766  -6.827  0.00  0.00     0.137 C 
ATOM     23  N   UNL d   1      10.714   7.081  -6.544  0.00  0.00    -0.343 N 
ATOM     24  C   UNL d   1      11.689   6.764  -7.561  0.00  0.00     0.137 C 
ATOM     25  C   UNL d   1      11.225   7.307  -8.936  0.00  0.00     0.274 C 
BRANCH  23  26
ATOM     26  C   UNL d   1      11.110   7.733  -5.382  0.00  0.00     0.084 A 
ATOM     27  C   UNL d   1      11.066   9.134  -5.324  0.00  0.00     0.155 A 
ATOM     28  C   UNL d   1      11.423   9.791  -4.138  0.00  0.00     0.031 A 
ATOM     29  F   UNL d   1      10.669   9.857  -6.401  0.00  0.00    -0.203 F 
ATOM     30  C   UNL d   1      11.874   9.060  -3.023  0.00  0.00     0.002 A 
ATOM     31  C   UNL d   1      11.945   7.657  -3.081  0.00  0.00     0.002 A 
ATOM     32  C   UNL d   1      11.572   6.995  -4.273  0.00  0.00     0.019 A 
ENDBRANCH  23  26
ENDBRANCH  19  20
ENDBRANCH  17  19
ENDBRANCH   1  17
TORSDOF 6
