REMARK  7 active torsions:
REMARK  status: ('A' for Active; 'I' for Inactive)
REMARK    1  A    between atoms: C_6  and  N_7 
REMARK    2  A    between atoms: N_10  and  C_11 
REMARK    3  A    between atoms: C_11  and  C_12 
REMARK    4  A    between atoms: C_12  and  C_13 
REMARK    5  A    between atoms: C_13  and  C_14 
REMARK    6  A    between atoms: C_14  and  N_15 
REMARK       I    between atoms: N_15  and  C_16 
REMARK    7  A    between atoms: C_16  and  C_18 
ROOT
ATOM      1  N   UNL d   1       7.204   3.489 -13.715  0.00  0.00    -0.330 N 
ATOM      2  C   UNL d   1       6.559   4.375 -12.752  0.00  0.00     0.138 C 
ATOM      3  C   UNL d   1       7.534   4.710 -11.626  0.00  0.00     0.274 C 
ATOM      4  N   UNL d   1       8.762   5.308 -12.168  0.00  0.00     0.141 N 
ATOM      5  C   UNL d   1       9.426   4.342 -13.050  0.00  0.00     0.274 C 
ATOM      6  C   UNL d   1       8.488   3.978 -14.222  0.00  0.00     0.138 C 
ENDROOT
BRANCH   4   7
ATOM      7  C   UNL d   1       9.658   5.659 -11.073  0.00  0.00     0.251 C 
BRANCH   7   8
ATOM      8  C   UNL d   1       9.063   6.786 -10.226  0.00  0.00     0.037 C 
BRANCH   8   9
ATOM      9  C   UNL d   1       9.977   7.200  -9.084  0.00  0.00     0.029 C 
BRANCH   9  10
ATOM     10  C   UNL d   1       9.315   8.156  -8.080  0.00  0.00     0.129 C 
BRANCH  10  11
ATOM     11  N   UNL d   1      10.104   8.356  -6.868  0.00  0.00    -0.234 NA
ATOM     12  C   UNL d   1      10.968   7.489  -6.303  0.00  0.00     0.275 C 
ATOM     13  O   UNL d   1      11.351   6.447  -6.821  0.00  0.00    -0.266 OA
BRANCH  12  14
ATOM     14  C   UNL d   1      11.429   7.856  -4.917  0.00  0.00     0.058 A 
ATOM     15  C   UNL d   1      11.842   6.828  -4.037  0.00  0.00     0.005 A 
ATOM     16  C   UNL d   1      12.303   7.116  -2.743  0.00  0.00     0.000 A 
ATOM     17  C   UNL d   1      12.358   8.457  -2.311  0.00  0.00     0.000 A 
ATOM     18  C   UNL d   1      11.925   9.497  -3.170  0.00  0.00     0.000 A 
ATOM     19  C   UNL d   1      11.473   9.196  -4.468  0.00  0.00     0.005 A 
ENDBRANCH  12  14
ENDBRANCH  10  11
ENDBRANCH   9  10
ENDBRANCH   8   9
ENDBRANCH   7   8
ENDBRANCH   4   7
BRANCH   1  20
ATOM     20  C   UNL d   1       6.656   2.251 -14.085  0.00  0.00     0.140 A 
ATOM     21  C   UNL d   1       5.708   1.594 -13.260  0.00  0.00     0.037 A 
ATOM     22  C   UNL d   1       5.163   0.372 -13.691  0.00  0.00     0.004 A 
ATOM     23  C   UNL d   1       5.583  -0.175 -14.912  0.00  0.00     0.015 A 
ATOM     24  C   UNL d   1       6.537   0.536 -15.661  0.00  0.00     0.061 A 
ATOM     25  C   UNL d   1       7.023   0.005 -16.992  0.00  0.00     0.052 C 
ATOM     26  N   UNL d   1       7.059   1.718 -15.262  0.00  0.00    -0.233 NA
ENDBRANCH   1  20
TORSDOF 7
