REMARK  7 active torsions:
REMARK  status: ('A' for Active; 'I' for Inactive)
REMARK    1  A    between atoms: O_2  and  C_3 
REMARK    2  A    between atoms: C_5  and  C_6 
REMARK    3  A    between atoms: C_6  and  C_7 
REMARK    4  A    between atoms: C_7  and  N_8 
REMARK    5  A    between atoms: N_8  and  C_10 
REMARK    6  A    between atoms: C_10  and  C_11 
REMARK    7  A    between atoms: C_17  and  O_18 
ROOT
ATOM      1  N   UNL d   1       8.762   6.295 -12.005  0.00  0.00     0.144 N 
ATOM      2  C   UNL d   1       7.757   7.323 -12.247  0.00  0.00     0.286 C 
ENDROOT
BRANCH   1   3
ATOM      3  C   UNL d   1       8.474   5.081 -12.759  0.00  0.00     0.255 C 
BRANCH   3   4
ATOM      4  C   UNL d   1       7.079   4.440 -12.487  0.00  0.00     0.062 C 
BRANCH   4   5
ATOM      5  C   UNL d   1       6.810   3.187 -13.301  0.00  0.00    -0.018 A 
ATOM      6  C   UNL d   1       5.810   2.288 -12.896  0.00  0.00     0.022 A 
ATOM      7  C   UNL d   1       5.568   1.112 -13.640  0.00  0.00     0.119 A 
ATOM      8  C   UNL d   1       6.297   0.871 -14.823  0.00  0.00     0.153 A 
ATOM      9  C   UNL d   1       7.278   1.777 -15.244  0.00  0.00     0.029 A 
ATOM     10  O   UNL d   1       6.071  -0.270 -15.539  0.00  0.00    -0.188 OA
ATOM     11  C   UNL d   1       7.548   2.912 -14.470  0.00  0.00    -0.002 A 
BRANCH   7  12
ATOM     12  O   UNL d   1       4.665   0.192 -13.179  0.00  0.00    -0.326 OA
ATOM     13  C   UNL d   1       3.403   0.217 -13.824  0.00  0.00     0.181 C 
ENDBRANCH   7  12
ENDBRANCH   4   5
ENDBRANCH   3   4
ENDBRANCH   1   3
BRANCH   1  14
ATOM     14  C   UNL d   1       8.889   6.020 -10.581  0.00  0.00     0.279 C 
BRANCH  14  15
ATOM     15  C   UNL d   1       9.824   6.928  -9.796  0.00  0.00     0.035 A 
ATOM     16  C   UNL d   1      10.076   6.689  -8.418  0.00  0.00     0.117 A 
ATOM     17  C   UNL d   1      10.987   7.508  -7.727  0.00  0.00     0.153 A 
ATOM     18  C   UNL d   1      11.666   8.562  -8.379  0.00  0.00     0.029 A 
ATOM     19  O   UNL d   1      11.207   7.301  -6.402  0.00  0.00    -0.188 OA
ATOM     20  C   UNL d   1      11.414   8.800  -9.742  0.00  0.00     0.002 A 
ATOM     21  C   UNL d   1      10.485   8.008 -10.435  0.00  0.00    -0.000 A 
BRANCH  16  22
ATOM     22  O   UNL d   1       9.462   5.679  -7.713  0.00  0.00    -0.326 OA
ATOM     23  C   UNL d   1       8.091   5.918  -7.508  0.00  0.00     0.181 C 
ENDBRANCH  16  22
ENDBRANCH  14  15
ENDBRANCH   1  14
TORSDOF 7
