REMARK  7 active torsions:
REMARK  status: ('A' for Active; 'I' for Inactive)
REMARK    1  A    between atoms: C_3  and  S_4 
REMARK    2  A    between atoms: S_4  and  C_5 
REMARK    3  A    between atoms: C_5  and  C_6 
REMARK    4  A    between atoms: C_6  and  C_7 
REMARK    5  A    between atoms: C_7  and  N_8 
REMARK    6  A    between atoms: N_13  and  C_14 
REMARK    7  A    between atoms: C_27  and  C_28 
ROOT
ATOM      1  C   UNL d   1       9.541   5.314  -9.818  0.00  0.00     0.251 C 
ENDROOT
BRANCH   1   2
ATOM      2  C   UNL d   1       8.910   5.541 -11.201  0.00  0.00     0.047 C 
BRANCH   2   3
ATOM      3  C   UNL d   1       8.683   4.229 -11.977  0.00  0.00     0.067 C 
BRANCH   3   4
ATOM      4  S   UNL d   1       8.460   4.511 -13.758  0.00  0.00    -0.075 SA
BRANCH   4   5
ATOM      5  C   UNL d   1      10.148   4.593 -14.314  0.00  0.00     0.193 A 
ATOM      6  N   UNL d   1      10.497   4.867 -15.591  0.00  0.00    -0.289 N 
ATOM      7  C   UNL d   1       9.600   5.048 -16.701  0.00  0.00     0.134 C 
ATOM      8  C   UNL d   1      11.843   4.920 -15.542  0.00  0.00     0.167 A 
ATOM      9  N   UNL d   1      12.297   4.619 -14.318  0.00  0.00    -0.128 NA
ATOM     10  N   UNL d   1      11.200   4.397 -13.530  0.00  0.00    -0.122 NA
BRANCH   8  11
ATOM     11  C   UNL d   1      12.793   5.251 -16.641  0.00  0.00     0.042 A 
ATOM     12  C   UNL d   1      14.143   5.253 -16.392  0.00  0.00     0.064 A 
ATOM     13  C   UNL d   1      15.182   5.539 -17.393  0.00  0.00     0.261 A 
ATOM     14  N   UNL d   1      14.704   5.701 -18.656  0.00  0.00    -0.292 N 
ATOM     15  O   UNL d   1      16.395   5.622 -17.101  0.00  0.00    -0.267 OA
ATOM     16  C   UNL d   1      13.319   5.739 -18.936  0.00  0.00     0.079 A 
ATOM     17  C   UNL d   1      15.613   5.972 -19.765  0.00  0.00     0.134 C 
ATOM     18  C   UNL d   1      12.374   5.563 -17.999  0.00  0.00     0.022 A 
ENDBRANCH   8  11
ENDBRANCH   4   5
ENDBRANCH   3   4
ENDBRANCH   2   3
ENDBRANCH   1   2
BRANCH   1  19
ATOM     19  N   UNL d   1      10.059   6.556  -9.252  0.00  0.00     0.139 N 
ATOM     20  C   UNL d   1      10.682   6.315  -7.961  0.00  0.00     0.272 C 
ATOM     21  C   UNL d   1      11.579   7.545  -7.736  0.00  0.00     0.117 C 
ATOM     22  C   UNL d   1      11.705   8.238  -9.092  0.00  0.00     0.058 C 
ATOM     23  N   UNL d   1      11.029   8.488  -6.762  0.00  0.00    -0.344 N 
ATOM     24  C   UNL d   1      11.041   7.281 -10.064  0.00  0.00     0.252 C 
ATOM     25  C   UNL d   1      10.968   9.554  -8.920  0.00  0.00     0.028 C 
ATOM     26  C   UNL d   1      11.084   9.779  -7.402  0.00  0.00     0.102 C 
BRANCH  23  27
ATOM     27  C   UNL d   1      11.311   8.394  -5.373  0.00  0.00     0.112 A 
ATOM     28  C   UNL d   1      11.620   7.138  -4.793  0.00  0.00     0.160 A 
ATOM     29  C   UNL d   1      11.935   6.980  -3.437  0.00  0.00     0.061 A 
ATOM     30  F   UNL d   1      11.734   6.060  -5.567  0.00  0.00    -0.203 F 
ATOM     31  C   UNL d   1      12.051   8.118  -2.619  0.00  0.00     0.145 A 
ATOM     32  C   UNL d   1      11.741   9.372  -3.165  0.00  0.00     0.061 A 
ATOM     33  F   UNL d   1      12.473   8.040  -1.323  0.00  0.00    -0.204 F 
ATOM     34  C   UNL d   1      11.341   9.527  -4.503  0.00  0.00     0.160 A 
ATOM     35  F   UNL d   1      11.019  10.792  -4.911  0.00  0.00    -0.203 F 
ENDBRANCH  23  27
ENDBRANCH   1  19
TORSDOF 7
