REMARK  7 active torsions:
REMARK  status: ('A' for Active; 'I' for Inactive)
REMARK    1  A    between atoms: C_4  and  C_5 
REMARK    2  A    between atoms: N_16  and  C_17 
REMARK    3  A    between atoms: C_17  and  C_18 
REMARK    4  A    between atoms: C_18  and  C_19 
REMARK    5  A    between atoms: C_19  and  S_20 
REMARK    6  A    between atoms: S_20  and  C_21 
REMARK    7  A    between atoms: C_24  and  C_25 
ROOT
ATOM      1  C   UNL d   1       8.868   5.450 -11.408  0.00  0.00     0.200 A 
ATOM      2  N   UNL d   1       9.426   4.916 -12.508  0.00  0.00    -0.219 NA
ATOM      3  C   UNL d   1       8.405   4.151 -13.038  0.00  0.00     0.102 A 
ATOM      4  C   UNL d   1       8.318   3.297 -14.172  0.00  0.00    -0.004 A 
ATOM      5  C   UNL d   1       7.115   2.595 -14.436  0.00  0.00    -0.022 A 
ATOM      6  C   UNL d   1       5.998   2.748 -13.575  0.00  0.00    -0.002 A 
ATOM      7  C   UNL d   1       6.059   3.615 -12.470  0.00  0.00     0.026 A 
ATOM      8  C   UNL d   1       7.259   4.285 -12.224  0.00  0.00     0.119 A 
ATOM      9  O   UNL d   1       7.565   5.120 -11.173  0.00  0.00    -0.287 OA
ATOM     10  C   UNL d   1       6.994   1.676 -15.640  0.00  0.00     0.061 C 
ATOM     11  C   UNL d   1       7.960   0.483 -15.629  0.00  0.00     0.255 C 
ATOM     12  N   UNL d   1       9.304   0.826 -16.102  0.00  0.00     0.138 N 
ATOM     13  C   UNL d   1      10.049   1.673 -15.164  0.00  0.00     0.255 C 
ATOM     14  C   UNL d   1       9.524   3.122 -15.080  0.00  0.00     0.063 C 
ENDROOT
BRANCH  12  15
ATOM     15  C   UNL d   1      10.044  -0.407 -16.391  0.00  0.00     0.251 C 
BRANCH  15  16
ATOM     16  C   UNL d   1      11.075  -0.181 -17.512  0.00  0.00     0.047 C 
BRANCH  16  17
ATOM     17  C   UNL d   1      10.414   0.165 -18.869  0.00  0.00     0.067 C 
BRANCH  17  18
ATOM     18  S   UNL d   1      11.577   0.963 -20.011  0.00  0.00    -0.075 SA
BRANCH  18  19
ATOM     19  C   UNL d   1      11.976   2.383 -19.040  0.00  0.00     0.193 A 
ATOM     20  N   UNL d   1      13.229   2.868 -18.934  0.00  0.00    -0.287 N 
ATOM     21  C   UNL d   1      13.064   3.884 -18.056  0.00  0.00     0.191 A 
ATOM     22  C   UNL d   1      14.439   2.414 -19.602  0.00  0.00     0.134 C 
ATOM     23  N   UNL d   1      11.799   4.012 -17.642  0.00  0.00    -0.126 NA
ATOM     24  N   UNL d   1      11.080   3.060 -18.323  0.00  0.00    -0.122 NA
BRANCH  21  25
ATOM     25  C   UNL d   1      14.111   4.784 -17.577  0.00  0.00     0.151 A 
ATOM     26  C   UNL d   1      14.077   5.875 -16.740  0.00  0.00     0.087 A 
ATOM     27  N   UNL d   1      15.364   6.378 -16.614  0.00  0.00    -0.221 NA
ATOM     28  C   UNL d   1      12.916   6.517 -16.032  0.00  0.00     0.054 C 
ATOM     29  C   UNL d   1      16.102   5.590 -17.388  0.00  0.00     0.225 A 
ATOM     30  O   UNL d   1      15.399   4.601 -18.006  0.00  0.00    -0.282 OA
ENDBRANCH  21  25
ENDBRANCH  18  19
ENDBRANCH  17  18
ENDBRANCH  16  17
ENDBRANCH  15  16
ENDBRANCH  12  15
BRANCH   1  31
ATOM     31  C   UNL d   1       9.473   6.416 -10.508  0.00  0.00     0.120 A 
ATOM     32  C   UNL d   1      10.077   7.599 -10.807  0.00  0.00     0.039 A 
ATOM     33  C   UNL d   1      10.537   8.085  -9.557  0.00  0.00     0.081 A 
ATOM     34  C   UNL d   1      11.305   9.335  -9.279  0.00  0.00     0.054 C 
ATOM     35  N   UNL d   1      10.223   7.277  -8.558  0.00  0.00    -0.174 NA
ATOM     36  N   UNL d   1       9.557   6.254  -9.138  0.00  0.00    -0.246 N 
ATOM     37  C   UNL d   1       9.072   5.186  -8.298  0.00  0.00     0.154 C 
ENDBRANCH   1  31
TORSDOF 7
