REMARK  7 active torsions:
REMARK  status: ('A' for Active; 'I' for Inactive)
REMARK    1  A    between atoms: C_6  and  C_7 
REMARK    2  A    between atoms: C_10  and  S_11 
REMARK    3  A    between atoms: S_11  and  C_12 
REMARK    4  A    between atoms: C_12  and  C_13 
REMARK    5  A    between atoms: C_13  and  C_14 
REMARK    6  A    between atoms: C_14  and  N_15 
REMARK    7  A    between atoms: C_20  and  C_21 
ROOT
ATOM      1  C   UNL d   1       9.136   5.335 -10.181  0.00  0.00     0.047 C 
ENDROOT
BRANCH   1   2
ATOM      2  C   UNL d   1       8.559   5.102 -11.577  0.00  0.00     0.067 C 
BRANCH   2   3
ATOM      3  S   UNL d   1       9.853   4.997 -12.851  0.00  0.00    -0.075 SA
BRANCH   3   4
ATOM      4  C   UNL d   1       9.206   3.715 -13.871  0.00  0.00     0.193 A 
ATOM      5  N   UNL d   1       7.908   3.434 -14.000  0.00  0.00    -0.122 NA
ATOM      6  N   UNL d   1       7.852   2.373 -14.867  0.00  0.00    -0.126 NA
ATOM      7  C   UNL d   1       9.108   2.113 -15.226  0.00  0.00     0.191 A 
ATOM      8  N   UNL d   1      10.008   2.934 -14.624  0.00  0.00    -0.287 N 
ATOM      9  C   UNL d   1      11.454   2.977 -14.761  0.00  0.00     0.134 C 
BRANCH   7  10
ATOM     10  C   UNL d   1       9.429   1.061 -16.189  0.00  0.00     0.151 A 
ATOM     11  C   UNL d   1       8.644   0.122 -16.825  0.00  0.00     0.087 A 
ATOM     12  C   UNL d   1       7.173  -0.129 -16.720  0.00  0.00     0.054 C 
ATOM     13  N   UNL d   1       9.460  -0.645 -17.646  0.00  0.00    -0.221 NA
ATOM     14  C   UNL d   1      10.672  -0.126 -17.490  0.00  0.00     0.225 A 
ATOM     15  O   UNL d   1      10.721   0.906 -16.610  0.00  0.00    -0.282 OA
ENDBRANCH   7  10
ENDBRANCH   3   4
ENDBRANCH   2   3
ENDBRANCH   1   2
BRANCH   1  16
ATOM     16  C   UNL d   1       9.775   6.728  -9.998  0.00  0.00     0.251 C 
BRANCH  16  17
ATOM     17  N   UNL d   1      10.183   6.990  -8.627  0.00  0.00     0.137 N 
ATOM     18  C   UNL d   1      10.693   8.351  -8.510  0.00  0.00     0.251 C 
ATOM     19  C   UNL d   1      10.621   8.642  -7.025  0.00  0.00     0.037 A 
ATOM     20  C   UNL d   1       9.508   7.756  -6.533  0.00  0.00     0.038 C 
ATOM     21  C   UNL d   1      11.836   8.972  -6.190  0.00  0.00     0.024 A 
ATOM     22  C   UNL d   1      10.852  10.038  -6.482  0.00  0.00     0.007 A 
ATOM     23  C   UNL d   1       9.035   7.004  -7.735  0.00  0.00     0.250 C 
BRANCH  21  24
ATOM     24  C   UNL d   1      11.973   8.448  -4.799  0.00  0.00    -0.022 A 
ATOM     25  C   UNL d   1      12.088   9.332  -3.712  0.00  0.00    -0.004 A 
ATOM     26  C   UNL d   1      12.257   8.837  -2.406  0.00  0.00    -0.000 A 
ATOM     27  C   UNL d   1      12.294   7.449  -2.201  0.00  0.00    -0.000 A 
ATOM     28  C   UNL d   1      12.196   6.578  -3.281  0.00  0.00    -0.000 A 
ATOM     29  C   UNL d   1      12.014   7.055  -4.571  0.00  0.00    -0.004 A 
ENDBRANCH  21  24
ENDBRANCH  16  17
ENDBRANCH   1  16
TORSDOF 7
