REMARK  7 active torsions:
REMARK  status: ('A' for Active; 'I' for Inactive)
REMARK    1  A    between atoms: O_2  and  C_3 
REMARK    2  A    between atoms: C_8  and  N_9 
REMARK    3  A    between atoms: N_12  and  C_13 
REMARK    4  A    between atoms: C_13  and  C_14 
REMARK    5  A    between atoms: C_14  and  C_15 
REMARK    6  A    between atoms: C_15  and  O_16 
REMARK    7  A    between atoms: O_16  and  C_17 
ROOT
ATOM      1  C   UNL d   1       8.478   6.502 -12.092  0.00  0.00     0.253 C 
ENDROOT
BRANCH   1   2
ATOM      2  N   UNL d   1       8.526   5.099 -12.494  0.00  0.00     0.141 N 
ATOM      3  C   UNL d   1       9.861   4.715 -12.959  0.00  0.00     0.274 C 
ATOM      4  C   UNL d   1       9.897   3.242 -13.328  0.00  0.00     0.137 C 
ATOM      5  N   UNL d   1       8.895   2.969 -14.336  0.00  0.00    -0.343 N 
ATOM      6  C   UNL d   1       7.546   3.411 -14.004  0.00  0.00     0.137 C 
ATOM      7  C   UNL d   1       7.578   4.887 -13.588  0.00  0.00     0.274 C 
BRANCH   5   8
ATOM      8  C   UNL d   1       9.219   2.303 -15.524  0.00  0.00     0.079 A 
ATOM      9  C   UNL d   1       8.348   1.333 -16.085  0.00  0.00     0.110 A 
ATOM     10  C   UNL d   1       8.707   0.710 -17.304  0.00  0.00     0.026 A 
ATOM     11  C   UNL d   1       9.921   1.026 -17.944  0.00  0.00     0.002 A 
ATOM     12  C   UNL d   1      10.791   1.967 -17.377  0.00  0.00     0.002 A 
ATOM     13  C   UNL d   1      10.444   2.603 -16.173  0.00  0.00     0.019 A 
BRANCH   9  14
ATOM     14  O   UNL d   1       7.198   1.014 -15.387  0.00  0.00    -0.327 OA
ATOM     15  C   UNL d   1       6.236   0.176 -15.989  0.00  0.00     0.181 C 
ENDBRANCH   9  14
ENDBRANCH   5   8
ENDBRANCH   1   2
BRANCH   1  16
ATOM     16  C   UNL d   1       9.438   6.816 -10.937  0.00  0.00     0.068 C 
BRANCH  16  17
ATOM     17  C   UNL d   1       9.090   6.036  -9.647  0.00  0.00     0.151 C 
BRANCH  17  18
ATOM     18  O   UNL d   1      10.196   5.933  -8.763  0.00  0.00    -0.331 OA
BRANCH  18  19
ATOM     19  C   UNL d   1      10.396   6.937  -7.852  0.00  0.00     0.096 A 
ATOM     20  C   UNL d   1      11.071   6.590  -6.664  0.00  0.00     0.043 A 
ATOM     21  C   UNL d   1      11.258   7.544  -5.649  0.00  0.00     0.087 A 
ATOM     22  C   UNL d   1      10.843   8.867  -5.847  0.00  0.00     0.018 A 
ATOM     23  N   UNL d   1      11.861   7.199  -4.418  0.00  0.00    -0.208 NA
ATOM     24  C   UNL d   1      10.220   9.217  -7.049  0.00  0.00     0.004 A 
ATOM     25  C   UNL d   1      11.079   9.829  -4.772  0.00  0.00     0.006 A 
ATOM     26  C   UNL d   1       9.967   8.268  -8.041  0.00  0.00     0.024 A 
ATOM     27  C   UNL d   1      11.685   9.446  -3.626  0.00  0.00     0.063 A 
ATOM     28  C   UNL d   1      12.117   8.060  -3.406  0.00  0.00     0.279 A 
ATOM     29  O   UNL d   1      12.662   7.670  -2.377  0.00  0.00    -0.265 OA
ENDBRANCH  18  19
ENDBRANCH  17  18
ENDBRANCH  16  17
ENDBRANCH   1  16
TORSDOF 7
