REMARK  5 active torsions:
REMARK  status: ('A' for Active; 'I' for Inactive)
REMARK    1  A    between atoms: N_12  and  C_13 
REMARK    2  A    between atoms: C_13  and  C_14 
REMARK    3  A    between atoms: C_14  and  N_15 
REMARK    4  A    between atoms: N_18  and  C_19 
REMARK    5  A    between atoms: C_23  and  C_24 
ROOT
ATOM      1  N   UNL d   1       8.947   3.903 -14.532  0.00  0.00     0.143 N 
ATOM      2  C   UNL d   1       9.818   5.034 -14.198  0.00  0.00     0.274 C 
ATOM      3  C   UNL d   1       9.105   6.038 -13.252  0.00  0.00     0.137 C 
ATOM      4  N   UNL d   1       8.628   5.375 -12.057  0.00  0.00    -0.344 N 
ATOM      5  C   UNL d   1       7.795   4.224 -12.354  0.00  0.00     0.137 C 
ATOM      6  C   UNL d   1       8.550   3.272 -13.281  0.00  0.00     0.274 C 
ENDROOT
BRANCH   1   7
ATOM      7  C   UNL d   1       9.653   2.967 -15.422  0.00  0.00     0.276 C 
BRANCH   7   8
ATOM      8  C   UNL d   1       9.275   1.457 -15.290  0.00  0.00     0.157 C 
BRANCH   8   9
ATOM      9  N   UNL d   1       7.969   1.139 -15.899  0.00  0.00    -0.218 N 
ATOM     10  C   UNL d   1       6.910   0.565 -15.166  0.00  0.00     0.271 A 
ATOM     11  O   UNL d   1       6.781   0.569 -13.945  0.00  0.00    -0.266 OA
ATOM     12  C   UNL d   1       5.988  -0.149 -16.093  0.00  0.00     0.069 A 
ATOM     13  C   UNL d   1       6.401  -0.149 -17.422  0.00  0.00     0.108 A 
ATOM     14  C   UNL d   1       4.812  -0.820 -15.714  0.00  0.00     0.005 A 
ATOM     15  C   UNL d   1       5.689  -0.803 -18.439  0.00  0.00     0.013 A 
ATOM     16  S   UNL d   1       7.899   0.766 -17.582  0.00  0.00     0.270 S 
ATOM     17  C   UNL d   1       4.508  -1.482 -18.063  0.00  0.00     0.001 A 
ATOM     18  C   UNL d   1       4.073  -1.490 -16.714  0.00  0.00     0.000 A 
ATOM     19  O   UNL d   1       9.016  -0.155 -17.890  0.00  0.00    -0.200 OA
ATOM     20  O   UNL d   1       7.668   1.992 -18.355  0.00  0.00    -0.200 OA
ENDBRANCH   8   9
ENDBRANCH   7   8
ENDBRANCH   1   7
BRANCH   4  21
ATOM     21  C   UNL d   1       8.957   5.785 -10.741  0.00  0.00     0.056 A 
ATOM     22  C   UNL d   1       9.879   6.835 -10.516  0.00  0.00     0.021 A 
ATOM     23  C   UNL d   1      10.210   7.260  -9.211  0.00  0.00     0.073 A 
ATOM     24  C   UNL d   1       9.595   6.655  -8.096  0.00  0.00     0.004 A 
ATOM     25  C   UNL d   1       8.659   5.621  -8.308  0.00  0.00     0.001 A 
ATOM     26  C   UNL d   1       8.365   5.185  -9.616  0.00  0.00     0.017 A 
BRANCH  23  27
ATOM     27  C   UNL d   1      11.219   8.378  -9.056  0.00  0.00     0.419 C 
ATOM     28  F   UNL d   1      12.347   8.022  -9.669  0.00  0.00    -0.166 F 
ATOM     29  F   UNL d   1      10.743   9.480  -9.636  0.00  0.00    -0.166 F 
ATOM     30  F   UNL d   1      11.486   8.635  -7.779  0.00  0.00    -0.166 F 
ENDBRANCH  23  27
ENDBRANCH   4  21
TORSDOF 5
