REMARK  8 active torsions:
REMARK  status: ('A' for Active; 'I' for Inactive)
REMARK    1  A    between atoms: S_2  and  C_3 
REMARK    2  A    between atoms: C_8  and  O_9 
REMARK    3  A    between atoms: O_9  and  C_10 
REMARK    4  A    between atoms: C_10  and  C_11 
REMARK    5  A    between atoms: C_11  and  N_12 
REMARK    6  A    between atoms: C_15  and  N_16 
REMARK    7  A    between atoms: N_16  and  S_17 
REMARK    8  A    between atoms: S_17  and  C_20 
ROOT
ATOM      1  N   UNL d   1       9.374   5.801 -10.694  0.00  0.00     0.142 N 
ATOM      2  C   UNL d   1       8.273   5.267  -9.895  0.00  0.00     0.253 C 
ATOM      3  C   UNL d   1       8.878   5.067  -8.511  0.00  0.00     0.063 C 
ATOM      4  C   UNL d   1      10.015   6.087  -8.453  0.00  0.00     0.151 C 
ATOM      5  C   UNL d   1       9.963   6.794  -9.811  0.00  0.00     0.275 C 
ENDROOT
BRANCH   1   6
ATOM      6  C   UNL d   1       8.913   6.424 -11.934  0.00  0.00     0.283 C 
BRANCH   6   7
ATOM      7  C   UNL d   1       8.553   5.337 -12.958  0.00  0.00     0.184 C 
BRANCH   7   8
ATOM      8  O   UNL d   1       9.753   4.872 -13.572  0.00  0.00    -0.328 OA
BRANCH   8   9
ATOM      9  C   UNL d   1       9.767   3.654 -14.223  0.00  0.00     0.100 A 
ATOM     10  C   UNL d   1      10.960   3.283 -14.893  0.00  0.00     0.048 A 
ATOM     11  C   UNL d   1      11.058   2.031 -15.540  0.00  0.00     0.008 A 
ATOM     12  C   UNL d   1       9.973   1.136 -15.525  0.00  0.00     0.001 A 
ATOM     13  C   UNL d   1       8.786   1.496 -14.864  0.00  0.00     0.002 A 
ATOM     14  C   UNL d   1       8.674   2.749 -14.232  0.00  0.00     0.025 A 
BRANCH  10  15
ATOM     15  S   UNL d   1      12.347   4.388 -14.881  0.00  0.00    -0.111 SA
ATOM     16  C   UNL d   1      13.217   4.199 -16.466  0.00  0.00     0.074 C 
ENDBRANCH  10  15
ENDBRANCH   8   9
ENDBRANCH   7   8
ENDBRANCH   6   7
ENDBRANCH   1   6
BRANCH   4  17
ATOM     17  N   UNL d   1       9.845   7.036  -7.357  0.00  0.00    -0.185 NA
BRANCH  17  18
ATOM     18  S   UNL d   1      10.976   8.315  -7.131  0.00  0.00     0.281 S 
ATOM     19  O   UNL d   1      12.157   8.044  -7.968  0.00  0.00    -0.199 OA
ATOM     20  O   UNL d   1      10.260   9.593  -7.232  0.00  0.00    -0.199 OA
BRANCH  18  21
ATOM     21  C   UNL d   1      11.458   8.148  -5.431  0.00  0.00     0.105 A 
ATOM     22  C   UNL d   1      11.842   9.307  -4.729  0.00  0.00     0.015 A 
ATOM     23  C   UNL d   1      12.245   9.194  -3.389  0.00  0.00     0.030 A 
ATOM     24  C   UNL d   1      12.258   7.940  -2.758  0.00  0.00     0.140 A 
ATOM     25  C   UNL d   1      11.861   6.788  -3.459  0.00  0.00     0.030 A 
ATOM     26  F   UNL d   1      12.660   7.851  -1.473  0.00  0.00    -0.204 F 
ATOM     27  C   UNL d   1      11.461   6.886  -4.807  0.00  0.00     0.015 A 
ENDBRANCH  18  21
ENDBRANCH  17  18
ENDBRANCH   4  17
TORSDOF 8
