REMARK  6 active torsions:
REMARK  status: ('A' for Active; 'I' for Inactive)
REMARK    1  A    between atoms: N_12  and  C_13 
REMARK    2  A    between atoms: C_13  and  C_14 
REMARK    3  A    between atoms: C_14  and  C_15 
REMARK    4  A    between atoms: C_15  and  C_16 
REMARK    5  A    between atoms: C_16  and  N_17 
REMARK    6  A    between atoms: N_20  and  C_21 
ROOT
ATOM      1  C   UNL d   1       7.104   4.059 -13.691  0.00  0.00     0.251 C 
ENDROOT
BRANCH   1   2
ATOM      2  C   UNL d   1       7.710   2.916 -14.545  0.00  0.00     0.037 C 
BRANCH   2   3
ATOM      3  C   UNL d   1       6.672   1.953 -15.112  0.00  0.00     0.027 C 
BRANCH   3   4
ATOM      4  C   UNL d   1       7.129   0.489 -15.006  0.00  0.00     0.112 C 
BRANCH   4   5
ATOM      5  N   UNL d   1       6.448  -0.341 -15.994  0.00  0.00    -0.271 N 
ATOM      6  C   UNL d   1       5.304  -1.022 -15.766  0.00  0.00     0.240 A 
ATOM      7  O   UNL d   1       4.643  -1.010 -14.723  0.00  0.00    -0.272 OA
ATOM      8  C   UNL d   1       4.927  -1.841 -16.998  0.00  0.00     0.093 A 
ATOM      9  C   UNL d   1       6.043  -1.505 -18.021  0.00  0.00     0.093 A 
ATOM     10  C   UNL d   1       3.654  -1.357 -17.738  0.00  0.00     0.031 C 
ATOM     11  C   UNL d   1       5.269  -0.889 -19.214  0.00  0.00     0.031 C 
ATOM     12  C   UNL d   1       6.914  -0.516 -17.239  0.00  0.00     0.240 A 
ATOM     13  C   UNL d   1       4.419  -1.994 -19.805  0.00  0.00    -0.030 C 
ATOM     14  C   UNL d   1       4.175  -0.113 -18.484  0.00  0.00     0.010 C 
ATOM     15  C   UNL d   1       3.463  -2.284 -18.918  0.00  0.00    -0.030 C 
ATOM     16  O   UNL d   1       7.919  -0.003 -17.723  0.00  0.00    -0.272 OA
ENDBRANCH   4   5
ENDBRANCH   3   4
ENDBRANCH   2   3
ENDBRANCH   1   2
BRANCH   1  17
ATOM     17  N   UNL d   1       8.144   4.834 -13.021  0.00  0.00     0.141 N 
ATOM     18  C   UNL d   1       7.603   6.080 -12.446  0.00  0.00     0.274 C 
ATOM     19  C   UNL d   1       8.710   6.871 -11.712  0.00  0.00     0.137 C 
ATOM     20  N   UNL d   1       9.330   6.039 -10.698  0.00  0.00    -0.344 N 
ATOM     21  C   UNL d   1       9.768   4.761 -11.213  0.00  0.00     0.137 C 
ATOM     22  C   UNL d   1       8.644   4.040 -11.901  0.00  0.00     0.274 C 
BRANCH  20  23
ATOM     23  C   UNL d   1       9.504   6.416  -9.370  0.00  0.00     0.062 A 
ATOM     24  C   UNL d   1      10.540   7.274  -8.935  0.00  0.00     0.045 A 
ATOM     25  C   UNL d   1      10.709   7.653  -7.557  0.00  0.00     0.008 A 
ATOM     26  S   UNL d   1      11.727   8.092  -9.905  0.00  0.00    -0.085 SA
ATOM     27  C   UNL d   1       9.738   7.202  -6.648  0.00  0.00     0.001 A 
ATOM     28  C   UNL d   1      11.858   8.472  -7.342  0.00  0.00     0.007 C 
ATOM     29  C   UNL d   1       8.673   6.386  -7.062  0.00  0.00     0.002 A 
ATOM     30  C   UNL d   1       8.602   5.950  -8.402  0.00  0.00     0.017 A 
ATOM     31  C   UNL d   1      12.569   8.626  -8.499  0.00  0.00     0.035 C 
ENDBRANCH  20  23
ENDBRANCH   1  17
TORSDOF 6
