REMARK  2 active torsions:
REMARK  status: ('A' for Active; 'I' for Inactive)
REMARK    1  A    between atoms: C_5  and  C_6 
REMARK    2  A    between atoms: C_15  and  C_16 
ROOT
ATOM      1  C   UNL d   1       8.940   2.507 -15.421  0.00  0.00     0.077 A 
ATOM      2  N   UNL d   1       8.530   1.302 -15.952  0.00  0.00    -0.246 NA
ATOM      3  C   UNL d   1       7.354   0.849 -15.372  0.00  0.00     0.083 A 
ATOM      4  C   UNL d   1       6.564  -0.299 -15.596  0.00  0.00     0.049 A 
ATOM      5  C   UNL d   1       5.413  -0.525 -14.826  0.00  0.00     0.142 A 
ATOM      6  F   UNL d   1       4.648  -1.615 -15.018  0.00  0.00    -0.204 F 
ATOM      7  C   UNL d   1       5.051   0.411 -13.847  0.00  0.00     0.030 A 
ATOM      8  C   UNL d   1       5.814   1.569 -13.650  0.00  0.00     0.004 A 
ATOM      9  C   UNL d   1       7.012   1.836 -14.409  0.00  0.00     0.015 A 
ATOM     10  C   UNL d   1       8.013   2.907 -14.454  0.00  0.00     0.001 A 
ENDROOT
BRANCH   1  11
ATOM     11  C   UNL d   1      10.181   3.134 -15.924  0.00  0.00     0.018 A 
ATOM     12  C   UNL d   1      10.393   4.537 -15.913  0.00  0.00     0.004 A 
ATOM     13  C   UNL d   1      11.603   5.114 -16.339  0.00  0.00     0.030 A 
ATOM     14  C   UNL d   1      12.627   4.303 -16.850  0.00  0.00     0.140 A 
ATOM     15  F   UNL d   1      13.785   4.856 -17.281  0.00  0.00    -0.204 F 
ATOM     16  C   UNL d   1      12.434   2.908 -16.915  0.00  0.00     0.030 A 
ATOM     17  C   UNL d   1      11.231   2.332 -16.442  0.00  0.00     0.004 A 
ENDBRANCH   1  11
BRANCH  10  18
ATOM     18  C   UNL d   1       8.064   4.174 -13.630  0.00  0.00     0.093 C 
ATOM     19  C   UNL d   1       6.836   4.407 -12.733  0.00  0.00     0.169 C 
ATOM     20  C   UNL d   1       6.960   5.659 -11.894  0.00  0.00     0.074 C 
ATOM     21  F   UNL d   1       5.747   4.530 -13.474  0.00  0.00    -0.237 F 
ATOM     22  C   UNL d   1       8.240   5.541 -11.063  0.00  0.00     0.293 C 
ATOM     23  N   UNL d   1       9.396   5.456 -11.953  0.00  0.00     0.340 N 
ATOM     24  C   UNL d   1       9.328   4.214 -12.726  0.00  0.00     0.297 C 
ENDBRANCH  10  18
TORSDOF 2
