REMARK  10 active torsions:
REMARK  status: ('A' for Active; 'I' for Inactive)
REMARK    1  A    between atoms: N_2  and  C_3 
REMARK    2  A    between atoms: N_2  and  C_21 
REMARK    3  A    between atoms: C_3  and  C_4 
REMARK    4  A    between atoms: C_4  and  C_5 
REMARK    5  A    between atoms: C_21  and  C_22 
REMARK    6  A    between atoms: C_25  and  O_26 
REMARK    7  A    between atoms: O_26  and  C_27 
REMARK    8  A    between atoms: C_27  and  C_28 
REMARK    9  A    between atoms: C_28  and  C_29 
REMARK   10  A    between atoms: C_29  and  N_30 
ROOT
ATOM      1  C   UNL d   1       7.971   1.035 -18.927  0.00  0.00     0.286 C 
ATOM      2  N   UNL d   1       9.106   1.937 -18.767  0.00  0.00     0.144 N 
ENDROOT
BRANCH   2   3
ATOM      3  C   UNL d   1       8.938   2.795 -17.591  0.00  0.00     0.255 C 
BRANCH   3   4
ATOM      4  C   UNL d   1       9.127   2.033 -16.261  0.00  0.00     0.061 C 
BRANCH   4   5
ATOM      5  C   UNL d   1       8.870   2.910 -15.081  0.00  0.00    -0.024 C 
ATOM      6  C   UNL d   1       7.915   2.767 -14.147  0.00  0.00    -0.003 C 
ATOM      7  C   UNL d   1       7.853   3.786 -13.090  0.00  0.00     0.006 A 
ATOM      8  C   UNL d   1       6.990   1.607 -14.042  0.00  0.00     0.006 A 
ATOM      9  C   UNL d   1       6.561   4.185 -12.630  0.00  0.00     0.029 A 
ATOM     10  C   UNL d   1       9.009   4.365 -12.490  0.00  0.00     0.012 A 
ATOM     11  S   UNL d   1       5.094   3.434 -13.183  0.00  0.00    -0.087 SA
ATOM     12  C   UNL d   1       6.421   5.130 -11.641  0.00  0.00     0.007 A 
ATOM     13  C   UNL d   1       5.656   1.821 -13.655  0.00  0.00     0.029 A 
ATOM     14  C   UNL d   1       4.726   0.765 -13.642  0.00  0.00     0.006 A 
ATOM     15  C   UNL d   1       5.121  -0.523 -13.968  0.00  0.00     0.001 A 
ATOM     16  C   UNL d   1       6.458  -0.757 -14.225  0.00  0.00     0.000 A 
ATOM     17  C   UNL d   1       7.402   0.275 -14.268  0.00  0.00     0.001 A 
ATOM     18  C   UNL d   1       7.542   5.662 -11.038  0.00  0.00     0.012 A 
ATOM     19  C   UNL d   1       8.805   5.326 -11.463  0.00  0.00     0.058 A 
ATOM     20 CL   UNL d   1      10.016   6.214 -10.638  0.00  0.00    -0.082 Cl
ENDBRANCH   4   5
ENDBRANCH   3   4
ENDBRANCH   2   3
BRANCH   2  21
ATOM     21  C   UNL d   1      10.354   1.162 -18.771  0.00  0.00     0.277 C 
BRANCH  21  22
ATOM     22  C   UNL d   1      11.572   2.011 -19.058  0.00  0.00     0.011 A 
ATOM     23  C   UNL d   1      12.245   2.700 -18.027  0.00  0.00    -0.000 A 
ATOM     24  C   UNL d   1      13.385   3.461 -18.301  0.00  0.00     0.024 A 
ATOM     25  C   UNL d   1      13.878   3.555 -19.628  0.00  0.00     0.094 A 
ATOM     26  C   UNL d   1      13.207   2.860 -20.660  0.00  0.00     0.024 A 
ATOM     27  C   UNL d   1      12.059   2.094 -20.378  0.00  0.00    -0.000 A 
BRANCH  25  28
ATOM     28  O   UNL d   1      15.004   4.266 -19.983  0.00  0.00    -0.331 OA
BRANCH  28  29
ATOM     29  C   UNL d   1      15.600   5.177 -19.048  0.00  0.00     0.151 C 
BRANCH  29  30
ATOM     30  C   UNL d   1      15.413   6.566 -19.644  0.00  0.00     0.068 C 
BRANCH  30  31
ATOM     31  C   UNL d   1      16.134   7.666 -18.810  0.00  0.00     0.253 C 
BRANCH  31  32
ATOM     32  N   UNL d   1      16.068   8.986 -19.430  0.00  0.00     0.137 N 
ATOM     33  C   UNL d   1      14.681   9.468 -19.432  0.00  0.00     0.250 C 
ATOM     34  C   UNL d   1      14.595  10.871 -20.020  0.00  0.00     0.035 C 
ATOM     35  C   UNL d   1      15.173  10.915 -21.442  0.00  0.00     0.004 C 
ATOM     36  C   UNL d   1      16.604  10.364 -21.423  0.00  0.00     0.035 C 
ATOM     37  C   UNL d   1      16.631   8.975 -20.791  0.00  0.00     0.250 C 
ENDBRANCH  31  32
ENDBRANCH  30  31
ENDBRANCH  29  30
ENDBRANCH  28  29
ENDBRANCH  25  28
ENDBRANCH  21  22
ENDBRANCH   2  21
TORSDOF 10
