REMARK  4 active torsions:
REMARK  status: ('A' for Active; 'I' for Inactive)
REMARK    1  A    between atoms: N_4  and  C_5 
REMARK    2  A    between atoms: N_8  and  C_9 
REMARK    3  A    between atoms: C_9  and  C_10 
REMARK    4  A    between atoms: C_21  and  C_22 
ROOT
ATOM      1  C   UNL d   1       9.018   1.825 -17.559  0.00  0.00     0.011 A 
ATOM      2  C   UNL d   1       8.372   1.522 -18.782  0.00  0.00    -0.002 A 
ATOM      3  C   UNL d   1       9.082   1.593 -20.006  0.00  0.00     0.000 A 
ATOM      4  C   UNL d   1      10.450   1.964 -20.019  0.00  0.00     0.010 A 
ATOM      5  C   UNL d   1      11.097   2.272 -18.801  0.00  0.00     0.068 A 
ATOM      6  C   UNL d   1      12.487   2.660 -18.750  0.00  0.00     0.101 C 
ATOM      7  N   UNL d   1      13.607   2.974 -18.699  0.00  0.00    -0.191 NA
ATOM      8  C   UNL d   1      10.389   2.213 -17.583  0.00  0.00     0.008 A 
ENDROOT
BRANCH   1   9
ATOM      9  C   UNL d   1       8.234   1.716 -16.248  0.00  0.00     0.277 C 
BRANCH   9  10
ATOM     10  N   UNL d   1       8.480   2.788 -15.285  0.00  0.00     0.141 N 
ATOM     11  C   UNL d   1       9.663   2.518 -14.449  0.00  0.00     0.253 C 
ATOM     12  C   UNL d   1       9.967   3.763 -13.601  0.00  0.00     0.060 C 
ATOM     13  C   UNL d   1       8.790   4.069 -12.690  0.00  0.00     0.109 C 
ATOM     14  C   UNL d   1       7.500   4.210 -13.512  0.00  0.00     0.060 C 
ATOM     15  C   UNL d   1       7.299   2.986 -14.424  0.00  0.00     0.253 C 
BRANCH  13  16
ATOM     16  N   UNL d   1       9.045   5.232 -11.866  0.00  0.00    -0.252 N 
ATOM     17  N   UNL d   1       9.012   6.451 -12.438  0.00  0.00    -0.174 NA
ATOM     18  C   UNL d   1       9.286   7.291 -11.464  0.00  0.00     0.081 A 
ATOM     19  C   UNL d   1       9.263   8.738 -11.781  0.00  0.00     0.054 C 
ATOM     20  C   UNL d   1       9.588   6.614 -10.248  0.00  0.00     0.034 A 
ATOM     21  C   UNL d   1       9.421   5.291 -10.538  0.00  0.00     0.096 A 
BRANCH  20  22
ATOM     22  C   UNL d   1       9.971   7.186  -8.943  0.00  0.00     0.003 A 
ATOM     23  C   UNL d   1      10.863   8.277  -8.841  0.00  0.00     0.000 A 
ATOM     24  C   UNL d   1      11.205   8.819  -7.591  0.00  0.00     0.000 A 
ATOM     25  C   UNL d   1      10.688   8.260  -6.412  0.00  0.00     0.000 A 
ATOM     26  C   UNL d   1       9.816   7.159  -6.495  0.00  0.00     0.000 A 
ATOM     27  C   UNL d   1       9.457   6.631  -7.750  0.00  0.00     0.000 A 
ENDBRANCH  20  22
ENDBRANCH  13  16
ENDBRANCH   9  10
ENDBRANCH   1   9
TORSDOF 4
