REMARK  3 active torsions:
REMARK  status: ('A' for Active; 'I' for Inactive)
REMARK    1  A    between atoms: C_2  and  O_4 
REMARK    2  A    between atoms: O_4  and  C_5 
REMARK    3  A    between atoms: C_11  and  C_12 
ROOT
ATOM      1  C   UNL d   1       5.821  -1.915 -17.894  0.00  0.00     0.096 A 
ATOM      2  C   UNL d   1       5.026  -1.981 -16.730  0.00  0.00     0.024 A 
ATOM      3  C   UNL d   1       5.175  -1.030 -15.717  0.00  0.00     0.007 A 
ATOM      4  C   UNL d   1       6.124  -0.011 -15.851  0.00  0.00     0.062 A 
ATOM      5  C   UNL d   1       6.292   0.961 -14.757  0.00  0.00     0.199 A 
ATOM      6  O   UNL d   1       5.654   0.866 -13.701  0.00  0.00    -0.286 OA
ATOM      7  C   UNL d   1       7.255   2.054 -15.013  0.00  0.00     0.064 A 
ATOM      8  C   UNL d   1       7.985   2.005 -16.159  0.00  0.00     0.126 A 
ATOM      9  O   UNL d   1       7.866   1.068 -17.151  0.00  0.00    -0.305 OA
ATOM     10  C   UNL d   1       6.921   0.083 -17.014  0.00  0.00     0.105 A 
ATOM     11  C   UNL d   1       6.765  -0.869 -18.037  0.00  0.00     0.049 A 
ENDROOT
BRANCH   7  12
ATOM     12  C   UNL d   1       7.511   3.115 -14.031  0.00  0.00     0.005 A 
ATOM     13  C   UNL d   1       8.837   3.514 -13.752  0.00  0.00     0.000 A 
ATOM     14  C   UNL d   1       9.088   4.506 -12.793  0.00  0.00     0.000 A 
ATOM     15  C   UNL d   1       8.018   5.115 -12.107  0.00  0.00     0.000 A 
ATOM     16  C   UNL d   1       6.694   4.729 -12.385  0.00  0.00     0.000 A 
ATOM     17  C   UNL d   1       6.436   3.739 -13.345  0.00  0.00     0.000 A 
ENDBRANCH   7  12
BRANCH   1  18
ATOM     18  O   UNL d   1       5.744  -2.822 -18.930  0.00  0.00    -0.333 OA
BRANCH  18  19
ATOM     19  C   UNL d   1       4.834  -3.913 -18.873  0.00  0.00     0.121 C 
ATOM     20  C   UNL d   1       3.358  -3.443 -18.949  0.00  0.00     0.033 C 
ATOM     21  C   UNL d   1       5.239  -4.941 -17.784  0.00  0.00     0.033 C 
ENDBRANCH  18  19
ENDBRANCH   1  18
TORSDOF 3
