REMARK  11 active torsions:
REMARK  status: ('A' for Active; 'I' for Inactive)
REMARK    1  A    between atoms: C_2  and  C_3 
REMARK    2  A    between atoms: C_2  and  C_29 
REMARK    3  A    between atoms: C_3  and  N_4 
REMARK    4  A    between atoms: N_4  and  C_5 
REMARK    5  A    between atoms: N_8  and  C_9 
REMARK    6  A    between atoms: C_9  and  C_10 
REMARK    7  A    between atoms: C_10  and  S_11 
REMARK    8  A    between atoms: S_11  and  C_12 
REMARK    9  A    between atoms: C_12  and  C_13 
REMARK   10  A    between atoms: C_12  and  C_20 
REMARK   11  A    between atoms: C_29  and  C_30 
ROOT
ATOM      1  C   UNL d   1       8.309   5.296 -13.343  0.00  0.00     0.262 C 
ENDROOT
BRANCH   1   2
ATOM      2  N   UNL d   1       8.948   5.362 -12.029  0.00  0.00     0.138 N 
ATOM      3  C   UNL d   1       8.059   4.781 -11.028  0.00  0.00     0.252 C 
ATOM      4  C   UNL d   1       8.774   4.757  -9.669  0.00  0.00     0.071 C 
ATOM      5  C   UNL d   1       9.177   6.179  -9.268  0.00  0.00     0.261 C 
ATOM      6  C   UNL d   1       9.993   6.858 -10.382  0.00  0.00     0.071 C 
ATOM      7  C   UNL d   1       9.232   6.761 -11.708  0.00  0.00     0.252 C 
BRANCH   5   8
ATOM      8  N   UNL d   1       9.923   6.159  -8.014  0.00  0.00     0.340 N 
BRANCH   8   9
ATOM      9  C   UNL d   1       9.226   6.771  -6.878  0.00  0.00     0.323 C 
BRANCH   9  10
ATOM     10  C   UNL d   1       9.478   8.303  -6.819  0.00  0.00     0.193 C 
ATOM     11  O   UNL d   1       9.100   8.939  -8.020  0.00  0.00    -0.221 OA
BRANCH  10  12
ATOM     12  C   UNL d   1      10.937   8.724  -6.518  0.00  0.00     0.061 C 
BRANCH  12  13
ATOM     13  C   UNL d   1      11.372   8.427  -5.093  0.00  0.00    -0.020 A 
ATOM     14  C   UNL d   1      11.562   9.479  -4.170  0.00  0.00    -0.004 A 
ATOM     15  C   UNL d   1      11.945   9.195  -2.842  0.00  0.00    -0.000 A 
ATOM     16  C   UNL d   1      12.103   7.860  -2.423  0.00  0.00    -0.000 A 
ATOM     17  C   UNL d   1      11.901   6.811  -3.341  0.00  0.00    -0.000 A 
ATOM     18  C   UNL d   1      11.568   7.089  -4.678  0.00  0.00    -0.004 A 
ENDBRANCH  12  13
ENDBRANCH  10  12
ENDBRANCH   9  10
ENDBRANCH   8   9
ENDBRANCH   5   8
ENDBRANCH   1   2
BRANCH   1  19
ATOM     19  C   UNL d   1       9.118   4.486 -14.351  0.00  0.00     0.093 C 
BRANCH  19  20
ATOM     20  S   UNL d   1      10.916   4.802 -14.269  0.00  0.00    -0.130 SA
BRANCH  20  21
ATOM     21  C   UNL d   1      11.540   4.179 -15.867  0.00  0.00     0.092 C 
BRANCH  21  22
ATOM     22  C   UNL d   1      11.178   5.153 -16.996  0.00  0.00    -0.008 A 
ATOM     23  C   UNL d   1      12.178   5.975 -17.567  0.00  0.00    -0.001 A 
ATOM     24  C   UNL d   1      11.870   6.874 -18.610  0.00  0.00     0.029 A 
ATOM     25  C   UNL d   1      10.544   6.991 -19.067  0.00  0.00     0.140 A 
ATOM     26  C   UNL d   1       9.530   6.177 -18.489  0.00  0.00     0.029 A 
ATOM     27  F   UNL d   1      10.243   7.864 -20.064  0.00  0.00    -0.204 F 
ATOM     28  C   UNL d   1       9.848   5.240 -17.497  0.00  0.00    -0.001 A 
ENDBRANCH  21  22
BRANCH  21  29
ATOM     29  C   UNL d   1      11.106   2.735 -16.100  0.00  0.00    -0.008 A 
ATOM     30  C   UNL d   1      10.876   1.844 -15.021  0.00  0.00    -0.001 A 
ATOM     31  C   UNL d   1      10.433   0.533 -15.248  0.00  0.00     0.029 A 
ATOM     32  C   UNL d   1      10.259   0.070 -16.571  0.00  0.00     0.140 A 
ATOM     33  C   UNL d   1      10.516   0.935 -17.651  0.00  0.00     0.029 A 
ATOM     34  F   UNL d   1       9.858  -1.197 -16.814  0.00  0.00    -0.204 F 
ATOM     35  C   UNL d   1      10.941   2.251 -17.421  0.00  0.00    -0.001 A 
ENDBRANCH  21  29
ENDBRANCH  20  21
ENDBRANCH  19  20
ENDBRANCH   1  19
TORSDOF 11
