REMARK  10 active torsions:
REMARK  status: ('A' for Active; 'I' for Inactive)
REMARK    1  A    between atoms: O_2  and  C_3 
REMARK    2  A    between atoms: C_9  and  C_10 
REMARK    3  A    between atoms: C_12  and  C_13 
REMARK    4  A    between atoms: C_13  and  N_14 
REMARK    5  A    between atoms: N_14  and  C_16 
REMARK    6  A    between atoms: C_16  and  C_17 
REMARK    7  A    between atoms: C_17  and  C_18 
REMARK    8  A    between atoms: C_18  and  S_19 
REMARK    9  A    between atoms: S_19  and  C_20 
REMARK   10  A    between atoms: C_23  and  C_24 
ROOT
ATOM      1  C   UNL d   1      10.127   3.278 -15.372  0.00  0.00     0.251 C 
ENDROOT
BRANCH   1   2
ATOM      2  N   UNL d   1      10.310   3.926 -16.673  0.00  0.00     0.139 N 
ATOM      3  C   UNL d   1      11.737   4.030 -16.958  0.00  0.00     0.285 C 
BRANCH   2   4
ATOM      4  C   UNL d   1       9.668   3.159 -17.738  0.00  0.00     0.251 C 
BRANCH   4   5
ATOM      5  C   UNL d   1       9.225   4.024 -18.908  0.00  0.00     0.038 A 
ATOM      6  C   UNL d   1       8.851   3.343 -20.213  0.00  0.00     0.026 A 
ATOM      7  C   UNL d   1      10.083   4.219 -20.137  0.00  0.00     0.007 A 
BRANCH   6   8
ATOM      8  C   UNL d   1       8.956   1.852 -20.349  0.00  0.00     0.002 A 
ATOM      9  C   UNL d   1       8.058   0.996 -19.663  0.00  0.00     0.090 A 
ATOM     10  C   UNL d   1       8.246  -0.408 -19.747  0.00  0.00     0.026 A 
ATOM     11  C   UNL d   1       9.303  -0.942 -20.505  0.00  0.00     0.032 A 
ATOM     12  C   UNL d   1      10.179  -0.088 -21.194  0.00  0.00     0.140 A 
ATOM     13  F   UNL d   1      11.213  -0.601 -21.902  0.00  0.00    -0.204 F 
ATOM     14  C   UNL d   1      10.003   1.303 -21.120  0.00  0.00     0.027 A 
BRANCH   9  15
ATOM     15  O   UNL d   1       7.053   1.589 -18.923  0.00  0.00    -0.328 OA
ATOM     16  C   UNL d   1       6.159   0.747 -18.207  0.00  0.00     0.181 C 
ENDBRANCH   9  15
ENDBRANCH   6   8
ENDBRANCH   4   5
ENDBRANCH   2   4
ENDBRANCH   1   2
BRANCH   1  17
ATOM     17  C   UNL d   1       9.518   4.290 -14.391  0.00  0.00     0.047 C 
BRANCH  17  18
ATOM     18  C   UNL d   1       9.055   3.611 -13.090  0.00  0.00     0.067 C 
BRANCH  18  19
ATOM     19  S   UNL d   1       7.651   4.465 -12.310  0.00  0.00    -0.075 SA
BRANCH  19  20
ATOM     20  C   UNL d   1       8.514   5.849 -11.660  0.00  0.00     0.193 A 
ATOM     21  N   UNL d   1       8.959   5.905 -10.390  0.00  0.00    -0.289 N 
ATOM     22  C   UNL d   1       9.546   7.123 -10.351  0.00  0.00     0.167 A 
ATOM     23  C   UNL d   1       8.832   4.901  -9.346  0.00  0.00     0.134 C 
ATOM     24  N   UNL d   1       9.461   7.775 -11.519  0.00  0.00    -0.128 NA
ATOM     25  N   UNL d   1       8.801   6.930 -12.386  0.00  0.00    -0.122 NA
BRANCH  22  26
ATOM     26  C   UNL d   1      10.213   7.695  -9.183  0.00  0.00     0.036 A 
ATOM     27  C   UNL d   1      11.583   8.024  -9.238  0.00  0.00     0.003 A 
ATOM     28  C   UNL d   1      12.233   8.556  -8.104  0.00  0.00     0.000 A 
ATOM     29  C   UNL d   1      11.509   8.786  -6.918  0.00  0.00     0.000 A 
ATOM     30  C   UNL d   1      10.140   8.466  -6.860  0.00  0.00     0.000 A 
ATOM     31  C   UNL d   1       9.494   7.926  -7.990  0.00  0.00     0.003 A 
ENDBRANCH  22  26
ENDBRANCH  19  20
ENDBRANCH  18  19
ENDBRANCH  17  18
ENDBRANCH   1  17
TORSDOF 10
