REMARK  10 active torsions:
REMARK  status: ('A' for Active; 'I' for Inactive)
REMARK    1  A    between atoms: O_2  and  C_3 
REMARK    2  A    between atoms: C_8  and  N_9 
REMARK    3  A    between atoms: N_12  and  C_13 
REMARK    4  A    between atoms: C_13  and  C_14 
REMARK    5  A    between atoms: C_14  and  C_15 
REMARK    6  A    between atoms: C_15  and  N_16 
REMARK       I    between atoms: N_16  and  C_17 
REMARK       I    between atoms: C_17  and  N_19 
REMARK    7  A    between atoms: N_19  and  N_20 
REMARK    8  A    between atoms: N_20  and  C_21 
REMARK    9  A    between atoms: N_20  and  C_29 
REMARK   10  A    between atoms: C_21  and  C_22 
ROOT
ATOM      1  N   UNL d   1       8.569   5.127 -13.505  0.00  0.00    -0.216 NA
ATOM      2  C   UNL d   1       9.249   4.119 -14.067  0.00  0.00     0.381 C 
ATOM      3  O   UNL d   1      10.483   4.064 -14.100  0.00  0.00    -0.241 OA
ATOM      4  N   UNL d   1       8.438   3.213 -14.631  0.00  0.00    -0.110 NA
ENDROOT
BRANCH   1   5
ATOM      5  C   UNL d   1       9.159   6.269 -12.818  0.00  0.00     0.133 C 
BRANCH   5   6
ATOM      6  C   UNL d   1       9.093   6.068 -11.309  0.00  0.00     0.062 C 
BRANCH   6   7
ATOM      7  C   UNL d   1       9.569   7.328 -10.547  0.00  0.00     0.253 C 
BRANCH   7   8
ATOM      8  N   UNL d   1       9.461   7.158  -9.115  0.00  0.00     0.141 N 
ATOM      9  C   UNL d   1       9.495   8.465  -8.433  0.00  0.00     0.274 C 
ATOM     10  C   UNL d   1       9.227   8.304  -6.918  0.00  0.00     0.137 C 
ATOM     11  N   UNL d   1      10.211   7.381  -6.380  0.00  0.00    -0.343 N 
ATOM     12  C   UNL d   1      10.297   6.122  -7.072  0.00  0.00     0.137 C 
ATOM     13  C   UNL d   1      10.492   6.308  -8.578  0.00  0.00     0.274 C 
BRANCH  11  14
ATOM     14  C   UNL d   1      11.077   7.682  -5.333  0.00  0.00     0.079 C 
ATOM     15  C   UNL d   1      11.786   8.913  -5.304  0.00  0.00     0.110 C 
ATOM     16  C   UNL d   1      12.610   9.178  -4.179  0.00  0.00     0.026 C 
ATOM     17  C   UNL d   1      12.680   8.299  -3.093  0.00  0.00     0.002 C 
ATOM     18  C   UNL d   1      12.065   7.046  -3.158  0.00  0.00     0.002 C 
ATOM     19  C   UNL d   1      11.287   6.753  -4.289  0.00  0.00     0.019 C 
BRANCH  15  20
ATOM     20  O   UNL d   1      11.690   9.715  -6.414  0.00  0.00    -0.327 OA
ATOM     21  C   UNL d   1      11.986  11.074  -6.244  0.00  0.00     0.181 C 
ENDBRANCH  15  20
ENDBRANCH  11  14
ENDBRANCH   7   8
ENDBRANCH   6   7
ENDBRANCH   5   6
ENDBRANCH   1   5
BRANCH   4  22
ATOM     22  N   UNL d   1       8.898   2.115 -15.384  0.00  0.00    -0.243 N 
BRANCH  22  23
ATOM     23  C   UNL d   1       8.524   0.843 -14.755  0.00  0.00     0.154 C 
BRANCH  23  24
ATOM     24  C   UNL d   1       7.067   0.408 -14.965  0.00  0.00     0.002 A 
ATOM     25  C   UNL d   1       6.584  -0.027 -16.232  0.00  0.00    -0.000 A 
ATOM     26  C   UNL d   1       5.253  -0.461 -16.378  0.00  0.00     0.029 A 
ATOM     27  C   UNL d   1       4.380  -0.459 -15.275  0.00  0.00     0.140 A 
ATOM     28  C   UNL d   1       4.841  -0.013 -14.027  0.00  0.00     0.029 A 
ATOM     29  F   UNL d   1       3.093  -0.860 -15.412  0.00  0.00    -0.204 F 
ATOM     30  C   UNL d   1       6.176   0.414 -13.867  0.00  0.00    -0.000 A 
ENDBRANCH  23  24
ENDBRANCH  22  23
BRANCH  22  31
ATOM     31  C   UNL d   1       9.212   2.238 -16.770  0.00  0.00     0.079 A 
ATOM     32  C   UNL d   1       9.332   3.512 -17.386  0.00  0.00     0.019 A 
ATOM     33  C   UNL d   1       9.624   3.646 -18.761  0.00  0.00     0.002 A 
ATOM     34  C   UNL d   1       9.792   2.501 -19.559  0.00  0.00     0.000 A 
ATOM     35  C   UNL d   1       9.694   1.232 -18.968  0.00  0.00     0.002 A 
ATOM     36  C   UNL d   1       9.445   1.104 -17.587  0.00  0.00     0.019 A 
ENDBRANCH  22  31
ENDBRANCH   4  22
TORSDOF 10
