REMARK  6 active torsions:
REMARK  status: ('A' for Active; 'I' for Inactive)
REMARK    1  A    between atoms: C_5  and  C_6 
REMARK       I    between atoms: C_6  and  N_8 
REMARK    2  A    between atoms: N_8  and  C_9 
REMARK    3  A    between atoms: C_12  and  C_13 
REMARK    4  A    between atoms: C_13  and  C_14 
REMARK    5  A    between atoms: C_14  and  N_15 
REMARK    6  A    between atoms: N_18  and  C_19 
ROOT
ATOM      1  C   UNL d   1       9.142   7.367 -11.693  0.00  0.00     0.035 C 
ENDROOT
BRANCH   1   2
ATOM      2  C   UNL d   1       8.445   6.018 -11.929  0.00  0.00     0.002 C 
ATOM      3  C   UNL d   1       7.177   6.256 -12.745  0.00  0.00     0.002 C 
ATOM      4  C   UNL d   1       6.493   4.943 -13.142  0.00  0.00     0.024 C 
ATOM      5  C   UNL d   1       7.481   4.023 -13.884  0.00  0.00     0.107 C 
ATOM      6  C   UNL d   1       8.739   3.760 -13.057  0.00  0.00     0.024 C 
ATOM      7  C   UNL d   1       9.409   5.061 -12.666  0.00  0.00     0.002 C 
BRANCH   5   8
ATOM      8  N   UNL d   1       6.814   2.765 -14.199  0.00  0.00    -0.236 NA
ATOM      9  C   UNL d   1       7.160   1.935 -15.193  0.00  0.00     0.281 C 
ATOM     10  O   UNL d   1       8.089   2.162 -15.966  0.00  0.00    -0.265 OA
BRANCH   9  11
ATOM     11  C   UNL d   1       6.334   0.723 -15.325  0.00  0.00     0.087 A 
ATOM     12  C   UNL d   1       5.434   0.135 -14.472  0.00  0.00     0.011 A 
ATOM     13  C   UNL d   1       4.855  -1.049 -15.012  0.00  0.00     0.003 A 
ATOM     14  C   UNL d   1       5.334  -1.365 -16.258  0.00  0.00     0.008 A 
ATOM     15  C   UNL d   1       4.987  -2.538 -17.105  0.00  0.00     0.038 C 
ATOM     16  S   UNL d   1       6.489  -0.185 -16.810  0.00  0.00    -0.086 SA
ENDBRANCH   9  11
ENDBRANCH   5   8
ENDBRANCH   1   2
BRANCH   1  17
ATOM     17  C   UNL d   1      10.268   7.169 -10.679  0.00  0.00     0.250 C 
BRANCH  17  18
ATOM     18  N   UNL d   1      10.910   8.435 -10.338  0.00  0.00     0.141 N 
ATOM     19  C   UNL d   1      12.160   8.226  -9.597  0.00  0.00     0.274 C 
ATOM     20  C   UNL d   1      11.862   7.531  -8.262  0.00  0.00     0.137 C 
ATOM     21  N   UNL d   1      10.871   8.277  -7.500  0.00  0.00    -0.344 N 
ATOM     22  C   UNL d   1       9.651   8.668  -8.197  0.00  0.00     0.137 C 
ATOM     23  C   UNL d   1      10.046   9.313  -9.548  0.00  0.00     0.274 C 
BRANCH  21  24
ATOM     24  C   UNL d   1      11.060   8.569  -6.144  0.00  0.00     0.068 A 
ATOM     25  C   UNL d   1      11.520   7.615  -5.208  0.00  0.00     0.084 A 
ATOM     26  C   UNL d   1      11.763   7.963  -3.866  0.00  0.00     0.070 A 
ATOM     27 CL   UNL d   1      11.852   6.003  -5.707  0.00  0.00    -0.080 Cl
ATOM     28  C   UNL d   1      11.525   9.284  -3.456  0.00  0.00     0.012 A 
ATOM     29 CL   UNL d   1      12.298   6.789  -2.708  0.00  0.00    -0.081 Cl
ATOM     30  C   UNL d   1      11.052  10.221  -4.382  0.00  0.00     0.002 A 
ATOM     31  C   UNL d   1      10.834   9.882  -5.715  0.00  0.00     0.018 A 
ENDBRANCH  21  24
ENDBRANCH  17  18
ENDBRANCH   1  17
TORSDOF 6
