REMARK  11 active torsions:
REMARK  status: ('A' for Active; 'I' for Inactive)
REMARK    1  A    between atoms: C_2  and  O_3 
REMARK    2  A    between atoms: O_3  and  C_4 
REMARK    3  A    between atoms: C_10  and  C_11 
REMARK    4  A    between atoms: C_13  and  C_14 
REMARK    5  A    between atoms: C_14  and  N_15 
REMARK    6  A    between atoms: N_15  and  C_17 
REMARK    7  A    between atoms: C_17  and  C_18 
REMARK    8  A    between atoms: C_18  and  C_19 
REMARK    9  A    between atoms: C_19  and  S_20 
REMARK   10  A    between atoms: S_20  and  C_21 
REMARK   11  A    between atoms: C_24  and  C_25 
ROOT
ATOM      1  N   UNL d   1      10.053   2.506 -15.290  0.00  0.00     0.139 N 
ATOM      2  C   UNL d   1      11.447   2.333 -14.888  0.00  0.00     0.285 C 
ENDROOT
BRANCH   1   3
ATOM      3  C   UNL d   1       9.586   1.226 -15.819  0.00  0.00     0.251 C 
BRANCH   3   4
ATOM      4  C   UNL d   1       8.200   1.343 -16.425  0.00  0.00     0.038 A 
ATOM      5  C   UNL d   1       7.553   0.137 -17.067  0.00  0.00     0.026 A 
ATOM      6  C   UNL d   1       7.032   0.657 -15.747  0.00  0.00     0.007 A 
BRANCH   5   7
ATOM      7  C   UNL d   1       6.732   0.309 -18.315  0.00  0.00     0.002 A 
ATOM      8  C   UNL d   1       5.426  -0.240 -18.386  0.00  0.00     0.090 A 
ATOM      9  C   UNL d   1       4.655  -0.037 -19.555  0.00  0.00     0.026 A 
ATOM     10  C   UNL d   1       5.193   0.659 -20.646  0.00  0.00     0.032 A 
ATOM     11  C   UNL d   1       6.495   1.192 -20.582  0.00  0.00     0.140 A 
ATOM     12  F   UNL d   1       6.997   1.900 -21.626  0.00  0.00    -0.204 F 
ATOM     13  C   UNL d   1       7.260   1.025 -19.415  0.00  0.00     0.027 A 
BRANCH   8  14
ATOM     14  O   UNL d   1       4.990  -0.966 -17.298  0.00  0.00    -0.331 OA
BRANCH  14  15
ATOM     15  C   UNL d   1       3.736  -1.627 -17.364  0.00  0.00     0.149 C 
ATOM     16  C   UNL d   1       3.778  -2.817 -18.342  0.00  0.00     0.035 C 
ENDBRANCH  14  15
ENDBRANCH   8  14
ENDBRANCH   5   7
ENDBRANCH   3   4
ENDBRANCH   1   3
BRANCH   1  17
ATOM     17  C   UNL d   1       9.245   2.912 -14.138  0.00  0.00     0.251 C 
BRANCH  17  18
ATOM     18  C   UNL d   1       9.462   4.389 -13.781  0.00  0.00     0.047 C 
BRANCH  18  19
ATOM     19  C   UNL d   1       8.902   4.697 -12.394  0.00  0.00     0.067 C 
BRANCH  19  20
ATOM     20  S   UNL d   1       9.058   6.465 -12.025  0.00  0.00    -0.075 SA
BRANCH  20  21
ATOM     21  C   UNL d   1       9.326   6.378 -10.290  0.00  0.00     0.193 A 
ATOM     22  N   UNL d   1       9.871   7.392  -9.591  0.00  0.00    -0.289 N 
ATOM     23  C   UNL d   1       9.903   6.892  -8.332  0.00  0.00     0.167 A 
ATOM     24  C   UNL d   1      10.306   8.690 -10.098  0.00  0.00     0.134 C 
ATOM     25  N   UNL d   1       9.437   5.635  -8.270  0.00  0.00    -0.128 NA
ATOM     26  N   UNL d   1       9.046   5.304  -9.549  0.00  0.00    -0.122 NA
BRANCH  23  27
ATOM     27  C   UNL d   1      10.396   7.577  -7.138  0.00  0.00     0.036 A 
ATOM     28  C   UNL d   1      10.257   8.975  -6.984  0.00  0.00     0.003 A 
ATOM     29  C   UNL d   1      10.762   9.619  -5.840  0.00  0.00     0.000 A 
ATOM     30  C   UNL d   1      11.366   8.875  -4.807  0.00  0.00     0.000 A 
ATOM     31  C   UNL d   1      11.461   7.473  -4.930  0.00  0.00     0.000 A 
ATOM     32  C   UNL d   1      11.008   6.837  -6.101  0.00  0.00     0.003 A 
ENDBRANCH  23  27
ENDBRANCH  20  21
ENDBRANCH  19  20
ENDBRANCH  18  19
ENDBRANCH  17  18
ENDBRANCH   1  17
TORSDOF 11
