REMARK  6 active torsions:
REMARK  status: ('A' for Active; 'I' for Inactive)
REMARK    1  A    between atoms: S_2  and  C_4 
REMARK    2  A    between atoms: S_2  and  N_14 
REMARK    3  A    between atoms: C_18  and  C_19 
REMARK    4  A    between atoms: C_19  and  C_20 
REMARK    5  A    between atoms: C_20  and  N_21 
REMARK    6  A    between atoms: N_24  and  C_25 
ROOT
ATOM      1  N   UNL d   1       9.109   1.657 -16.596  0.00  0.00    -0.276 N 
ATOM      2  C   UNL d   1      10.104   2.206 -17.531  0.00  0.00     0.113 C 
ATOM      3  C   UNL d   1      11.315   1.300 -17.357  0.00  0.00     0.027 C 
ATOM      4  C   UNL d   1      11.285   0.973 -15.873  0.00  0.00     0.025 C 
ATOM      5  C   UNL d   1       9.815   1.049 -15.465  0.00  0.00     0.094 C 
ENDROOT
BRANCH   5   6
ATOM      6  C   UNL d   1       9.642   1.905 -14.195  0.00  0.00     0.058 C 
BRANCH   6   7
ATOM      7  C   UNL d   1       9.620   3.437 -14.402  0.00  0.00     0.252 C 
BRANCH   7   8
ATOM      8  N   UNL d   1       9.055   4.123 -13.257  0.00  0.00     0.141 N 
ATOM      9  C   UNL d   1       8.954   5.560 -13.521  0.00  0.00     0.274 C 
ATOM     10  C   UNL d   1       8.312   6.303 -12.323  0.00  0.00     0.137 C 
ATOM     11  N   UNL d   1       9.063   5.999 -11.124  0.00  0.00    -0.344 N 
ATOM     12  C   UNL d   1       9.265   4.585 -10.841  0.00  0.00     0.137 C 
ATOM     13  C   UNL d   1       9.856   3.871 -12.078  0.00  0.00     0.274 C 
BRANCH  11  14
ATOM     14  C   UNL d   1       9.567   7.008 -10.295  0.00  0.00     0.057 A 
ATOM     15  C   UNL d   1       9.376   6.970  -8.901  0.00  0.00     0.022 A 
ATOM     16  C   UNL d   1       9.930   8.038  -8.129  0.00  0.00     0.031 A 
ATOM     17  C   UNL d   1       8.691   6.013  -8.083  0.00  0.00     0.009 A 
ATOM     18  C   UNL d   1      10.662   9.082  -8.708  0.00  0.00     0.007 A 
ATOM     19  S   UNL d   1       9.557   7.867  -6.438  0.00  0.00    -0.086 SA
ATOM     20  C   UNL d   1      10.847   9.092 -10.086  0.00  0.00     0.002 A 
ATOM     21  C   UNL d   1      10.266   8.092 -10.868  0.00  0.00     0.017 A 
ATOM     22  C   UNL d   1       8.683   6.416  -6.777  0.00  0.00     0.035 A 
ENDBRANCH  11  14
ENDBRANCH   7   8
ENDBRANCH   6   7
ENDBRANCH   5   6
BRANCH   1  23
ATOM     23  S   UNL d   1       7.665   0.910 -17.235  0.00  0.00     0.264 S 
ATOM     24  O   UNL d   1       8.058  -0.324 -17.893  0.00  0.00    -0.200 OA
ATOM     25  O   UNL d   1       6.986   1.973 -18.018  0.00  0.00    -0.200 OA
BRANCH  23  26
ATOM     26  C   UNL d   1       6.604   0.527 -15.805  0.00  0.00     0.105 A 
ATOM     27  C   UNL d   1       6.303   1.444 -14.768  0.00  0.00     0.030 A 
ATOM     28  C   UNL d   1       5.538   1.109 -13.632  0.00  0.00     0.082 A 
ATOM     29  C   UNL d   1       6.747   2.764 -14.785  0.00  0.00     0.004 C 
ATOM     30  C   UNL d   1       4.984  -0.165 -13.622  0.00  0.00     0.019 A 
ATOM     31  N   UNL d   1       5.303   1.958 -12.607  0.00  0.00    -0.244 NA
ATOM     32  C   UNL d   1       5.215  -1.095 -14.637  0.00  0.00     0.002 A 
ATOM     33  C   UNL d   1       6.032  -0.766 -15.733  0.00  0.00     0.013 A 
ATOM     34  C   UNL d   1       5.748   3.228 -12.707  0.00  0.00     0.099 C 
ATOM     35  C   UNL d   1       6.393   3.697 -13.816  0.00  0.00     0.021 C 
ENDBRANCH  23  26
ENDBRANCH   1  23
TORSDOF 6
