REMARK  7 active torsions:
REMARK  status: ('A' for Active; 'I' for Inactive)
REMARK    1  A    between atoms: C_2  and  C_4 
REMARK    2  A    between atoms: C_4  and  C_6 
REMARK       I    between atoms: C_6  and  N_8 
REMARK    3  A    between atoms: N_8  and  C_9 
REMARK    4  A    between atoms: C_12  and  C_13 
REMARK    5  A    between atoms: C_13  and  C_14 
REMARK    6  A    between atoms: C_14  and  N_15 
REMARK    7  A    between atoms: N_18  and  C_19 
ROOT
ATOM      1  C   UNL d   1       8.639   5.067 -10.850  0.00  0.00     0.250 C 
ENDROOT
BRANCH   1   2
ATOM      2  C   UNL d   1       9.520   6.325 -10.914  0.00  0.00     0.035 C 
BRANCH   2   3
ATOM      3  C   UNL d   1      10.223   6.614  -9.564  0.00  0.00     0.002 C 
ATOM      4  C   UNL d   1      11.301   7.718  -9.692  0.00  0.00     0.002 C 
ATOM      5  C   UNL d   1      11.968   8.059  -8.354  0.00  0.00     0.024 C 
ATOM      6  C   UNL d   1      10.931   8.446  -7.300  0.00  0.00     0.106 C 
ATOM      7  C   UNL d   1       9.876   7.338  -7.140  0.00  0.00     0.024 C 
ATOM      8  C   UNL d   1       9.217   7.031  -8.478  0.00  0.00     0.002 C 
BRANCH   6   9
ATOM      9  N   UNL d   1      11.573   8.655  -6.034  0.00  0.00    -0.238 NA
ATOM     10  C   UNL d   1      11.217   9.515  -5.094  0.00  0.00     0.282 C 
ATOM     11  O   UNL d   1      10.288  10.296  -5.172  0.00  0.00    -0.268 OA
BRANCH  10  12
ATOM     12  C   UNL d   1      12.117   9.587  -3.903  0.00  0.00     0.232 C 
ATOM     13  O   UNL d   1      13.426   9.587  -4.420  0.00  0.00    -0.213 OA
BRANCH  12  14
ATOM     14  C   UNL d   1      11.834   8.504  -2.847  0.00  0.00     0.040 C 
ATOM     15  C   UNL d   1      12.623   8.769  -1.569  0.00  0.00     0.003 C 
ATOM     16  C   UNL d   1      12.004   7.044  -3.305  0.00  0.00     0.003 C 
ENDBRANCH  12  14
ENDBRANCH  10  12
ENDBRANCH   6   9
ENDBRANCH   2   3
ENDBRANCH   1   2
BRANCH   1  17
ATOM     17  N   UNL d   1       8.091   4.745 -12.166  0.00  0.00     0.141 N 
ATOM     18  C   UNL d   1       6.760   4.137 -12.001  0.00  0.00     0.274 C 
ATOM     19  C   UNL d   1       6.146   3.794 -13.364  0.00  0.00     0.137 C 
ATOM     20  N   UNL d   1       7.063   2.938 -14.108  0.00  0.00    -0.343 N 
ATOM     21  C   UNL d   1       8.416   3.462 -14.254  0.00  0.00     0.137 C 
ATOM     22  C   UNL d   1       8.992   3.824 -12.881  0.00  0.00     0.274 C 
BRANCH  20  23
ATOM     23  C   UNL d   1       6.662   1.718 -14.693  0.00  0.00     0.081 A 
ATOM     24  C   UNL d   1       7.160   1.286 -15.943  0.00  0.00     0.135 A 
ATOM     25  C   UNL d   1       6.736   0.107 -16.529  0.00  0.00     0.121 A 
ATOM     26  O   UNL d   1       8.046   1.900 -16.773  0.00  0.00    -0.298 OA
ATOM     27  C   UNL d   1       5.780  -0.722 -15.924  0.00  0.00     0.026 A 
ATOM     28  O   UNL d   1       7.373  -0.065 -17.716  0.00  0.00    -0.299 OA
ATOM     29  C   UNL d   1       5.253  -0.314 -14.683  0.00  0.00     0.004 A 
ATOM     30  C   UNL d   1       5.694   0.886 -14.071  0.00  0.00     0.019 A 
ATOM     31  C   UNL d   1       8.214   1.047 -17.870  0.00  0.00     0.304 A 
ENDBRANCH  20  23
ENDBRANCH   1  17
TORSDOF 7
