REMARK  21 active torsions:
REMARK  status: ('A' for Active; 'I' for Inactive)
REMARK    1  A    between atoms: C_2  and  C_3 
REMARK    2  A    between atoms: C_2  and  C_38 
REMARK    3  A    between atoms: C_3  and  C_4 
REMARK    4  A    between atoms: C_4  and  C_5 
REMARK       I    between atoms: C_5  and  N_7 
REMARK    5  A    between atoms: N_7  and  C_8 
REMARK    6  A    between atoms: C_8  and  C_9 
REMARK    7  A    between atoms: C_8  and  C_31 
REMARK    8  A    between atoms: C_9  and  S_10 
REMARK    9  A    between atoms: S_10  and  S_11 
REMARK   10  A    between atoms: S_11  and  C_12 
REMARK   11  A    between atoms: C_12  and  C_13 
REMARK   12  A    between atoms: C_13  and  N_14 
REMARK   13  A    between atoms: C_13  and  C_24 
REMARK       I    between atoms: N_14  and  C_15 
REMARK   14  A    between atoms: C_15  and  C_17 
REMARK   15  A    between atoms: C_17  and  C_18 
REMARK   16  A    between atoms: C_18  and  C_19 
REMARK   17  A    between atoms: C_19  and  C_21 
REMARK       I    between atoms: C_24  and  N_26 
REMARK   18  A    between atoms: N_26  and  CA_27 
REMARK   19  A    between atoms: CA_27  and  C_28 
REMARK       I    between atoms: C_31  and  N_33 
REMARK   20  A    between atoms: N_33  and  CA_34 
REMARK   21  A    between atoms: CA_34  and  C_35 
ROOT
ATOM      1  S   UNK d   1      12.014   5.389 -16.241  0.00  0.00    -0.080 SA
ENDROOT
BRANCH   1   2
ATOM      2  C   UNK d   1      12.198   3.927 -17.298  0.00  0.00     0.103 C 
BRANCH   2   3
ATOM      3  C   UNK d   1      12.539   4.202 -18.782  0.00  0.00     0.198 C 
BRANCH   3   4
ATOM      4  N   UNK d   1      12.550   2.951 -19.533  0.00  0.00    -0.229 NA
ATOM      5  C   UNK d   1      11.482   2.346 -20.064  0.00  0.00     0.252 C 
ATOM      6  O   UNK d   1      10.349   2.825 -20.018  0.00  0.00    -0.271 OA
BRANCH   5   7
ATOM      7  C   UNK d   1      11.740   0.986 -20.720  0.00  0.00     0.092 C 
BRANCH   7   8
ATOM      8  C   UNK d   1      10.566  -0.014 -20.620  0.00  0.00     0.060 C 
BRANCH   8   9
ATOM      9  C   UNK d   1       9.975  -0.203 -19.199  0.00  0.00     0.388 C 
ATOM     10  N   UNK d   1      10.947  -0.819 -18.299  0.00  0.00     0.628 N 
BRANCH   9  11
ATOM     11  C   UNK d   1       8.665  -0.994 -19.194  0.00  0.00     0.224 C 
ATOM     12  O   UNK d   1       8.290  -1.633 -20.172  0.00  0.00    -0.646 OA
ATOM     13  O   UNK d   1       7.953  -0.950 -18.036  0.00  0.00    -0.646 OA
ENDBRANCH   9  11
ENDBRANCH   8   9
ENDBRANCH   7   8
ENDBRANCH   5   7
ENDBRANCH   3   4
BRANCH   3  14
ATOM     14  C   UNK d   1      13.867   4.932 -19.016  0.00  0.00     0.275 C 
ATOM     15  O   UNK d   1      14.920   4.295 -19.086  0.00  0.00    -0.268 OA
ATOM     16  N   GLY d   2      13.812   6.263 -19.146  0.00  0.00    -0.225 NA
BRANCH  16  17
ATOM     17  CA  GLY d   2      14.962   7.107 -19.430  0.00  0.00     0.226 C 
BRANCH  17  18
ATOM     18  C   GLY d   2      14.646   8.561 -19.104  0.00  0.00     0.211 C 
ATOM     19  O   GLY d   2      15.370   9.291 -18.433  0.00  0.00    -0.646 OA
ATOM     20  OXT GLY d   2      13.459   8.959 -19.643  0.00  0.00    -0.646 OA
ENDBRANCH  17  18
ENDBRANCH  16  17
ENDBRANCH   3  14
ENDBRANCH   2   3
ENDBRANCH   1   2
BRANCH   1  21
ATOM     21  S   UNK d   1      11.438   4.633 -14.439  0.00  0.00    -0.080 SA
BRANCH  21  22
ATOM     22  C   UNK d   1       9.637   4.475 -14.593  0.00  0.00     0.103 C 
BRANCH  22  23
ATOM     23  C   UNK d   1       8.861   4.291 -13.274  0.00  0.00     0.198 C 
BRANCH  23  24
ATOM     24  N   UNK d   1       7.470   3.984 -13.626  0.00  0.00    -0.229 NA
ATOM     25  C   UNK d   1       6.500   3.688 -12.746  0.00  0.00     0.252 C 
ATOM     26  O   UNK d   1       6.654   3.730 -11.534  0.00  0.00    -0.271 OA
BRANCH  25  27
ATOM     27  C   UNK d   1       5.175   3.241 -13.299  0.00  0.00     0.092 C 
BRANCH  27  28
ATOM     28  C   UNK d   1       4.989   1.699 -13.219  0.00  0.00     0.060 C 
BRANCH  28  29
ATOM     29  C   UNK d   1       5.610   0.911 -14.410  0.00  0.00     0.388 C 
ATOM     30  N   UNK d   1       4.681  -0.104 -14.923  0.00  0.00     0.628 N 
BRANCH  29  31
ATOM     31  C   UNK d   1       6.926   0.257 -14.011  0.00  0.00     0.224 C 
ATOM     32  O   UNK d   1       6.915  -0.720 -13.268  0.00  0.00    -0.646 OA
ATOM     33  O   UNK d   1       8.068   0.821 -14.489  0.00  0.00    -0.646 OA
ENDBRANCH  29  31
ENDBRANCH  28  29
ENDBRANCH  27  28
ENDBRANCH  25  27
ENDBRANCH  23  24
BRANCH  23  34
ATOM     34  C   UNK d   1       8.943   5.550 -12.391  0.00  0.00     0.275 C 
ATOM     35  O   UNK d   1       8.550   6.630 -12.838  0.00  0.00    -0.268 OA
ATOM     36  N   GLY d   2       9.458   5.397 -11.165  0.00  0.00    -0.225 NA
BRANCH  36  37
ATOM     37  CA  GLY d   2       9.600   6.446 -10.161  0.00  0.00     0.226 C 
BRANCH  37  38
ATOM     38  C   GLY d   2       9.063   5.991  -8.807  0.00  0.00     0.211 C 
ATOM     39  O   GLY d   2       8.671   4.852  -8.550  0.00  0.00    -0.646 OA
ATOM     40  OXT GLY d   2       9.065   7.007  -7.899  0.00  0.00    -0.646 OA
ENDBRANCH  37  38
ENDBRANCH  36  37
ENDBRANCH  23  34
ENDBRANCH  22  23
ENDBRANCH  21  22
ENDBRANCH   1  21
TORSDOF 21
