REMARK  5 active torsions:
REMARK  status: ('A' for Active; 'I' for Inactive)
REMARK    1  A    between atoms: S_2  and  C_3 
REMARK    2  A    between atoms: S_2  and  C_16 
REMARK    3  A    between atoms: C_3  and  C_4 
REMARK    4  A    between atoms: C_4  and  C_5 
REMARK    5  A    between atoms: C_5  and  N_6 
ROOT
ATOM      1  C   UNL d   1       9.698   6.000 -10.245  0.00  0.00     0.050 C 
ENDROOT
BRANCH   1   2
ATOM      2  C   UNL d   1       9.227   4.809 -11.088  0.00  0.00     0.098 C 
BRANCH   2   3
ATOM      3  S   UNL d   1       9.229   5.372 -12.860  0.00  0.00     0.065 S 
ATOM      4  O   UNL d   1      10.647   5.156 -13.394  0.00  0.00    -0.252 OA
BRANCH   3   5
ATOM      5  C   UNL d   1       8.223   4.003 -13.512  0.00  0.00     0.056 A 
ATOM      6  C   UNL d   1       6.861   3.916 -13.164  0.00  0.00     0.011 A 
ATOM      7  C   UNL d   1       6.100   2.827 -13.636  0.00  0.00     0.030 A 
ATOM      8  C   UNL d   1       6.691   1.858 -14.470  0.00  0.00     0.140 A 
ATOM      9  C   UNL d   1       8.045   1.971 -14.838  0.00  0.00     0.030 A 
ATOM     10  F   UNL d   1       5.956   0.815 -14.921  0.00  0.00    -0.204 F 
ATOM     11  C   UNL d   1       8.819   3.042 -14.354  0.00  0.00     0.011 A 
ENDBRANCH   3   5
ENDBRANCH   2   3
ENDBRANCH   1   2
BRANCH   1  12
ATOM     12  C   UNL d   1       9.707   5.712  -8.732  0.00  0.00     0.252 C 
BRANCH  12  13
ATOM     13  N   UNL d   1      10.318   6.810  -7.983  0.00  0.00     0.142 N 
ATOM     14  C   UNL d   1      10.565   6.404  -6.596  0.00  0.00     0.276 C 
ATOM     15  C   UNL d   1      11.058   7.512  -5.676  0.00  0.00     0.007 A 
ATOM     16  C   UNL d   1      10.850   8.857  -6.038  0.00  0.00    -0.022 A 
ATOM     17  C   UNL d   1      11.675   7.196  -4.447  0.00  0.00    -0.003 A 
ATOM     18  C   UNL d   1      10.221   9.163  -7.383  0.00  0.00     0.061 C 
ATOM     19  C   UNL d   1      11.261   9.888  -5.174  0.00  0.00    -0.004 A 
ATOM     20  C   UNL d   1       9.447   7.979  -7.972  0.00  0.00     0.255 C 
ATOM     21  C   UNL d   1      11.874   9.581  -3.942  0.00  0.00    -0.000 A 
ATOM     22  C   UNL d   1      12.104   8.228  -3.591  0.00  0.00    -0.000 A 
ENDBRANCH  12  13
ENDBRANCH   1  12
TORSDOF 5
