REMARK  10 active torsions:
REMARK  status: ('A' for Active; 'I' for Inactive)
REMARK    1  A    between atoms: O_2  and  C_3 
REMARK    2  A    between atoms: C_9  and  C_10 
REMARK    3  A    between atoms: C_12  and  C_13 
REMARK    4  A    between atoms: C_13  and  N_14 
REMARK    5  A    between atoms: N_14  and  C_15 
REMARK    6  A    between atoms: C_15  and  C_16 
REMARK    7  A    between atoms: C_16  and  C_17 
REMARK    8  A    between atoms: C_17  and  C_18 
REMARK    9  A    between atoms: C_18  and  O_19 
REMARK   10  A    between atoms: O_19  and  C_20 
ROOT
ATOM      1  C   UNL d   1       8.432   7.039 -11.569  0.00  0.00     0.290 C 
ENDROOT
BRANCH   1   2
ATOM      2  N   UNL d   1       8.386   6.122 -12.669  0.00  0.00     0.339 N 
BRANCH   2   3
ATOM      3  C   UNL d   1       7.066   5.516 -12.613  0.00  0.00     0.290 C 
BRANCH   3   4
ATOM      4  C   UNL d   1       7.033   4.547 -13.724  0.00  0.00     0.041 A 
ATOM      5  C   UNL d   1       6.781   3.075 -13.547  0.00  0.00     0.026 A 
ATOM      6  C   UNL d   1       5.710   3.968 -14.113  0.00  0.00     0.007 A 
BRANCH   5   7
ATOM      7  C   UNL d   1       7.511   2.074 -14.396  0.00  0.00     0.002 A 
ATOM      8  C   UNL d   1       6.835   0.947 -14.927  0.00  0.00     0.090 A 
ATOM      9  C   UNL d   1       7.547   0.040 -15.751  0.00  0.00     0.026 A 
ATOM     10  C   UNL d   1       8.924   0.216 -16.004  0.00  0.00     0.032 A 
ATOM     11  C   UNL d   1       9.603   1.312 -15.449  0.00  0.00     0.140 A 
ATOM     12  F   UNL d   1      10.923   1.489 -15.693  0.00  0.00    -0.204 F 
ATOM     13  C   UNL d   1       8.895   2.235 -14.657  0.00  0.00     0.027 A 
BRANCH   8  14
ATOM     14  O   UNL d   1       5.503   0.784 -14.603  0.00  0.00    -0.328 OA
ATOM     15  C   UNL d   1       4.803  -0.333 -15.141  0.00  0.00     0.181 C 
ENDBRANCH   8  14
ENDBRANCH   5   7
ENDBRANCH   3   4
ENDBRANCH   2   3
ENDBRANCH   1   2
BRANCH   1  16
ATOM     16  C   UNL d   1       9.809   7.626 -11.364  0.00  0.00     0.041 C 
BRANCH  16  17
ATOM     17  C   UNL d   1       9.847   8.581 -10.170  0.00  0.00     0.035 C 
BRANCH  17  18
ATOM     18  C   UNL d   1      11.318   8.921  -9.843  0.00  0.00     0.149 C 
BRANCH  18  19
ATOM     19  O   UNL d   1      11.428   9.574  -8.586  0.00  0.00    -0.331 OA
BRANCH  19  20
ATOM     20  C   UNL d   1      11.464   8.789  -7.462  0.00  0.00     0.096 A 
ATOM     21  C   UNL d   1      11.819   9.418  -6.249  0.00  0.00     0.043 A 
ATOM     22  C   UNL d   1      11.811   8.691  -5.046  0.00  0.00     0.087 A 
ATOM     23  C   UNL d   1      11.434   7.338  -5.058  0.00  0.00     0.018 A 
ATOM     24  N   UNL d   1      12.226   9.269  -3.819  0.00  0.00    -0.208 NA
ATOM     25  C   UNL d   1      11.064   6.713  -6.255  0.00  0.00     0.004 A 
ATOM     26  C   UNL d   1      11.480   6.621  -3.801  0.00  0.00     0.006 A 
ATOM     27  C   UNL d   1      11.128   7.404  -7.459  0.00  0.00     0.024 A 
ATOM     28  C   UNL d   1      11.862   7.198  -2.661  0.00  0.00     0.063 A 
ATOM     29  C   UNL d   1      12.269   8.609  -2.633  0.00  0.00     0.279 A 
ATOM     30  O   UNL d   1      12.642   9.167  -1.618  0.00  0.00    -0.265 OA
ENDBRANCH  19  20
ENDBRANCH  18  19
ENDBRANCH  17  18
ENDBRANCH  16  17
ENDBRANCH   1  16
TORSDOF 10
