REMARK  6 active torsions:
REMARK  status: ('A' for Active; 'I' for Inactive)
REMARK    1  A    between atoms: O_2  and  C_3 
REMARK    2  A    between atoms: C_7  and  C_8 
REMARK       I    between atoms: C_8  and  N_10 
REMARK    3  A    between atoms: N_10  and  C_11 
REMARK    4  A    between atoms: C_11  and  C_12 
REMARK    5  A    between atoms: C_12  and  N_13 
REMARK    6  A    between atoms: N_16  and  C_17 
ROOT
ATOM      1  C   UNL d   1       9.686   6.097 -10.443  0.00  0.00     0.277 C 
ENDROOT
BRANCH   1   2
ATOM      2  C   UNL d   1       8.470   6.149 -11.382  0.00  0.00     0.164 C 
BRANCH   2   3
ATOM      3  N   UNL d   1       8.394   4.971 -12.234  0.00  0.00    -0.232 NA
ATOM      4  C   UNL d   1       9.297   4.587 -13.159  0.00  0.00     0.275 C 
ATOM      5  O   UNL d   1      10.357   5.188 -13.361  0.00  0.00    -0.266 OA
BRANCH   4   6
ATOM      6  C   UNL d   1       8.960   3.340 -13.941  0.00  0.00     0.059 A 
ATOM      7  C   UNL d   1       7.611   2.915 -14.041  0.00  0.00     0.005 A 
ATOM      8  C   UNL d   1       7.289   1.770 -14.783  0.00  0.00     0.002 A 
ATOM      9  C   UNL d   1       8.287   1.047 -15.449  0.00  0.00     0.024 A 
ATOM     10  C   UNL d   1       9.646   1.461 -15.384  0.00  0.00     0.094 A 
ATOM     11  C   UNL d   1       9.966   2.607 -14.627  0.00  0.00     0.029 A 
BRANCH  10  12
ATOM     12  O   UNL d   1      10.686   0.816 -16.023  0.00  0.00    -0.328 OA
ATOM     13  C   UNL d   1      10.368  -0.358 -16.772  0.00  0.00     0.181 C 
ENDBRANCH  10  12
ENDBRANCH   4   6
ENDBRANCH   2   3
ENDBRANCH   1   2
BRANCH   1  14
ATOM     14  N   UNL d   1       9.565   7.044  -9.339  0.00  0.00     0.143 N 
ATOM     15  C   UNL d   1      10.843   7.713  -9.088  0.00  0.00     0.274 C 
ATOM     16  C   UNL d   1      10.732   8.726  -7.927  0.00  0.00     0.138 C 
ATOM     17  N   UNL d   1      10.224   8.058  -6.743  0.00  0.00    -0.330 N 
ATOM     18  C   UNL d   1       9.000   7.288  -6.931  0.00  0.00     0.138 C 
ATOM     19  C   UNL d   1       9.140   6.328  -8.131  0.00  0.00     0.274 C 
BRANCH  17  20
ATOM     20  C   UNL d   1      10.916   8.100  -5.532  0.00  0.00     0.140 A 
ATOM     21  N   UNL d   1      11.229   9.322  -5.034  0.00  0.00    -0.227 NA
ATOM     22  C   UNL d   1      11.849   9.392  -3.843  0.00  0.00     0.101 A 
ATOM     23  C   UNL d   1      12.230   8.258  -3.098  0.00  0.00     0.021 A 
ATOM     24  C   UNL d   1      11.915   6.987  -3.617  0.00  0.00     0.005 A 
ATOM     25  C   UNL d   1      11.245   6.905  -4.847  0.00  0.00     0.037 A 
ENDBRANCH  17  20
ENDBRANCH   1  14
TORSDOF 6
