REMARK  5 active torsions:
REMARK  status: ('A' for Active; 'I' for Inactive)
REMARK    1  A    between atoms: C_2  and  C_3 
REMARK    2  A    between atoms: C_5  and  O_6 
REMARK    3  A    between atoms: O_6  and  C_7 
REMARK    4  A    between atoms: C_10  and  C_11 
REMARK    5  A    between atoms: C_11  and  C_12 
ROOT
ATOM      1  C   UNL d   1       7.790   4.072 -13.090  0.00  0.00     0.097 C 
ATOM      2  C   UNL d   1       6.906   4.995 -12.492  0.00  0.00     0.024 C 
ATOM      3  C   UNL d   1       7.266   5.654 -11.305  0.00  0.00    -0.002 C 
ATOM      4  C   UNL d   1       8.496   5.367 -10.675  0.00  0.00    -0.020 C 
ATOM      5  C   UNL d   1       9.379   4.445 -11.245  0.00  0.00    -0.002 C 
ATOM      6  C   UNL d   1       9.070   3.873 -12.482  0.00  0.00     0.024 C 
ENDROOT
BRANCH   4   7
ATOM      7  C   UNL d   1       8.876   5.993  -9.352  0.00  0.00     0.067 C 
BRANCH   7   8
ATOM      8  C   UNL d   1      10.277   6.651  -9.348  0.00  0.00     0.283 C 
ATOM      9  C   UNL d   1      10.641   7.249  -8.002  0.00  0.00     0.010 A 
ATOM     10  C   UNL d   1      11.346   8.466  -7.895  0.00  0.00    -0.020 A 
ATOM     11  C   UNL d   1      10.328   6.572  -6.808  0.00  0.00     0.027 A 
ATOM     12  C   UNL d   1      11.691   9.164  -9.158  0.00  0.00     0.064 C 
ATOM     13  C   UNL d   1      11.726   9.025  -6.664  0.00  0.00     0.025 A 
ATOM     14  C   UNL d   1      11.635   8.288 -10.374  0.00  0.00     0.295 C 
ATOM     15  N   UNL d   1      10.330   7.648 -10.414  0.00  0.00     0.342 N 
ATOM     16  C   UNL d   1      11.391   8.338  -5.479  0.00  0.00     0.156 A 
ATOM     17  O   UNL d   1      11.735   8.844  -4.255  0.00  0.00    -0.188 OA
ATOM     18  C   UNL d   1      10.720   7.116  -5.576  0.00  0.00     0.156 A 
ATOM     19  O   UNL d   1      10.468   6.389  -4.473  0.00  0.00    -0.188 OA
ENDBRANCH   7   8
ENDBRANCH   4   7
BRANCH   1  20
ATOM     20  O   UNL d   1       7.277   3.345 -14.145  0.00  0.00    -0.304 OA
BRANCH  20  21
ATOM     21  C   UNL d   1       8.142   2.609 -14.943  0.00  0.00     0.274 C 
ATOM     22  O   UNL d   1       8.966   1.730 -14.239  0.00  0.00    -0.326 OA
ATOM     23  C   UNL d   1      10.003   1.079 -14.959  0.00  0.00     0.184 C 
ATOM     24  C   UNL d   1       9.270   0.104 -15.902  0.00  0.00     0.215 C 
ATOM     25  C   UNL d   1       8.263   0.893 -16.777  0.00  0.00     0.220 C 
ATOM     26  O   UNL d   1      10.212  -0.592 -16.698  0.00  0.00    -0.218 OA
ATOM     27  C   UNL d   1       7.297   1.759 -15.916  0.00  0.00     0.241 C 
ATOM     28  O   UNL d   1       7.480   0.007 -17.552  0.00  0.00    -0.218 OA
ATOM     29  O   UNL d   1       6.439   0.910 -15.183  0.00  0.00    -0.215 OA
BRANCH  23  30
ATOM     30  C   UNL d   1      10.955   2.077 -15.704  0.00  0.00     0.214 C 
ATOM     31  O   UNL d   1      11.509   2.999 -14.792  0.00  0.00    -0.218 OA
ENDBRANCH  23  30
ENDBRANCH  20  21
ENDBRANCH   1  20
TORSDOF 5
