REMARK  1 active torsions:
REMARK  status: ('A' for Active; 'I' for Inactive)
REMARK    1  A    between atoms: N_5  and  C_6 
ROOT
ATOM      1  C   UNL d   1       8.005   1.722 -15.467  0.00  0.00     0.142 C 
ATOM      2  N   UNL d   1       7.680   0.756 -16.263  0.00  0.00    -0.227 NA
ATOM      3  C   UNL d   1       6.429   0.132 -16.281  0.00  0.00     0.106 A 
ATOM      4  C   UNL d   1       5.967  -0.295 -17.543  0.00  0.00     0.033 A 
ATOM      5  C   UNL d   1       4.737  -0.965 -17.678  0.00  0.00     0.059 A 
ATOM      6 CL   UNL d   1       4.193  -1.461 -19.238  0.00  0.00    -0.082 Cl
ATOM      7  C   UNL d   1       3.955  -1.224 -16.538  0.00  0.00     0.013 A 
ATOM      8  C   UNL d   1       4.403  -0.818 -15.267  0.00  0.00     0.027 A 
ATOM      9  C   UNL d   1       5.639  -0.151 -15.136  0.00  0.00     0.118 A 
ATOM     10  O   UNL d   1       6.053   0.196 -13.883  0.00  0.00    -0.305 OA
ATOM     11  C   UNL d   1       6.204   1.539 -13.654  0.00  0.00     0.103 A 
ATOM     12  C   UNL d   1       5.450   2.148 -12.632  0.00  0.00     0.025 A 
ATOM     13  C   UNL d   1       5.597   3.506 -12.303  0.00  0.00     0.002 A 
ATOM     14  C   UNL d   1       6.522   4.277 -13.013  0.00  0.00     0.000 A 
ATOM     15  C   UNL d   1       7.273   3.685 -14.032  0.00  0.00     0.005 A 
ATOM     16  C   UNL d   1       7.133   2.314 -14.388  0.00  0.00     0.057 A 
ENDROOT
BRANCH   1  17
ATOM     17  N   UNL d   1       9.255   2.306 -15.586  0.00  0.00    -0.330 N 
ATOM     18  C   UNL d   1       9.427   3.343 -16.603  0.00  0.00     0.138 C 
ATOM     19  C   UNL d   1      10.893   3.496 -17.003  0.00  0.00     0.274 C 
ATOM     20  N   UNL d   1      11.686   3.790 -15.810  0.00  0.00     0.143 N 
ATOM     21  C   UNL d   1      13.068   3.973 -16.210  0.00  0.00     0.286 C 
ATOM     22  C   UNL d   1      11.601   2.656 -14.885  0.00  0.00     0.274 C 
ATOM     23  C   UNL d   1      10.147   2.461 -14.440  0.00  0.00     0.138 C 
ENDBRANCH   1  17
TORSDOF 1
