REMARK  7 active torsions:
REMARK  status: ('A' for Active; 'I' for Inactive)
REMARK    1  A    between atoms: S_2  and  N_4 
REMARK    2  A    between atoms: S_2  and  C_22 
REMARK    3  A    between atoms: N_4  and  C_5 
REMARK    4  A    between atoms: N_8  and  C_9 
REMARK    5  A    between atoms: C_9  and  C_10 
REMARK    6  A    between atoms: C_10  and  C_11 
REMARK    7  A    between atoms: C_11  and  C_12 
ROOT
ATOM      1  C   UNL d   1       9.803   6.272  -9.805  0.00  0.00     0.151 C 
ATOM      2  C   UNL d   1       8.673   5.530  -9.104  0.00  0.00     0.063 C 
ATOM      3  C   UNL d   1       7.883   4.933 -10.275  0.00  0.00     0.252 C 
ATOM      4  N   UNL d   1       8.852   4.820 -11.352  0.00  0.00     0.139 N 
ATOM      5  C   UNL d   1       9.517   6.106 -11.293  0.00  0.00     0.275 C 
ENDROOT
BRANCH   1   6
ATOM      6  N   UNL d   1       9.845   7.692  -9.464  0.00  0.00    -0.184 NA
BRANCH   6   7
ATOM      7  S   UNL d   1      11.290   8.540  -9.158  0.00  0.00     0.287 S 
ATOM      8  O   UNL d   1      12.439   7.779  -9.670  0.00  0.00    -0.198 OA
ATOM      9  O   UNL d   1      11.067   9.931  -9.558  0.00  0.00    -0.198 OA
BRANCH   7  10
ATOM     10  C   UNL d   1      11.367   8.468  -7.381  0.00  0.00     0.134 A 
ATOM     11  S   UNL d   1      11.453   9.911  -6.406  0.00  0.00    -0.074 SA
ATOM     12  C   UNL d   1      11.591   8.949  -4.933  0.00  0.00     0.030 A 
ATOM     13  C   UNL d   1      11.480   7.552  -5.242  0.00  0.00     0.007 A 
ATOM     14  C   UNL d   1      11.781   9.405  -3.622  0.00  0.00     0.006 A 
ATOM     15  C   UNL d   1      11.339   7.304  -6.652  0.00  0.00     0.020 A 
ATOM     16  C   UNL d   1      11.612   6.662  -4.139  0.00  0.00     0.001 A 
ATOM     17  C   UNL d   1      11.825   7.113  -2.825  0.00  0.00     0.000 A 
ATOM     18  C   UNL d   1      11.912   8.490  -2.560  0.00  0.00     0.001 A 
ENDBRANCH   7  10
ENDBRANCH   6   7
ENDBRANCH   1   6
BRANCH   4  19
ATOM     19  C   UNL d   1       8.198   4.571 -12.640  0.00  0.00     0.251 C 
BRANCH  19  20
ATOM     20  C   UNL d   1       9.175   4.559 -13.838  0.00  0.00     0.042 C 
BRANCH  20  21
ATOM     21  C   UNL d   1      10.222   3.439 -13.725  0.00  0.00     0.050 C 
BRANCH  21  22
ATOM     22  C   UNL d   1      11.126   3.376 -14.917  0.00  0.00     0.088 A 
ATOM     23  C   UNL d   1      11.207   2.436 -15.963  0.00  0.00     0.041 A 
ATOM     24  C   UNL d   1      12.223   2.817 -16.839  0.00  0.00     0.126 A 
ATOM     25  C   UNL d   1      10.472   1.258 -16.215  0.00  0.00     0.003 A 
ATOM     26  O   UNL d   1      12.748   3.983 -16.303  0.00  0.00    -0.211 OA
ATOM     27  C   UNL d   1      12.554   2.077 -17.985  0.00  0.00     0.027 A 
ATOM     28  N   UNL d   1      12.061   4.311 -15.100  0.00  0.00    -0.131 NA
ATOM     29  C   UNL d   1      11.821   0.898 -18.239  0.00  0.00     0.002 A 
ATOM     30  C   UNL d   1      10.788   0.493 -17.359  0.00  0.00     0.000 A 
ENDBRANCH  21  22
ENDBRANCH  20  21
ENDBRANCH  19  20
ENDBRANCH   4  19
TORSDOF 7
