REMARK  7 active torsions:
REMARK  status: ('A' for Active; 'I' for Inactive)
REMARK    1  A    between atoms: C_2  and  N_4 
REMARK       I    between atoms: N_4  and  C_5 
REMARK    2  A    between atoms: N_4  and  C_31 
REMARK       I    between atoms: C_5  and  N_7 
REMARK    3  A    between atoms: N_7  and  C_8 
REMARK    4  A    between atoms: C_11  and  C_12 
REMARK    5  A    between atoms: C_12  and  C_13 
REMARK    6  A    between atoms: C_13  and  N_14 
REMARK    7  A    between atoms: N_17  and  C_18 
ROOT
ATOM      1  C   UNL d   1       8.594   4.817 -11.962  0.00  0.00     0.035 C 
ENDROOT
BRANCH   1   2
ATOM      2  C   UNL d   1       8.859   3.764 -13.050  0.00  0.00     0.002 C 
ATOM      3  C   UNL d   1       7.574   3.545 -13.864  0.00  0.00     0.002 C 
ATOM      4  C   UNL d   1       7.763   2.486 -14.953  0.00  0.00     0.025 C 
ATOM      5  C   UNL d   1       8.947   2.826 -15.870  0.00  0.00     0.108 C 
ATOM      6  C   UNL d   1      10.233   3.052 -15.059  0.00  0.00     0.025 C 
ATOM      7  C   UNL d   1      10.041   4.117 -13.971  0.00  0.00     0.002 C 
BRANCH   5   8
ATOM      8  N   UNL d   1       9.152   1.735 -16.810  0.00  0.00    -0.221 NA
ATOM      9  C   UNL d   1       8.748   1.722 -18.091  0.00  0.00     0.342 C 
ATOM     10  N   UNL d   1       9.179   0.661 -18.831  0.00  0.00    -0.305 N 
ATOM     11  O   UNL d   1       8.024   2.605 -18.535  0.00  0.00    -0.245 OA
BRANCH  10  12
ATOM     12  C   UNL d   1      10.302  -0.213 -18.404  0.00  0.00     0.086 C 
ATOM     13  C   UNL d   1       9.825  -1.228 -17.347  0.00  0.00     0.024 C 
ATOM     14  C   UNL d   1      11.583   0.565 -17.976  0.00  0.00     0.024 C 
ENDBRANCH  10  12
BRANCH  10  15
ATOM     15  C   UNL d   1       8.585   0.338 -20.166  0.00  0.00     0.086 C 
ATOM     16  C   UNL d   1       8.530   1.522 -21.165  0.00  0.00     0.024 C 
ATOM     17  C   UNL d   1       7.207  -0.343 -20.031  0.00  0.00     0.024 C 
ENDBRANCH  10  15
ENDBRANCH   5   8
ENDBRANCH   1   2
BRANCH   1  18
ATOM     18  C   UNL d   1       9.763   5.028 -11.023  0.00  0.00     0.250 C 
BRANCH  18  19
ATOM     19  N   UNL d   1       9.313   5.716  -9.816  0.00  0.00     0.141 N 
ATOM     20  C   UNL d   1       9.494   7.163 -10.001  0.00  0.00     0.274 C 
ATOM     21  C   UNL d   1       9.160   7.887  -8.680  0.00  0.00     0.138 C 
ATOM     22  N   UNL d   1       9.969   7.426  -7.584  0.00  0.00    -0.329 N 
ATOM     23  C   UNL d   1       9.909   5.998  -7.399  0.00  0.00     0.138 C 
ATOM     24  C   UNL d   1      10.206   5.348  -8.731  0.00  0.00     0.274 C 
BRANCH  22  25
ATOM     25  C   UNL d   1      10.638   8.323  -6.708  0.00  0.00     0.148 A 
ATOM     26  C   UNL d   1      11.106   7.982  -5.386  0.00  0.00     0.042 A 
ATOM     27  C   UNL d   1      11.788   9.111  -4.841  0.00  0.00     0.050 A 
ATOM     28  C   UNL d   1      11.065   6.838  -4.550  0.00  0.00     0.004 A 
ATOM     29  S   UNL d   1      11.736  10.390  -6.034  0.00  0.00     0.015 SA
ATOM     30  C   UNL d   1      12.389   9.117  -3.566  0.00  0.00     0.008 A 
ATOM     31  N   UNL d   1      10.871   9.526  -7.153  0.00  0.00    -0.192 NA
ATOM     32  C   UNL d   1      12.355   7.944  -2.795  0.00  0.00     0.001 A 
ATOM     33  C   UNL d   1      11.704   6.808  -3.293  0.00  0.00     0.000 A 
ENDBRANCH  22  25
ENDBRANCH  18  19
ENDBRANCH   1  18
TORSDOF 7
