REMARK  9 active torsions:
REMARK  status: ('A' for Active; 'I' for Inactive)
REMARK    1  A    between atoms: C_8  and  O_9 
REMARK    2  A    between atoms: O_9  and  C_10 
REMARK    3  A    between atoms: C_10  and  C_11 
REMARK    4  A    between atoms: C_11  and  C_12 
REMARK    5  A    between atoms: C_12  and  C_13 
REMARK    6  A    between atoms: C_13  and  N_14 
REMARK    7  A    between atoms: N_14  and  C_15 
REMARK    8  A    between atoms: C_15  and  C_16 
REMARK    9  A    between atoms: C_18  and  C_19 
ROOT
ATOM      1  C   UNL d   1       6.080   3.365 -12.569  0.00  0.00     0.041 C 
ENDROOT
BRANCH   1   2
ATOM      2  C   UNL d   1       5.307   2.353 -13.404  0.00  0.00     0.035 C 
BRANCH   2   3
ATOM      3  C   UNL d   1       5.679   0.867 -13.201  0.00  0.00     0.149 C 
BRANCH   3   4
ATOM      4  O   UNL d   1       4.805   0.019 -13.957  0.00  0.00    -0.331 OA
BRANCH   4   5
ATOM      5  C   UNL d   1       5.098  -0.258 -15.277  0.00  0.00     0.096 A 
ATOM      6  C   UNL d   1       6.161   0.377 -15.988  0.00  0.00     0.024 A 
ATOM      7  C   UNL d   1       6.462   0.007 -17.308  0.00  0.00    -0.001 A 
ATOM      8  C   UNL d   1       5.698  -0.973 -17.957  0.00  0.00    -0.004 A 
ATOM      9  C   UNL d   1       6.042  -1.414 -19.365  0.00  0.00     0.038 C 
ATOM     10  C   UNL d   1       4.613  -1.582 -17.289  0.00  0.00     0.082 A 
ATOM     11  C   UNL d   1       4.792  -1.882 -20.127  0.00  0.00     0.095 C 
ATOM     12  C   UNL d   1       3.906  -2.812 -19.282  0.00  0.00     0.256 C 
ATOM     13  O   UNL d   1       3.278  -3.712 -19.811  0.00  0.00    -0.270 OA
ATOM     14  N   UNL d   1       3.851  -2.571 -17.951  0.00  0.00    -0.212 NA
ATOM     15  C   UNL d   1       4.319  -1.226 -15.954  0.00  0.00     0.043 A 
ENDBRANCH   4   5
ENDBRANCH   3   4
ENDBRANCH   2   3
ENDBRANCH   1   2
BRANCH   1  16
ATOM     16  C   UNL d   1       6.208   4.748 -13.207  0.00  0.00     0.290 C 
BRANCH  16  17
ATOM     17  N   UNL d   1       7.047   5.553 -12.342  0.00  0.00     0.339 N 
BRANCH  17  18
ATOM     18  C   UNL d   1       7.772   6.562 -13.095  0.00  0.00     0.290 C 
BRANCH  18  19
ATOM     19  C   UNL d   1       8.470   7.488 -12.147  0.00  0.00     0.041 A 
ATOM     20  C   UNL d   1       9.819   7.098 -11.571  0.00  0.00     0.025 A 
ATOM     21  C   UNL d   1       9.710   8.219 -12.540  0.00  0.00     0.007 A 
BRANCH  20  22
ATOM     22  C   UNL d   1      10.237   7.442 -10.169  0.00  0.00    -0.011 A 
ATOM     23  C   UNL d   1       9.587   6.822  -9.086  0.00  0.00     0.064 A 
ATOM     24  C   UNL d   1       9.895   7.246  -7.778  0.00  0.00     0.068 A 
ATOM     25 CL   UNL d   1       8.488   5.524  -9.351  0.00  0.00    -0.082 Cl
ATOM     26  C   UNL d   1      10.909   8.170  -7.530  0.00  0.00     0.012 A 
ATOM     27 CL   UNL d   1       9.040   6.669  -6.429  0.00  0.00    -0.082 Cl
ATOM     28  C   UNL d   1      11.608   8.733  -8.602  0.00  0.00     0.001 A 
ATOM     29  C   UNL d   1      11.255   8.390  -9.925  0.00  0.00    -0.003 A 
ENDBRANCH  20  22
ENDBRANCH  18  19
ENDBRANCH  17  18
ENDBRANCH  16  17
ENDBRANCH   1  16
TORSDOF 9
