REMARK  8 active torsions:
REMARK  status: ('A' for Active; 'I' for Inactive)
REMARK    1  A    between atoms: C_3  and  S_4 
REMARK    2  A    between atoms: S_4  and  C_5 
REMARK    3  A    between atoms: C_5  and  C_6 
REMARK    4  A    between atoms: C_6  and  C_7 
REMARK    5  A    between atoms: C_7  and  N_8 
REMARK    6  A    between atoms: C_13  and  C_14 
REMARK    7  A    between atoms: C_17  and  C_18 
REMARK    8  A    between atoms: C_27  and  C_28 
ROOT
ATOM      1  N   UNL d   1      10.569   3.714 -15.773  0.00  0.00     0.137 N 
ATOM      2  C   UNL d   1      10.762   2.328 -16.155  0.00  0.00     0.250 C 
ATOM      3  C   UNL d   1      12.120   2.362 -16.814  0.00  0.00     0.038 C 
ATOM      4  C   UNL d   1      12.305   3.763 -17.324  0.00  0.00     0.037 A 
ATOM      5  C   UNL d   1      13.646   4.459 -17.238  0.00  0.00     0.007 A 
ATOM      6  C   UNL d   1      13.056   4.125 -18.587  0.00  0.00     0.024 A 
ATOM      7  C   UNL d   1      11.025   4.450 -16.938  0.00  0.00     0.251 C 
ENDROOT
BRANCH   1   8
ATOM      8  C   UNL d   1       9.179   4.025 -15.501  0.00  0.00     0.251 C 
BRANCH   8   9
ATOM      9  C   UNL d   1       8.792   3.691 -14.055  0.00  0.00     0.047 C 
BRANCH   9  10
ATOM     10  C   UNL d   1       7.351   4.149 -13.718  0.00  0.00     0.067 C 
BRANCH  10  11
ATOM     11  S   UNL d   1       6.962   4.198 -11.950  0.00  0.00    -0.075 SA
BRANCH  11  12
ATOM     12  C   UNL d   1       8.125   5.406 -11.395  0.00  0.00     0.193 A 
ATOM     13  N   UNL d   1       8.679   5.425 -10.165  0.00  0.00    -0.292 N 
ATOM     14  C   UNL d   1       8.465   4.553  -9.010  0.00  0.00     0.134 C 
ATOM     15  C   UNL d   1       9.488   6.498 -10.249  0.00  0.00     0.143 A 
ATOM     16  N   UNL d   1       9.444   7.116 -11.434  0.00  0.00    -0.133 NA
ATOM     17  N   UNL d   1       8.556   6.396 -12.188  0.00  0.00    -0.122 NA
BRANCH  15  18
ATOM     18  C   UNL d   1      10.278   7.030  -9.097  0.00  0.00     0.064 C 
ATOM     19  C   UNL d   1      11.560   7.747  -9.557  0.00  0.00     0.040 C 
ATOM     20  C   UNL d   1      12.322   8.303  -8.353  0.00  0.00     0.143 C 
ATOM     21  O   UNL d   1      11.482   9.189  -7.618  0.00  0.00    -0.354 OA
ATOM     22  C   UNL d   1      10.342   8.534  -7.076  0.00  0.00     0.143 C 
ATOM     23  C   UNL d   1       9.461   7.985  -8.210  0.00  0.00     0.040 C 
ENDBRANCH  15  18
ENDBRANCH  11  12
ENDBRANCH  10  11
ENDBRANCH   9  10
ENDBRANCH   8   9
ENDBRANCH   1   8
BRANCH   6  24
ATOM     24  C   UNL d   1      12.521   5.188 -19.492  0.00  0.00    -0.022 A 
ATOM     25  C   UNL d   1      13.114   6.476 -19.503  0.00  0.00    -0.004 A 
ATOM     26  C   UNL d   1      12.566   7.502 -20.274  0.00  0.00     0.004 A 
ATOM     27  C   UNL d   1      11.430   7.274 -21.078  0.00  0.00     0.071 A 
ATOM     28  C   UNL d   1      10.837   5.985 -21.069  0.00  0.00     0.004 A 
ATOM     29  C   UNL d   1      11.382   4.957 -20.291  0.00  0.00    -0.004 A 
BRANCH  27  30
ATOM     30  C   UNL d   1      10.852   8.390 -21.924  0.00  0.00     0.419 C 
ATOM     31  F   UNL d   1      11.831   9.151 -22.420  0.00  0.00    -0.166 F 
ATOM     32  F   UNL d   1      10.149   7.905 -22.948  0.00  0.00    -0.166 F 
ATOM     33  F   UNL d   1      10.048   9.148 -21.177  0.00  0.00    -0.166 F 
ENDBRANCH  27  30
ENDBRANCH   6  24
TORSDOF 8
