REMARK  9 active torsions:
REMARK  status: ('A' for Active; 'I' for Inactive)
REMARK    1  A    between atoms: C_3  and  S_4 
REMARK    2  A    between atoms: S_4  and  C_5 
REMARK    3  A    between atoms: C_5  and  C_6 
REMARK    4  A    between atoms: C_6  and  C_7 
REMARK    5  A    between atoms: C_7  and  N_8 
REMARK    6  A    between atoms: C_12  and  C_13 
REMARK    7  A    between atoms: C_16  and  C_17 
REMARK    8  A    between atoms: C_26  and  C_27 
REMARK    9  A    between atoms: C_31  and  C_32 
ROOT
ATOM      1  C   UNL d   1       9.842   2.446 -16.320  0.00  0.00     0.047 C 
ENDROOT
BRANCH   1   2
ATOM      2  C   UNL d   1       8.809   1.688 -15.435  0.00  0.00     0.067 C 
BRANCH   2   3
ATOM      3  S   UNL d   1       7.561   2.715 -14.584  0.00  0.00    -0.075 SA
BRANCH   3   4
ATOM      4  C   UNL d   1       8.559   3.687 -13.539  0.00  0.00     0.193 A 
ATOM      5  N   UNL d   1       8.051   4.251 -12.385  0.00  0.00    -0.289 N 
ATOM      6  C   UNL d   1       6.691   4.153 -11.887  0.00  0.00     0.134 C 
ATOM      7  C   UNL d   1       9.145   4.856 -11.874  0.00  0.00     0.167 A 
ATOM      8  N   UNL d   1      10.201   4.778 -12.690  0.00  0.00    -0.128 NA
ATOM      9  N   UNL d   1       9.836   3.973 -13.748  0.00  0.00    -0.122 NA
BRANCH   7  10
ATOM     10  C   UNL d   1       9.221   5.509 -10.576  0.00  0.00     0.036 A 
ATOM     11  C   UNL d   1      10.040   6.650 -10.423  0.00  0.00     0.008 A 
ATOM     12  C   UNL d   1      10.172   7.319  -9.194  0.00  0.00     0.059 A 
ATOM     13  C   UNL d   1       9.433   6.854  -8.081  0.00  0.00     0.005 A 
ATOM     14  C   UNL d   1       8.625   5.705  -8.220  0.00  0.00     0.000 A 
ATOM     15  C   UNL d   1       8.542   5.022  -9.443  0.00  0.00     0.003 A 
BRANCH  12  16
ATOM     16  C   UNL d   1      11.058   8.530  -9.060  0.00  0.00     0.297 C 
ATOM     17  N   UNL d   1      11.869   8.794 -10.092  0.00  0.00    -0.102 N 
ATOM     18  O   UNL d   1      11.066   9.201  -8.031  0.00  0.00    -0.264 OA
ENDBRANCH  12  16
ENDBRANCH   7  10
ENDBRANCH   3   4
ENDBRANCH   2   3
ENDBRANCH   1   2
BRANCH   1  19
ATOM     19  C   UNL d   1       9.209   3.103 -17.560  0.00  0.00     0.251 C 
BRANCH  19  20
ATOM     20  N   UNL d   1      10.066   4.151 -18.116  0.00  0.00     0.143 N 
ATOM     21  C   UNL d   1       9.266   5.123 -18.841  0.00  0.00     0.284 C 
ATOM     22  C   UNL d   1      10.096   6.233 -19.516  0.00  0.00     0.171 C 
ATOM     23  O   UNL d   1      11.093   5.624 -20.340  0.00  0.00    -0.348 OA
ATOM     24  C   UNL d   1      11.941   4.718 -19.627  0.00  0.00     0.178 C 
ATOM     25  C   UNL d   1      11.095   3.606 -18.985  0.00  0.00     0.282 C 
BRANCH  22  26
ATOM     26  C   UNL d   1       9.220   7.178 -20.344  0.00  0.00     0.007 A 
ATOM     27  C   UNL d   1       9.794   7.936 -21.392  0.00  0.00    -0.002 A 
ATOM     28  C   UNL d   1       8.994   8.793 -22.173  0.00  0.00     0.004 A 
ATOM     29  C   UNL d   1       7.612   8.922 -21.905  0.00  0.00     0.071 A 
ATOM     30  C   UNL d   1       7.040   8.170 -20.861  0.00  0.00     0.004 A 
ATOM     31  C   UNL d   1       7.835   7.319 -20.082  0.00  0.00    -0.002 A 
BRANCH  29  32
ATOM     32  C   UNL d   1       6.732   9.842 -22.729  0.00  0.00     0.419 C 
ATOM     33  F   UNL d   1       7.444  10.842 -23.252  0.00  0.00    -0.166 F 
ATOM     34  F   UNL d   1       6.172   9.139 -23.715  0.00  0.00    -0.166 F 
ATOM     35  F   UNL d   1       5.765  10.368 -21.972  0.00  0.00    -0.166 F 
ENDBRANCH  29  32
ENDBRANCH  22  26
ENDBRANCH  19  20
ENDBRANCH   1  19
TORSDOF 9
