REMARK  2 active torsions:
REMARK  status: ('A' for Active; 'I' for Inactive)
REMARK    1  A    between atoms: N_2  and  C_4 
REMARK    2  A    between atoms: C_4  and  C_5 
ROOT
ATOM      1  C   UNL d   1       9.436   2.310 -17.477  0.00  0.00     0.180 C 
ATOM      2  C   UNL d   1       9.608   0.794 -17.356  0.00  0.00     0.064 C 
ATOM      3  C   UNL d   1       8.490   0.421 -16.397  0.00  0.00     0.134 C 
ATOM      4  C   UNL d   1       7.150   0.046 -17.039  0.00  0.00    -0.003 A 
ATOM      5  C   UNL d   1       6.916   0.125 -18.433  0.00  0.00    -0.003 A 
ATOM      6  C   UNL d   1       5.675  -0.261 -18.973  0.00  0.00    -0.000 A 
ATOM      7  C   UNL d   1       4.654  -0.737 -18.130  0.00  0.00    -0.000 A 
ATOM      8  C   UNL d   1       4.872  -0.811 -16.743  0.00  0.00    -0.004 A 
ATOM      9  C   UNL d   1       6.112  -0.416 -16.199  0.00  0.00    -0.020 A 
ATOM     10  C   UNL d   1       6.320  -0.430 -14.700  0.00  0.00     0.054 C 
ATOM     11  C   UNL d   1       6.420   0.983 -14.166  0.00  0.00    -0.000 A 
ATOM     12  C   UNL d   1       5.447   1.400 -13.235  0.00  0.00    -0.002 A 
ATOM     13  C   UNL d   1       5.447   2.710 -12.732  0.00  0.00    -0.000 A 
ATOM     14  C   UNL d   1       6.446   3.613 -13.124  0.00  0.00     0.002 A 
ATOM     15  C   UNL d   1       7.429   3.203 -14.041  0.00  0.00     0.019 A 
ATOM     16  C   UNL d   1       7.426   1.900 -14.594  0.00  0.00     0.079 A 
ATOM     17  N   UNL d   1       8.448   1.580 -15.512  0.00  0.00    -0.237 N 
ATOM     18  O   UNL d   1       9.065   2.715 -16.165  0.00  0.00    -0.258 OA
ENDROOT
BRANCH   1  19
ATOM     19  C   UNL d   1      10.699   3.066 -17.930  0.00  0.00     0.282 C 
BRANCH  19  20
ATOM     20  N   UNL d   1      11.879   2.814 -17.101  0.00  0.00     0.144 N 
ATOM     21  C   UNL d   1      13.042   3.439 -17.722  0.00  0.00     0.286 C 
ATOM     22  C   UNL d   1      11.739   3.349 -15.752  0.00  0.00     0.286 C 
ENDBRANCH  19  20
ENDBRANCH   1  19
TORSDOF 2
