REMARK  12 active torsions:
REMARK  status: ('A' for Active; 'I' for Inactive)
REMARK    1  A    between atoms: C_2  and  O_3 
REMARK    2  A    between atoms: O_3  and  C_4 
REMARK    3  A    between atoms: C_10  and  C_11 
REMARK    4  A    between atoms: C_13  and  C_14 
REMARK    5  A    between atoms: C_14  and  N_15 
REMARK    6  A    between atoms: N_15  and  C_16 
REMARK    7  A    between atoms: N_15  and  C_18 
REMARK    8  A    between atoms: C_18  and  C_19 
REMARK    9  A    between atoms: C_19  and  C_20 
REMARK   10  A    between atoms: C_20  and  S_21 
REMARK   11  A    between atoms: S_21  and  C_22 
REMARK   12  A    between atoms: C_25  and  C_26 
ROOT
ATOM      1  N   UNL d   1      11.789   4.344 -14.976  0.00  0.00     0.137 N 
ENDROOT
BRANCH   1   2
ATOM      2  C   UNL d   1      12.480   4.874 -16.163  0.00  0.00     0.251 C 
BRANCH   2   3
ATOM      3  C   UNL d   1      11.561   5.027 -17.323  0.00  0.00     0.038 A 
ATOM      4  C   UNL d   1      12.016   5.519 -18.690  0.00  0.00     0.026 A 
ATOM      5  C   UNL d   1      11.682   4.097 -18.541  0.00  0.00     0.007 A 
BRANCH   4   6
ATOM      6  C   UNL d   1      11.079   6.413 -19.460  0.00  0.00     0.002 A 
ATOM      7  C   UNL d   1      11.595   7.490 -20.226  0.00  0.00     0.090 A 
ATOM      8  C   UNL d   1      10.709   8.335 -20.945  0.00  0.00     0.026 A 
ATOM      9  C   UNL d   1       9.324   8.065 -20.937  0.00  0.00     0.032 A 
ATOM     10  C   UNL d   1       8.794   7.018 -20.181  0.00  0.00     0.140 A 
ATOM     11  F   UNL d   1       7.458   6.786 -20.141  0.00  0.00    -0.204 F 
ATOM     12  C   UNL d   1       9.677   6.205 -19.433  0.00  0.00     0.027 A 
BRANCH   7  13
ATOM     13  O   UNL d   1      12.965   7.617 -20.247  0.00  0.00    -0.331 OA
BRANCH  13  14
ATOM     14  C   UNL d   1      13.552   8.687 -20.951  0.00  0.00     0.149 C 
ATOM     15  C   UNL d   1      13.412   8.485 -22.477  0.00  0.00     0.035 C 
ENDBRANCH  13  14
ENDBRANCH   7  13
ENDBRANCH   4   6
ENDBRANCH   2   3
ENDBRANCH   1   2
BRANCH   1  16
ATOM     16  C   UNL d   1      11.396   2.931 -15.115  0.00  0.00     0.250 C 
ATOM     17  C   UNL d   1      10.195   2.699 -16.110  0.00  0.00     0.037 C 
ENDBRANCH   1  16
BRANCH   1  18
ATOM     18  C   UNL d   1      10.689   5.226 -14.548  0.00  0.00     0.251 C 
BRANCH  18  19
ATOM     19  C   UNL d   1       9.989   4.721 -13.267  0.00  0.00     0.047 C 
BRANCH  19  20
ATOM     20  C   UNL d   1       8.752   5.547 -12.918  0.00  0.00     0.067 C 
BRANCH  20  21
ATOM     21  S   UNL d   1       8.230   5.215 -11.208  0.00  0.00    -0.075 SA
BRANCH  21  22
ATOM     22  C   UNL d   1       9.213   6.411 -10.359  0.00  0.00     0.193 A 
ATOM     23  N   UNL d   1       9.340   6.389  -9.002  0.00  0.00    -0.289 N 
ATOM     24  C   UNL d   1      10.164   7.448  -8.780  0.00  0.00     0.167 A 
ATOM     25  C   UNL d   1       8.734   5.465  -8.083  0.00  0.00     0.134 C 
ATOM     26  N   UNL d   1      10.481   8.099  -9.902  0.00  0.00    -0.128 NA
ATOM     27  N   UNL d   1       9.911   7.404 -10.921  0.00  0.00    -0.122 NA
BRANCH  24  28
ATOM     28  C   UNL d   1      10.685   7.884  -7.477  0.00  0.00     0.036 A 
ATOM     29  C   UNL d   1      10.879   6.964  -6.421  0.00  0.00     0.003 A 
ATOM     30  C   UNL d   1      11.336   7.397  -5.167  0.00  0.00     0.000 A 
ATOM     31  C   UNL d   1      11.650   8.751  -4.957  0.00  0.00     0.000 A 
ATOM     32  C   UNL d   1      11.501   9.672  -6.015  0.00  0.00     0.000 A 
ATOM     33  C   UNL d   1      11.018   9.233  -7.267  0.00  0.00     0.003 A 
ENDBRANCH  24  28
ENDBRANCH  21  22
ENDBRANCH  20  21
ENDBRANCH  19  20
ENDBRANCH  18  19
ENDBRANCH   1  18
TORSDOF 12
