REMARK  9 active torsions:
REMARK  status: ('A' for Active; 'I' for Inactive)
REMARK    1  A    between atoms: O_2  and  C_3 
REMARK    2  A    between atoms: C_8  and  N_9 
REMARK    3  A    between atoms: N_12  and  C_13 
REMARK    4  A    between atoms: C_13  and  C_14 
REMARK    5  A    between atoms: C_14  and  C_15 
REMARK    6  A    between atoms: C_15  and  C_16 
REMARK    7  A    between atoms: C_16  and  C_17 
REMARK    8  A    between atoms: C_17  and  N_18 
REMARK    9  A    between atoms: N_18  and  C_19 
ROOT
ATOM      1  N   UNL d   1      11.463   4.119 -16.527  0.00  0.00    -0.343 N 
ATOM      2  C   UNL d   1      10.244   4.900 -16.701  0.00  0.00     0.137 C 
ATOM      3  C   UNL d   1       9.507   5.001 -15.360  0.00  0.00     0.274 C 
ATOM      4  N   UNL d   1       9.248   3.667 -14.805  0.00  0.00     0.141 N 
ATOM      5  C   UNL d   1      10.517   2.952 -14.590  0.00  0.00     0.274 C 
ATOM      6  C   UNL d   1      11.296   2.810 -15.910  0.00  0.00     0.137 C 
ENDROOT
BRANCH   4   7
ATOM      7  C   UNL d   1       8.478   3.782 -13.569  0.00  0.00     0.250 C 
BRANCH   7   8
ATOM      8  C   UNL d   1       9.250   4.416 -12.396  0.00  0.00     0.035 C 
BRANCH   8   9
ATOM      9  C   UNL d   1       8.329   4.761 -11.234  0.00  0.00     0.004 C 
BRANCH   9  10
ATOM     10  C   UNL d   1       9.199   5.142 -10.046  0.00  0.00     0.027 C 
BRANCH  10  11
ATOM     11  C   UNL d   1       8.382   5.466  -8.789  0.00  0.00     0.145 C 
BRANCH  11  12
ATOM     12  N   UNL d   1       9.160   5.982  -7.667  0.00  0.00    -0.085 NA
BRANCH  12  13
ATOM     13  C   UNL d   1      10.015   7.067  -7.704  0.00  0.00     0.776 A 
ATOM     14  N   UNL d   1      10.391   7.538  -6.515  0.00  0.00     0.136 NA
ATOM     15  C   UNL d   1      11.290   8.524  -6.630  0.00  0.00     0.799 A 
ATOM     16  N   UNL d   1      11.843   9.009  -7.746  0.00  0.00     0.138 NA
ATOM     17  N   UNL d   1      11.695   9.132  -5.466  0.00  0.00     0.063 N 
ATOM     18  C   UNL d   1      11.354   8.415  -8.830  0.00  0.00     0.799 A 
ATOM     19  N   UNL d   1      10.439   7.479  -8.897  0.00  0.00     0.136 NA
ATOM     20  N   UNL d   1      11.876   8.791 -10.025  0.00  0.00     0.063 N 
ENDBRANCH  12  13
ENDBRANCH  11  12
ENDBRANCH  10  11
ENDBRANCH   9  10
ENDBRANCH   8   9
ENDBRANCH   7   8
ENDBRANCH   4   7
BRANCH   1  21
ATOM     21  C   UNL d   1      12.731   4.624 -16.861  0.00  0.00     0.079 A 
ATOM     22  C   UNL d   1      13.150   5.916 -16.448  0.00  0.00     0.110 A 
ATOM     23  C   UNL d   1      14.431   6.383 -16.843  0.00  0.00     0.026 A 
ATOM     24  C   UNL d   1      15.281   5.582 -17.624  0.00  0.00     0.002 A 
ATOM     25  C   UNL d   1      14.859   4.306 -18.026  0.00  0.00     0.002 A 
ATOM     26  C   UNL d   1      13.596   3.824 -17.639  0.00  0.00     0.019 A 
BRANCH  22  27
ATOM     27  O   UNL d   1      12.293   6.650 -15.656  0.00  0.00    -0.327 OA
ATOM     28  C   UNL d   1      12.660   7.973 -15.299  0.00  0.00     0.181 C 
ENDBRANCH  22  27
ENDBRANCH   1  21
TORSDOF 9
