REMARK  6 active torsions:
REMARK  status: ('A' for Active; 'I' for Inactive)
REMARK    1  A    between atoms: C_2  and  C_3 
REMARK    2  A    between atoms: C_2  and  C_19 
REMARK    3  A    between atoms: C_3  and  C_4 
REMARK    4  A    between atoms: C_4  and  C_5 
REMARK    5  A    between atoms: C_5  and  N_6 
REMARK    6  A    between atoms: N_9  and  C_10 
ROOT
ATOM      1  N   UNL d   1       8.800   5.256 -12.155  0.00  0.00     0.141 N 
ATOM      2  C   UNL d   1       9.437   4.234 -12.995  0.00  0.00     0.275 C 
ATOM      3  C   UNL d   1       8.520   3.862 -14.180  0.00  0.00     0.155 C 
ATOM      4  N   UNL d   1       7.213   3.410 -13.700  0.00  0.00    -0.179 N 
ATOM      5  C   UNL d   1       6.589   4.349 -12.772  0.00  0.00     0.155 C 
ATOM      6  C   UNL d   1       7.543   4.705 -11.636  0.00  0.00     0.275 C 
ENDROOT
BRANCH   1   7
ATOM      7  C   UNL d   1       9.721   5.598 -11.064  0.00  0.00     0.251 C 
BRANCH   7   8
ATOM      8  C   UNL d   1       9.171   6.666 -10.116  0.00  0.00     0.038 C 
BRANCH   8   9
ATOM      9  C   UNL d   1      10.033   6.904  -8.871  0.00  0.00     0.040 C 
BRANCH   9  10
ATOM     10  C   UNL d   1       9.225   7.499  -7.699  0.00  0.00     0.174 C 
ATOM     11  O   UNL d   1       8.269   6.553  -7.238  0.00  0.00    -0.219 OA
BRANCH  10  12
ATOM     12  C   UNL d   1      10.167   7.934  -6.590  0.00  0.00     0.008 A 
ATOM     13  C   UNL d   1      10.620   9.270  -6.538  0.00  0.00     0.001 A 
ATOM     14  C   UNL d   1      11.482   9.689  -5.511  0.00  0.00     0.029 A 
ATOM     15  C   UNL d   1      11.898   8.775  -4.527  0.00  0.00     0.140 A 
ATOM     16  C   UNL d   1      11.473   7.433  -4.583  0.00  0.00     0.029 A 
ATOM     17  F   UNL d   1      12.710   9.185  -3.525  0.00  0.00    -0.204 F 
ATOM     18  C   UNL d   1      10.618   7.014  -5.620  0.00  0.00     0.001 A 
ENDBRANCH  10  12
ENDBRANCH   9  10
ENDBRANCH   8   9
ENDBRANCH   7   8
ENDBRANCH   1   7
BRANCH   4  19
ATOM     19  C   UNL d   1       6.633   2.195 -14.056  0.00  0.00     0.728 A 
ATOM     20  N   UNL d   1       5.660   1.728 -13.265  0.00  0.00    -0.057 NA
ATOM     21  C   UNL d   1       5.080   0.557 -13.614  0.00  0.00     0.149 A 
ATOM     22  C   UNL d   1       5.472  -0.143 -14.762  0.00  0.00     0.179 A 
ATOM     23  C   UNL d   1       6.502   0.427 -15.524  0.00  0.00     0.149 A 
ATOM     24  F   UNL d   1       4.877  -1.306 -15.114  0.00  0.00    -0.201 F 
ATOM     25  N   UNL d   1       7.080   1.598 -15.166  0.00  0.00    -0.057 NA
ENDBRANCH   4  19
TORSDOF 6
