REMARK  9 active torsions:
REMARK  status: ('A' for Active; 'I' for Inactive)
REMARK    1  A    between atoms: C_2  and  C_5 
REMARK    2  A    between atoms: C_9  and  N_10 
REMARK    3  A    between atoms: N_13  and  C_14 
REMARK    4  A    between atoms: C_14  and  C_15 
REMARK    5  A    between atoms: C_15  and  C_16 
REMARK    6  A    between atoms: C_16  and  C_17 
REMARK    7  A    between atoms: C_17  and  N_18 
REMARK    8  A    between atoms: N_18  and  C_19 
REMARK    9  A    between atoms: C_22  and  C_23 
ROOT
ATOM      1  N   UNL d   1       7.356   0.203 -17.395  0.00  0.00    -0.344 N 
ATOM      2  C   UNL d   1       6.662   1.371 -16.886  0.00  0.00     0.137 C 
ATOM      3  C   UNL d   1       7.266   1.807 -15.545  0.00  0.00     0.274 C 
ATOM      4  N   UNL d   1       8.707   2.067 -15.686  0.00  0.00     0.141 N 
ATOM      5  C   UNL d   1       9.363   0.820 -16.110  0.00  0.00     0.274 C 
ATOM      6  C   UNL d   1       8.806   0.340 -17.466  0.00  0.00     0.137 C 
ENDROOT
BRANCH   4   7
ATOM      7  C   UNL d   1       9.274   2.492 -14.407  0.00  0.00     0.251 C 
BRANCH   7   8
ATOM      8  C   UNL d   1       8.861   3.934 -14.042  0.00  0.00     0.037 C 
BRANCH   8   9
ATOM      9  C   UNL d   1       9.548   4.433 -12.767  0.00  0.00     0.029 C 
BRANCH   9  10
ATOM     10  C   UNL d   1       9.092   5.850 -12.383  0.00  0.00     0.129 C 
BRANCH  10  11
ATOM     11  N   UNL d   1       9.853   6.390 -11.275  0.00  0.00    -0.231 NA
BRANCH  11  12
ATOM     12  C   UNL d   1       9.670   6.350  -9.910  0.00  0.00     0.270 A 
ATOM     13  O   UNL d   1      10.457   7.196  -9.198  0.00  0.00    -0.273 OA
ATOM     14  C   UNL d   1      10.056   6.983  -7.904  0.00  0.00     0.122 A 
ATOM     15  C   UNL d   1       9.058   6.038  -7.900  0.00  0.00     0.127 A 
ATOM     16  N   UNL d   1       8.841   5.599  -9.195  0.00  0.00    -0.202 NA
BRANCH  14  17
ATOM     17  C   UNL d   1      10.706   7.738  -6.838  0.00  0.00     0.024 A 
ATOM     18  C   UNL d   1      10.831   7.186  -5.545  0.00  0.00     0.002 A 
ATOM     19  C   UNL d   1      11.462   7.901  -4.509  0.00  0.00     0.000 A 
ATOM     20  C   UNL d   1      11.973   9.189  -4.755  0.00  0.00     0.000 A 
ATOM     21  C   UNL d   1      11.858   9.751  -6.039  0.00  0.00     0.000 A 
ATOM     22  C   UNL d   1      11.232   9.026  -7.076  0.00  0.00     0.002 A 
ENDBRANCH  14  17
ENDBRANCH  11  12
ENDBRANCH  10  11
ENDBRANCH   9  10
ENDBRANCH   8   9
ENDBRANCH   7   8
ENDBRANCH   4   7
BRANCH   1  23
ATOM     23  C   UNL d   1       6.672  -0.969 -17.771  0.00  0.00     0.056 A 
ATOM     24  C   UNL d   1       5.452  -1.338 -17.151  0.00  0.00     0.017 A 
ATOM     25  C   UNL d   1       4.779  -2.514 -17.532  0.00  0.00     0.001 A 
ATOM     26  C   UNL d   1       5.313  -3.345 -18.527  0.00  0.00     0.004 A 
ATOM     27  C   UNL d   1       6.518  -2.991 -19.167  0.00  0.00     0.073 A 
ATOM     28  C   UNL d   1       7.191  -1.809 -18.783  0.00  0.00     0.021 A 
BRANCH  27  29
ATOM     29  C   UNL d   1       7.098  -3.881 -20.252  0.00  0.00     0.419 C 
ATOM     30  F   UNL d   1       7.862  -3.189 -21.095  0.00  0.00    -0.166 F 
ATOM     31  F   UNL d   1       6.119  -4.449 -20.950  0.00  0.00    -0.166 F 
ATOM     32  F   UNL d   1       7.836  -4.833 -19.681  0.00  0.00    -0.166 F 
ENDBRANCH  27  29
ENDBRANCH   1  23
TORSDOF 9
