REMARK  5 active torsions:
REMARK  status: ('A' for Active; 'I' for Inactive)
REMARK    1  A    between atoms: C_2  and  C_4 
REMARK    2  A    between atoms: C_7  and  S_8 
REMARK    3  A    between atoms: S_8  and  N_11 
REMARK    4  A    between atoms: N_11  and  C_12 
REMARK    5  A    between atoms: C_15  and  C_16 
ROOT
ATOM      1  C   UNL d   1       9.072   5.968  -9.781  0.00  0.00     0.094 A 
ATOM      2  C   UNL d   1      10.233   6.715 -10.063  0.00  0.00     0.020 A 
ATOM      3  C   UNL d   1      11.015   7.246  -9.012  0.00  0.00    -0.003 A 
ATOM      4  C   UNL d   1      10.627   7.082  -7.683  0.00  0.00    -0.021 A 
ATOM      5  C   UNL d   1       9.434   6.381  -7.386  0.00  0.00    -0.003 A 
ATOM      6  C   UNL d   1       8.675   5.803  -8.427  0.00  0.00     0.020 A 
ENDROOT
BRANCH   1   7
ATOM      7  N   UNL d   1       8.329   5.376 -10.789  0.00  0.00    -0.158 NA
BRANCH   7   8
ATOM      8  S   UNL d   1       8.353   5.673 -12.510  0.00  0.00     0.285 S 
ATOM      9  O   UNL d   1       9.763   5.966 -12.867  0.00  0.00    -0.198 OA
ATOM     10  O   UNL d   1       7.282   6.639 -12.794  0.00  0.00    -0.198 OA
BRANCH   8  11
ATOM     11  C   UNL d   1       7.902   4.107 -13.191  0.00  0.00     0.105 A 
ATOM     12  C   UNL d   1       8.899   3.290 -13.754  0.00  0.00     0.013 A 
ATOM     13  C   UNL d   1       8.556   2.037 -14.290  0.00  0.00    -0.004 A 
ATOM     14  C   UNL d   1       7.216   1.597 -14.242  0.00  0.00    -0.022 A 
ATOM     15  C   UNL d   1       6.227   2.413 -13.641  0.00  0.00    -0.004 A 
ATOM     16  C   UNL d   1       6.561   3.687 -13.133  0.00  0.00     0.013 A 
BRANCH  14  17
ATOM     17  C   UNL d   1       6.853   0.219 -14.788  0.00  0.00     0.022 C 
ATOM     18  C   UNL d   1       5.862   0.341 -15.948  0.00  0.00     0.005 C 
ATOM     19  C   UNL d   1       6.329  -0.712 -13.683  0.00  0.00     0.005 C 
ENDBRANCH  14  17
ENDBRANCH   8  11
ENDBRANCH   7   8
ENDBRANCH   1   7
BRANCH   4  20
ATOM     20  C   UNL d   1      11.483   7.655  -6.580  0.00  0.00     0.052 A 
ATOM     21  C   UNL d   1      11.006   8.927  -5.935  0.00  0.00     0.039 A 
ATOM     22  C   UNL d   1      12.204   8.982  -6.820  0.00  0.00     0.008 A 
ATOM     23  C   UNL d   1      11.124   8.707  -4.457  0.00  0.00     0.251 C 
ATOM     24  N   UNL d   1      11.068   7.248  -4.313  0.00  0.00     0.139 N 
ATOM     25  C   UNL d   1      11.614   6.809  -3.023  0.00  0.00     0.285 C 
ATOM     26  C   UNL d   1      11.722   6.669  -5.460  0.00  0.00     0.254 C 
ENDBRANCH   4  20
TORSDOF 5
