REMARK  8 active torsions:
REMARK  status: ('A' for Active; 'I' for Inactive)
REMARK    1  A    between atoms: C_2  and  C_4 
REMARK    2  A    between atoms: C_9  and  O_10 
REMARK    3  A    between atoms: O_10  and  C_11 
REMARK    4  A    between atoms: C_11  and  C_12 
REMARK    5  A    between atoms: C_12  and  N_13 
REMARK    6  A    between atoms: C_16  and  N_17 
REMARK    7  A    between atoms: N_17  and  S_19 
REMARK    8  A    between atoms: S_19  and  C_22 
ROOT
ATOM      1  N   UNL d   1       9.685   6.284 -11.604  0.00  0.00     0.140 N 
ATOM      2  C   UNL d   1       9.444   5.555 -10.355  0.00  0.00     0.252 C 
ATOM      3  C   UNL d   1      10.330   6.136  -9.256  0.00  0.00     0.058 C 
ATOM      4  C   UNL d   1      10.075   7.593  -8.986  0.00  0.00     0.096 C 
ATOM      5  C   UNL d   1      10.168   8.358 -10.318  0.00  0.00     0.058 C 
ATOM      6  C   UNL d   1       9.334   7.694 -11.438  0.00  0.00     0.252 C 
ENDROOT
BRANCH   1   7
ATOM      7  C   UNL d   1       8.809   5.771 -12.639  0.00  0.00     0.283 C 
BRANCH   7   8
ATOM      8  C   UNL d   1       9.334   4.480 -13.266  0.00  0.00     0.184 C 
BRANCH   8   9
ATOM      9  O   UNL d   1       8.480   4.081 -14.329  0.00  0.00    -0.329 OA
BRANCH   9  10
ATOM     10  C   UNL d   1       7.527   3.130 -14.047  0.00  0.00     0.090 A 
ATOM     11  C   UNL d   1       7.571   1.861 -14.683  0.00  0.00    -0.000 A 
ATOM     12  C   UNL d   1       6.553   0.914 -14.421  0.00  0.00    -0.002 A 
ATOM     13  C   UNL d   1       5.506   1.211 -13.521  0.00  0.00    -0.000 A 
ATOM     14  C   UNL d   1       5.465   2.463 -12.891  0.00  0.00     0.002 A 
ATOM     15  C   UNL d   1       6.459   3.422 -13.166  0.00  0.00     0.024 A 
BRANCH  11  16
ATOM     16  C   UNL d   1       8.687   1.492 -15.650  0.00  0.00     0.024 C 
ATOM     17  C   UNL d   1      10.062   1.441 -14.961  0.00  0.00     0.005 C 
ATOM     18  C   UNL d   1       8.688   2.386 -16.902  0.00  0.00     0.005 C 
ENDBRANCH  11  16
ENDBRANCH   9  10
ENDBRANCH   8   9
ENDBRANCH   7   8
ENDBRANCH   1   7
BRANCH   4  19
ATOM     19  N   UNL d   1      11.076   8.068  -7.981  0.00  0.00    -0.274 N 
ATOM     20  C   UNL d   1      12.447   8.351  -8.449  0.00  0.00     0.138 C 
BRANCH  19  21
ATOM     21  S   UNL d   1      10.528   9.031  -6.646  0.00  0.00     0.264 S 
ATOM     22  O   UNL d   1      11.126  10.370  -6.826  0.00  0.00    -0.200 OA
ATOM     23  O   UNL d   1       9.085   8.791  -6.487  0.00  0.00    -0.200 OA
BRANCH  21  24
ATOM     24  C   UNL d   1      11.274   8.328  -5.231  0.00  0.00     0.103 A 
ATOM     25  C   UNL d   1      11.420   6.940  -5.170  0.00  0.00     0.013 A 
ATOM     26  C   UNL d   1      12.041   6.417  -4.037  0.00  0.00     0.001 A 
ATOM     27  C   UNL d   1      12.506   7.229  -2.994  0.00  0.00     0.000 A 
ATOM     28  C   UNL d   1      12.335   8.631  -3.071  0.00  0.00     0.001 A 
ATOM     29  C   UNL d   1      11.706   9.175  -4.201  0.00  0.00     0.013 A 
ENDBRANCH  21  24
ENDBRANCH  19  21
ENDBRANCH   4  19
TORSDOF 8
