REMARK  8 active torsions:
REMARK  status: ('A' for Active; 'I' for Inactive)
REMARK    1  A    between atoms: S_2  and  N_4 
REMARK    2  A    between atoms: S_2  and  C_25 
REMARK    3  A    between atoms: N_4  and  C_5 
REMARK    4  A    between atoms: C_5  and  C_6 
REMARK    5  A    between atoms: C_6  and  C_7 
REMARK    6  A    between atoms: C_7  and  C_8 
REMARK    7  A    between atoms: C_8  and  N_9 
REMARK    8  A    between atoms: C_12  and  C_13 
ROOT
ATOM      1  C   UNL d   1       9.433   5.312 -12.967  0.00  0.00     0.250 C 
ENDROOT
BRANCH   1   2
ATOM      2  C   UNL d   1       9.279   5.747 -11.507  0.00  0.00     0.037 C 
BRANCH   2   3
ATOM      3  C   UNL d   1       9.483   7.265 -11.328  0.00  0.00     0.029 C 
BRANCH   3   4
ATOM      4  C   UNL d   1      10.085   7.625  -9.968  0.00  0.00     0.139 C 
BRANCH   4   5
ATOM      5  N   UNL d   1       9.152   7.315  -8.886  0.00  0.00    -0.185 NA
BRANCH   5   6
ATOM      6  S   UNL d   1       9.673   6.693  -7.395  0.00  0.00     0.282 S 
ATOM      7  O   UNL d   1       8.494   6.388  -6.603  0.00  0.00    -0.199 OA
ATOM      8  O   UNL d   1      10.677   5.663  -7.683  0.00  0.00    -0.199 OA
BRANCH   6   9
ATOM      9  C   UNL d   1      10.516   8.025  -6.617  0.00  0.00     0.112 A 
ATOM     10  C   UNL d   1      11.137   7.863  -5.327  0.00  0.00     0.019 A 
ATOM     11  C   UNL d   1      11.799   9.065  -4.910  0.00  0.00     0.030 A 
ATOM     12  C   UNL d   1      11.211   6.777  -4.429  0.00  0.00     0.001 A 
ATOM     13  S   UNL d   1      11.590  10.339  -6.096  0.00  0.00    -0.086 SA
ATOM     14  C   UNL d   1      12.484   9.150  -3.697  0.00  0.00     0.006 A 
ATOM     15  C   UNL d   1      10.677   9.281  -7.122  0.00  0.00     0.048 A 
ATOM     16  C   UNL d   1      12.518   8.055  -2.822  0.00  0.00     0.001 A 
ATOM     17  C   UNL d   1      11.872   6.861  -3.187  0.00  0.00     0.000 A 
ENDBRANCH   6   9
ENDBRANCH   5   6
ENDBRANCH   4   5
ENDBRANCH   3   4
ENDBRANCH   2   3
ENDBRANCH   1   2
BRANCH   1  18
ATOM     18  N   UNL d   1       8.754   4.044 -13.200  0.00  0.00     0.137 N 
ATOM     19  C   UNL d   1       7.358   4.348 -13.528  0.00  0.00     0.251 C 
ATOM     20  C   UNL d   1       6.526   3.083 -13.749  0.00  0.00     0.041 C 
ATOM     21  C   UNL d   1       7.168   2.159 -14.804  0.00  0.00     0.047 C 
ATOM     22  C   UNL d   1       8.667   1.974 -14.520  0.00  0.00     0.041 C 
ATOM     23  C   UNL d   1       9.374   3.319 -14.311  0.00  0.00     0.251 C 
BRANCH  21  24
ATOM     24  C   UNL d   1       6.446   0.845 -14.915  0.00  0.00     0.087 A 
ATOM     25  C   UNL d   1       5.888   0.195 -16.039  0.00  0.00     0.041 A 
ATOM     26  C   UNL d   1       5.315  -1.013 -15.630  0.00  0.00     0.129 A 
ATOM     27  C   UNL d   1       5.829   0.562 -17.404  0.00  0.00     0.006 A 
ATOM     28  O   UNL d   1       5.541  -1.084 -14.271  0.00  0.00    -0.211 OA
ATOM     29  C   UNL d   1       4.675  -1.892 -16.511  0.00  0.00     0.057 A 
ATOM     30  N   UNL d   1       6.253   0.070 -13.838  0.00  0.00    -0.131 NA
ATOM     31  C   UNL d   1       4.613  -1.527 -17.871  0.00  0.00     0.142 A 
ATOM     32  F   UNL d   1       4.001  -2.346 -18.765  0.00  0.00    -0.204 F 
ATOM     33  C   UNL d   1       5.183  -0.305 -18.315  0.00  0.00     0.030 A 
ENDBRANCH  21  24
ENDBRANCH   1  18
TORSDOF 8
