REMARK  8 active torsions:
REMARK  status: ('A' for Active; 'I' for Inactive)
REMARK    1  A    between atoms: C_2  and  C_5 
REMARK    2  A    between atoms: C_7  and  N_8 
REMARK    3  A    between atoms: N_11  and  C_12 
REMARK    4  A    between atoms: C_12  and  C_13 
REMARK    5  A    between atoms: C_13  and  C_14 
REMARK    6  A    between atoms: C_14  and  C_15 
REMARK    7  A    between atoms: C_15  and  N_16 
REMARK    8  A    between atoms: C_30  and  C_31 
ROOT
ATOM      1  N   UNL d   1       8.796   4.864 -13.719  0.00  0.00    -0.330 N 
ATOM      2  C   UNL d   1       7.619   4.337 -13.017  0.00  0.00     0.138 C 
ATOM      3  C   UNL d   1       7.873   4.353 -11.496  0.00  0.00     0.274 C 
ATOM      4  N   UNL d   1       8.248   5.678 -11.015  0.00  0.00     0.141 N 
ATOM      5  C   UNL d   1       9.459   6.084 -11.717  0.00  0.00     0.274 C 
ATOM      6  C   UNL d   1       9.238   6.148 -13.207  0.00  0.00     0.138 C 
ENDROOT
BRANCH   4   7
ATOM      7  C   UNL d   1       8.426   5.612  -9.559  0.00  0.00     0.251 C 
BRANCH   7   8
ATOM      8  C   UNL d   1       9.432   6.640  -9.014  0.00  0.00     0.037 C 
BRANCH   8   9
ATOM      9  C   UNL d   1       9.460   6.765  -7.497  0.00  0.00     0.027 C 
BRANCH   9  10
ATOM     10  C   UNL d   1      10.907   6.740  -6.945  0.00  0.00     0.109 C 
BRANCH  10  11
ATOM     11  N   UNL d   1      11.262   7.976  -6.248  0.00  0.00    -0.295 N 
ATOM     12  C   UNL d   1      11.577   7.968  -4.855  0.00  0.00     0.085 A 
ATOM     13  C   UNL d   1      11.600   9.210  -4.176  0.00  0.00     0.110 A 
ATOM     14  C   UNL d   1      11.862   6.786  -4.128  0.00  0.00     0.019 A 
ATOM     15  O   UNL d   1      11.326  10.373  -4.859  0.00  0.00    -0.319 OA
ATOM     16  C   UNL d   1      11.870   9.256  -2.795  0.00  0.00     0.026 A 
ATOM     17  C   UNL d   1      11.786  10.387  -6.213  0.00  0.00     0.236 C 
ATOM     18  C   UNL d   1      11.346   9.126  -6.961  0.00  0.00     0.268 C 
ATOM     19  O   UNL d   1      11.121   9.201  -8.168  0.00  0.00    -0.269 OA
ATOM     20  C   UNL d   1      12.142   8.072  -2.083  0.00  0.00     0.002 A 
ATOM     21  C   UNL d   1      12.127   6.835  -2.750  0.00  0.00     0.002 A 
ENDBRANCH  10  11
ENDBRANCH   9  10
ENDBRANCH   8   9
ENDBRANCH   7   8
ENDBRANCH   4   7
BRANCH   1  22
ATOM     22  C   UNL d   1       9.472   4.192 -14.742  0.00  0.00     0.143 A 
ATOM     23  N   UNL d   1       9.067   2.939 -15.040  0.00  0.00    -0.214 NA
ATOM     24  C   UNL d   1       9.644   2.292 -16.045  0.00  0.00     0.140 A 
ATOM     25  N   UNL d   1      10.679   2.752 -16.753  0.00  0.00    -0.227 NA
ATOM     26  C   UNL d   1      11.119   3.998 -16.484  0.00  0.00     0.157 A 
ATOM     27  C   UNL d   1      10.534   4.780 -15.477  0.00  0.00     0.060 A 
BRANCH  24  28
ATOM     28  C   UNL d   1       9.226   0.831 -16.273  0.00  0.00     0.052 C 
ATOM     29  C   UNL d   1      10.198  -0.098 -15.539  0.00  0.00     0.008 C 
ATOM     30  C   UNL d   1       9.228   0.515 -17.788  0.00  0.00     0.008 C 
ATOM     31  C   UNL d   1       7.792   0.563 -15.752  0.00  0.00     0.008 C 
ENDBRANCH  24  28
BRANCH  26  32
ATOM     32  C   UNL d   1      12.269   4.533 -17.328  0.00  0.00     0.435 C 
ATOM     33  F   UNL d   1      12.677   5.726 -16.892  0.00  0.00    -0.165 F 
ATOM     34  F   UNL d   1      13.302   3.692 -17.267  0.00  0.00    -0.165 F 
ATOM     35  F   UNL d   1      11.880   4.661 -18.598  0.00  0.00    -0.165 F 
ENDBRANCH  26  32
ENDBRANCH   1  22
TORSDOF 8
