REMARK  4 active torsions:
REMARK  status: ('A' for Active; 'I' for Inactive)
REMARK    1  A    between atoms: C_2  and  C_3 
REMARK    2  A    between atoms: N_11  and  C_12 
REMARK    3  A    between atoms: C_12  and  C_13 
REMARK    4  A    between atoms: C_13  and  C_14 
ROOT
ATOM      1  C   UNL d   1      10.145   7.795  -9.618  0.00  0.00     0.005 C 
ATOM      2  C   UNL d   1      10.161   7.175  -8.431  0.00  0.00    -0.022 C 
ATOM      3  C   UNL d   1       9.535   5.785  -8.340  0.00  0.00     0.061 C 
ATOM      4  C   UNL d   1       8.639   5.437  -9.542  0.00  0.00     0.255 C 
ATOM      5  N   UNL d   1       9.346   5.742 -10.780  0.00  0.00     0.142 N 
ATOM      6  C   UNL d   1       9.565   7.183 -10.873  0.00  0.00     0.276 C 
ENDROOT
BRANCH   5   7
ATOM      7  C   UNL d   1       8.546   5.263 -11.909  0.00  0.00     0.255 C 
BRANCH   7   8
ATOM      8  C   UNL d   1       9.277   5.424 -13.259  0.00  0.00     0.063 C 
BRANCH   8   9
ATOM      9  C   UNL d   1       9.745   4.125 -13.821  0.00  0.00     0.002 A 
ATOM     10  C   UNL d   1       8.925   3.020 -14.220  0.00  0.00     0.034 A 
ATOM     11  C   UNL d   1       9.777   1.980 -14.690  0.00  0.00     0.162 A 
ATOM     12  C   UNL d   1       7.544   2.741 -14.243  0.00  0.00     0.004 A 
ATOM     13  N   UNL d   1      11.059   2.467 -14.581  0.00  0.00    -0.226 NA
ATOM     14  N   UNL d   1       9.402   0.756 -15.159  0.00  0.00    -0.225 NA
ATOM     15  C   UNL d   1      11.046   3.748 -14.054  0.00  0.00     0.097 A 
ATOM     16  C   UNL d   1       8.068   0.548 -15.156  0.00  0.00     0.101 A 
ATOM     17  C   UNL d   1       7.105   1.487 -14.717  0.00  0.00     0.021 A 
ENDBRANCH   8   9
ENDBRANCH   7   8
ENDBRANCH   5   7
BRANCH   2  18
ATOM     18  C   UNL d   1      10.750   7.812  -7.213  0.00  0.00    -0.004 A 
ATOM     19  C   UNL d   1      10.927   7.053  -6.035  0.00  0.00    -0.000 A 
ATOM     20  C   UNL d   1      11.457   7.639  -4.864  0.00  0.00    -0.000 A 
ATOM     21  C   UNL d   1      11.863   8.988  -4.872  0.00  0.00    -0.000 A 
ATOM     22  C   UNL d   1      11.715   9.749  -6.041  0.00  0.00    -0.000 A 
ATOM     23  C   UNL d   1      11.167   9.174  -7.205  0.00  0.00    -0.000 A 
ENDBRANCH   2  18
TORSDOF 4
