REMARK  6 active torsions:
REMARK  status: ('A' for Active; 'I' for Inactive)
REMARK    1  A    between atoms: S_2  and  C_4 
REMARK    2  A    between atoms: S_2  and  N_14 
REMARK    3  A    between atoms: C_18  and  C_19 
REMARK    4  A    between atoms: C_19  and  C_20 
REMARK    5  A    between atoms: C_20  and  N_21 
REMARK    6  A    between atoms: N_24  and  C_25 
ROOT
ATOM      1  N   UNL d   1       9.608   0.874 -17.140  0.00  0.00    -0.276 N 
ATOM      2  C   UNL d   1      10.922   0.745 -16.475  0.00  0.00     0.113 C 
ATOM      3  C   UNL d   1      10.584   0.021 -15.186  0.00  0.00     0.027 C 
ATOM      4  C   UNL d   1       9.232   0.574 -14.757  0.00  0.00     0.025 C 
ATOM      5  C   UNL d   1       8.553   0.983 -16.098  0.00  0.00     0.094 C 
ENDROOT
BRANCH   5   6
ATOM      6  C   UNL d   1       7.962   2.404 -16.110  0.00  0.00     0.058 C 
BRANCH   6   7
ATOM      7  C   UNL d   1       7.021   2.636 -14.896  0.00  0.00     0.252 C 
BRANCH   7   8
ATOM      8  N   UNL d   1       7.663   3.158 -13.680  0.00  0.00     0.141 N 
ATOM      9  C   UNL d   1       6.739   4.047 -12.950  0.00  0.00     0.274 C 
ATOM     10  C   UNL d   1       7.360   4.509 -11.614  0.00  0.00     0.138 C 
ATOM     11  N   UNL d   1       8.703   5.054 -11.812  0.00  0.00    -0.329 N 
ATOM     12  C   UNL d   1       9.597   4.241 -12.618  0.00  0.00     0.138 C 
ATOM     13  C   UNL d   1       8.922   3.877 -13.933  0.00  0.00     0.274 C 
BRANCH  11  14
ATOM     14  C   UNL d   1       9.063   6.322 -11.381  0.00  0.00     0.148 A 
ATOM     15  C   UNL d   1       9.577   6.559 -10.061  0.00  0.00     0.042 A 
ATOM     16  C   UNL d   1       9.872   7.931  -9.902  0.00  0.00     0.050 A 
ATOM     17  C   UNL d   1       9.812   5.712  -8.941  0.00  0.00     0.004 A 
ATOM     18  S   UNL d   1       9.445   8.715 -11.402  0.00  0.00     0.015 SA
ATOM     19  C   UNL d   1      10.337   8.480  -8.690  0.00  0.00     0.008 A 
ATOM     20  N   UNL d   1       9.004   7.356 -12.214  0.00  0.00    -0.192 NA
ATOM     21  C   UNL d   1      10.546   7.614  -7.590  0.00  0.00     0.001 A 
ATOM     22  C   UNL d   1      10.289   6.237  -7.726  0.00  0.00     0.000 A 
ENDBRANCH  11  14
ENDBRANCH   7   8
ENDBRANCH   6   7
ENDBRANCH   5   6
BRANCH   1  23
ATOM     23  S   UNL d   1       9.217   0.014 -18.627  0.00  0.00     0.264 S 
ATOM     24  O   UNL d   1       7.753  -0.015 -18.764  0.00  0.00    -0.200 OA
ATOM     25  O   UNL d   1       9.945  -1.265 -18.569  0.00  0.00    -0.200 OA
BRANCH  23  26
ATOM     26  C   UNL d   1       9.853   1.039 -19.993  0.00  0.00     0.105 A 
ATOM     27  C   UNL d   1      11.252   1.213 -20.207  0.00  0.00     0.030 A 
ATOM     28  C   UNL d   1      11.710   2.054 -21.286  0.00  0.00     0.082 A 
ATOM     29  C   UNL d   1      12.219   0.559 -19.433  0.00  0.00     0.004 A 
ATOM     30  C   UNL d   1      10.748   2.634 -22.140  0.00  0.00     0.019 A 
ATOM     31  N   UNL d   1      13.028   2.265 -21.529  0.00  0.00    -0.244 NA
ATOM     32  C   UNL d   1       9.366   2.434 -21.940  0.00  0.00     0.002 A 
ATOM     33  C   UNL d   1       8.919   1.649 -20.860  0.00  0.00     0.013 A 
ATOM     34  C   UNL d   1      13.938   1.710 -20.699  0.00  0.00     0.099 A 
ATOM     35  C   UNL d   1      13.569   0.854 -19.621  0.00  0.00     0.021 A 
ENDBRANCH  23  26
ENDBRANCH   1  23
TORSDOF 6
