REMARK  8 active torsions:
REMARK  status: ('A' for Active; 'I' for Inactive)
REMARK    1  A    between atoms: C_2  and  C_4 
REMARK    2  A    between atoms: C_9  and  O_10 
REMARK    3  A    between atoms: O_10  and  C_11 
REMARK    4  A    between atoms: C_11  and  C_12 
REMARK    5  A    between atoms: C_12  and  N_13 
REMARK    6  A    between atoms: C_16  and  N_17 
REMARK    7  A    between atoms: N_17  and  S_18 
REMARK    8  A    between atoms: S_18  and  C_21 
ROOT
ATOM      1  N   UNL d   1       9.841   6.278 -11.499  0.00  0.00     0.142 N 
ATOM      2  C   UNL d   1       9.493   7.668 -11.759  0.00  0.00     0.253 C 
ATOM      3  C   UNL d   1      10.342   8.417 -10.735  0.00  0.00     0.063 C 
ATOM      4  C   UNL d   1      10.585   7.401  -9.628  0.00  0.00     0.151 C 
ATOM      5  C   UNL d   1       9.812   6.160 -10.058  0.00  0.00     0.275 C 
ENDROOT
BRANCH   4   6
ATOM      6  N   UNL d   1      10.072   7.900  -8.367  0.00  0.00    -0.185 NA
BRANCH   6   7
ATOM      7  S   UNL d   1      10.293   6.970  -6.940  0.00  0.00     0.283 S 
ATOM      8  O   UNL d   1       8.999   6.405  -6.606  0.00  0.00    -0.199 OA
ATOM      9  O   UNL d   1      11.463   6.111  -7.175  0.00  0.00    -0.199 OA
BRANCH   7  10
ATOM     10  C   UNL d   1      10.763   8.185  -5.729  0.00  0.00     0.122 A 
ATOM     11  C   UNL d   1      11.433   7.828  -4.532  0.00  0.00     0.094 A 
ATOM     12  C   UNL d   1      11.684   8.843  -3.568  0.00  0.00     0.018 A 
ATOM     13  N   UNL d   1      11.749   6.567  -4.228  0.00  0.00    -0.243 NA
ATOM     14  C   UNL d   1      11.302  10.136  -3.818  0.00  0.00     0.002 A 
ATOM     15  C   UNL d   1      12.265   8.584  -2.317  0.00  0.00     0.003 A 
ATOM     16  C   UNL d   1      10.687  10.483  -5.020  0.00  0.00     0.001 A 
ATOM     17  C   UNL d   1      10.422   9.516  -5.985  0.00  0.00     0.015 A 
ATOM     18  C   UNL d   1      12.562   7.259  -2.037  0.00  0.00     0.021 A 
ATOM     19  C   UNL d   1      12.268   6.323  -3.016  0.00  0.00     0.099 A 
ENDBRANCH   7  10
ENDBRANCH   6   7
ENDBRANCH   4   6
BRANCH   1  20
ATOM     20  C   UNL d   1       8.896   5.349 -12.072  0.00  0.00     0.283 C 
BRANCH  20  21
ATOM     21  C   UNL d   1       8.827   5.430 -13.611  0.00  0.00     0.184 C 
BRANCH  21  22
ATOM     22  O   UNL d   1       8.664   4.168 -14.241  0.00  0.00    -0.329 OA
BRANCH  22  23
ATOM     23  C   UNL d   1       7.573   3.373 -13.959  0.00  0.00     0.090 A 
ATOM     24  C   UNL d   1       7.527   2.080 -14.534  0.00  0.00    -0.000 A 
ATOM     25  C   UNL d   1       6.457   1.204 -14.211  0.00  0.00    -0.002 A 
ATOM     26  C   UNL d   1       5.458   1.589 -13.292  0.00  0.00    -0.000 A 
ATOM     27  C   UNL d   1       5.500   2.879 -12.744  0.00  0.00     0.002 A 
ATOM     28  C   UNL d   1       6.518   3.795 -13.088  0.00  0.00     0.024 A 
BRANCH  24  29
ATOM     29  C   UNL d   1       8.601   1.618 -15.519  0.00  0.00     0.024 C 
ATOM     30  C   UNL d   1       7.995   1.370 -16.913  0.00  0.00     0.005 C 
ATOM     31  C   UNL d   1       9.356   0.380 -15.005  0.00  0.00     0.005 C 
ENDBRANCH  24  29
ENDBRANCH  22  23
ENDBRANCH  21  22
ENDBRANCH  20  21
ENDBRANCH   1  20
TORSDOF 8
