REMARK  7 active torsions:
REMARK  status: ('A' for Active; 'I' for Inactive)
REMARK    1  A    between atoms: C_6  and  N_7 
REMARK    2  A    between atoms: N_11  and  C_12 
REMARK    3  A    between atoms: C_12  and  C_13 
REMARK    4  A    between atoms: C_13  and  C_14 
REMARK    5  A    between atoms: C_14  and  C_15 
REMARK    6  A    between atoms: C_15  and  O_16 
REMARK    7  A    between atoms: O_16  and  C_17 
ROOT
ATOM      1  N   UNL d   1       7.037   3.912 -12.955  0.00  0.00    -0.346 N 
ATOM      2  C   UNL d   1       6.887   5.178 -13.578  0.00  0.00     0.103 C 
ATOM      3  C   UNL d   1       6.999   6.409 -12.635  0.00  0.00     0.059 C 
ATOM      4  C   UNL d   1       8.306   6.462 -11.831  0.00  0.00     0.252 C 
ATOM      5  N   UNL d   1       8.159   5.801 -10.540  0.00  0.00     0.139 N 
ATOM      6  C   UNL d   1       8.027   4.390 -10.764  0.00  0.00     0.274 C 
ATOM      7  C   UNL d   1       6.783   3.856 -11.525  0.00  0.00     0.137 C 
ENDROOT
BRANCH   5   8
ATOM      8  C   UNL d   1       9.318   6.017  -9.667  0.00  0.00     0.250 C 
BRANCH   8   9
ATOM      9  C   UNL d   1       9.091   7.284  -8.842  0.00  0.00     0.038 C 
BRANCH   9  10
ATOM     10  C   UNL d   1      10.272   7.703  -8.028  0.00  0.00     0.035 C 
BRANCH  10  11
ATOM     11  C   UNL d   1       9.987   9.032  -7.328  0.00  0.00     0.149 C 
BRANCH  11  12
ATOM     12  O   UNL d   1      11.192   9.501  -6.799  0.00  0.00    -0.331 OA
BRANCH  12  13
ATOM     13  C   UNL d   1      11.387   9.120  -5.509  0.00  0.00     0.097 A 
ATOM     14  C   UNL d   1      11.720   7.833  -5.166  0.00  0.00     0.043 A 
ATOM     15  C   UNL d   1      12.053   7.556  -3.831  0.00  0.00     0.086 A 
ATOM     16  N   UNL d   1      12.047   8.612  -2.897  0.00  0.00    -0.228 N 
ATOM     17  C   UNL d   1      12.459   6.461  -3.156  0.00  0.00     0.042 A 
ATOM     18  C   UNL d   1      11.695   9.867  -3.237  0.00  0.00     0.102 A 
ATOM     19  N   UNL d   1      12.476   8.202  -1.668  0.00  0.00    -0.164 NA
ATOM     20  C   UNL d   1      11.334  10.122  -4.533  0.00  0.00     0.045 A 
ATOM     21  C   UNL d   1      12.650   6.912  -1.848  0.00  0.00     0.122 A 
ENDBRANCH  12  13
ENDBRANCH  11  12
ENDBRANCH  10  11
ENDBRANCH   9  10
ENDBRANCH   8   9
ENDBRANCH   5   8
BRANCH   1  22
ATOM     22  C   UNL d   1       7.489   2.852 -13.775  0.00  0.00     0.058 A 
ATOM     23  C   UNL d   1       6.693   1.707 -14.025  0.00  0.00     0.035 A 
ATOM     24  C   UNL d   1       5.388   1.511 -13.388  0.00  0.00     0.008 A 
ATOM     25  C   UNL d   1       7.161   0.655 -14.830  0.00  0.00     0.111 A 
ATOM     26  C   UNL d   1       4.636   0.410 -13.639  0.00  0.00     0.063 A 
ATOM     27  C   UNL d   1       5.070  -0.630 -14.559  0.00  0.00     0.279 A 
ATOM     28  O   UNL d   1       4.355  -1.557 -14.916  0.00  0.00    -0.265 OA
ATOM     29  N   UNL d   1       6.305  -0.474 -15.054  0.00  0.00    -0.206 NA
ATOM     30  C   UNL d   1       8.471   0.696 -15.365  0.00  0.00     0.149 A 
ATOM     31  C   UNL d   1       9.284   1.809 -15.079  0.00  0.00     0.030 A 
ATOM     32  O   UNL d   1       8.959  -0.313 -16.130  0.00  0.00    -0.189 OA
ATOM     33  C   UNL d   1       8.794   2.882 -14.320  0.00  0.00     0.019 A 
ENDBRANCH   1  22
TORSDOF 7
