REMARK  5 active torsions:
REMARK  status: ('A' for Active; 'I' for Inactive)
REMARK    1  A    between atoms: C_8  and  C_9 
REMARK    2  A    between atoms: C_9  and  C_11 
REMARK    3  A    between atoms: C_11  and  C_12 
REMARK    4  A    between atoms: C_12  and  C_13 
REMARK    5  A    between atoms: C_13  and  N_14 
ROOT
ATOM      1  N   UNL d   1       9.700   3.828 -14.317  0.00  0.00     0.137 N 
ATOM      2  C   UNL d   1      10.392   4.546 -15.380  0.00  0.00     0.252 C 
ATOM      3  C   UNL d   1      10.048   3.863 -16.704  0.00  0.00     0.058 C 
ATOM      4  C   UNL d   1      10.445   2.365 -16.746  0.00  0.00     0.089 C 
ATOM      5  C   UNL d   1      10.105   1.658 -15.425  0.00  0.00     0.077 C 
ATOM      6  C   UNL d   1      10.320   2.516 -14.169  0.00  0.00     0.256 C 
ATOM      7  C   UNL d   1       8.693   1.176 -15.663  0.00  0.00    -0.003 A 
ATOM      8  C   UNL d   1       7.641   0.781 -14.817  0.00  0.00    -0.003 A 
ATOM      9  C   UNL d   1       6.418   0.388 -15.407  0.00  0.00     0.000 A 
ATOM     10  C   UNL d   1       6.252   0.386 -16.817  0.00  0.00     0.008 A 
ATOM     11  C   UNL d   1       7.291   0.784 -17.692  0.00  0.00     0.040 A 
ATOM     12  C   UNL d   1       8.479   1.173 -17.042  0.00  0.00     0.058 A 
ATOM     13  N   UNL d   1       9.636   1.645 -17.726  0.00  0.00    -0.348 N 
ATOM     14  C   UNL d   1       9.463   2.121 -19.098  0.00  0.00     0.113 C 
ATOM     15  C   UNL d   1       8.786   1.084 -19.998  0.00  0.00     0.086 C 
ATOM     16  S   UNL d   1       7.093   0.797 -19.440  0.00  0.00    -0.110 SA
ENDROOT
BRANCH   1  17
ATOM     17  C   UNL d   1       9.807   4.546 -13.056  0.00  0.00     0.251 C 
BRANCH  17  18
ATOM     18  C   UNL d   1       8.643   5.542 -12.896  0.00  0.00     0.043 C 
BRANCH  18  19
ATOM     19  C   UNL d   1       8.880   6.599 -11.803  0.00  0.00     0.071 C 
BRANCH  19  20
ATOM     20  C   UNL d   1       9.228   6.051 -10.406  0.00  0.00     0.174 C 
ATOM     21  O   UNL d   1       8.936   4.891 -10.111  0.00  0.00    -0.291 OA
BRANCH  20  22
ATOM     22  C   UNL d   1       9.836   7.003  -9.428  0.00  0.00     0.048 A 
ATOM     23  C   UNL d   1       9.563   6.931  -8.037  0.00  0.00     0.075 A 
ATOM     24  N   UNL d   1       8.669   5.992  -7.514  0.00  0.00    -0.100 NA
ATOM     25  C   UNL d   1      10.150   7.840  -7.143  0.00  0.00     0.044 A 
ATOM     26  C   UNL d   1      11.063   8.800  -7.611  0.00  0.00     0.141 A 
ATOM     27  F   UNL d   1      11.624   9.683  -6.745  0.00  0.00    -0.204 F 
ATOM     28  C   UNL d   1      11.379   8.855  -8.982  0.00  0.00     0.030 A 
ATOM     29  C   UNL d   1      10.768   7.960  -9.875  0.00  0.00     0.006 A 
ENDBRANCH  20  22
ENDBRANCH  19  20
ENDBRANCH  18  19
ENDBRANCH  17  18
ENDBRANCH   1  17
TORSDOF 5
