REMARK  7 active torsions:
REMARK  status: ('A' for Active; 'I' for Inactive)
REMARK    1  A    between atoms: S_2  and  N_4 
REMARK    2  A    between atoms: S_2  and  C_24 
REMARK    3  A    between atoms: N_4  and  C_5 
REMARK    4  A    between atoms: C_5  and  C_6 
REMARK    5  A    between atoms: C_6  and  C_7 
REMARK    6  A    between atoms: C_7  and  N_8 
REMARK    7  A    between atoms: C_11  and  C_12 
ROOT
ATOM      1  N   UNL d   1       9.436   6.809  -9.750  0.00  0.00     0.137 N 
ATOM      2  C   UNL d   1      10.861   6.640  -9.431  0.00  0.00     0.251 C 
ATOM      3  C   UNL d   1      11.278   7.550  -8.273  0.00  0.00     0.041 C 
ATOM      4  C   UNL d   1      10.408   7.309  -7.053  0.00  0.00     0.047 C 
ATOM      5  C   UNL d   1       8.922   7.387  -7.423  0.00  0.00     0.041 C 
ATOM      6  C   UNL d   1       8.664   6.394  -8.579  0.00  0.00     0.251 C 
ENDROOT
BRANCH   1   7
ATOM      7  C   UNL d   1       8.896   6.050 -10.890  0.00  0.00     0.252 C 
BRANCH   7   8
ATOM      8  C   UNL d   1       9.735   6.231 -12.153  0.00  0.00     0.062 C 
BRANCH   8   9
ATOM      9  C   UNL d   1       9.524   5.185 -13.264  0.00  0.00     0.141 C 
BRANCH   9  10
ATOM     10  N   UNL d   1      10.742   4.877 -14.045  0.00  0.00    -0.183 NA
BRANCH  10  11
ATOM     11  S   UNL d   1      10.582   4.117 -15.597  0.00  0.00     0.298 S 
ATOM     12  O   UNL d   1       9.518   4.808 -16.332  0.00  0.00    -0.197 OA
ATOM     13  O   UNL d   1      11.931   3.967 -16.173  0.00  0.00    -0.197 OA
BRANCH  11  14
ATOM     14  C   UNL d   1      10.003   2.458 -15.249  0.00  0.00     0.191 A 
ATOM     15  N   UNL d   1       8.722   2.166 -14.793  0.00  0.00    -0.279 N 
ATOM     16  C   UNL d   1       8.668   0.751 -14.679  0.00  0.00     0.148 A 
ATOM     17  C   UNL d   1       7.645   2.940 -14.495  0.00  0.00     0.082 A 
ATOM     18  N   UNL d   1       9.829   0.214 -15.042  0.00  0.00    -0.224 NA
ATOM     19  C   UNL d   1       7.437   0.189 -14.226  0.00  0.00     0.037 A 
ATOM     20  C   UNL d   1      10.657   1.276 -15.397  0.00  0.00     0.131 A 
ATOM     21  C   UNL d   1       6.365   0.988 -13.921  0.00  0.00     0.005 A 
ATOM     22  C   UNL d   1       6.479   2.397 -14.044  0.00  0.00     0.019 A 
ENDBRANCH  11  14
ENDBRANCH  10  11
ENDBRANCH   9  10
ENDBRANCH   8   9
ENDBRANCH   7   8
ENDBRANCH   1   7
BRANCH   4  23
ATOM     23  C   UNL d   1      10.810   8.288  -5.973  0.00  0.00     0.087 A 
ATOM     24  C   UNL d   1      11.416   8.073  -4.720  0.00  0.00     0.041 A 
ATOM     25  C   UNL d   1      11.549   9.306  -4.079  0.00  0.00     0.129 A 
ATOM     26  C   UNL d   1      11.833   6.886  -4.072  0.00  0.00     0.006 A 
ATOM     27  O   UNL d   1      11.048  10.251  -4.952  0.00  0.00    -0.211 OA
ATOM     28  C   UNL d   1      12.076   9.434  -2.816  0.00  0.00     0.057 A 
ATOM     29  N   UNL d   1      10.634   9.603  -6.144  0.00  0.00    -0.131 NA
ATOM     30  C   UNL d   1      12.506   8.265  -2.171  0.00  0.00     0.142 A 
ATOM     31  F   UNL d   1      13.066   8.359  -0.947  0.00  0.00    -0.204 F 
ATOM     32  C   UNL d   1      12.380   6.991  -2.784  0.00  0.00     0.030 A 
ENDBRANCH   4  23
TORSDOF 7
