REMARK  9 active torsions:
REMARK  status: ('A' for Active; 'I' for Inactive)
REMARK    1  A    between atoms: O_2  and  C_3 
REMARK    2  A    between atoms: C_8  and  N_9 
REMARK    3  A    between atoms: N_12  and  C_13 
REMARK    4  A    between atoms: C_13  and  C_14 
REMARK    5  A    between atoms: C_14  and  C_15 
REMARK    6  A    between atoms: C_15  and  C_16 
REMARK    7  A    between atoms: C_16  and  N_17 
REMARK       I    between atoms: N_17  and  C_18 
REMARK    8  A    between atoms: C_18  and  C_20 
REMARK    9  A    between atoms: C_23  and  N_24 
ROOT
ATOM      1  C   UNL d   1       9.400   4.942 -12.729  0.00  0.00     0.029 C 
ENDROOT
BRANCH   1   2
ATOM      2  C   UNL d   1       8.757   4.548 -14.059  0.00  0.00     0.037 C 
BRANCH   2   3
ATOM      3  C   UNL d   1       9.265   3.173 -14.496  0.00  0.00     0.251 C 
BRANCH   3   4
ATOM      4  N   UNL d   1       8.755   2.782 -15.811  0.00  0.00     0.141 N 
ATOM      5  C   UNL d   1       9.313   3.563 -16.933  0.00  0.00     0.274 C 
ATOM      6  C   UNL d   1      10.837   3.362 -17.065  0.00  0.00     0.137 C 
ATOM      7  N   UNL d   1      11.130   1.935 -17.130  0.00  0.00    -0.343 N 
ATOM      8  C   UNL d   1      10.510   1.061 -16.132  0.00  0.00     0.137 C 
ATOM      9  C   UNL d   1       8.994   1.352 -16.062  0.00  0.00     0.274 C 
BRANCH   7  10
ATOM     10  C   UNL d   1      11.967   1.446 -18.130  0.00  0.00     0.079 A 
ATOM     11  C   UNL d   1      11.618   0.317 -18.914  0.00  0.00     0.110 A 
ATOM     12  C   UNL d   1      12.520  -0.123 -19.917  0.00  0.00     0.026 A 
ATOM     13  C   UNL d   1      13.733   0.553 -20.137  0.00  0.00     0.002 A 
ATOM     14  C   UNL d   1      14.065   1.680 -19.369  0.00  0.00     0.002 A 
ATOM     15  C   UNL d   1      13.174   2.130 -18.378  0.00  0.00     0.019 A 
BRANCH  11  16
ATOM     16  O   UNL d   1      10.421  -0.323 -18.668  0.00  0.00    -0.327 OA
ATOM     17  C   UNL d   1       9.703  -0.834 -19.780  0.00  0.00     0.181 C 
ENDBRANCH  11  16
ENDBRANCH   7  10
ENDBRANCH   3   4
ENDBRANCH   2   3
ENDBRANCH   1   2
BRANCH   1  18
ATOM     18  C   UNL d   1       8.680   6.122 -12.082  0.00  0.00     0.129 C 
BRANCH  18  19
ATOM     19  N   UNL d   1       9.219   6.382 -10.759  0.00  0.00    -0.234 NA
ATOM     20  C   UNL d   1       9.859   7.504 -10.394  0.00  0.00     0.275 C 
ATOM     21  O   UNL d   1      10.112   8.397 -11.192  0.00  0.00    -0.266 OA
BRANCH  20  22
ATOM     22  C   UNL d   1      10.188   7.644  -8.938  0.00  0.00     0.058 A 
ATOM     23  C   UNL d   1       9.977   6.593  -8.022  0.00  0.00     0.006 A 
ATOM     24  C   UNL d   1      10.264   6.782  -6.656  0.00  0.00     0.017 A 
ATOM     25  C   UNL d   1      10.805   7.990  -6.180  0.00  0.00     0.056 A 
ATOM     26  C   UNL d   1      11.016   9.048  -7.096  0.00  0.00     0.017 A 
ATOM     27  C   UNL d   1      10.701   8.872  -8.461  0.00  0.00     0.006 A 
BRANCH  25  28
ATOM     28  N   UNL d   1      11.109   8.109  -4.819  0.00  0.00    -0.343 N 
ATOM     29  C   UNL d   1      11.107   9.398  -4.139  0.00  0.00     0.134 C 
ATOM     30  C   UNL d   1      12.432   9.580  -3.416  0.00  0.00     0.167 C 
ATOM     31  O   UNL d   1      12.651   8.486  -2.525  0.00  0.00    -0.350 OA
ATOM     32  C   UNL d   1      12.769   7.258  -3.232  0.00  0.00     0.167 C 
ATOM     33  C   UNL d   1      11.462   6.957  -3.971  0.00  0.00     0.134 C 
ENDBRANCH  25  28
ENDBRANCH  20  22
ENDBRANCH  18  19
ENDBRANCH   1  18
TORSDOF 9
