REMARK  8 active torsions:
REMARK  status: ('A' for Active; 'I' for Inactive)
REMARK    1  A    between atoms: S_2  and  N_4 
REMARK    2  A    between atoms: S_2  and  C_25 
REMARK    3  A    between atoms: N_4  and  C_5 
REMARK    4  A    between atoms: C_5  and  C_6 
REMARK    5  A    between atoms: C_6  and  C_7 
REMARK    6  A    between atoms: C_7  and  C_8 
REMARK    7  A    between atoms: C_8  and  N_9 
REMARK    8  A    between atoms: C_12  and  C_13 
ROOT
ATOM      1  N   UNL d   1       9.719   5.479  -8.826  0.00  0.00     0.137 N 
ATOM      2  C   UNL d   1       8.562   6.077  -8.172  0.00  0.00     0.251 C 
ATOM      3  C   UNL d   1       9.015   6.950  -7.001  0.00  0.00     0.041 C 
ATOM      4  C   UNL d   1      10.048   8.002  -7.454  0.00  0.00     0.047 C 
ATOM      5  C   UNL d   1      11.205   7.371  -8.211  0.00  0.00     0.041 C 
ATOM      6  C   UNL d   1      10.608   6.552  -9.303  0.00  0.00     0.251 C 
ENDROOT
BRANCH   1   7
ATOM      7  C   UNL d   1       9.255   4.622  -9.907  0.00  0.00     0.250 C 
BRANCH   7   8
ATOM      8  C   UNL d   1       9.146   5.338 -11.286  0.00  0.00     0.037 C 
BRANCH   8   9
ATOM      9  C   UNL d   1       9.422   4.394 -12.426  0.00  0.00     0.029 C 
BRANCH   9  10
ATOM     10  C   UNL d   1       9.566   5.243 -13.742  0.00  0.00     0.139 C 
BRANCH  10  11
ATOM     11  N   UNL d   1      10.542   4.630 -14.652  0.00  0.00    -0.185 NA
BRANCH  11  12
ATOM     12  S   UNL d   1      10.169   4.130 -16.261  0.00  0.00     0.281 S 
ATOM     13  O   UNL d   1       9.461   5.243 -16.905  0.00  0.00    -0.199 OA
ATOM     14  O   UNL d   1      11.432   3.654 -16.842  0.00  0.00    -0.199 OA
BRANCH  12  15
ATOM     15  C   UNL d   1       9.044   2.740 -16.049  0.00  0.00     0.106 A 
ATOM     16  C   UNL d   1       8.946   1.745 -17.067  0.00  0.00     0.027 A 
ATOM     17  C   UNL d   1       8.034   0.649 -16.874  0.00  0.00     0.086 A 
ATOM     18  C   UNL d   1       7.262   0.549 -15.673  0.00  0.00     0.151 A 
ATOM     19 CL   UNL d   1       7.876  -0.563 -18.130  0.00  0.00    -0.080 Cl
ATOM     20  C   UNL d   1       7.386   1.549 -14.700  0.00  0.00     0.031 A 
ATOM     21  F   UNL d   1       6.378  -0.473 -15.484  0.00  0.00    -0.203 F 
ATOM     22  C   UNL d   1       8.226   2.663 -14.886  0.00  0.00     0.015 A 
ENDBRANCH  12  15
ENDBRANCH  11  12
ENDBRANCH  10  11
ENDBRANCH   9  10
ENDBRANCH   8   9
ENDBRANCH   7   8
ENDBRANCH   1   7
BRANCH   4  23
ATOM     23  C   UNL d   1      10.608   8.778  -6.323  0.00  0.00     0.087 A 
ATOM     24  C   UNL d   1      11.151   8.366  -5.092  0.00  0.00     0.041 A 
ATOM     25  C   UNL d   1      11.485   9.509  -4.362  0.00  0.00     0.129 A 
ATOM     26  C   UNL d   1      11.376   7.087  -4.522  0.00  0.00     0.006 A 
ATOM     27  O   UNL d   1      11.174  10.576  -5.183  0.00  0.00    -0.211 OA
ATOM     28  C   UNL d   1      12.001   9.458  -3.061  0.00  0.00     0.057 A 
ATOM     29  N   UNL d   1      10.708  10.091  -6.429  0.00  0.00    -0.131 NA
ATOM     30  C   UNL d   1      12.202   8.184  -2.506  0.00  0.00     0.142 A 
ATOM     31  F   UNL d   1      12.654   8.089  -1.241  0.00  0.00    -0.204 F 
ATOM     32  C   UNL d   1      11.885   7.010  -3.208  0.00  0.00     0.030 A 
ENDBRANCH   4  23
TORSDOF 8
