REMARK  5 active torsions:
REMARK  status: ('A' for Active; 'I' for Inactive)
REMARK    1  A    between atoms: C_2  and  C_3 
REMARK       I    between atoms: N_11  and  C_12 
REMARK    2  A    between atoms: C_12  and  C_14 
REMARK    3  A    between atoms: C_14  and  N_15 
REMARK    4  A    between atoms: N_18  and  C_19 
REMARK    5  A    between atoms: C_19  and  C_20 
ROOT
ATOM      1  N   UNL d   1       9.116   5.184 -12.608  0.00  0.00     0.151 N 
ATOM      2  C   UNL d   1       8.243   6.347 -12.759  0.00  0.00     0.286 C 
ATOM      3  C   UNL d   1       8.921   7.630 -12.280  0.00  0.00     0.286 C 
ATOM      4  N   UNL d   1       9.346   7.515 -10.890  0.00  0.00     0.146 N 
ATOM      5  C   UNL d   1      10.149   6.321 -10.681  0.00  0.00     0.286 C 
ATOM      6  C   UNL d   1       9.443   5.056 -11.190  0.00  0.00     0.286 C 
ENDROOT
BRANCH   1   7
ATOM      7  C   UNL d   1       8.453   3.983 -13.135  0.00  0.00     0.337 C 
BRANCH   7   8
ATOM      8  C   UNL d   1       9.101   3.326 -14.355  0.00  0.00     0.271 C 
ATOM      9  N   UNL d   1       8.490   2.245 -14.935  0.00  0.00    -0.299 N 
ATOM     10  C   UNL d   1       9.139   1.506 -16.042  0.00  0.00     0.093 C 
ATOM     11  C   UNL d   1       7.276   1.570 -14.570  0.00  0.00     0.058 A 
ATOM     12  C   UNL d   1       8.344   0.183 -16.205  0.00  0.00     0.051 C 
ATOM     13  C   UNL d   1       7.173   0.379 -15.292  0.00  0.00    -0.004 A 
ATOM     14  C   UNL d   1       6.068  -0.497 -15.152  0.00  0.00    -0.003 A 
ATOM     15  C   UNL d   1       5.033  -0.163 -14.252  0.00  0.00    -0.000 A 
ATOM     16  C   UNL d   1       5.130   1.034 -13.528  0.00  0.00     0.002 A 
ATOM     17  C   UNL d   1       6.215   1.920 -13.682  0.00  0.00     0.017 A 
ATOM     18  O   UNL d   1      10.171   3.776 -14.769  0.00  0.00    -0.270 OA
BRANCH  10  19
ATOM     19  C   UNL d   1       9.154   2.320 -17.363  0.00  0.00     0.023 C 
ATOM     20  C   UNL d   1      10.022   1.685 -18.458  0.00  0.00     0.002 C 
ENDBRANCH  10  19
ENDBRANCH   7   8
ENDBRANCH   1   7
BRANCH   4  21
ATOM     21  C   UNL d   1       9.928   8.752 -10.415  0.00  0.00     0.277 C 
BRANCH  21  22
ATOM     22  C   UNL d   1      10.344   8.716  -8.962  0.00  0.00     0.011 A 
ATOM     23  C   UNL d   1       9.398   8.594  -7.928  0.00  0.00    -0.003 A 
ATOM     24  C   UNL d   1       9.809   8.539  -6.587  0.00  0.00    -0.004 A 
ATOM     25  C   UNL d   1      11.171   8.652  -6.258  0.00  0.00    -0.022 A 
ATOM     26  C   UNL d   1      12.111   8.797  -7.299  0.00  0.00    -0.004 A 
ATOM     27  C   UNL d   1      11.601   8.605  -4.805  0.00  0.00     0.031 C 
ATOM     28  C   UNL d   1      11.708   8.781  -8.642  0.00  0.00    -0.003 A 
ENDBRANCH  21  22
ENDBRANCH   4  21
TORSDOF 5
