REMARK  8 active torsions:
REMARK  status: ('A' for Active; 'I' for Inactive)
REMARK    1  A    between atoms: C_2  and  C_3 
REMARK       I    between atoms: C_2  and  N_20 
REMARK    2  A    between atoms: C_3  and  C_4 
REMARK    3  A    between atoms: C_4  and  C_5 
REMARK    4  A    between atoms: C_5  and  C_6 
REMARK    5  A    between atoms: C_6  and  C_7 
REMARK    6  A    between atoms: C_7  and  N_8 
REMARK    7  A    between atoms: N_11  and  C_12 
REMARK    8  A    between atoms: N_20  and  C_21 
ROOT
ATOM      1  C   UNL d   1       8.524   4.783 -12.722  0.00  0.00     0.010 C 
ENDROOT
BRANCH   1   2
ATOM      2  C   UNL d   1       9.208   3.534 -13.301  0.00  0.00     0.090 C 
BRANCH   2   3
ATOM      3  C   UNL d   1      10.333   3.824 -14.296  0.00  0.00     0.252 C 
ATOM      4  O   UNL d   1      11.167   4.699 -14.079  0.00  0.00    -0.271 OA
ATOM      5  N   UNL d   1      10.351   3.080 -15.410  0.00  0.00    -0.235 NA
BRANCH   5   6
ATOM      6  C   UNL d   1      11.248   3.307 -16.537  0.00  0.00     0.128 C 
ATOM      7  C   UNL d   1      10.509   4.012 -17.671  0.00  0.00    -0.004 A 
ATOM      8  C   UNL d   1      10.140   3.319 -18.849  0.00  0.00    -0.024 A 
ATOM      9  C   UNL d   1      10.159   5.375 -17.526  0.00  0.00    -0.003 A 
ATOM     10  C   UNL d   1      10.508   1.856 -19.055  0.00  0.00     0.026 C 
ATOM     11  C   UNL d   1       9.436   3.997 -19.867  0.00  0.00    -0.004 A 
ATOM     12  C   UNL d   1      10.922   1.127 -17.768  0.00  0.00     0.007 C 
ATOM     13  C   UNL d   1      11.890   1.977 -16.943  0.00  0.00     0.029 C 
ATOM     14  C   UNL d   1       9.094   5.353 -19.716  0.00  0.00    -0.000 A 
ATOM     15  C   UNL d   1       9.455   6.045 -18.545  0.00  0.00    -0.000 A 
ENDBRANCH   5   6
ENDBRANCH   2   3
ENDBRANCH   1   2
BRANCH   1  16
ATOM     16  C   UNL d   1       9.429   5.661 -11.851  0.00  0.00     0.003 C 
BRANCH  16  17
ATOM     17  C   UNL d   1       8.674   6.784 -11.166  0.00  0.00     0.035 C 
BRANCH  17  18
ATOM     18  C   UNL d   1       9.626   7.854 -10.571  0.00  0.00     0.250 C 
BRANCH  18  19
ATOM     19  N   UNL d   1      10.452   7.383  -9.460  0.00  0.00     0.141 N 
ATOM     20  C   UNL d   1       9.594   7.021  -8.328  0.00  0.00     0.274 C 
ATOM     21  C   UNL d   1      10.437   6.507  -7.155  0.00  0.00     0.137 C 
ATOM     22  N   UNL d   1      11.391   7.522  -6.785  0.00  0.00    -0.344 N 
ATOM     23  C   UNL d   1      12.239   8.041  -7.840  0.00  0.00     0.137 C 
ATOM     24  C   UNL d   1      11.364   8.467  -9.046  0.00  0.00     0.274 C 
BRANCH  22  25
ATOM     25  C   UNL d   1      11.478   7.939  -5.447  0.00  0.00     0.056 A 
ATOM     26  C   UNL d   1      11.416   9.302  -5.132  0.00  0.00     0.017 A 
ATOM     27  C   UNL d   1      11.555   9.710  -3.789  0.00  0.00     0.002 A 
ATOM     28  C   UNL d   1      11.830   8.767  -2.782  0.00  0.00     0.000 A 
ATOM     29  C   UNL d   1      11.887   7.397  -3.098  0.00  0.00     0.002 A 
ATOM     30  C   UNL d   1      11.706   6.987  -4.435  0.00  0.00     0.017 A 
ENDBRANCH  22  25
ENDBRANCH  18  19
ENDBRANCH  17  18
ENDBRANCH  16  17
ENDBRANCH   1  16
TORSDOF 8
