REMARK  7 active torsions:
REMARK  status: ('A' for Active; 'I' for Inactive)
REMARK    1  A    between atoms: O_2  and  C_3 
REMARK    2  A    between atoms: C_7  and  C_8 
REMARK    3  A    between atoms: C_8  and  C_9 
REMARK    4  A    between atoms: C_9  and  C_10 
REMARK    5  A    between atoms: C_15  and  O_16 
REMARK    6  A    between atoms: O_16  and  C_17 
REMARK    7  A    between atoms: C_17  and  C_18 
ROOT
ATOM      1  C   UNL d   1      10.165   1.389 -15.996  0.00  0.00     0.001 A 
ATOM      2  C   UNL d   1      11.468   1.547 -16.501  0.00  0.00    -0.002 A 
ATOM      3  C   UNL d   1      11.862   0.875 -17.672  0.00  0.00    -0.000 A 
ATOM      4  C   UNL d   1      10.945   0.051 -18.353  0.00  0.00     0.002 A 
ATOM      5  C   UNL d   1       9.636  -0.096 -17.863  0.00  0.00     0.024 A 
ATOM      6  C   UNL d   1       9.238   0.567 -16.677  0.00  0.00     0.090 A 
ENDROOT
BRANCH   1   7
ATOM      7  C   UNL d   1       9.775   2.113 -14.716  0.00  0.00     0.033 C 
BRANCH   7   8
ATOM      8  C   UNL d   1       8.751   3.238 -14.963  0.00  0.00     0.031 C 
BRANCH   8   9
ATOM      9  C   UNL d   1       8.332   3.963 -13.691  0.00  0.00    -0.020 A 
ATOM     10  C   UNL d   1       6.966   3.974 -13.326  0.00  0.00    -0.004 A 
ATOM     11  C   UNL d   1       6.564   4.634 -12.158  0.00  0.00     0.002 A 
ATOM     12  C   UNL d   1       7.503   5.308 -11.357  0.00  0.00     0.024 A 
ATOM     13  C   UNL d   1       8.882   5.332 -11.735  0.00  0.00     0.094 A 
ATOM     14  C   UNL d   1       9.275   4.639 -12.881  0.00  0.00     0.020 A 
BRANCH  13  15
ATOM     15  O   UNL d   1       9.858   5.985 -11.020  0.00  0.00    -0.328 OA
ATOM     16  C   UNL d   1       9.473   7.064 -10.178  0.00  0.00     0.181 C 
ENDBRANCH  13  15
ENDBRANCH   8   9
ENDBRANCH   7   8
ENDBRANCH   1   7
BRANCH   6  17
ATOM     17  O   UNL d   1       7.988   0.447 -16.116  0.00  0.00    -0.326 OA
BRANCH  17  18
ATOM     18  C   UNL d   1       6.961  -0.221 -16.828  0.00  0.00     0.177 C 
BRANCH  18  19
ATOM     19  C   UNL d   1       5.721  -0.384 -15.974  0.00  0.00     0.027 A 
ATOM     20  C   UNL d   1       5.658   0.117 -14.650  0.00  0.00     0.097 A 
ATOM     21  N   UNL d   1       4.570  -0.014 -13.862  0.00  0.00    -0.243 NA
ATOM     22  C   UNL d   1       3.506  -0.663 -14.367  0.00  0.00     0.099 A 
ATOM     23  C   UNL d   1       3.476  -1.214 -15.665  0.00  0.00     0.021 A 
ATOM     24  C   UNL d   1       4.608  -1.069 -16.481  0.00  0.00     0.001 A 
ENDBRANCH  18  19
ENDBRANCH  17  18
ENDBRANCH   6  17
TORSDOF 7
