REMARK  2 active torsions:
REMARK  status: ('A' for Active; 'I' for Inactive)
REMARK    1  A    between atoms: C_9  and  C_10 
REMARK    2  A    between atoms: C_10  and  C_11 
ROOT
ATOM      1  F   UNL d   1      12.714   9.984  -5.237  0.00  0.00    -0.204 F 
ATOM      2  C   UNL d   1      11.832   9.067  -5.659  0.00  0.00     0.140 A 
ATOM      3  C   UNL d   1      11.549   7.946  -4.841  0.00  0.00     0.029 A 
ATOM      4  C   UNL d   1      10.665   6.951  -5.293  0.00  0.00    -0.002 A 
ATOM      5  C   UNL d   1      10.060   7.131  -6.544  0.00  0.00    -0.026 A 
ATOM      6  C   UNL d   1      10.337   8.233  -7.344  0.00  0.00    -0.024 A 
ATOM      7  C   UNL d   1      11.236   9.214  -6.928  0.00  0.00     0.025 A 
ATOM      8  C   UNL d   1       9.619   8.163  -8.660  0.00  0.00     0.026 C 
ATOM      9  C   UNL d   1       9.030   6.723  -8.662  0.00  0.00     0.011 C 
ATOM     10  C   UNL d   1       9.130   6.187  -7.227  0.00  0.00     0.026 C 
ENDROOT
BRANCH   9  11
ATOM     11  C   UNL d   1       9.740   5.800  -9.666  0.00  0.00     0.027 C 
BRANCH  11  12
ATOM     12  C   UNL d   1       9.403   6.065 -11.145  0.00  0.00     0.129 C 
ATOM     13  N   UNL d   1       7.996   6.192 -11.384  0.00  0.00    -0.251 NA
ATOM     14  C   UNL d   1       7.680   5.402 -12.459  0.00  0.00     0.190 C 
ATOM     15  N   UNL d   1       8.622   4.650 -12.906  0.00  0.00    -0.249 NA
ATOM     16  C   UNL d   1       9.783   4.883 -12.064  0.00  0.00     0.152 C 
ENDBRANCH  11  12
ENDBRANCH   9  11
TORSDOF 2
