REMARK  8 active torsions:
REMARK  status: ('A' for Active; 'I' for Inactive)
REMARK    1  A    between atoms: C_8  and  O_9 
REMARK    2  A    between atoms: O_9  and  C_10 
REMARK    3  A    between atoms: C_10  and  C_11 
REMARK    4  A    between atoms: C_11  and  C_12 
REMARK    5  A    between atoms: C_12  and  C_13 
REMARK    6  A    between atoms: C_13  and  N_14 
REMARK    7  A    between atoms: N_17  and  C_18 
REMARK    8  A    between atoms: C_22  and  C_23 
ROOT
ATOM      1  N   UNL d   1       7.576   5.346 -12.732  0.00  0.00     0.141 N 
ATOM      2  C   UNL d   1       6.176   4.910 -12.629  0.00  0.00     0.274 C 
ATOM      3  C   UNL d   1       5.809   4.045 -13.850  0.00  0.00     0.137 C 
ATOM      4  N   UNL d   1       6.816   3.014 -14.073  0.00  0.00    -0.344 N 
ATOM      5  C   UNL d   1       8.204   3.410 -14.055  0.00  0.00     0.137 C 
ATOM      6  C   UNL d   1       8.481   4.202 -12.780  0.00  0.00     0.274 C 
ENDROOT
BRANCH   1   7
ATOM      7  C   UNL d   1       7.851   6.122 -11.545  0.00  0.00     0.251 C 
BRANCH   7   8
ATOM      8  C   UNL d   1       9.200   6.906 -11.593  0.00  0.00     0.038 C 
BRANCH   8   9
ATOM      9  C   UNL d   1       9.450   7.825 -10.379  0.00  0.00     0.035 C 
BRANCH   9  10
ATOM     10  C   UNL d   1      10.835   8.457 -10.335  0.00  0.00     0.151 C 
BRANCH  10  11
ATOM     11  O   UNL d   1      10.991   9.236  -9.169  0.00  0.00    -0.315 OA
BRANCH  11  12
ATOM     12  C   UNL d   1      11.210   8.567  -7.989  0.00  0.00     0.179 A 
ATOM     13  C   UNL d   1      11.246   7.150  -7.928  0.00  0.00     0.044 A 
ATOM     14  C   UNL d   1      11.361   6.587  -6.660  0.00  0.00     0.002 A 
ATOM     15  C   UNL d   1      11.441   7.386  -5.518  0.00  0.00     0.014 A 
ATOM     16  C   UNL d   1      11.544   6.733  -4.144  0.00  0.00     0.039 C 
ATOM     17  C   UNL d   1      11.434   8.790  -5.672  0.00  0.00     0.163 A 
ATOM     18  C   UNL d   1      12.193   7.624  -3.099  0.00  0.00     0.095 C 
ATOM     19  C   UNL d   1      11.866   9.115  -3.313  0.00  0.00     0.257 C 
ATOM     20  O   UNL d   1      11.883   9.859  -2.352  0.00  0.00    -0.270 OA
ATOM     21  N   UNL d   1      11.562   9.579  -4.544  0.00  0.00    -0.193 NA
ATOM     22  N   UNL d   1      11.312   9.354  -6.887  0.00  0.00    -0.204 NA
ENDBRANCH  11  12
ENDBRANCH  10  11
ENDBRANCH   9  10
ENDBRANCH   8   9
ENDBRANCH   7   8
ENDBRANCH   1   7
BRANCH   4  23
ATOM     23  C   UNL d   1       6.433   1.717 -14.387  0.00  0.00     0.067 A 
ATOM     24  C   UNL d   1       6.724   1.096 -15.629  0.00  0.00     0.077 A 
ATOM     25  C   UNL d   1       6.250  -0.220 -15.865  0.00  0.00     0.083 A 
ATOM     26 CL   UNL d   1       7.571   1.962 -16.902  0.00  0.00    -0.081 Cl
ATOM     27  C   UNL d   1       5.528  -0.883 -14.839  0.00  0.00     0.005 A 
ATOM     28  C   UNL d   1       5.177  -0.217 -13.653  0.00  0.00     0.002 A 
ATOM     29  C   UNL d   1       5.663   1.066 -13.423  0.00  0.00     0.018 A 
BRANCH  25  30
ATOM     30  C   UNL d   1       6.455  -0.881 -17.231  0.00  0.00     0.420 C 
ATOM     31  F   UNL d   1       5.799  -0.189 -18.178  0.00  0.00    -0.166 F 
ATOM     32  F   UNL d   1       7.764  -0.897 -17.536  0.00  0.00    -0.166 F 
ATOM     33  F   UNL d   1       5.982  -2.140 -17.274  0.00  0.00    -0.166 F 
ENDBRANCH  25  30
ENDBRANCH   4  23
TORSDOF 8
