REMARK  6 active torsions:
REMARK  status: ('A' for Active; 'I' for Inactive)
REMARK    1  A    between atoms: C_2  and  C_3 
REMARK    2  A    between atoms: C_6  and  C_7 
REMARK    3  A    between atoms: C_9  and  N_10 
REMARK    4  A    between atoms: N_22  and  S_23 
REMARK    5  A    between atoms: S_23  and  C_26 
REMARK    6  A    between atoms: C_26  and  C_27 
ROOT
ATOM      1  C   UNL d   1       7.974   2.345 -14.970  0.00  0.00     0.006 A 
ATOM      2  C   UNL d   1       7.728   3.215 -13.888  0.00  0.00     0.037 A 
ATOM      3  C   UNL d   1       8.633   4.253 -13.569  0.00  0.00     0.142 A 
ATOM      4  N   UNL d   1       9.742   4.497 -14.304  0.00  0.00    -0.211 NA
ATOM      5  C   UNL d   1       9.963   3.657 -15.353  0.00  0.00     0.158 A 
ATOM      6  C   UNL d   1       9.142   2.563 -15.752  0.00  0.00     0.037 A 
ATOM      7  C   UNL d   1       9.762   1.946 -16.900  0.00  0.00     0.023 A 
ATOM      8  C   UNL d   1      10.896   2.673 -17.168  0.00  0.00     0.093 A 
ATOM      9  N   UNL d   1      11.027   3.697 -16.241  0.00  0.00    -0.218 N 
ENDROOT
BRANCH   1  10
ATOM     10  C   UNL d   1       7.014   1.270 -15.284  0.00  0.00     0.000 A 
ATOM     11  C   UNL d   1       6.317   0.571 -14.264  0.00  0.00    -0.000 A 
ATOM     12  C   UNL d   1       5.402  -0.454 -14.583  0.00  0.00    -0.004 A 
ATOM     13  C   UNL d   1       5.170  -0.806 -15.929  0.00  0.00    -0.022 A 
ATOM     14  C   UNL d   1       5.857  -0.109 -16.947  0.00  0.00    -0.004 A 
ATOM     15  C   UNL d   1       6.745   0.924 -16.623  0.00  0.00    -0.000 A 
BRANCH  13  16
ATOM     16  C   UNL d   1       4.196  -1.930 -16.260  0.00  0.00     0.026 C 
ATOM     17  C   UNL d   1       3.708  -1.948 -17.719  0.00  0.00     0.005 C 
ENDBRANCH  13  16
ENDBRANCH   1  10
BRANCH   3  18
ATOM     18  N   UNL d   1       8.408   5.095 -12.465  0.00  0.00    -0.330 N 
ATOM     19  C   UNL d   1       7.677   4.658 -11.276  0.00  0.00     0.138 C 
ATOM     20  C   UNL d   1       8.540   4.854 -10.012  0.00  0.00     0.274 C 
ATOM     21  N   UNL d   1       8.992   6.243  -9.913  0.00  0.00     0.143 N 
ATOM     22  C   UNL d   1       9.787   6.613 -11.081  0.00  0.00     0.274 C 
ATOM     23  C   UNL d   1       9.731   6.459  -8.686  0.00  0.00     0.286 C 
ATOM     24  C   UNL d   1       8.962   6.448 -12.370  0.00  0.00     0.138 C 
ENDBRANCH   3  18
BRANCH   9  25
ATOM     25  S   UNL d   1      12.331   4.809 -16.231  0.00  0.00     0.252 S 
ATOM     26  O   UNL d   1      12.488   5.269 -14.844  0.00  0.00    -0.204 OA
ATOM     27  O   UNL d   1      13.434   4.139 -16.936  0.00  0.00    -0.204 OA
BRANCH  25  28
ATOM     28  C   UNL d   1      11.645   6.146 -17.304  0.00  0.00     0.145 C 
BRANCH  28  29
ATOM     29  C   UNL d   1      12.751   7.085 -17.828  0.00  0.00     0.018 C 
ATOM     30  C   UNL d   1      13.196   8.082 -16.747  0.00  0.00     0.001 C 
ATOM     31  C   UNL d   1      12.318   7.813 -19.111  0.00  0.00     0.001 C 
ENDBRANCH  28  29
ENDBRANCH  25  28
ENDBRANCH   9  25
TORSDOF 6
