REMARK  11 active torsions:
REMARK  status: ('A' for Active; 'I' for Inactive)
REMARK    1  A    between atoms: C_2  and  C_3 
REMARK    2  A    between atoms: C_3  and  N_4 
REMARK    3  A    between atoms: N_4  and  C_5 
REMARK    4  A    between atoms: N_4  and  C_22 
REMARK    5  A    between atoms: C_5  and  C_6 
REMARK    6  A    between atoms: C_6  and  C_7 
REMARK    7  A    between atoms: C_7  and  C_8 
REMARK    8  A    between atoms: C_8  and  N_9 
REMARK       I    between atoms: N_9  and  C_10 
REMARK    9  A    between atoms: C_10  and  C_12 
REMARK   10  A    between atoms: C_22  and  C_23 
REMARK   11  A    between atoms: C_25  and  C_26 
ROOT
ATOM      1  C   UNL d   1       8.312   4.413 -12.921  0.00  0.00     0.250 C 
ENDROOT
BRANCH   1   2
ATOM      2  N   UNL d   1       7.833   3.500 -13.967  0.00  0.00     0.137 N 
BRANCH   2   3
ATOM      3  C   UNL d   1       6.558   2.907 -13.524  0.00  0.00     0.250 C 
BRANCH   3   4
ATOM      4  C   UNL d   1       6.176   1.573 -14.232  0.00  0.00     0.035 C 
ATOM      5  C   UNL d   1       5.184   0.723 -13.434  0.00  0.00     0.002 C 
ENDBRANCH   3   4
ENDBRANCH   2   3
BRANCH   2   6
ATOM      6  C   UNL d   1       8.855   2.474 -14.225  0.00  0.00     0.251 C 
BRANCH   6   7
ATOM      7  C   UNL d   1       9.890   3.025 -15.171  0.00  0.00     0.038 A 
ATOM      8  C   UNL d   1      11.082   2.118 -15.443  0.00  0.00     0.025 A 
ATOM      9  C   UNL d   1      11.271   3.419 -14.708  0.00  0.00     0.007 A 
BRANCH   8  10
ATOM     10  C   UNL d   1      11.653   1.918 -16.823  0.00  0.00    -0.011 A 
ATOM     11  C   UNL d   1      11.204   0.897 -17.696  0.00  0.00     0.064 A 
ATOM     12  C   UNL d   1      11.764   0.800 -18.992  0.00  0.00     0.068 A 
ATOM     13 CL   UNL d   1       9.960  -0.204 -17.199  0.00  0.00    -0.082 Cl
ATOM     14  C   UNL d   1      12.770   1.695 -19.406  0.00  0.00     0.012 A 
ATOM     15 CL   UNL d   1      11.233  -0.409 -20.101  0.00  0.00    -0.082 Cl
ATOM     16  C   UNL d   1      13.225   2.689 -18.530  0.00  0.00     0.001 A 
ATOM     17  C   UNL d   1      12.680   2.785 -17.251  0.00  0.00    -0.003 A 
ENDBRANCH   8  10
ENDBRANCH   6   7
ENDBRANCH   2   6
ENDBRANCH   1   2
BRANCH   1  18
ATOM     18  C   UNL d   1       7.775   5.843 -13.081  0.00  0.00     0.037 C 
BRANCH  18  19
ATOM     19  C   UNL d   1       8.081   6.751 -11.887  0.00  0.00     0.029 C 
BRANCH  19  20
ATOM     20  C   UNL d   1       9.578   6.971 -11.646  0.00  0.00     0.129 C 
BRANCH  20  21
ATOM     21  N   UNL d   1       9.853   7.492 -10.321  0.00  0.00    -0.234 NA
ATOM     22  C   UNL d   1       9.854   6.766  -9.191  0.00  0.00     0.275 C 
ATOM     23  O   UNL d   1       9.599   5.563  -9.159  0.00  0.00    -0.266 OA
BRANCH  22  24
ATOM     24  C   UNL d   1      10.290   7.502  -7.953  0.00  0.00     0.058 A 
ATOM     25  C   UNL d   1      10.706   6.793  -6.806  0.00  0.00     0.005 A 
ATOM     26  C   UNL d   1      11.088   7.476  -5.628  0.00  0.00     0.000 A 
ATOM     27  C   UNL d   1      11.081   8.886  -5.599  0.00  0.00     0.000 A 
ATOM     28  C   UNL d   1      11.484   6.780  -4.472  0.00  0.00     0.000 A 
ATOM     29  C   UNL d   1      10.696   9.590  -6.747  0.00  0.00     0.000 A 
ATOM     30  C   UNL d   1      11.462   9.584  -4.435  0.00  0.00     0.000 A 
ATOM     31  C   UNL d   1      10.299   8.910  -7.912  0.00  0.00     0.005 A 
ATOM     32  C   UNL d   1      11.872   8.874  -3.287  0.00  0.00     0.000 A 
ATOM     33  C   UNL d   1      11.880   7.468  -3.308  0.00  0.00     0.000 A 
ENDBRANCH  22  24
ENDBRANCH  20  21
ENDBRANCH  19  20
ENDBRANCH  18  19
ENDBRANCH   1  18
TORSDOF 11
