REMARK  7 active torsions:
REMARK  status: ('A' for Active; 'I' for Inactive)
REMARK    1  A    between atoms: O_2  and  C_3 
REMARK    2  A    between atoms: C_3  and  C_4 
REMARK    3  A    between atoms: N_13  and  C_14 
REMARK    4  A    between atoms: C_14  and  C_15 
REMARK    5  A    between atoms: C_15  and  C_16 
REMARK    6  A    between atoms: C_16  and  C_17 
REMARK    7  A    between atoms: C_17  and  C_19 
ROOT
ATOM      1  C   UNL d   1       8.591   5.048 -11.914  0.00  0.00     0.116 C 
ATOM      2  C   UNL d   1       9.688   3.984 -12.126  0.00  0.00     0.067 C 
ATOM      3  C   UNL d   1       9.434   3.142 -13.371  0.00  0.00     0.253 C 
ATOM      4  N   UNL d   1       9.356   3.975 -14.571  0.00  0.00     0.137 N 
ATOM      5  C   UNL d   1       8.258   4.927 -14.431  0.00  0.00     0.253 C 
ATOM      6  C   UNL d   1       8.536   5.852 -13.237  0.00  0.00     0.067 C 
ENDROOT
BRANCH   4   7
ATOM      7  C   UNL d   1       9.213   3.178 -15.784  0.00  0.00     0.251 C 
BRANCH   7   8
ATOM      8  C   UNL d   1       8.275   1.948 -15.633  0.00  0.00     0.043 C 
BRANCH   8   9
ATOM      9  C   UNL d   1       8.480   0.913 -16.755  0.00  0.00     0.071 C 
BRANCH   9  10
ATOM     10  C   UNL d   1       7.603   1.202 -17.993  0.00  0.00     0.173 C 
ATOM     11  O   UNL d   1       7.860   2.189 -18.681  0.00  0.00    -0.291 OA
BRANCH  10  12
ATOM     12  C   UNL d   1       6.485   0.260 -18.290  0.00  0.00     0.035 A 
ATOM     13  C   UNL d   1       5.800   0.378 -19.520  0.00  0.00     0.005 A 
ATOM     14  C   UNL d   1       4.764  -0.517 -19.860  0.00  0.00     0.030 A 
ATOM     15  C   UNL d   1       4.413  -1.544 -18.966  0.00  0.00     0.140 A 
ATOM     16  C   UNL d   1       5.075  -1.659 -17.725  0.00  0.00     0.030 A 
ATOM     17  F   UNL d   1       3.444  -2.429 -19.296  0.00  0.00    -0.204 F 
ATOM     18  C   UNL d   1       6.099  -0.753 -17.376  0.00  0.00     0.005 A 
ENDBRANCH  10  12
ENDBRANCH   9  10
ENDBRANCH   8   9
ENDBRANCH   7   8
ENDBRANCH   4   7
BRANCH   1  19
ATOM     19  O   UNL d   1       7.336   4.378 -11.695  0.00  0.00    -0.352 OA
ATOM     20  C   UNL d   1       6.156   5.178 -11.649  0.00  0.00     0.175 C 
ENDBRANCH   1  19
BRANCH   1  21
ATOM     21  C   UNL d   1       8.970   5.894 -10.692  0.00  0.00     0.002 A 
ATOM     22  C   UNL d   1       8.763   5.378  -9.386  0.00  0.00    -0.001 A 
ATOM     23  C   UNL d   1       9.095   6.143  -8.239  0.00  0.00     0.011 A 
ATOM     24  C   UNL d   1       9.660   7.422  -8.384  0.00  0.00     0.058 A 
ATOM     25  C   UNL d   1       9.910   7.936  -9.673  0.00  0.00     0.011 A 
ATOM     26 CL   UNL d   1      10.017   8.387  -6.997  0.00  0.00    -0.082 Cl
ATOM     27  C   UNL d   1       9.574   7.175 -10.817  0.00  0.00    -0.001 A 
ENDBRANCH   1  21
TORSDOF 7
