REMARK  2 active torsions:
REMARK  status: ('A' for Active; 'I' for Inactive)
REMARK    1  A    between atoms: N_5  and  C_6 
REMARK    2  A    between atoms: C_8  and  C_9 
ROOT
ATOM      1  C   UNL d   1      10.988   7.180  -6.603  0.00  0.00     0.274 C 
ATOM      2  O   UNL d   1      11.605   7.840  -7.661  0.00  0.00    -0.329 OA
ATOM      3  C   UNL d   1      10.793   7.633  -8.812  0.00  0.00     0.186 C 
ATOM      4  C   UNL d   1       9.351   7.547  -8.292  0.00  0.00     0.247 C 
ATOM      5  O   UNL d   1       8.667   6.497  -8.946  0.00  0.00    -0.215 OA
ATOM      6  C   UNL d   1       9.466   7.277  -6.804  0.00  0.00     0.338 C 
ATOM      7  F   UNL d   1       8.906   6.132  -6.436  0.00  0.00    -0.197 F 
ATOM      8  F   UNL d   1       8.905   8.269  -6.115  0.00  0.00    -0.197 F 
ENDROOT
BRANCH   1   9
ATOM      9  N   UNL d   1      11.457   7.722  -5.273  0.00  0.00    -0.251 N 
ATOM     10  C   UNL d   1      11.854   6.832  -4.282  0.00  0.00     0.085 A 
ATOM     11  C   UNL d   1      12.231   7.233  -3.053  0.00  0.00     0.060 A 
ATOM     12  C   UNL d   1      12.214   8.654  -2.824  0.00  0.00     0.190 A 
ATOM     13  N   UNL d   1      12.547   9.149  -1.640  0.00  0.00    -0.127 N 
ATOM     14  N   UNL d   1      11.868   9.504  -3.761  0.00  0.00    -0.171 NA
ATOM     15  C   UNL d   1      11.479   9.121  -5.010  0.00  0.00     0.353 A 
ATOM     16  O   UNL d   1      11.152   9.958  -5.846  0.00  0.00    -0.244 OA
ENDBRANCH   1   9
BRANCH   3  17
ATOM     17  C   UNL d   1      10.989   8.729  -9.880  0.00  0.00     0.215 C 
ATOM     18  O   UNL d   1      10.258   8.394 -11.049  0.00  0.00    -0.218 OA
ENDBRANCH   3  17
TORSDOF 2
