REMARK  11 active torsions:
REMARK  status: ('A' for Active; 'I' for Inactive)
REMARK    1  A    between atoms: C_2  and  C_3 
REMARK    2  A    between atoms: C_3  and  N_4 
REMARK    3  A    between atoms: N_4  and  C_5 
REMARK    4  A    between atoms: N_4  and  C_23 
REMARK    5  A    between atoms: C_5  and  C_6 
REMARK    6  A    between atoms: C_6  and  C_7 
REMARK    7  A    between atoms: C_7  and  C_8 
REMARK    8  A    between atoms: C_8  and  N_9 
REMARK    9  A    between atoms: N_12  and  C_13 
REMARK   10  A    between atoms: C_18  and  O_19 
REMARK   11  A    between atoms: C_23  and  C_24 
ROOT
ATOM      1  C   UNL d   1       6.583  -0.534 -16.682  0.00  0.00     0.037 C 
ENDROOT
BRANCH   1   2
ATOM      2  C   UNL d   1       5.337  -0.218 -17.514  0.00  0.00     0.251 C 
BRANCH   2   3
ATOM      3  N   UNL d   1       5.060  -1.245 -18.516  0.00  0.00     0.141 N 
BRANCH   3   4
ATOM      4  C   UNL d   1       4.016  -0.794 -19.441  0.00  0.00     0.251 C 
BRANCH   4   5
ATOM      5  C   UNL d   1       4.404   0.423 -20.302  0.00  0.00     0.035 C 
ATOM      6  C   UNL d   1       5.456   0.077 -21.359  0.00  0.00     0.002 C 
ENDBRANCH   4   5
ENDBRANCH   3   4
BRANCH   3   7
ATOM      7  C   UNL d   1       4.653  -2.475 -17.820  0.00  0.00     0.277 C 
BRANCH   7   8
ATOM      8  C   UNL d   1       4.381  -3.663 -18.725  0.00  0.00     0.011 A 
ATOM      9  C   UNL d   1       3.062  -3.908 -19.151  0.00  0.00    -0.002 A 
ATOM     10  C   UNL d   1       2.770  -5.010 -19.971  0.00  0.00    -0.000 A 
ATOM     11  C   UNL d   1       3.811  -5.884 -20.368  0.00  0.00    -0.000 A 
ATOM     12  C   UNL d   1       1.444  -5.242 -20.389  0.00  0.00    -0.000 A 
ATOM     13  C   UNL d   1       5.135  -5.641 -19.943  0.00  0.00    -0.000 A 
ATOM     14  C   UNL d   1       3.511  -6.992 -21.184  0.00  0.00    -0.000 A 
ATOM     15  C   UNL d   1       5.421  -4.531 -19.122  0.00  0.00    -0.002 A 
ATOM     16  C   UNL d   1       2.184  -7.224 -21.599  0.00  0.00    -0.000 A 
ATOM     17  C   UNL d   1       1.151  -6.351 -21.204  0.00  0.00    -0.000 A 
ENDBRANCH   7   8
ENDBRANCH   3   7
ENDBRANCH   2   3
ENDBRANCH   1   2
BRANCH   1  18
ATOM     18  C   UNL d   1       7.363   0.731 -16.312  0.00  0.00     0.037 C 
BRANCH  18  19
ATOM     19  C   UNL d   1       8.126   1.331 -17.519  0.00  0.00     0.251 C 
BRANCH  19  20
ATOM     20  N   UNL d   1       8.879   2.532 -17.162  0.00  0.00     0.141 N 
ATOM     21  C   UNL d   1      10.046   2.178 -16.342  0.00  0.00     0.274 C 
ATOM     22  C   UNL d   1      10.837   3.437 -15.944  0.00  0.00     0.137 C 
ATOM     23  N   UNL d   1      11.203   4.172 -17.140  0.00  0.00    -0.343 N 
ATOM     24  C   UNL d   1      10.127   4.477 -18.068  0.00  0.00     0.137 C 
ATOM     25  C   UNL d   1       9.345   3.187 -18.393  0.00  0.00     0.274 C 
BRANCH  23  26
ATOM     26  C   UNL d   1      12.512   4.580 -17.379  0.00  0.00     0.079 A 
ATOM     27  C   UNL d   1      13.019   5.772 -16.800  0.00  0.00     0.110 A 
ATOM     28  C   UNL d   1      14.348   6.167 -17.094  0.00  0.00     0.026 A 
ATOM     29  C   UNL d   1      15.156   5.389 -17.942  0.00  0.00     0.002 A 
ATOM     30  C   UNL d   1      14.648   4.206 -18.509  0.00  0.00     0.002 A 
ATOM     31  C   UNL d   1      13.329   3.807 -18.229  0.00  0.00     0.019 A 
BRANCH  27  32
ATOM     32  O   UNL d   1      12.172   6.495 -15.986  0.00  0.00    -0.327 OA
ATOM     33  C   UNL d   1      12.636   7.733 -15.471  0.00  0.00     0.181 C 
ENDBRANCH  27  32
ENDBRANCH  23  26
ENDBRANCH  19  20
ENDBRANCH  18  19
ENDBRANCH   1  18
TORSDOF 11
