REMARK  7 active torsions:
REMARK  status: ('A' for Active; 'I' for Inactive)
REMARK    1  A    between atoms: C_7  and  C_8 
REMARK    2  A    between atoms: C_8  and  C_9 
REMARK    3  A    between atoms: C_9  and  C_10 
REMARK    4  A    between atoms: C_10  and  N_11 
REMARK       I    between atoms: N_11  and  C_12 
REMARK       I    between atoms: C_12  and  N_14 
REMARK       I    between atoms: N_14  and  C_15 
REMARK       I    between atoms: C_15  and  N_17 
REMARK    5  A    between atoms: N_17  and  C_18 
REMARK    6  A    between atoms: C_18  and  C_19 
REMARK    7  A    between atoms: C_19  and  C_21 
ROOT
ATOM      1  N   UNL d   1       8.655   6.244 -10.203  0.00  0.00    -0.241 NA
ATOM      2  C   UNL d   1       8.457   5.762 -11.447  0.00  0.00     0.237 C 
ATOM      3  N   UNL d   1       7.422   6.424 -12.097  0.00  0.00    -0.060 NA
ATOM      4  N   UNL d   1       9.216   4.817 -11.921  0.00  0.00    -0.159 NA
ATOM      5  C   UNL d   1       8.969   4.292 -13.161  0.00  0.00     0.367 C 
ATOM      6  O   UNL d   1       8.230   4.718 -14.049  0.00  0.00    -0.243 OA
ATOM      7  N   UNL d   1       9.687   3.174 -13.301  0.00  0.00    -0.217 NA
ENDROOT
BRANCH   1   8
ATOM      8  C   UNL d   1       9.695   5.835  -9.265  0.00  0.00     0.129 C 
BRANCH   8   9
ATOM      9  C   UNL d   1       9.886   6.904  -8.186  0.00  0.00     0.032 C 
BRANCH   9  10
ATOM     10  C   UNL d   1      10.688   6.396  -6.975  0.00  0.00     0.036 C 
BRANCH  10  11
ATOM     11  C   UNL d   1      11.104   7.436  -5.979  0.00  0.00     0.024 A 
ATOM     12  C   UNL d   1      11.289   8.793  -6.131  0.00  0.00     0.064 A 
ATOM     13  C   UNL d   1      11.105   9.633  -7.343  0.00  0.00     0.052 C 
ATOM     14  N   UNL d   1      11.725   9.447  -4.979  0.00  0.00    -0.224 NA
ATOM     15  C   UNL d   1      11.871   8.618  -3.954  0.00  0.00     0.214 A 
ATOM     16  N   UNL d   1      12.263   9.024  -2.695  0.00  0.00    -0.120 N 
ATOM     17  S   UNL d   1      11.469   6.951  -4.341  0.00  0.00    -0.050 SA
ENDBRANCH  10  11
ENDBRANCH   9  10
ENDBRANCH   8   9
ENDBRANCH   1   8
BRANCH   7  18
ATOM     18  C   UNL d   1       9.614   2.240 -14.425  0.00  0.00     0.131 C 
BRANCH  18  19
ATOM     19  C   UNL d   1      10.951   2.129 -15.195  0.00  0.00     0.025 C 
ATOM     20  C   UNL d   1      10.866   0.909 -16.137  0.00  0.00     0.002 C 
BRANCH  19  21
ATOM     21  C   UNL d   1      11.351   3.447 -15.938  0.00  0.00     0.002 C 
ATOM     22  C   UNL d   1      11.810   4.558 -14.953  0.00  0.00     0.000 C 
ATOM     23  C   UNL d   1      12.214   5.839 -15.665  0.00  0.00     0.000 C 
ATOM     24  C   UNL d   1      13.344   5.586 -16.657  0.00  0.00     0.000 C 
ATOM     25  C   UNL d   1      12.923   4.510 -17.669  0.00  0.00     0.000 C 
ATOM     26  C   UNL d   1      12.479   3.215 -16.980  0.00  0.00     0.000 C 
ENDBRANCH  19  21
ENDBRANCH  18  19
ENDBRANCH   7  18
TORSDOF 7
