REMARK  11 active torsions:
REMARK  status: ('A' for Active; 'I' for Inactive)
REMARK    1  A    between atoms: C_2  and  C_3 
REMARK    2  A    between atoms: C_3  and  N_4 
REMARK    3  A    between atoms: N_4  and  C_5 
REMARK    4  A    between atoms: N_4  and  C_24 
REMARK    5  A    between atoms: C_5  and  C_6 
REMARK    6  A    between atoms: C_6  and  C_7 
REMARK    7  A    between atoms: C_7  and  C_8 
REMARK    8  A    between atoms: C_8  and  N_9 
REMARK       I    between atoms: N_9  and  C_10 
REMARK    9  A    between atoms: C_10  and  C_12 
REMARK   10  A    between atoms: C_15  and  C_16 
REMARK   11  A    between atoms: C_32  and  C_33 
ROOT
ATOM      1  C   UNL d   1       9.061   3.418 -14.740  0.00  0.00     0.250 C 
ENDROOT
BRANCH   1   2
ATOM      2  N   UNL d   1      10.506   3.309 -14.964  0.00  0.00     0.135 N 
BRANCH   2   3
ATOM      3  C   UNL d   1      10.805   2.030 -15.620  0.00  0.00     0.250 C 
BRANCH   3   4
ATOM      4  C   UNL d   1      10.328   0.772 -14.869  0.00  0.00     0.035 C 
ATOM      5  C   UNL d   1       9.880  -0.327 -15.834  0.00  0.00     0.002 C 
ENDBRANCH   3   4
ENDBRANCH   2   3
BRANCH   2   6
ATOM      6  C   UNL d   1      11.046   4.463 -15.697  0.00  0.00     0.224 C 
ATOM      7  C   UNL d   1      10.493   4.585 -17.126  0.00  0.00     0.059 C 
ATOM      8  C   UNL d   1      11.161   5.675 -17.941  0.00  0.00    -0.024 A 
ATOM      9  C   UNL d   1      12.399   6.243 -17.556  0.00  0.00    -0.021 A 
ATOM     10  C   UNL d   1      10.519   6.066 -19.134  0.00  0.00    -0.004 A 
ATOM     11  C   UNL d   1      13.077   5.845 -16.236  0.00  0.00     0.028 C 
ATOM     12  C   UNL d   1      13.005   7.231 -18.400  0.00  0.00     0.055 A 
ATOM     13  C   UNL d   1      12.577   4.514 -15.651  0.00  0.00     0.038 C 
ATOM     14  C   UNL d   1      12.342   7.596 -19.604  0.00  0.00     0.004 A 
ATOM     15  C   UNL d   1      11.112   7.022 -19.972  0.00  0.00    -0.000 A 
BRANCH  12  16
ATOM     16  C   UNL d   1      14.278   7.858 -18.081  0.00  0.00     0.296 C 
ATOM     17  N   UNL d   1      14.246   9.204 -17.967  0.00  0.00    -0.102 N 
ATOM     18  O   UNL d   1      15.336   7.226 -17.910  0.00  0.00    -0.264 OA
ENDBRANCH  12  16
ENDBRANCH   2   6
ENDBRANCH   1   2
BRANCH   1  19
ATOM     19  C   UNL d   1       8.606   4.803 -14.236  0.00  0.00     0.037 C 
BRANCH  19  20
ATOM     20  C   UNL d   1       9.323   5.208 -12.948  0.00  0.00     0.029 C 
BRANCH  20  21
ATOM     21  C   UNL d   1       8.446   6.051 -12.027  0.00  0.00     0.129 C 
BRANCH  21  22
ATOM     22  N   UNL d   1       9.137   6.302 -10.773  0.00  0.00    -0.234 NA
ATOM     23  C   UNL d   1       9.728   7.454 -10.436  0.00  0.00     0.275 C 
ATOM     24  O   UNL d   1       9.862   8.405 -11.207  0.00  0.00    -0.266 OA
BRANCH  23  25
ATOM     25  C   UNL d   1      10.197   7.542  -9.011  0.00  0.00     0.058 A 
ATOM     26  C   UNL d   1      11.261   8.409  -8.675  0.00  0.00     0.005 A 
ATOM     27  C   UNL d   1      11.665   8.541  -7.333  0.00  0.00     0.000 A 
ATOM     28  C   UNL d   1      11.024   7.811  -6.307  0.00  0.00     0.000 A 
ATOM     29  C   UNL d   1       9.959   6.952  -6.653  0.00  0.00     0.000 A 
ATOM     30  C   UNL d   1       9.541   6.827  -7.989  0.00  0.00     0.005 A 
BRANCH  28  31
ATOM     31  C   UNL d   1      11.446   7.941  -4.905  0.00  0.00     0.000 A 
ATOM     32  C   UNL d   1      11.672   9.213  -4.337  0.00  0.00     0.000 A 
ATOM     33  C   UNL d   1      12.088   9.339  -2.999  0.00  0.00     0.000 A 
ATOM     34  C   UNL d   1      12.294   8.192  -2.211  0.00  0.00     0.000 A 
ATOM     35  C   UNL d   1      12.081   6.917  -2.764  0.00  0.00     0.000 A 
ATOM     36  C   UNL d   1      11.659   6.798  -4.102  0.00  0.00     0.000 A 
ENDBRANCH  28  31
ENDBRANCH  23  25
ENDBRANCH  21  22
ENDBRANCH  20  21
ENDBRANCH  19  20
ENDBRANCH   1  19
TORSDOF 11
