REMARK  3 active torsions:
REMARK  status: ('A' for Active; 'I' for Inactive)
REMARK    1  A    between atoms: C_5  and  C_6 
REMARK    2  A    between atoms: C_6  and  N_7 
REMARK    3  A    between atoms: C_10  and  C_11 
ROOT
ATOM      1  N   UNL d   1       8.991   4.407 -13.001  0.00  0.00     0.141 N 
ATOM      2  C   UNL d   1       9.951   3.604 -13.756  0.00  0.00     0.251 C 
ATOM      3  C   UNL d   1       9.335   2.247 -14.123  0.00  0.00     0.036 C 
ATOM      4  C   UNL d   1       8.065   2.452 -14.928  0.00  0.00     0.011 C 
ATOM      5  C   UNL d   1       7.113   3.410 -14.180  0.00  0.00     0.036 C 
ATOM      6  C   UNL d   1       7.817   4.712 -13.812  0.00  0.00     0.251 C 
ENDROOT
BRANCH   4   7
ATOM      7  C   UNL d   1       7.382   1.096 -15.311  0.00  0.00     0.062 C 
ATOM      8  C   UNL d   1       6.814   1.112 -16.747  0.00  0.00     0.172 C 
ATOM      9  C   UNL d   1       5.768   0.062 -17.038  0.00  0.00     0.031 A 
ATOM     10  O   UNL d   1       7.202   1.905 -17.584  0.00  0.00    -0.291 OA
ATOM     11  C   UNL d   1       5.254  -0.781 -16.036  0.00  0.00    -0.019 A 
ATOM     12  C   UNL d   1       5.301  -0.024 -18.364  0.00  0.00     0.003 A 
ATOM     13  C   UNL d   1       5.725  -0.731 -14.593  0.00  0.00     0.027 C 
ATOM     14  C   UNL d   1       4.248  -1.717 -16.382  0.00  0.00    -0.004 A 
ATOM     15  C   UNL d   1       6.339   0.618 -14.271  0.00  0.00     0.012 C 
ATOM     16  C   UNL d   1       3.794  -1.811 -17.702  0.00  0.00    -0.000 A 
ATOM     17  C   UNL d   1       4.301  -0.969 -18.696  0.00  0.00     0.000 A 
ENDBRANCH   4   7
BRANCH   1  18
ATOM     18  C   UNL d   1       9.593   5.648 -12.535  0.00  0.00     0.277 C 
BRANCH  18  19
ATOM     19  C   UNL d   1       9.399   5.935 -11.057  0.00  0.00     0.011 A 
ATOM     20  C   UNL d   1       8.804   4.995 -10.189  0.00  0.00    -0.003 A 
ATOM     21  C   UNL d   1       8.675   5.267  -8.819  0.00  0.00    -0.004 A 
ATOM     22  C   UNL d   1       9.136   6.493  -8.294  0.00  0.00    -0.022 A 
ATOM     23  C   UNL d   1       8.933   6.832  -6.835  0.00  0.00     0.031 C 
ATOM     24  C   UNL d   1       9.740   7.433  -9.152  0.00  0.00    -0.004 A 
ATOM     25  C   UNL d   1       9.863   7.161 -10.529  0.00  0.00    -0.003 A 
ENDBRANCH  18  19
ENDBRANCH   1  18
TORSDOF 3
