REMARK  6 active torsions:
REMARK  status: ('A' for Active; 'I' for Inactive)
REMARK    1  A    between atoms: C_2  and  O_4 
REMARK    2  A    between atoms: O_4  and  C_5 
REMARK    3  A    between atoms: C_10  and  N_11 
REMARK    4  A    between atoms: N_14  and  C_15 
REMARK    5  A    between atoms: C_18  and  N_19 
REMARK       I    between atoms: N_19  and  C_20 
REMARK       I    between atoms: C_20  and  N_22 
REMARK    6  A    between atoms: N_22  and  C_23 
ROOT
ATOM      1  C   UNL d   1       7.967   4.847 -13.541  0.00  0.00     0.220 C 
ATOM      2  C   UNL d   1       9.339   5.431 -13.233  0.00  0.00     0.035 C 
ATOM      3  C   UNL d   1       9.633   5.464 -11.720  0.00  0.00     0.026 C 
ATOM      4  C   UNL d   1       8.544   6.209 -10.955  0.00  0.00     0.108 C 
ATOM      5  C   UNL d   1       7.152   5.617 -11.264  0.00  0.00     0.026 C 
ATOM      6  C   UNL d   1       6.867   5.595 -12.765  0.00  0.00     0.035 C 
ENDROOT
BRANCH   1   7
ATOM      7  N   UNL d   1       7.961   3.441 -13.190  0.00  0.00     0.139 N 
ATOM      8  C   UNL d   1       9.046   2.607 -13.746  0.00  0.00     0.274 C 
ATOM      9  C   UNL d   1       8.879   2.536 -15.254  0.00  0.00     0.137 C 
ATOM     10  N   UNL d   1       7.530   1.987 -15.523  0.00  0.00    -0.343 N 
ATOM     11  C   UNL d   1       6.356   2.583 -14.837  0.00  0.00     0.137 C 
ATOM     12  C   UNL d   1       6.654   2.771 -13.369  0.00  0.00     0.274 C 
BRANCH  10  13
ATOM     13  C   UNL d   1       7.316   0.953 -16.455  0.00  0.00     0.079 A 
ATOM     14  C   UNL d   1       8.121   0.808 -17.621  0.00  0.00     0.109 A 
ATOM     15  C   UNL d   1       7.855  -0.290 -18.477  0.00  0.00     0.026 A 
ATOM     16  C   UNL d   1       6.797  -1.184 -18.211  0.00  0.00     0.002 A 
ATOM     17  C   UNL d   1       5.990  -1.005 -17.082  0.00  0.00     0.002 A 
ATOM     18  C   UNL d   1       6.273   0.033 -16.198  0.00  0.00     0.019 A 
BRANCH  14  19
ATOM     19  O   UNL d   1       9.107   1.754 -17.889  0.00  0.00    -0.332 OA
BRANCH  19  20
ATOM     20  C   UNL d   1      10.120   1.486 -18.857  0.00  0.00     0.122 C 
ATOM     21  C   UNL d   1      11.059   0.360 -18.373  0.00  0.00     0.033 C 
ATOM     22  C   UNL d   1      10.909   2.783 -19.085  0.00  0.00     0.033 C 
ENDBRANCH  19  20
ENDBRANCH  14  19
ENDBRANCH  10  13
ENDBRANCH   1   7
BRANCH   4  23
ATOM     23  N   UNL d   1       8.806   6.189  -9.509  0.00  0.00    -0.219 NA
ATOM     24  C   UNL d   1       9.789   6.872  -8.914  0.00  0.00     0.364 C 
ATOM     25  O   UNL d   1      10.739   7.375  -9.522  0.00  0.00    -0.243 OA
ATOM     26  N   UNL d   1       9.623   6.973  -7.587  0.00  0.00    -0.189 NA
BRANCH  26  27
ATOM     27  C   UNL d   1      10.467   7.663  -6.682  0.00  0.00     0.116 A 
ATOM     28  C   UNL d   1      10.993   8.939  -6.961  0.00  0.00     0.158 A 
ATOM     29  C   UNL d   1      11.831   9.601  -6.046  0.00  0.00     0.034 A 
ATOM     30  F   UNL d   1      10.694   9.578  -8.130  0.00  0.00    -0.203 F 
ATOM     31  C   UNL d   1      12.129   8.997  -4.816  0.00  0.00     0.032 A 
ATOM     32  C   UNL d   1      11.603   7.720  -4.519  0.00  0.00     0.142 A 
ATOM     33  C   UNL d   1      10.768   7.066  -5.452  0.00  0.00     0.051 A 
ATOM     34  F   UNL d   1      11.899   7.121  -3.339  0.00  0.00    -0.204 F 
ENDBRANCH  26  27
ENDBRANCH   4  23
TORSDOF 6
