REMARK  1 active torsions:
REMARK  status: ('A' for Active; 'I' for Inactive)
REMARK    1  A    between atoms: O_2  and  C_3 
ROOT
ATOM      1  C   UNL d   1       6.948   0.296 -14.581  0.00  0.00     0.094 A 
ATOM      2  C   UNL d   1       8.134   0.356 -15.329  0.00  0.00     0.024 A 
ATOM      3  C   UNL d   1       8.748   1.587 -15.607  0.00  0.00    -0.002 A 
ATOM      4  C   UNL d   1       8.186   2.774 -15.095  0.00  0.00    -0.022 A 
ATOM      5  C   UNL d   1       6.989   2.723 -14.324  0.00  0.00    -0.024 A 
ATOM      6  C   UNL d   1       6.397   1.485 -14.062  0.00  0.00     0.020 A 
ATOM      7  C   UNL d   1       6.258   3.934 -13.769  0.00  0.00     0.028 C 
ATOM      8  C   UNL d   1       6.607   4.277 -12.312  0.00  0.00     0.040 C 
ATOM      9  C   UNL d   1       7.201   5.674 -12.105  0.00  0.00     0.251 C 
ATOM     10  N   UNL d   1       8.557   5.827 -12.624  0.00  0.00     0.139 N 
ATOM     11  C   UNL d   1       8.905   7.228 -12.502  0.00  0.00     0.285 C 
ATOM     12  C   UNL d   1       9.535   5.055 -11.879  0.00  0.00     0.255 C 
ATOM     13  C   UNL d   1       9.977   3.819 -12.669  0.00  0.00     0.061 C 
ATOM     14  C   UNL d   1      10.858   4.090 -13.899  0.00  0.00    -0.024 A 
ATOM     15  C   UNL d   1      12.260   4.181 -13.769  0.00  0.00    -0.004 A 
ATOM     16  C   UNL d   1      13.061   4.404 -14.892  0.00  0.00    -0.000 A 
ATOM     17  C   UNL d   1      12.537   4.520 -16.187  0.00  0.00    -0.000 A 
ATOM     18  C   UNL d   1      11.146   4.416 -16.346  0.00  0.00    -0.004 A 
ATOM     19  C   UNL d   1      10.331   4.180 -15.210  0.00  0.00    -0.022 A 
ATOM     20  C   UNL d   1       8.859   4.085 -15.450  0.00  0.00     0.052 C 
ENDROOT
BRANCH   1  21
ATOM     21  O   UNL d   1       6.407  -0.935 -14.345  0.00  0.00    -0.328 OA
ATOM     22  C   UNL d   1       4.996  -1.007 -14.366  0.00  0.00     0.181 C 
ENDBRANCH   1  21
TORSDOF 1
