REMARK  7 active torsions:
REMARK  status: ('A' for Active; 'I' for Inactive)
REMARK    1  A    between atoms: C_6  and  C_7 
REMARK    2  A    between atoms: C_10  and  S_11 
REMARK    3  A    between atoms: S_11  and  C_12 
REMARK    4  A    between atoms: C_12  and  C_13 
REMARK    5  A    between atoms: C_13  and  C_14 
REMARK    6  A    between atoms: C_14  and  N_15 
REMARK    7  A    between atoms: N_20  and  C_21 
ROOT
ATOM      1  C   UNL d   1      12.463   3.286 -17.541  0.00  0.00     0.251 C 
ENDROOT
BRANCH   1   2
ATOM      2  C   UNL d   1      12.200   4.773 -17.844  0.00  0.00     0.047 C 
BRANCH   2   3
ATOM      3  C   UNL d   1      13.275   5.419 -18.720  0.00  0.00     0.067 C 
BRANCH   3   4
ATOM      4  S   UNL d   1      14.928   5.217 -17.990  0.00  0.00    -0.075 SA
BRANCH   4   5
ATOM      5  C   UNL d   1      15.750   6.654 -18.600  0.00  0.00     0.193 A 
ATOM      6  N   UNL d   1      15.292   7.433 -19.579  0.00  0.00    -0.122 NA
ATOM      7  N   UNL d   1      16.223   8.430 -19.721  0.00  0.00    -0.126 NA
ATOM      8  C   UNL d   1      17.176   8.178 -18.820  0.00  0.00     0.191 A 
ATOM      9  N   UNL d   1      16.933   7.060 -18.099  0.00  0.00    -0.287 N 
ATOM     10  C   UNL d   1      17.750   6.441 -17.062  0.00  0.00     0.134 C 
BRANCH   8  11
ATOM     11  C   UNL d   1      18.345   9.042 -18.691  0.00  0.00     0.151 A 
ATOM     12  C   UNL d   1      18.982   9.867 -19.587  0.00  0.00     0.087 A 
ATOM     13  C   UNL d   1      18.678  10.132 -21.030  0.00  0.00     0.054 C 
ATOM     14  N   UNL d   1      20.051  10.473 -18.941  0.00  0.00    -0.221 NA
ATOM     15  C   UNL d   1      20.007   9.991 -17.703  0.00  0.00     0.225 A 
ATOM     16  O   UNL d   1      19.000   9.105 -17.488  0.00  0.00    -0.282 OA
ENDBRANCH   8  11
ENDBRANCH   4   5
ENDBRANCH   3   4
ENDBRANCH   2   3
ENDBRANCH   1   2
BRANCH   1  17
ATOM     17  N   UNL d   1      11.334   2.657 -16.864  0.00  0.00     0.138 N 
ATOM     18  C   UNL d   1      10.986   3.295 -15.598  0.00  0.00     0.266 C 
ATOM     19  C   UNL d   1      10.203   2.225 -14.834  0.00  0.00     0.097 C 
ATOM     20  C   UNL d   1      10.580   0.904 -15.489  0.00  0.00     0.052 C 
ATOM     21  N   UNL d   1       8.753   2.381 -14.959  0.00  0.00    -0.252 NA
ATOM     22  C   UNL d   1      11.639   1.274 -16.528  0.00  0.00     0.252 C 
ATOM     23  C   UNL d   1       9.273   0.346 -16.053  0.00  0.00     0.021 C 
ATOM     24  C   UNL d   1       8.204   1.063 -15.232  0.00  0.00     0.077 C 
BRANCH  21  25
ATOM     25  C   UNL d   1       8.073   3.211 -14.042  0.00  0.00     0.039 A 
ATOM     26  C   UNL d   1       6.669   3.121 -13.902  0.00  0.00     0.041 A 
ATOM     27  C   UNL d   1       5.993   3.909 -12.954  0.00  0.00     0.141 A 
ATOM     28  C   UNL d   1       6.691   4.813 -12.136  0.00  0.00     0.030 A 
ATOM     29  F   UNL d   1       4.653   3.774 -12.841  0.00  0.00    -0.204 F 
ATOM     30  C   UNL d   1       8.086   4.931 -12.283  0.00  0.00     0.003 A 
ATOM     31  C   UNL d   1       8.768   4.146 -13.230  0.00  0.00     0.011 A 
ENDBRANCH  21  25
ENDBRANCH   1  17
TORSDOF 7
