REMARK  7 active torsions:
REMARK  status: ('A' for Active; 'I' for Inactive)
REMARK    1  A    between atoms: C_8  and  O_9 
REMARK    2  A    between atoms: O_9  and  C_10 
REMARK    3  A    between atoms: C_10  and  C_11 
REMARK    4  A    between atoms: C_11  and  C_12 
REMARK    5  A    between atoms: C_12  and  C_13 
REMARK    6  A    between atoms: C_13  and  N_14 
REMARK    7  A    between atoms: N_17  and  C_18 
ROOT
ATOM      1  N   UNL d   1       7.812   4.839 -12.164  0.00  0.00     0.141 N 
ATOM      2  C   UNL d   1       6.545   4.109 -12.372  0.00  0.00     0.274 C 
ATOM      3  C   UNL d   1       6.321   3.794 -13.864  0.00  0.00     0.137 C 
ATOM      4  N   UNL d   1       7.501   3.143 -14.419  0.00  0.00    -0.344 N 
ATOM      5  C   UNL d   1       8.763   3.804 -14.138  0.00  0.00     0.137 C 
ATOM      6  C   UNL d   1       8.949   4.053 -12.661  0.00  0.00     0.274 C 
ENDROOT
BRANCH   1   7
ATOM      7  C   UNL d   1       7.967   5.088 -10.741  0.00  0.00     0.251 C 
BRANCH   7   8
ATOM      8  C   UNL d   1       9.183   5.966 -10.373  0.00  0.00     0.038 C 
BRANCH   8   9
ATOM      9  C   UNL d   1       9.728   5.619  -8.984  0.00  0.00     0.035 C 
BRANCH   9  10
ATOM     10  C   UNL d   1      10.624   6.752  -8.498  0.00  0.00     0.149 C 
BRANCH  10  11
ATOM     11  O   UNL d   1      11.160   6.376  -7.240  0.00  0.00    -0.331 OA
BRANCH  11  12
ATOM     12  C   UNL d   1      11.292   7.309  -6.239  0.00  0.00     0.094 A 
ATOM     13  C   UNL d   1      11.089   8.713  -6.412  0.00  0.00     0.024 A 
ATOM     14  C   UNL d   1      11.235   9.603  -5.330  0.00  0.00    -0.000 A 
ATOM     15  C   UNL d   1      11.618   9.054  -4.098  0.00  0.00     0.007 A 
ATOM     16  C   UNL d   1      11.867   9.725  -2.791  0.00  0.00     0.155 A 
ATOM     17  C   UNL d   1      11.856   7.710  -3.925  0.00  0.00     0.057 A 
ATOM     18  N   UNL d   1      12.257   8.635  -1.908  0.00  0.00    -0.229 NA
ATOM     19  C   UNL d   1      12.259   7.444  -2.522  0.00  0.00     0.275 A 
ATOM     20  O   UNL d   1      12.576   6.369  -2.044  0.00  0.00    -0.266 OA
ATOM     21  C   UNL d   1      11.684   6.801  -4.972  0.00  0.00     0.029 A 
ENDBRANCH  11  12
ENDBRANCH  10  11
ENDBRANCH   9  10
ENDBRANCH   8   9
ENDBRANCH   7   8
ENDBRANCH   1   7
BRANCH   4  22
ATOM     22  C   UNL d   1       7.415   1.998 -15.238  0.00  0.00     0.056 A 
ATOM     23  C   UNL d   1       8.164   1.828 -16.453  0.00  0.00     0.015 A 
ATOM     24  C   UNL d   1       8.036   0.616 -17.180  0.00  0.00     0.001 A 
ATOM     25  C   UNL d   1       9.006   2.842 -16.997  0.00  0.00     0.001 A 
ATOM     26  C   UNL d   1       7.146  -0.382 -16.739  0.00  0.00     0.000 A 
ATOM     27  C   UNL d   1       8.788   0.406 -18.362  0.00  0.00     0.000 A 
ATOM     28  C   UNL d   1       6.404  -0.217 -15.556  0.00  0.00     0.002 A 
ATOM     29  C   UNL d   1       6.548   0.966 -14.809  0.00  0.00     0.017 A 
ATOM     30  C   UNL d   1       9.655   1.404 -18.848  0.00  0.00     0.000 A 
ATOM     31  C   UNL d   1       9.754   2.621 -18.163  0.00  0.00     0.000 A 
ENDBRANCH   4  22
TORSDOF 7
