REMARK  9 active torsions:
REMARK  status: ('A' for Active; 'I' for Inactive)
REMARK    1  A    between atoms: C_5  and  O_6 
REMARK    2  A    between atoms: O_6  and  C_7 
REMARK    3  A    between atoms: C_7  and  C_8 
REMARK    4  A    between atoms: C_8  and  C_9 
REMARK    5  A    between atoms: C_8  and  O_15 
REMARK    6  A    between atoms: C_9  and  N_10 
REMARK    7  A    between atoms: N_10  and  C_11 
REMARK    8  A    between atoms: O_15  and  C_16 
REMARK    9  A    between atoms: C_16  and  C_18 
ROOT
ATOM      1  C   UNL d   1       9.434   5.501 -12.167  0.00  0.00     0.178 C 
ENDROOT
BRANCH   1   2
ATOM      2  C   UNL d   1       7.983   5.231 -12.586  0.00  0.00     0.181 C 
BRANCH   2   3
ATOM      3  O   UNL d   1       7.982   4.354 -13.716  0.00  0.00    -0.328 OA
BRANCH   3   4
ATOM      4  C   UNL d   1       7.189   3.249 -13.703  0.00  0.00     0.096 A 
ATOM      5  C   UNL d   1       7.615   2.122 -14.464  0.00  0.00     0.041 A 
ATOM      6  C   UNL d   1       8.758   1.846 -15.297  0.00  0.00     0.018 A 
ATOM      7  C   UNL d   1       6.819   0.927 -14.443  0.00  0.00     0.083 A 
ATOM      8  C   UNL d   1       8.647   0.570 -15.744  0.00  0.00     0.059 A 
ATOM      9  C   UNL d   1       9.568  -0.228 -16.619  0.00  0.00     0.052 C 
ATOM     10  N   UNL d   1       7.472   0.014 -15.245  0.00  0.00    -0.250 NA
ATOM     11  C   UNL d   1       5.629   0.858 -13.708  0.00  0.00     0.019 A 
ATOM     12  C   UNL d   1       5.215   1.971 -12.962  0.00  0.00     0.004 A 
ATOM     13  C   UNL d   1       5.966   3.163 -12.961  0.00  0.00     0.024 A 
ENDBRANCH   3   4
ENDBRANCH   2   3
ENDBRANCH   1   2
BRANCH   1  14
ATOM     14  C   UNL d   1       9.568   6.802 -11.342  0.00  0.00     0.152 C 
BRANCH  14  15
ATOM     15  N   UNL d   1      10.253   6.600 -10.063  0.00  0.00    -0.297 NA
BRANCH  15  16
ATOM     16  C   UNL d   1      10.309   7.749  -9.155  0.00  0.00     0.080 C 
ATOM     17  C   UNL d   1      11.723   7.749  -8.562  0.00  0.00     0.024 C 
ATOM     18  C   UNL d   1       9.301   7.536  -8.011  0.00  0.00     0.024 C 
ATOM     19  C   UNL d   1      10.080   9.095  -9.875  0.00  0.00     0.024 C 
ENDBRANCH  15  16
ENDBRANCH  14  15
ENDBRANCH   1  14
BRANCH   1  20
ATOM     20  O   UNL d   1      10.196   5.641 -13.354  0.00  0.00    -0.296 OA
BRANCH  20  21
ATOM     21  C   UNL d   1      10.646   4.491 -13.994  0.00  0.00     0.296 C 
ATOM     22  O   UNL d   1      10.467   3.337 -13.615  0.00  0.00    -0.259 OA
BRANCH  21  23
ATOM     23  C   UNL d   1      11.380   4.812 -15.221  0.00  0.00     0.063 A 
ATOM     24  C   UNL d   1      12.755   4.495 -15.295  0.00  0.00     0.005 A 
ATOM     25  C   UNL d   1      13.485   4.789 -16.459  0.00  0.00     0.000 A 
ATOM     26  C   UNL d   1      12.845   5.371 -17.567  0.00  0.00     0.000 A 
ATOM     27  C   UNL d   1      11.465   5.654 -17.517  0.00  0.00     0.000 A 
ATOM     28  C   UNL d   1      10.733   5.369 -16.349  0.00  0.00     0.005 A 
ENDBRANCH  21  23
ENDBRANCH  20  21
ENDBRANCH   1  20
TORSDOF 9
