REMARK  8 active torsions:
REMARK  status: ('A' for Active; 'I' for Inactive)
REMARK    1  A    between atoms: O_2  and  C_3 
REMARK    2  A    between atoms: C_6  and  C_7 
REMARK    3  A    between atoms: N_11  and  C_12 
REMARK    4  A    between atoms: C_12  and  C_13 
REMARK    5  A    between atoms: C_13  and  C_14 
REMARK    6  A    between atoms: C_14  and  S_15 
REMARK    7  A    between atoms: S_15  and  C_16 
REMARK    8  A    between atoms: C_19  and  C_20 
ROOT
ATOM      1  C   UNL d   1       6.149   2.706 -13.050  0.00  0.00     0.251 C 
ENDROOT
BRANCH   1   2
ATOM      2  N   UNL d   1       6.670   1.522 -13.713  0.00  0.00     0.137 N 
ATOM      3  C   UNL d   1       6.175   0.261 -13.183  0.00  0.00     0.251 C 
ATOM      4  C   UNL d   1       6.539  -0.714 -14.267  0.00  0.00     0.039 A 
ATOM      5  C   UNL d   1       6.735   0.067 -15.531  0.00  0.00     0.052 A 
ATOM      6  C   UNL d   1       5.638  -0.979 -15.449  0.00  0.00     0.008 A 
ATOM      7  C   UNL d   1       6.467   1.475 -15.152  0.00  0.00     0.254 C 
BRANCH   5   8
ATOM      8  C   UNL d   1       7.921  -0.106 -16.456  0.00  0.00    -0.021 A 
ATOM      9  C   UNL d   1       7.739  -0.674 -17.727  0.00  0.00    -0.002 A 
ATOM     10  C   UNL d   1       8.852  -0.999 -18.538  0.00  0.00     0.024 A 
ATOM     11  C   UNL d   1      10.158  -0.723 -18.093  0.00  0.00     0.094 A 
ATOM     12  C   UNL d   1      10.341  -0.141 -16.816  0.00  0.00     0.024 A 
ATOM     13  C   UNL d   1       9.221   0.157 -15.999  0.00  0.00    -0.002 A 
BRANCH  11  14
ATOM     14  O   UNL d   1      11.188  -1.064 -18.945  0.00  0.00    -0.328 OA
ATOM     15  C   UNL d   1      12.507  -0.672 -18.600  0.00  0.00     0.181 C 
ENDBRANCH  11  14
ENDBRANCH   5   8
ENDBRANCH   1   2
BRANCH   1  16
ATOM     16  C   UNL d   1       7.040   3.928 -13.328  0.00  0.00     0.047 C 
BRANCH  16  17
ATOM     17  C   UNL d   1       6.689   5.113 -12.417  0.00  0.00     0.067 C 
BRANCH  17  18
ATOM     18  S   UNL d   1       7.912   6.452 -12.593  0.00  0.00    -0.075 SA
BRANCH  18  19
ATOM     19  C   UNL d   1       8.835   6.332 -11.089  0.00  0.00     0.193 A 
ATOM     20  N   UNL d   1       9.477   7.397 -10.574  0.00  0.00    -0.287 N 
ATOM     21  C   UNL d   1       9.952   6.902  -9.412  0.00  0.00     0.191 A 
ATOM     22  C   UNL d   1       9.585   8.769 -11.076  0.00  0.00     0.134 C 
ATOM     23  N   UNL d   1       9.615   5.629  -9.203  0.00  0.00    -0.126 NA
ATOM     24  N   UNL d   1       8.923   5.236 -10.333  0.00  0.00    -0.122 NA
BRANCH  21  25
ATOM     25  C   UNL d   1      10.717   7.664  -8.443  0.00  0.00     0.151 A 
ATOM     26  C   UNL d   1      11.968   8.229  -8.487  0.00  0.00     0.087 A 
ATOM     27  N   UNL d   1      12.223   8.826  -7.255  0.00  0.00    -0.221 NA
ATOM     28  C   UNL d   1      13.004   8.207  -9.563  0.00  0.00     0.054 C 
ATOM     29  C   UNL d   1      11.127   8.562  -6.535  0.00  0.00     0.225 A 
ATOM     30  O   UNL d   1      10.188   7.834  -7.189  0.00  0.00    -0.282 OA
ENDBRANCH  21  25
ENDBRANCH  18  19
ENDBRANCH  17  18
ENDBRANCH  16  17
ENDBRANCH   1  16
TORSDOF 8
