REMARK  5 active torsions:
REMARK  status: ('A' for Active; 'I' for Inactive)
REMARK    1  A    between atoms: C_2  and  C_4 
REMARK    2  A    between atoms: C_13  and  C_14 
REMARK    3  A    between atoms: C_14  and  C_15 
REMARK    4  A    between atoms: C_15  and  N_16 
REMARK    5  A    between atoms: C_19  and  C_20 
ROOT
ATOM      1  N   UNL d   1       9.332   6.097  -9.870  0.00  0.00     0.142 N 
ATOM      2  C   UNL d   1       9.634   5.366  -8.643  0.00  0.00     0.276 C 
ATOM      3  C   UNL d   1      10.168   6.286  -7.566  0.00  0.00     0.005 C 
ATOM      4  C   UNL d   1      10.611   7.534  -7.784  0.00  0.00    -0.021 C 
ATOM      5  C   UNL d   1      10.585   8.087  -9.200  0.00  0.00     0.061 C 
ATOM      6  C   UNL d   1      10.444   6.979 -10.242  0.00  0.00     0.255 C 
ENDROOT
BRANCH   1   7
ATOM      7  C   UNL d   1       8.984   5.185 -10.939  0.00  0.00     0.254 C 
BRANCH   7   8
ATOM      8  C   UNL d   1       8.301   5.967 -12.082  0.00  0.00     0.070 C 
BRANCH   8   9
ATOM      9  C   UNL d   1       8.604   5.330 -13.445  0.00  0.00     0.139 C 
ATOM     10  C   UNL d   1       7.877   4.012 -13.636  0.00  0.00     0.001 A 
ATOM     11  C   UNL d   1       6.523   3.879 -13.266  0.00  0.00    -0.002 A 
ATOM     12  C   UNL d   1       8.550   2.931 -14.245  0.00  0.00    -0.021 A 
ATOM     13  C   UNL d   1       5.862   2.660 -13.454  0.00  0.00     0.005 A 
ATOM     14  C   UNL d   1       6.519   1.572 -14.061  0.00  0.00     0.059 A 
ATOM     15  C   UNL d   1       7.875   1.711 -14.447  0.00  0.00     0.000 A 
ATOM     16  C   UNL d   1      10.005   3.073 -14.660  0.00  0.00     0.058 C 
ATOM     17  C   UNL d   1      10.436   4.545 -14.762  0.00  0.00     0.147 C 
ATOM     18  O   UNL d   1      10.025   5.231 -13.588  0.00  0.00    -0.352 OA
BRANCH  14  19
ATOM     19  C   UNL d   1       5.782   0.294 -14.252  0.00  0.00     0.297 C 
ATOM     20  N   UNL d   1       6.165  -0.436 -15.304  0.00  0.00    -0.102 N 
ATOM     21  O   UNL d   1       4.842  -0.025 -13.530  0.00  0.00    -0.264 OA
ENDBRANCH  14  19
ENDBRANCH   8   9
ENDBRANCH   7   8
ENDBRANCH   1   7
BRANCH   4  22
ATOM     22  C   UNL d   1      11.116   8.370  -6.693  0.00  0.00     0.016 A 
ATOM     23  C   UNL d   1      11.453   7.991  -5.343  0.00  0.00     0.019 A 
ATOM     24  C   UNL d   1      11.857   9.192  -4.678  0.00  0.00     0.084 A 
ATOM     25  C   UNL d   1      11.490   6.797  -4.580  0.00  0.00     0.004 A 
ATOM     26  N   UNL d   1      11.765  10.206  -5.619  0.00  0.00    -0.244 NA
ATOM     27  C   UNL d   1      12.251   9.202  -3.328  0.00  0.00     0.049 A 
ATOM     28  C   UNL d   1      11.340   9.712  -6.831  0.00  0.00     0.099 A 
ATOM     29  C   UNL d   1      12.259   8.000  -2.601  0.00  0.00     0.142 A 
ATOM     30  F   UNL d   1      12.658   8.009  -1.311  0.00  0.00    -0.204 F 
ATOM     31  C   UNL d   1      11.879   6.798  -3.226  0.00  0.00     0.030 A 
ENDBRANCH   4  22
TORSDOF 5
