REMARK  7 active torsions:
REMARK  status: ('A' for Active; 'I' for Inactive)
REMARK    1  A    between atoms: C_2  and  C_3 
REMARK    2  A    between atoms: C_9  and  N_10 
REMARK       I    between atoms: N_10  and  C_11 
REMARK    3  A    between atoms: C_11  and  C_13 
REMARK    4  A    between atoms: C_13  and  C_14 
REMARK    5  A    between atoms: C_14  and  C_15 
REMARK    6  A    between atoms: C_15  and  N_16 
REMARK    7  A    between atoms: N_19  and  C_20 
ROOT
ATOM      1  C   UNL d   1       8.480   5.654 -11.090  0.00  0.00     0.045 C 
ENDROOT
BRANCH   1   2
ATOM      2  C   UNL d   1       7.677   5.682 -12.399  0.00  0.00     0.092 C 
BRANCH   2   3
ATOM      3  C   UNL d   1       8.237   4.698 -13.417  0.00  0.00     0.256 C 
ATOM      4  N   UNL d   1       9.383   5.073 -14.015  0.00  0.00    -0.212 NA
ATOM      5  O   UNL d   1       7.623   3.655 -13.642  0.00  0.00    -0.270 OA
BRANCH   4   6
ATOM      6  C   UNL d   1      10.191   4.374 -14.955  0.00  0.00     0.087 A 
ATOM      7  C   UNL d   1      11.283   5.082 -15.534  0.00  0.00     0.040 A 
ATOM      8  C   UNL d   1      12.128   4.469 -16.434  0.00  0.00     0.102 A 
ATOM      9  N   UNL d   1      11.894   3.175 -16.781  0.00  0.00    -0.228 N 
ATOM     10  N   UNL d   1      12.633   2.436 -17.673  0.00  0.00    -0.164 NA
ATOM     11  C   UNL d   1      10.819   2.428 -16.258  0.00  0.00     0.089 A 
ATOM     12  C   UNL d   1      12.037   1.264 -17.685  0.00  0.00     0.125 A 
ATOM     13  C   UNL d   1      10.910   1.190 -16.834  0.00  0.00     0.081 A 
ATOM     14  C   UNL d   1       9.960   3.060 -15.326  0.00  0.00     0.039 A 
BRANCH  13  15
ATOM     15  C   UNL d   1      10.002   0.089 -16.581  0.00  0.00     0.237 C 
ATOM     16  O   UNL d   1      10.107  -1.033 -17.071  0.00  0.00    -0.283 OA
ENDBRANCH  13  15
ENDBRANCH   4   6
ENDBRANCH   2   3
ENDBRANCH   1   2
BRANCH   1  17
ATOM     17  C   UNL d   1       9.329   6.926 -10.901  0.00  0.00     0.251 C 
BRANCH  17  18
ATOM     18  N   UNL d   1      10.199   6.850  -9.726  0.00  0.00     0.141 N 
ATOM     19  C   UNL d   1      10.939   8.117  -9.607  0.00  0.00     0.274 C 
ATOM     20  C   UNL d   1      11.892   8.082  -8.395  0.00  0.00     0.137 C 
ATOM     21  N   UNL d   1      11.157   7.725  -7.193  0.00  0.00    -0.344 N 
ATOM     22  C   UNL d   1      10.319   6.543  -7.288  0.00  0.00     0.137 C 
ATOM     23  C   UNL d   1       9.398   6.654  -8.506  0.00  0.00     0.274 C 
BRANCH  21  24
ATOM     24  C   UNL d   1      11.230   8.480  -6.013  0.00  0.00     0.068 A 
ATOM     25  C   UNL d   1      11.560   7.894  -4.770  0.00  0.00     0.084 A 
ATOM     26  C   UNL d   1      11.686   8.637  -3.587  0.00  0.00     0.070 A 
ATOM     27 CL   UNL d   1      11.865   6.246  -4.626  0.00  0.00    -0.080 Cl
ATOM     28  C   UNL d   1      11.424   9.989  -3.634  0.00  0.00     0.012 A 
ATOM     29 CL   UNL d   1      12.145   7.887  -2.094  0.00  0.00    -0.081 Cl
ATOM     30  C   UNL d   1      11.059  10.583  -4.853  0.00  0.00     0.002 A 
ATOM     31  C   UNL d   1      10.996   9.858  -6.053  0.00  0.00     0.018 A 
ENDBRANCH  21  24
ENDBRANCH  17  18
ENDBRANCH   1  17
TORSDOF 7
