REMARK  4 active torsions:
REMARK  status: ('A' for Active; 'I' for Inactive)
REMARK       I    between atoms: N_10  and  C_11 
REMARK    1  A    between atoms: C_11  and  C_13 
REMARK    2  A    between atoms: C_13  and  C_14 
REMARK    3  A    between atoms: N_17  and  C_18 
REMARK    4  A    between atoms: C_18  and  C_19 
ROOT
ATOM      1  C   UNL d   1       8.580   5.736 -10.152  0.00  0.00     0.013 C 
ATOM      2  C   UNL d   1       9.859   5.400 -10.857  0.00  0.00     0.036 C 
ATOM      3  C   UNL d   1       9.699   4.360 -11.967  0.00  0.00     0.251 C 
ATOM      4  N   UNL d   1       8.765   4.855 -12.967  0.00  0.00     0.141 N 
ATOM      5  C   UNL d   1       7.464   5.080 -12.353  0.00  0.00     0.251 C 
ATOM      6  C   UNL d   1       7.582   6.141 -11.267  0.00  0.00     0.036 C 
ENDROOT
BRANCH   1   7
ATOM      7  C   UNL d   1       8.866   6.854  -9.112  0.00  0.00     0.088 C 
BRANCH   7   8
ATOM      8  C   UNL d   1       9.911   6.685  -8.040  0.00  0.00     0.237 C 
ATOM      9  N   UNL d   1      10.489   7.728  -7.455  0.00  0.00    -0.301 N 
ATOM     10  C   UNL d   1      10.584   9.068  -8.045  0.00  0.00     0.093 C 
ATOM     11  C   UNL d   1      11.063   7.712  -6.166  0.00  0.00     0.058 A 
ATOM     12  C   UNL d   1      11.569   9.018  -9.247  0.00  0.00     0.025 C 
ATOM     13  C   UNL d   1      11.080   9.946  -6.900  0.00  0.00     0.051 C 
ATOM     14  C   UNL d   1      11.377   8.994  -5.797  0.00  0.00    -0.004 A 
ATOM     15  C   UNL d   1      11.905   9.309  -4.536  0.00  0.00    -0.003 A 
ATOM     16  C   UNL d   1      12.158   8.262  -3.623  0.00  0.00    -0.000 A 
ATOM     17  C   UNL d   1      11.851   6.928  -3.986  0.00  0.00     0.002 A 
ATOM     18  C   UNL d   1      11.309   6.646  -5.257  0.00  0.00     0.017 A 
ATOM     19  O   UNL d   1      10.178   5.547  -7.715  0.00  0.00    -0.272 OA
ENDBRANCH   7   8
ENDBRANCH   1   7
BRANCH   4  20
ATOM     20  C   UNL d   1       8.627   3.876 -14.035  0.00  0.00     0.278 C 
BRANCH  20  21
ATOM     21  C   UNL d   1       9.910   3.648 -14.824  0.00  0.00     0.021 A 
ATOM     22  C   UNL d   1      10.252   2.363 -15.312  0.00  0.00     0.056 A 
ATOM     23  C   UNL d   1      11.445   2.189 -16.044  0.00  0.00     0.011 A 
ATOM     24 CL   UNL d   1       9.247   0.983 -15.026  0.00  0.00    -0.083 Cl
ATOM     25  C   UNL d   1      12.294   3.283 -16.294  0.00  0.00     0.001 A 
ATOM     26  C   UNL d   1      11.969   4.557 -15.801  0.00  0.00    -0.000 A 
ATOM     27  C   UNL d   1      10.778   4.735 -15.080  0.00  0.00    -0.002 A 
ENDBRANCH  20  21
ENDBRANCH   4  20
TORSDOF 4
