REMARK  6 active torsions:
REMARK  status: ('A' for Active; 'I' for Inactive)
REMARK    1  A    between atoms: C_2  and  C_3 
REMARK       I    between atoms: C_2  and  N_11 
REMARK    2  A    between atoms: C_4  and  C_5 
REMARK    3  A    between atoms: N_11  and  C_12 
REMARK    4  A    between atoms: N_11  and  C_18 
REMARK    5  A    between atoms: N_21  and  C_22 
REMARK    6  A    between atoms: C_22  and  C_23 
ROOT
ATOM      1  O   UNL d   1      12.582   4.681 -15.563  0.00  0.00    -0.267 OA
ATOM      2  C   UNL d   1      12.239   3.762 -16.311  0.00  0.00     0.261 C 
ATOM      3  N   UNL d   1      11.097   3.019 -16.102  0.00  0.00    -0.298 N 
ENDROOT
BRANCH   3   4
ATOM      4  C   UNL d   1      10.743   1.834 -16.856  0.00  0.00     0.062 A 
ATOM      5  C   UNL d   1      10.582   0.598 -16.185  0.00  0.00     0.017 A 
ATOM      6  C   UNL d   1      10.251  -0.565 -16.909  0.00  0.00     0.002 A 
ATOM      7  C   UNL d   1      10.082  -0.508 -18.305  0.00  0.00     0.000 A 
ATOM      8  C   UNL d   1      10.208   0.721 -18.972  0.00  0.00     0.002 A 
ATOM      9  C   UNL d   1      10.484   1.903 -18.239  0.00  0.00     0.017 A 
ENDBRANCH   3   4
BRANCH   3  10
ATOM     10  C   UNL d   1      10.141   3.400 -15.038  0.00  0.00     0.092 C 
ATOM     11  C   UNL d   1      10.723   3.284 -13.643  0.00  0.00     0.058 C 
ATOM     12  C   UNL d   1       9.757   3.792 -12.553  0.00  0.00     0.253 C 
ATOM     13  N   UNL d   1       9.326   5.157 -12.835  0.00  0.00     0.141 N 
ATOM     14  C   UNL d   1       8.586   5.152 -14.087  0.00  0.00     0.253 C 
ATOM     15  C   UNL d   1       9.537   4.792 -15.248  0.00  0.00     0.058 C 
BRANCH  13  16
ATOM     16  C   UNL d   1       8.444   5.619 -11.763  0.00  0.00     0.277 C 
BRANCH  16  17
ATOM     17  C   UNL d   1       9.196   6.172 -10.573  0.00  0.00     0.011 A 
ATOM     18  C   UNL d   1       9.191   5.502  -9.329  0.00  0.00    -0.002 A 
ATOM     19  C   UNL d   1       9.859   6.076  -8.225  0.00  0.00    -0.000 A 
ATOM     20  C   UNL d   1      10.537   7.301  -8.360  0.00  0.00    -0.000 A 
ATOM     21  C   UNL d   1      10.536   7.972  -9.595  0.00  0.00    -0.000 A 
ATOM     22  C   UNL d   1       9.860   7.410 -10.694  0.00  0.00    -0.002 A 
ENDBRANCH  16  17
ENDBRANCH  13  16
ENDBRANCH   3  10
BRANCH   2  23
ATOM     23  C   UNL d   1      13.039   3.417 -17.471  0.00  0.00     0.061 C 
ATOM     24  C   UNL d   1      13.908   4.289 -18.002  0.00  0.00     0.005 C 
BRANCH  24  25
ATOM     25  C   UNL d   1      14.707   4.012 -19.201  0.00  0.00     0.000 A 
ATOM     26  C   UNL d   1      14.716   2.733 -19.821  0.00  0.00     0.000 A 
ATOM     27  C   UNL d   1      15.482   2.499 -20.972  0.00  0.00     0.000 A 
ATOM     28  C   UNL d   1      16.240   3.539 -21.531  0.00  0.00     0.000 A 
ATOM     29  C   UNL d   1      16.223   4.821 -20.939  0.00  0.00     0.000 A 
ATOM     30  C   UNL d   1      15.447   5.055 -19.782  0.00  0.00     0.000 A 
ENDBRANCH  24  25
ENDBRANCH   2  23
TORSDOF 6
