REMARK  7 active torsions:
REMARK  status: ('A' for Active; 'I' for Inactive)
REMARK    1  A    between atoms: O_2  and  C_3 
REMARK    2  A    between atoms: C_8  and  N_9 
REMARK    3  A    between atoms: N_12  and  C_13 
REMARK    4  A    between atoms: C_13  and  C_14 
REMARK    5  A    between atoms: C_14  and  C_15 
REMARK    6  A    between atoms: C_15  and  N_16 
REMARK       I    between atoms: N_16  and  C_17 
REMARK    7  A    between atoms: C_17  and  C_19 
ROOT
ATOM      1  C   UNL d   1       9.349   6.784 -10.560  0.00  0.00     0.253 C 
ENDROOT
BRANCH   1   2
ATOM      2  N   UNL d   1       9.738   5.930 -11.656  0.00  0.00     0.141 N 
ATOM      3  C   UNL d   1       8.976   6.249 -12.866  0.00  0.00     0.274 C 
ATOM      4  C   UNL d   1       9.421   5.359 -14.049  0.00  0.00     0.137 C 
ATOM      5  N   UNL d   1       9.289   3.979 -13.674  0.00  0.00    -0.343 N 
ATOM      6  C   UNL d   1       9.855   3.622 -12.403  0.00  0.00     0.137 C 
ATOM      7  C   UNL d   1       9.405   4.561 -11.274  0.00  0.00     0.274 C 
BRANCH   5   8
ATOM      8  C   UNL d   1       8.548   3.068 -14.414  0.00  0.00     0.079 A 
ATOM      9  C   UNL d   1       7.216   2.740 -14.047  0.00  0.00     0.110 A 
ATOM     10  C   UNL d   1       6.534   1.761 -14.812  0.00  0.00     0.026 A 
ATOM     11  C   UNL d   1       7.121   1.188 -15.953  0.00  0.00     0.002 A 
ATOM     12  C   UNL d   1       8.428   1.541 -16.324  0.00  0.00     0.002 A 
ATOM     13  C   UNL d   1       9.148   2.464 -15.544  0.00  0.00     0.019 A 
BRANCH   9  14
ATOM     14  O   UNL d   1       6.662   3.410 -12.981  0.00  0.00    -0.327 OA
ATOM     15  C   UNL d   1       5.325   3.114 -12.609  0.00  0.00     0.181 C 
ENDBRANCH   9  14
ENDBRANCH   5   8
ENDBRANCH   1   2
BRANCH   1  16
ATOM     16  C   UNL d   1       9.928   8.214 -10.720  0.00  0.00     0.062 C 
BRANCH  16  17
ATOM     17  C   UNL d   1       9.707   9.130  -9.511  0.00  0.00     0.131 C 
BRANCH  17  18
ATOM     18  N   UNL d   1      10.083   8.531  -8.249  0.00  0.00    -0.233 NA
ATOM     19  C   UNL d   1      11.345   8.360  -7.860  0.00  0.00     0.294 C 
ATOM     20  O   UNL d   1      12.345   8.447  -8.574  0.00  0.00    -0.264 OA
BRANCH  19  21
ATOM     21  C   UNL d   1      11.457   8.249  -6.413  0.00  0.00     0.160 A 
ATOM     22  N   UNL d   1      11.347   7.120  -5.746  0.00  0.00    -0.160 NA
ATOM     23  N   UNL d   1      11.663   7.471  -4.471  0.00  0.00    -0.228 N 
ATOM     24  C   UNL d   1      11.925   8.845  -4.356  0.00  0.00     0.085 A 
ATOM     25  C   UNL d   1      11.734   6.626  -3.420  0.00  0.00     0.101 A 
ATOM     26  C   UNL d   1      11.811   9.359  -5.609  0.00  0.00     0.045 A 
ATOM     27  C   UNL d   1      12.239   9.351  -3.076  0.00  0.00     0.019 A 
ATOM     28  C   UNL d   1      12.288   8.498  -2.007  0.00  0.00     0.003 A 
ATOM     29  C   UNL d   1      12.044   7.117  -2.184  0.00  0.00     0.021 A 
ENDBRANCH  19  21
ENDBRANCH  17  18
ENDBRANCH  16  17
ENDBRANCH   1  16
TORSDOF 7
