REMARK  7 active torsions:
REMARK  status: ('A' for Active; 'I' for Inactive)
REMARK    1  A    between atoms: C_2  and  C_3 
REMARK    2  A    between atoms: C_3  and  N_4 
REMARK    3  A    between atoms: N_4  and  C_5 
REMARK    4  A    between atoms: N_4  and  C_8 
REMARK    5  A    between atoms: C_5  and  C_6 
REMARK    6  A    between atoms: C_11  and  C_12 
REMARK    7  A    between atoms: C_13  and  C_14 
ROOT
ATOM      1  C   UNL d   1       8.538   5.826 -10.803  0.00  0.00     0.224 C 
ATOM      2  C   UNL d   1       8.848   4.703  -9.812  0.00  0.00     0.059 C 
ATOM      3  C   UNL d   1       9.389   5.251  -8.504  0.00  0.00    -0.020 C 
ATOM      4  C   UNL d   1       9.833   6.511  -8.325  0.00  0.00     0.015 C 
ATOM      5  C   UNL d   1       9.838   7.548  -9.427  0.00  0.00     0.036 C 
ATOM      6  C   UNL d   1       9.633   6.919 -10.807  0.00  0.00     0.039 C 
ENDROOT
BRANCH   4   7
ATOM      7  C   UNL d   1      10.371   6.897  -7.078  0.00  0.00    -0.064 C 
ATOM      8  C   UNL d   1      10.849   7.297  -6.037  0.00  0.00    -0.060 C 
BRANCH   8   9
ATOM      9  C   UNL d   1      11.387   7.777  -4.771  0.00  0.00     0.042 A 
ATOM     10  C   UNL d   1      11.864   6.844  -3.831  0.00  0.00     0.008 A 
ATOM     11  C   UNL d   1      12.359   7.279  -2.592  0.00  0.00     0.001 A 
ATOM     12  C   UNL d   1      12.367   8.660  -2.290  0.00  0.00     0.000 A 
ATOM     13  C   UNL d   1      11.858   9.594  -3.220  0.00  0.00     0.001 A 
ATOM     14  C   UNL d   1      11.379   9.150  -4.469  0.00  0.00     0.008 A 
ENDBRANCH   8   9
ENDBRANCH   4   7
BRANCH   1  15
ATOM     15  N   UNL d   1       8.255   5.240 -12.137  0.00  0.00     0.135 N 
BRANCH  15  16
ATOM     16  C   UNL d   1       9.438   5.211 -13.014  0.00  0.00     0.250 C 
BRANCH  16  17
ATOM     17  C   UNL d   1       9.246   4.519 -14.375  0.00  0.00     0.035 C 
ATOM     18  C   UNL d   1       9.011   3.011 -14.229  0.00  0.00     0.002 C 
ENDBRANCH  16  17
ENDBRANCH  15  16
BRANCH  15  19
ATOM     19  C   UNL d   1       7.088   5.855 -12.777  0.00  0.00     0.250 C 
BRANCH  19  20
ATOM     20  C   UNL d   1       6.107   4.769 -13.313  0.00  0.00     0.035 C 
ATOM     21  C   UNL d   1       5.591   3.843 -12.200  0.00  0.00     0.002 C 
ENDBRANCH  19  20
ENDBRANCH  15  19
ENDBRANCH   1  15
TORSDOF 7
