REMARK  3 active torsions:
REMARK  status: ('A' for Active; 'I' for Inactive)
REMARK    1  A    between atoms: N_5  and  C_6 
REMARK    2  A    between atoms: C_15  and  C_16 
REMARK    3  A    between atoms: N_20  and  C_21 
ROOT
ATOM      1  C   UNL d   1       8.985   2.387 -15.045  0.00  0.00     0.169 A 
ATOM      2  N   UNL d   1       9.961   2.971 -15.777  0.00  0.00    -0.209 NA
ATOM      3  C   UNL d   1      10.677   2.227 -16.653  0.00  0.00     0.153 A 
ATOM      4  C   UNL d   1      10.416   0.851 -16.860  0.00  0.00     0.076 A 
ATOM      5  C   UNL d   1       9.400   0.241 -16.094  0.00  0.00     0.039 A 
ATOM      6  C   UNL d   1       8.669   1.016 -15.176  0.00  0.00     0.174 A 
ATOM      7  F   UNL d   1       7.710   0.431 -14.419  0.00  0.00    -0.201 F 
ATOM      8  C   UNL d   1      11.172   0.070 -17.878  0.00  0.00     0.206 A 
ATOM      9  O   UNL d   1      10.947  -1.131 -18.038  0.00  0.00    -0.286 OA
ATOM     10  C   UNL d   1      12.185   0.820 -18.682  0.00  0.00     0.121 A 
ATOM     11  C   UNL d   1      12.359   2.137 -18.391  0.00  0.00     0.091 A 
ATOM     12  N   UNL d   1      11.687   2.869 -17.411  0.00  0.00    -0.288 N 
ENDROOT
BRANCH  12  13
ATOM     13  C   UNL d   1      12.007   4.232 -17.234  0.00  0.00     0.093 A 
ATOM     14  C   UNL d   1      12.370   4.755 -15.965  0.00  0.00     0.158 A 
ATOM     15  C   UNL d   1      12.661   6.121 -15.817  0.00  0.00     0.061 A 
ATOM     16  F   UNL d   1      12.466   3.960 -14.871  0.00  0.00    -0.203 F 
ATOM     17  C   UNL d   1      12.650   6.978 -16.927  0.00  0.00     0.142 A 
ATOM     18  C   UNL d   1      12.300   6.476 -18.194  0.00  0.00     0.031 A 
ATOM     19  F   UNL d   1      12.980   8.279 -16.766  0.00  0.00    -0.204 F 
ATOM     20  C   UNL d   1      11.979   5.112 -18.346  0.00  0.00     0.022 A 
ENDBRANCH  12  13
BRANCH  10  21
ATOM     21  C   UNL d   1      13.011   0.180 -19.721  0.00  0.00     0.215 C 
ATOM     22  O   UNL d   1      13.075  -1.029 -19.931  0.00  0.00    -0.644 OA
ATOM     23  O   UNL d   1      13.750   1.056 -20.475  0.00  0.00    -0.644 OA
ENDBRANCH  10  21
BRANCH   1  24
ATOM     24  N   UNL d   1       8.312   3.207 -14.124  0.00  0.00    -0.330 N 
ATOM     25  C   UNL d   1       8.940   4.329 -13.442  0.00  0.00     0.105 C 
ATOM     26  C   UNL d   1       7.904   4.800 -12.414  0.00  0.00     0.065 C 
ATOM     27  C   UNL d   1       6.567   4.382 -13.033  0.00  0.00     0.326 C 
ATOM     28  N   UNL d   1       5.532   4.151 -12.054  0.00  0.00     0.618 N 
ATOM     29  C   UNL d   1       6.890   3.107 -13.832  0.00  0.00     0.142 C 
ENDBRANCH   1  24
TORSDOF 3
