REMARK  4 active torsions:
REMARK  status: ('A' for Active; 'I' for Inactive)
REMARK    1  A    between atoms: N_3  and  C_4 
REMARK    2  A    between atoms: C_4  and  C_5 
REMARK    3  A    between atoms: C_5  and  N_6 
REMARK    4  A    between atoms: N_18  and  C_19 
ROOT
ATOM      1  O   UNL d   1      10.617   4.963 -13.625  0.00  0.00    -0.247 OA
ATOM      2  C   UNL d   1       9.459   4.526 -13.577  0.00  0.00     0.328 A 
ATOM      3  N   UNL d   1       8.543   4.896 -12.674  0.00  0.00    -0.299 N 
ATOM      4  C   UNL d   1       7.282   4.187 -12.803  0.00  0.00     0.131 A 
ATOM      5  C   UNL d   1       7.537   3.267 -13.990  0.00  0.00     0.135 A 
ATOM      6  N   UNL d   1       8.890   3.626 -14.412  0.00  0.00    -0.280 N 
ENDROOT
BRANCH   3   7
ATOM      7  C   UNL d   1       8.759   5.884 -11.624  0.00  0.00     0.124 C 
BRANCH   7   8
ATOM      8  C   UNL d   1       9.162   5.166 -10.340  0.00  0.00     0.101 C 
BRANCH   8   9
ATOM      9  N   UNL d   1       9.277   6.154  -9.270  0.00  0.00    -0.250 NA
ATOM     10  C   UNL d   1      10.663   6.296  -8.873  0.00  0.00     0.047 C 
ATOM     11  C   UNL d   1      11.115   7.375  -7.947  0.00  0.00     0.014 A 
ATOM     12  C   UNL d   1      10.550   7.623  -6.729  0.00  0.00     0.008 A 
ATOM     13  C   UNL d   1      12.194   8.252  -8.223  0.00  0.00     0.008 A 
ATOM     14  C   UNL d   1       9.444   6.933  -6.111  0.00  0.00     0.034 C 
ATOM     15  S   UNL d   1      11.238   8.979  -5.926  0.00  0.00    -0.091 SA
ATOM     16  C   UNL d   1       8.279   6.791  -7.053  0.00  0.00     0.023 C 
ATOM     17  C   UNL d   1       8.461   5.722  -8.138  0.00  0.00     0.077 C 
ATOM     18  C   UNL d   1      12.345   9.165  -7.218  0.00  0.00     0.035 A 
ENDBRANCH   8   9
ENDBRANCH   7   8
ENDBRANCH   3   7
BRANCH   6  19
ATOM     19  C   UNL d   1       9.572   2.983 -15.507  0.00  0.00     0.065 A 
ATOM     20  C   UNL d   1       9.393   1.601 -15.746  0.00  0.00     0.029 A 
ATOM     21  C   UNL d   1      10.081   0.979 -16.810  0.00  0.00     0.059 A 
ATOM     22  C   UNL d   1      10.929   1.734 -17.643  0.00  0.00     0.011 A 
ATOM     23 CL   UNL d   1       9.894  -0.710 -17.098  0.00  0.00    -0.082 Cl
ATOM     24  C   UNL d   1      11.099   3.114 -17.417  0.00  0.00     0.002 A 
ATOM     25  C   UNL d   1      10.411   3.733 -16.359  0.00  0.00     0.017 A 
ENDBRANCH   6  19
TORSDOF 4
