REMARK  6 active torsions:
REMARK  status: ('A' for Active; 'I' for Inactive)
REMARK    1  A    between atoms: O_2  and  C_3 
REMARK    2  A    between atoms: C_6  and  C_7 
REMARK       I    between atoms: C_7  and  N_9 
REMARK    3  A    between atoms: N_12  and  C_13 
REMARK    4  A    between atoms: C_13  and  C_14 
REMARK    5  A    between atoms: C_14  and  O_15 
REMARK    6  A    between atoms: O_15  and  C_16 
ROOT
ATOM      1  C   UNL d   1       6.734   3.617 -13.625  0.00  0.00     0.257 C 
ATOM      2  O   UNL d   1       5.506   3.570 -13.586  0.00  0.00    -0.267 OA
ATOM      3  N   UNL d   1       7.451   4.553 -12.953  0.00  0.00    -0.312 N 
ATOM      4  C   UNL d   1       8.840   4.987 -13.185  0.00  0.00     0.140 C 
ATOM      5  C   UNL d   1       9.629   4.950 -11.897  0.00  0.00     0.274 C 
ATOM      6  N   UNL d   1       9.026   5.835 -10.908  0.00  0.00     0.144 N 
ATOM      7  C   UNL d   1       7.670   5.345 -10.649  0.00  0.00     0.274 C 
ATOM      8  C   UNL d   1       6.804   5.378 -11.913  0.00  0.00     0.140 C 
ENDROOT
BRANCH   1   9
ATOM      9  C   UNL d   1       7.484   2.566 -14.419  0.00  0.00     0.052 A 
ATOM     10  C   UNL d   1       8.538   2.939 -15.263  0.00  0.00     0.006 A 
ATOM     11  C   UNL d   1       9.365   2.034 -15.891  0.00  0.00     0.024 A 
ATOM     12  C   UNL d   1       9.123   0.650 -15.800  0.00  0.00     0.094 A 
ATOM     13  C   UNL d   1       8.006   0.253 -15.021  0.00  0.00     0.020 A 
ATOM     14  C   UNL d   1       7.183   1.178 -14.326  0.00  0.00    -0.015 A 
ATOM     15  C   UNL d   1       6.013   0.642 -13.508  0.00  0.00     0.031 C 
BRANCH  12  16
ATOM     16  O   UNL d   1       9.908  -0.268 -16.474  0.00  0.00    -0.328 OA
ATOM     17  C   UNL d   1      11.002   0.283 -17.217  0.00  0.00     0.181 C 
ENDBRANCH  12  16
ENDBRANCH   1   9
BRANCH   6  18
ATOM     18  C   UNL d   1       9.853   5.784  -9.703  0.00  0.00     0.283 C 
BRANCH  18  19
ATOM     19  C   UNL d   1       9.338   6.773  -8.644  0.00  0.00     0.184 C 
BRANCH  19  20
ATOM     20  O   UNL d   1       9.973   6.457  -7.409  0.00  0.00    -0.327 OA
BRANCH  20  21
ATOM     21  C   UNL d   1      10.550   7.469  -6.677  0.00  0.00     0.113 A 
ATOM     22  C   UNL d   1      11.059   7.135  -5.405  0.00  0.00     0.123 A 
ATOM     23  N   UNL d   1      11.673   8.016  -4.585  0.00  0.00    -0.240 NA
ATOM     24  C   UNL d   1      11.804   9.288  -5.015  0.00  0.00     0.099 A 
ATOM     25  C   UNL d   1      11.328   9.734  -6.261  0.00  0.00     0.023 A 
ATOM     26  C   UNL d   1      10.688   8.815  -7.105  0.00  0.00     0.027 A 
ENDBRANCH  20  21
ENDBRANCH  19  20
ENDBRANCH  18  19
ENDBRANCH   6  18
TORSDOF 6
