REMARK  7 active torsions:
REMARK  status: ('A' for Active; 'I' for Inactive)
REMARK    1  A    between atoms: S_2  and  N_4 
REMARK    2  A    between atoms: S_2  and  C_28 
REMARK    3  A    between atoms: N_4  and  C_5 
REMARK    4  A    between atoms: C_8  and  C_9 
REMARK    5  A    between atoms: C_9  and  C_10 
REMARK    6  A    between atoms: C_10  and  N_11 
REMARK    7  A    between atoms: C_14  and  C_15 
ROOT
ATOM      1  C   UNL d   1      10.283   7.834  -8.074  0.00  0.00     0.116 C 
ATOM      2  C   UNL d   1       9.273   6.692  -8.234  0.00  0.00     0.025 C 
ATOM      3  C   UNL d   1       9.481   5.911  -9.546  0.00  0.00     0.002 C 
ATOM      4  C   UNL d   1       9.459   6.836 -10.785  0.00  0.00     0.002 C 
ATOM      5  C   UNL d   1      10.474   7.981 -10.583  0.00  0.00     0.002 C 
ATOM      6  C   UNL d   1      10.246   8.767  -9.297  0.00  0.00     0.025 C 
ENDROOT
BRANCH   4   7
ATOM      7  C   UNL d   1       9.701   6.111 -12.105  0.00  0.00     0.035 C 
BRANCH   7   8
ATOM      8  C   UNL d   1       8.634   5.062 -12.470  0.00  0.00     0.250 C 
BRANCH   8   9
ATOM      9  N   UNL d   1       9.082   4.299 -13.627  0.00  0.00     0.137 N 
ATOM     10  C   UNL d   1      10.136   3.372 -13.214  0.00  0.00     0.251 C 
ATOM     11  C   UNL d   1      10.644   2.554 -14.398  0.00  0.00     0.040 C 
ATOM     12  C   UNL d   1       9.536   1.745 -15.082  0.00  0.00     0.026 C 
ATOM     13  C   UNL d   1       8.384   2.724 -15.373  0.00  0.00     0.040 C 
ATOM     14  C   UNL d   1       7.961   3.522 -14.137  0.00  0.00     0.251 C 
BRANCH  12  15
ATOM     15  C   UNL d   1      10.032   1.017 -16.344  0.00  0.00    -0.024 A 
ATOM     16  C   UNL d   1       9.174   0.202 -17.124  0.00  0.00    -0.001 A 
ATOM     17  C   UNL d   1       9.624  -0.454 -18.265  0.00  0.00     0.090 A 
ATOM     18  C   UNL d   1       7.725  -0.124 -16.928  0.00  0.00     0.061 A 
ATOM     19  C   UNL d   1      10.950  -0.327 -18.703  0.00  0.00     0.024 A 
ATOM     20  O   UNL d   1       8.652  -1.196 -18.872  0.00  0.00    -0.331 OA
ATOM     21  C   UNL d   1      11.834   0.476 -17.954  0.00  0.00     0.002 A 
ATOM     22  C   UNL d   1      11.382   1.131 -16.789  0.00  0.00    -0.004 A 
ATOM     23  C   UNL d   1       7.444  -1.072 -18.108  0.00  0.00     0.154 A 
ENDBRANCH  12  15
ENDBRANCH   8   9
ENDBRANCH   7   8
ENDBRANCH   4   7
BRANCH   1  24
ATOM     24  N   UNL d   1       9.988   8.605  -6.870  0.00  0.00    -0.187 NA
BRANCH  24  25
ATOM     25  S   UNL d   1      11.227   9.509  -6.106  0.00  0.00     0.281 S 
ATOM     26  O   UNL d   1      12.402   9.496  -6.987  0.00  0.00    -0.199 OA
ATOM     27  O   UNL d   1      10.660  10.785  -5.609  0.00  0.00    -0.199 OA
BRANCH  25  28
ATOM     28  C   UNL d   1      11.654   8.562  -4.710  0.00  0.00     0.105 A 
ATOM     29  C   UNL d   1      11.863   9.205  -3.473  0.00  0.00     0.015 A 
ATOM     30  C   UNL d   1      12.205   8.436  -2.348  0.00  0.00     0.030 A 
ATOM     31  C   UNL d   1      12.333   7.043  -2.503  0.00  0.00     0.140 A 
ATOM     32  C   UNL d   1      12.140   6.436  -3.741  0.00  0.00     0.030 A 
ATOM     33  F   UNL d   1      12.711   6.244  -1.502  0.00  0.00    -0.204 F 
ATOM     34  C   UNL d   1      11.788   7.179  -4.858  0.00  0.00     0.015 A 
ENDBRANCH  25  28
ENDBRANCH  24  25
ENDBRANCH   1  24
TORSDOF 7
