REMARK  3 active torsions:
REMARK  status: ('A' for Active; 'I' for Inactive)
REMARK    1  A    between atoms: C_2  and  C_3 
REMARK    2  A    between atoms: C_3  and  N_4 
REMARK    3  A    between atoms: C_7  and  C_8 
ROOT
ATOM      1  C   UNL d   1      10.848   8.172  -6.358  0.00  0.00     0.087 A 
ATOM      2  N   UNL d   1      10.559   9.453  -6.589  0.00  0.00    -0.131 NA
ATOM      3  O   UNL d   1      10.946  10.201  -5.445  0.00  0.00    -0.211 OA
ATOM      4  C   UNL d   1      11.467   9.342  -4.498  0.00  0.00     0.129 A 
ATOM      5  C   UNL d   1      11.961   9.583  -3.216  0.00  0.00     0.057 A 
ATOM      6  C   UNL d   1      12.429   8.476  -2.479  0.00  0.00     0.142 A 
ATOM      7  F   UNL d   1      12.965   8.665  -1.256  0.00  0.00    -0.204 F 
ATOM      8  C   UNL d   1      12.365   7.172  -3.025  0.00  0.00     0.030 A 
ATOM      9  C   UNL d   1      11.857   6.957  -4.327  0.00  0.00     0.006 A 
ATOM     10  C   UNL d   1      11.412   8.070  -5.067  0.00  0.00     0.041 A 
ENDROOT
BRANCH   1  11
ATOM     11  C   UNL d   1      10.517   7.117  -7.376  0.00  0.00     0.047 C 
ATOM     12  C   UNL d   1      10.956   7.552  -8.782  0.00  0.00     0.041 C 
ATOM     13  C   UNL d   1      10.518   6.537  -9.827  0.00  0.00     0.251 C 
ATOM     14  N   UNL d   1       9.074   6.323  -9.810  0.00  0.00     0.137 N 
ATOM     15  C   UNL d   1       8.680   5.777  -8.510  0.00  0.00     0.251 C 
ATOM     16  C   UNL d   1       9.021   6.767  -7.382  0.00  0.00     0.041 C 
BRANCH  14  17
ATOM     17  C   UNL d   1       8.651   5.418 -10.877  0.00  0.00     0.250 C 
BRANCH  17  18
ATOM     18  C   UNL d   1       8.691   6.087 -12.266  0.00  0.00     0.035 C 
ATOM     19  C   UNL d   1       8.257   5.128 -13.380  0.00  0.00     0.002 C 
ENDBRANCH  17  18
ENDBRANCH  14  17
ENDBRANCH   1  11
TORSDOF 3
