REMARK  9 active torsions:
REMARK  status: ('A' for Active; 'I' for Inactive)
REMARK    1  A    between atoms: O_2  and  C_3 
REMARK    2  A    between atoms: C_6  and  C_7 
REMARK    3  A    between atoms: C_9  and  C_10 
REMARK    4  A    between atoms: C_10  and  C_11 
REMARK    5  A    between atoms: C_11  and  C_12 
REMARK    6  A    between atoms: C_12  and  C_13 
REMARK    7  A    between atoms: C_13  and  N_14 
REMARK    8  A    between atoms: N_17  and  C_18 
REMARK    9  A    between atoms: C_29  and  O_30 
ROOT
ATOM      1  C   UNL d   1       8.758   7.175 -12.039  0.00  0.00     0.054 C 
ENDROOT
BRANCH   1   2
ATOM      2  C   UNL d   1       8.526   5.782 -12.527  0.00  0.00     0.104 A 
ATOM      3  C   UNL d   1       7.413   5.122 -12.963  0.00  0.00     0.044 A 
ATOM      4  C   UNL d   1       7.904   3.867 -13.415  0.00  0.00     0.110 A 
ATOM      5  N   UNL d   1       9.216   3.769 -13.244  0.00  0.00    -0.127 NA
ATOM      6  O   UNL d   1       9.621   4.987 -12.685  0.00  0.00    -0.215 OA
BRANCH   4   7
ATOM      7  C   UNL d   1       7.155   2.741 -13.974  0.00  0.00     0.022 A 
ATOM      8  C   UNL d   1       6.004   2.271 -13.305  0.00  0.00     0.004 A 
ATOM      9  C   UNL d   1       5.388   1.080 -13.732  0.00  0.00     0.026 A 
ATOM     10  C   UNL d   1       5.805   0.428 -14.915  0.00  0.00     0.116 A 
ATOM     11  C   UNL d   1       6.944   0.914 -15.602  0.00  0.00     0.116 A 
ATOM     12  C   UNL d   1       7.632   2.047 -15.101  0.00  0.00     0.028 A 
BRANCH  10  13
ATOM     13  O   UNL d   1       5.134  -0.641 -15.475  0.00  0.00    -0.326 OA
ATOM     14  C   UNL d   1       3.916  -1.080 -14.885  0.00  0.00     0.181 C 
ENDBRANCH  10  13
BRANCH  11  15
ATOM     15  O   UNL d   1       7.300   0.251 -16.754  0.00  0.00    -0.326 OA
ATOM     16  C   UNL d   1       8.360   0.778 -17.534  0.00  0.00     0.181 C 
ENDBRANCH  11  15
ENDBRANCH   4   7
ENDBRANCH   1   2
BRANCH   1  17
ATOM     17  C   UNL d   1       9.578   7.239 -10.731  0.00  0.00     0.009 C 
BRANCH  17  18
ATOM     18  C   UNL d   1      10.023   8.658 -10.347  0.00  0.00     0.036 C 
BRANCH  18  19
ATOM     19  C   UNL d   1      11.211   8.706  -9.379  0.00  0.00     0.250 C 
BRANCH  19  20
ATOM     20  N   UNL d   1      10.698   8.797  -8.023  0.00  0.00     0.141 N 
ATOM     21  C   UNL d   1      10.742   7.470  -7.399  0.00  0.00     0.274 C 
ATOM     22  C   UNL d   1      10.162   7.552  -5.986  0.00  0.00     0.137 C 
ATOM     23  N   UNL d   1      10.948   8.541  -5.236  0.00  0.00    -0.344 N 
ATOM     24  C   UNL d   1      10.972   9.855  -5.816  0.00  0.00     0.137 C 
ATOM     25  C   UNL d   1      11.501   9.723  -7.222  0.00  0.00     0.274 C 
BRANCH  23  26
ATOM     26  C   UNL d   1      11.532   8.297  -3.996  0.00  0.00     0.056 A 
ATOM     27  C   UNL d   1      11.837   6.980  -3.580  0.00  0.00     0.017 A 
ATOM     28  C   UNL d   1      12.379   6.759  -2.317  0.00  0.00     0.002 A 
ATOM     29  C   UNL d   1      12.656   7.846  -1.491  0.00  0.00     0.000 A 
ATOM     30  C   UNL d   1      12.355   9.143  -1.857  0.00  0.00     0.002 A 
ATOM     31  C   UNL d   1      11.816   9.388  -3.115  0.00  0.00     0.017 A 
ENDBRANCH  23  26
ENDBRANCH  19  20
ENDBRANCH  18  19
ENDBRANCH  17  18
ENDBRANCH   1  17
TORSDOF 9
