REMARK  9 active torsions:
REMARK  status: ('A' for Active; 'I' for Inactive)
REMARK    1  A    between atoms: C_3  and  S_4 
REMARK    2  A    between atoms: S_4  and  C_5 
REMARK    3  A    between atoms: C_5  and  C_6 
REMARK    4  A    between atoms: C_6  and  C_7 
REMARK    5  A    between atoms: C_7  and  N_8 
REMARK    6  A    between atoms: C_12  and  C_13 
REMARK    7  A    between atoms: C_16  and  C_17 
REMARK    8  A    between atoms: C_26  and  C_27 
REMARK    9  A    between atoms: C_30  and  C_31 
ROOT
ATOM      1  C   UNL d   1       9.790   1.873 -16.675  0.00  0.00     0.067 C 
ENDROOT
BRANCH   1   2
ATOM      2  S   UNL d   1      11.491   1.631 -17.301  0.00  0.00    -0.075 SA
BRANCH   2   3
ATOM      3  C   UNL d   1      12.212   3.227 -17.078  0.00  0.00     0.193 A 
ATOM      4  N   UNL d   1      13.276   3.650 -17.824  0.00  0.00    -0.289 N 
ATOM      5  C   UNL d   1      13.976   2.958 -18.892  0.00  0.00     0.134 C 
ATOM      6  C   UNL d   1      13.492   4.868 -17.304  0.00  0.00     0.167 A 
ATOM      7  N   UNL d   1      12.651   5.202 -16.316  0.00  0.00    -0.128 NA
ATOM      8  N   UNL d   1      11.834   4.119 -16.182  0.00  0.00    -0.122 NA
BRANCH   6   9
ATOM      9  C   UNL d   1      14.521   5.789 -17.705  0.00  0.00     0.036 A 
ATOM     10  C   UNL d   1      15.869   5.410 -17.611  0.00  0.00     0.003 A 
ATOM     11  C   UNL d   1      16.878   6.320 -17.978  0.00  0.00     0.004 A 
ATOM     12  C   UNL d   1      16.528   7.610 -18.445  0.00  0.00     0.043 A 
ATOM     13  C   UNL d   1      15.171   7.992 -18.507  0.00  0.00     0.004 A 
ATOM     14  C   UNL d   1      14.167   7.085 -18.131  0.00  0.00     0.003 A 
BRANCH  12  15
ATOM     15  C   UNL d   1      17.566   8.549 -18.845  0.00  0.00     0.205 A 
ATOM     16  O   UNL d   1      18.854   8.273 -18.512  0.00  0.00    -0.265 OA
ATOM     17  C   UNL d   1      19.496   9.344 -19.040  0.00  0.00     0.248 A 
ATOM     18  N   UNL d   1      18.687  10.212 -19.644  0.00  0.00    -0.117 NA
ATOM     19  N   UNL d   1      17.422   9.690 -19.517  0.00  0.00    -0.121 NA
ENDBRANCH  12  15
ENDBRANCH   6   9
ENDBRANCH   2   3
ENDBRANCH   1   2
BRANCH   1  20
ATOM     20  C   UNL d   1       9.737   2.331 -15.206  0.00  0.00     0.047 C 
BRANCH  20  21
ATOM     21  C   UNL d   1       8.409   2.123 -14.486  0.00  0.00     0.251 C 
BRANCH  21  22
ATOM     22  N   UNL d   1       7.806   3.381 -14.032  0.00  0.00     0.143 N 
ATOM     23  C   UNL d   1       8.565   4.016 -12.944  0.00  0.00     0.284 C 
ATOM     24  C   UNL d   1       7.886   5.288 -12.389  0.00  0.00     0.171 C 
ATOM     25  O   UNL d   1       6.548   4.974 -12.013  0.00  0.00    -0.348 OA
ATOM     26  C   UNL d   1       5.763   4.434 -13.066  0.00  0.00     0.178 C 
ATOM     27  C   UNL d   1       6.432   3.163 -13.610  0.00  0.00     0.282 C 
BRANCH  24  28
ATOM     28  C   UNL d   1       8.655   5.842 -11.197  0.00  0.00     0.007 A 
ATOM     29  C   UNL d   1       9.445   6.996 -11.319  0.00  0.00    -0.002 A 
ATOM     30  C   UNL d   1      10.146   7.507 -10.200  0.00  0.00     0.004 A 
ATOM     31  C   UNL d   1      10.051   6.860  -8.947  0.00  0.00     0.071 A 
ATOM     32  C   UNL d   1       9.248   5.708  -8.825  0.00  0.00     0.004 A 
ATOM     33  C   UNL d   1       8.564   5.197  -9.944  0.00  0.00    -0.002 A 
BRANCH  31  34
ATOM     34  C   UNL d   1      10.795   7.405  -7.737  0.00  0.00     0.419 C 
ATOM     35  F   UNL d   1       9.989   8.210  -7.043  0.00  0.00    -0.166 F 
ATOM     36  F   UNL d   1      11.192   6.408  -6.943  0.00  0.00    -0.166 F 
ATOM     37  F   UNL d   1      11.877   8.091  -8.106  0.00  0.00    -0.166 F 
ENDBRANCH  31  34
ENDBRANCH  24  28
ENDBRANCH  21  22
ENDBRANCH  20  21
ENDBRANCH   1  20
TORSDOF 9
