REMARK  4 active torsions:
REMARK  status: ('A' for Active; 'I' for Inactive)
REMARK    1  A    between atoms: C_8  and  N_9 
REMARK    2  A    between atoms: N_12  and  C_13 
REMARK    3  A    between atoms: C_13  and  C_14 
REMARK    4  A    between atoms: C_18  and  C_19 
ROOT
ATOM      1  N   UNL d   1       9.551   3.832 -14.253  0.00  0.00    -0.343 N 
ATOM      2  C   UNL d   1       8.545   3.185 -13.404  0.00  0.00     0.137 C 
ATOM      3  C   UNL d   1       7.945   4.169 -12.358  0.00  0.00     0.275 C 
ATOM      4  N   UNL d   1       9.009   4.796 -11.578  0.00  0.00     0.145 N 
ATOM      5  C   UNL d   1       9.820   5.479 -12.568  0.00  0.00     0.275 C 
ATOM      6  C   UNL d   1      10.550   4.553 -13.514  0.00  0.00     0.137 C 
ENDROOT
BRANCH   4   7
ATOM      7  C   UNL d   1       8.433   5.737 -10.612  0.00  0.00     0.277 C 
BRANCH   7   8
ATOM      8  C   UNL d   1       9.395   6.779 -10.021  0.00  0.00     0.011 C 
ATOM      9  C   UNL d   1       9.754   6.774  -8.655  0.00  0.00    -0.002 C 
ATOM     10  C   UNL d   1      10.604   7.786  -8.122  0.00  0.00     0.000 C 
ATOM     11  C   UNL d   1      11.142   8.752  -8.973  0.00  0.00    -0.000 C 
ATOM     12  C   UNL d   1      10.768   8.752 -10.310  0.00  0.00    -0.000 C 
ATOM     13  C   UNL d   1       9.841   7.864 -10.825  0.00  0.00    -0.002 C 
BRANCH  10  14
ATOM     14  C   UNL d   1      10.991   7.826  -6.727  0.00  0.00     0.007 A 
ATOM     15  C   UNL d   1      11.328   8.934  -5.980  0.00  0.00     0.035 A 
ATOM     16  S   UNL d   1      11.790   8.496  -4.353  0.00  0.00    -0.086 SA
ATOM     17  C   UNL d   1      11.465   6.815  -4.692  0.00  0.00     0.035 A 
ATOM     18  C   UNL d   1      11.090   6.629  -5.991  0.00  0.00     0.007 A 
ENDBRANCH  10  14
ENDBRANCH   7   8
ENDBRANCH   4   7
BRANCH   1  19
ATOM     19  C   UNL d   1       9.515   3.826 -15.650  0.00  0.00     0.081 A 
ATOM     20  C   UNL d   1      10.015   4.921 -16.414  0.00  0.00     0.019 A 
ATOM     21  C   UNL d   1       9.957   4.912 -17.813  0.00  0.00     0.003 A 
ATOM     22  C   UNL d   1       9.382   3.824 -18.501  0.00  0.00     0.021 A 
ATOM     23  C   UNL d   1       8.841   2.731 -17.777  0.00  0.00     0.110 A 
ATOM     24  N   UNL d   1       8.180   1.595 -18.186  0.00  0.00    -0.196 NA
ATOM     25  C   UNL d   1       8.948   2.748 -16.380  0.00  0.00     0.137 A 
ATOM     26  C   UNL d   1       7.942   0.959 -17.030  0.00  0.00     0.323 A 
ATOM     27  O   UNL d   1       7.306  -0.236 -16.896  0.00  0.00    -0.141 OA
ATOM     28  O   UNL d   1       8.373   1.577 -15.896  0.00  0.00    -0.266 OA
ENDBRANCH   1  19
TORSDOF 4
