REMARK  7 active torsions:
REMARK  status: ('A' for Active; 'I' for Inactive)
REMARK    1  A    between atoms: S_2  and  N_4 
REMARK    2  A    between atoms: S_2  and  C_24 
REMARK    3  A    between atoms: N_4  and  C_5 
REMARK    4  A    between atoms: C_5  and  C_6 
REMARK    5  A    between atoms: C_6  and  C_7 
REMARK    6  A    between atoms: C_7  and  N_8 
REMARK    7  A    between atoms: C_11  and  C_12 
ROOT
ATOM      1  N   UNL d   1       9.226   5.845 -10.611  0.00  0.00     0.137 N 
ATOM      2  C   UNL d   1       8.356   6.467 -11.611  0.00  0.00     0.251 C 
ATOM      3  C   UNL d   1       8.814   6.060 -13.015  0.00  0.00     0.041 C 
ATOM      4  C   UNL d   1       8.837   4.538 -13.220  0.00  0.00     0.047 C 
ATOM      5  C   UNL d   1       9.601   3.888 -12.071  0.00  0.00     0.041 C 
ATOM      6  C   UNL d   1       9.098   4.395 -10.706  0.00  0.00     0.251 C 
ENDROOT
BRANCH   1   7
ATOM      7  C   UNL d   1       8.806   6.254  -9.272  0.00  0.00     0.252 C 
BRANCH   7   8
ATOM      8  C   UNL d   1       9.462   7.580  -8.873  0.00  0.00     0.062 C 
BRANCH   8   9
ATOM      9  C   UNL d   1       9.251   7.884  -7.380  0.00  0.00     0.141 C 
BRANCH   9  10
ATOM     10  N   UNL d   1       9.861   9.162  -7.009  0.00  0.00    -0.184 NA
BRANCH  10  11
ATOM     11  S   UNL d   1      11.528   9.284  -6.635  0.00  0.00     0.287 S 
ATOM     12  O   UNL d   1      12.267   8.493  -7.628  0.00  0.00    -0.198 OA
ATOM     13  O   UNL d   1      11.830  10.710  -6.421  0.00  0.00    -0.198 OA
BRANCH  11  14
ATOM     14  C   UNL d   1      11.682   8.451  -5.070  0.00  0.00     0.134 A 
ATOM     15  S   UNL d   1      12.153   9.315  -3.631  0.00  0.00    -0.073 SA
ATOM     16  C   UNL d   1      12.067   7.860  -2.679  0.00  0.00     0.036 A 
ATOM     17  C   UNL d   1      11.700   6.790  -3.443  0.00  0.00     0.008 A 
ATOM     18  C   UNL d   1      11.489   7.118  -4.813  0.00  0.00     0.020 A 
ENDBRANCH  11  14
ENDBRANCH  10  11
ENDBRANCH   9  10
ENDBRANCH   8   9
ENDBRANCH   7   8
ENDBRANCH   1   7
BRANCH   4  19
ATOM     19  C   UNL d   1       9.444   4.157 -14.555  0.00  0.00     0.087 A 
ATOM     20  C   UNL d   1       9.067   3.182 -15.501  0.00  0.00     0.041 A 
ATOM     21  C   UNL d   1       9.965   3.221 -16.570  0.00  0.00     0.129 A 
ATOM     22  C   UNL d   1       8.006   2.248 -15.524  0.00  0.00     0.006 A 
ATOM     23  O   UNL d   1      10.888   4.195 -16.248  0.00  0.00    -0.211 OA
ATOM     24  C   UNL d   1       9.866   2.383 -17.690  0.00  0.00     0.057 A 
ATOM     25  N   UNL d   1      10.572   4.743 -14.975  0.00  0.00    -0.131 NA
ATOM     26  C   UNL d   1       8.805   1.452 -17.716  0.00  0.00     0.142 A 
ATOM     27  F   UNL d   1       8.669   0.623 -18.780  0.00  0.00    -0.204 F 
ATOM     28  C   UNL d   1       7.885   1.387 -16.640  0.00  0.00     0.030 A 
ENDBRANCH   4  19
TORSDOF 7
