REMARK  7 active torsions:
REMARK  status: ('A' for Active; 'I' for Inactive)
REMARK    1  A    between atoms: N_10  and  C_11 
REMARK    2  A    between atoms: C_11  and  C_12 
REMARK    3  A    between atoms: C_12  and  C_13 
REMARK    4  A    between atoms: C_13  and  C_14 
REMARK    5  A    between atoms: C_14  and  C_15 
REMARK    6  A    between atoms: C_15  and  N_16 
REMARK    7  A    between atoms: C_19  and  C_20 
ROOT
ATOM      1  C   UNL d   1       9.735   5.572 -10.859  0.00  0.00     0.251 C 
ENDROOT
BRANCH   1   2
ATOM      2  C   UNL d   1       8.274   5.294 -11.243  0.00  0.00     0.035 C 
BRANCH   2   3
ATOM      3  C   UNL d   1       8.177   4.301 -12.417  0.00  0.00     0.004 C 
BRANCH   3   4
ATOM      4  C   UNL d   1       8.780   4.777 -13.753  0.00  0.00     0.025 C 
BRANCH   4   5
ATOM      5  C   UNL d   1       9.373   3.615 -14.583  0.00  0.00     0.112 C 
BRANCH   5   6
ATOM      6  N   UNL d   1      10.318   4.110 -15.586  0.00  0.00    -0.264 N 
ATOM      7  C   UNL d   1      10.078   4.113 -16.922  0.00  0.00     0.263 A 
ATOM      8  C   UNL d   1      11.279   4.707 -17.553  0.00  0.00     0.060 A 
ATOM      9  O   UNL d   1       9.085   3.706 -17.528  0.00  0.00    -0.267 OA
ATOM     10  C   UNL d   1      12.170   5.011 -16.553  0.00  0.00     0.061 A 
ATOM     11  C   UNL d   1      11.559   4.952 -18.904  0.00  0.00     0.001 A 
ATOM     12  C   UNL d   1      13.422   5.589 -16.816  0.00  0.00     0.005 A 
ATOM     13  C   UNL d   1      11.543   4.612 -15.274  0.00  0.00     0.263 A 
ATOM     14  C   UNL d   1      13.736   5.848 -18.171  0.00  0.00    -0.004 A 
ATOM     15  C   UNL d   1      12.814   5.532 -19.208  0.00  0.00    -0.022 A 
ATOM     16  C   UNL d   1      13.175   5.808 -20.651  0.00  0.00     0.031 C 
ATOM     17  O   UNL d   1      12.056   4.746 -14.159  0.00  0.00    -0.267 OA
ENDBRANCH   5   6
ENDBRANCH   4   5
ENDBRANCH   3   4
ENDBRANCH   2   3
ENDBRANCH   1   2
BRANCH   1  18
ATOM     18  N   UNL d   1       9.818   6.495  -9.748  0.00  0.00     0.142 N 
ATOM     19  C   UNL d   1      10.944   7.423  -9.865  0.00  0.00     0.255 C 
ATOM     20  C   UNL d   1      10.887   8.472  -8.751  0.00  0.00     0.061 C 
ATOM     21  C   UNL d   1      10.654   7.868  -7.373  0.00  0.00    -0.021 C 
ATOM     22  C   UNL d   1      10.208   6.601  -7.297  0.00  0.00     0.005 C 
ATOM     23  C   UNL d   1       9.874   5.741  -8.491  0.00  0.00     0.276 C 
BRANCH  21  24
ATOM     24  C   UNL d   1      10.967   8.640  -6.166  0.00  0.00     0.017 A 
ATOM     25  C   UNL d   1      11.441   8.169  -4.896  0.00  0.00     0.021 A 
ATOM     26  C   UNL d   1      11.493   9.315  -4.043  0.00  0.00     0.082 A 
ATOM     27  C   UNL d   1      11.838   6.928  -4.332  0.00  0.00     0.031 A 
ATOM     28  N   UNL d   1      11.066  10.380  -4.792  0.00  0.00    -0.244 NA
ATOM     29  C   UNL d   1      11.920   9.257  -2.720  0.00  0.00     0.021 A 
ATOM     30  C   UNL d   1      10.754   9.979  -6.065  0.00  0.00     0.099 A 
ATOM     31  C   UNL d   1      12.304   8.022  -2.188  0.00  0.00     0.031 A 
ATOM     32  C   UNL d   1      12.295   6.882  -2.996  0.00  0.00     0.140 A 
ATOM     33  F   UNL d   1      12.839   5.778  -2.470  0.00  0.00    -0.204 F 
ENDBRANCH  21  24
ENDBRANCH   1  18
TORSDOF 7
