REMARK  7 active torsions:
REMARK  status: ('A' for Active; 'I' for Inactive)
REMARK    1  A    between atoms: C_2  and  C_3 
REMARK    2  A    between atoms: C_3  and  C_4 
REMARK    3  A    between atoms: C_4  and  C_5 
REMARK    4  A    between atoms: C_8  and  S_9 
REMARK    5  A    between atoms: S_9  and  N_12 
REMARK    6  A    between atoms: N_12  and  C_13 
REMARK    7  A    between atoms: C_16  and  C_17 
ROOT
ATOM      1  S   UNL d   1       8.129   5.974 -12.571  0.00  0.00     0.285 S 
ATOM      2  O   UNL d   1       9.152   6.975 -12.821  0.00  0.00    -0.198 OA
ATOM      3  O   UNL d   1       6.688   6.289 -12.623  0.00  0.00    -0.198 OA
ENDROOT
BRANCH   1   4
ATOM      4  C   UNL d   1       8.445   4.552 -13.562  0.00  0.00     0.105 A 
ATOM      5  C   UNL d   1       9.672   4.454 -14.240  0.00  0.00     0.013 A 
ATOM      6  C   UNL d   1       9.941   3.338 -15.039  0.00  0.00    -0.004 A 
ATOM      7  C   UNL d   1       9.002   2.266 -15.110  0.00  0.00    -0.022 A 
ATOM      8  C   UNL d   1       7.764   2.393 -14.438  0.00  0.00    -0.004 A 
ATOM      9  C   UNL d   1       7.476   3.542 -13.669  0.00  0.00     0.013 A 
BRANCH   7  10
ATOM     10  C   UNL d   1       9.286   1.023 -15.943  0.00  0.00     0.026 C 
BRANCH  10  11
ATOM     11  C   UNL d   1      10.767   0.540 -15.968  0.00  0.00     0.005 C 
BRANCH  11  12
ATOM     12  C   UNL d   1      11.171   0.005 -17.346  0.00  0.00     0.000 C 
ATOM     13  C   UNL d   1      10.420  -1.264 -17.720  0.00  0.00     0.000 C 
ENDBRANCH  11  12
ENDBRANCH  10  11
ENDBRANCH   7  10
ENDBRANCH   1   4
BRANCH   1  14
ATOM     14  N   UNL d   1       8.434   5.362 -10.980  0.00  0.00    -0.158 NA
BRANCH  14  15
ATOM     15  C   UNL d   1       9.028   6.029  -9.899  0.00  0.00     0.094 A 
ATOM     16  C   UNL d   1       9.907   7.152 -10.049  0.00  0.00     0.020 A 
ATOM     17  C   UNL d   1      10.443   7.799  -8.950  0.00  0.00    -0.003 A 
ATOM     18  C   UNL d   1      10.148   7.351  -7.653  0.00  0.00    -0.021 A 
ATOM     19  C   UNL d   1       9.251   6.283  -7.490  0.00  0.00    -0.003 A 
ATOM     20  C   UNL d   1       8.705   5.601  -8.591  0.00  0.00     0.020 A 
BRANCH  18  21
ATOM     21  C   UNL d   1      10.818   7.971  -6.498  0.00  0.00     0.055 A 
ATOM     22  C   UNL d   1      12.236   8.402  -6.612  0.00  0.00     0.042 A 
ATOM     23  C   UNL d   1      12.338   9.791  -6.088  0.00  0.00     0.290 C 
ATOM     24  C   UNL d   1      11.835   7.237  -5.701  0.00  0.00     0.009 A 
ATOM     25  N   UNL d   1      10.989  10.305  -6.250  0.00  0.00     0.339 N 
ATOM     26  C   UNL d   1      10.105   9.168  -5.961  0.00  0.00     0.294 C 
ENDBRANCH  18  21
ENDBRANCH  14  15
ENDBRANCH   1  14
TORSDOF 7
