REMARK  5 active torsions:
REMARK  status: ('A' for Active; 'I' for Inactive)
REMARK    1  A    between atoms: C_3  and  C_4 
REMARK    2  A    between atoms: C_13  and  C_14 
REMARK    3  A    between atoms: N_17  and  C_18 
REMARK    4  A    between atoms: C_18  and  C_19 
REMARK    5  A    between atoms: C_19  and  C_20 
ROOT
ATOM      1  C   UNL d   1       8.886   5.896 -10.918  0.00  0.00     0.051 C 
ATOM      2  C   UNL d   1      10.003   6.950 -10.745  0.00  0.00     0.042 C 
ATOM      3  C   UNL d   1       9.943   7.708  -9.410  0.00  0.00     0.251 C 
ATOM      4  N   UNL d   1       9.969   6.758  -8.300  0.00  0.00     0.137 N 
ATOM      5  C   UNL d   1       8.804   5.880  -8.384  0.00  0.00     0.251 C 
ATOM      6  C   UNL d   1       8.845   5.023  -9.658  0.00  0.00     0.042 C 
ENDROOT
BRANCH   1   7
ATOM      7  C   UNL d   1       9.014   5.089 -12.173  0.00  0.00     0.100 A 
ATOM      8  C   UNL d   1       8.140   4.296 -12.866  0.00  0.00     0.019 A 
ATOM      9  C   UNL d   1       6.679   4.084 -12.504  0.00  0.00     0.035 C 
ATOM     10  C   UNL d   1       8.954   3.777 -13.940  0.00  0.00     0.106 A 
ATOM     11  N   UNL d   1      10.188   4.242 -13.872  0.00  0.00    -0.127 NA
ATOM     12  O   UNL d   1      10.236   5.058 -12.756  0.00  0.00    -0.216 OA
BRANCH  10  13
ATOM     13  C   UNL d   1       8.655   2.862 -15.057  0.00  0.00     0.020 A 
ATOM     14  C   UNL d   1       9.365   2.966 -16.293  0.00  0.00     0.002 A 
ATOM     15  C   UNL d   1       9.030   2.151 -17.398  0.00  0.00     0.011 A 
ATOM     16  C   UNL d   1       7.955   1.246 -17.293  0.00  0.00     0.058 A 
ATOM     17  C   UNL d   1       7.249   1.132 -16.079  0.00  0.00     0.011 A 
ATOM     18 CL   UNL d   1       7.531   0.226 -18.625  0.00  0.00    -0.082 Cl
ATOM     19  C   UNL d   1       7.620   1.898 -14.949  0.00  0.00     0.002 A 
ENDBRANCH  10  13
ENDBRANCH   1   7
BRANCH   4  20
ATOM     20  C   UNL d   1       9.943   7.456  -7.019  0.00  0.00     0.255 C 
BRANCH  20  21
ATOM     21  C   UNL d   1      11.301   8.106  -6.705  0.00  0.00     0.062 C 
BRANCH  21  22
ATOM     22  C   UNL d   1      11.544   8.237  -5.209  0.00  0.00    -0.020 A 
ATOM     23  C   UNL d   1      11.582   9.501  -4.587  0.00  0.00    -0.004 A 
ATOM     24  C   UNL d   1      11.851   9.587  -3.207  0.00  0.00    -0.000 A 
ATOM     25  C   UNL d   1      12.091   8.430  -2.445  0.00  0.00    -0.000 A 
ATOM     26  C   UNL d   1      12.053   7.168  -3.063  0.00  0.00    -0.000 A 
ATOM     27  C   UNL d   1      11.785   7.075  -4.442  0.00  0.00    -0.004 A 
ENDBRANCH  21  22
ENDBRANCH  20  21
ENDBRANCH   4  20
TORSDOF 5
