REMARK  6 active torsions:
REMARK  status: ('A' for Active; 'I' for Inactive)
REMARK    1  A    between atoms: N_3  and  C_4 
REMARK    2  A    between atoms: C_4  and  C_5 
REMARK    3  A    between atoms: C_5  and  C_6 
REMARK    4  A    between atoms: C_6  and  C_7 
REMARK    5  A    between atoms: C_7  and  N_8 
REMARK    6  A    between atoms: N_11  and  C_12 
ROOT
ATOM      1  N   UNL d   1       8.590   4.618 -13.044  0.00  0.00     0.141 N 
ATOM      2  C   UNL d   1       9.525   4.242 -11.976  0.00  0.00     0.274 C 
ATOM      3  C   UNL d   1       9.153   4.933 -10.652  0.00  0.00     0.137 C 
ATOM      4  N   UNL d   1       9.134   6.367 -10.857  0.00  0.00    -0.344 N 
ATOM      5  C   UNL d   1       8.287   6.819 -11.945  0.00  0.00     0.137 C 
ATOM      6  C   UNL d   1       8.676   6.071 -13.229  0.00  0.00     0.274 C 
ENDROOT
BRANCH   1   7
ATOM      7  C   UNL d   1       8.986   3.962 -14.286  0.00  0.00     0.251 C 
BRANCH   7   8
ATOM      8  C   UNL d   1       8.555   2.489 -14.297  0.00  0.00     0.037 C 
BRANCH   8   9
ATOM      9  C   UNL d   1       8.864   1.801 -15.626  0.00  0.00     0.029 C 
BRANCH   9  10
ATOM     10  C   UNL d   1       8.545   0.296 -15.591  0.00  0.00     0.133 C 
BRANCH  10  11
ATOM     11  N   UNL d   1       7.422  -0.011 -16.464  0.00  0.00    -0.201 N 
ATOM     12  C   UNL d   1       6.189  -0.378 -16.086  0.00  0.00     0.352 A 
ATOM     13  O   UNL d   1       5.736  -0.468 -14.944  0.00  0.00    -0.244 OA
ATOM     14  N   UNL d   1       5.576  -0.635 -17.235  0.00  0.00    -0.241 N 
ATOM     15  C   UNL d   1       6.473  -0.406 -18.265  0.00  0.00     0.177 A 
ATOM     16  C   UNL d   1       4.254  -1.051 -17.427  0.00  0.00     0.086 A 
ATOM     17  N   UNL d   1       7.622  -0.035 -17.810  0.00  0.00    -0.147 NA
ATOM     18  C   UNL d   1       5.948  -0.613 -19.601  0.00  0.00     0.071 A 
ATOM     19 BR   UNL d   1       7.120  -0.314 -21.167  0.00  0.00    -0.046 Br
ATOM     20  C   UNL d   1       4.667  -0.993 -19.808  0.00  0.00     0.011 A 
ATOM     21  C   UNL d   1       3.783  -1.224 -18.676  0.00  0.00     0.020 A 
ENDBRANCH  10  11
ENDBRANCH   9  10
ENDBRANCH   8   9
ENDBRANCH   7   8
ENDBRANCH   1   7
BRANCH   4  22
ATOM     22  C   UNL d   1       9.789   7.269  -9.999  0.00  0.00     0.057 A 
ATOM     23  C   UNL d   1       9.686   7.171  -8.590  0.00  0.00     0.022 A 
ATOM     24  C   UNL d   1      10.433   8.112  -7.801  0.00  0.00     0.031 A 
ATOM     25  C   UNL d   1       8.934   6.277  -7.754  0.00  0.00     0.009 A 
ATOM     26  C   UNL d   1      11.210   9.107  -8.380  0.00  0.00     0.007 A 
ATOM     27  S   UNL d   1      10.229   7.845  -6.092  0.00  0.00    -0.086 SA
ATOM     28  C   UNL d   1      11.264   9.201  -9.771  0.00  0.00     0.002 A 
ATOM     29  C   UNL d   1      10.537   8.307 -10.571  0.00  0.00     0.017 A 
ATOM     30  C   UNL d   1       9.114   6.568  -6.440  0.00  0.00     0.035 A 
ENDBRANCH   4  22
TORSDOF 6
