REMARK  7 active torsions:
REMARK  status: ('A' for Active; 'I' for Inactive)
REMARK    1  A    between atoms: C_6  and  S_7 
REMARK    2  A    between atoms: S_7  and  N_10 
REMARK    3  A    between atoms: N_10  and  C_11 
REMARK    4  A    between atoms: C_11  and  C_12 
REMARK    5  A    between atoms: C_12  and  C_13 
REMARK    6  A    between atoms: C_13  and  N_14 
REMARK    7  A    between atoms: C_17  and  C_18 
ROOT
ATOM      1  N   UNL d   1       8.534   6.149 -12.581  0.00  0.00     0.142 N 
ATOM      2  C   UNL d   1       9.563   5.364 -13.273  0.00  0.00     0.276 C 
ATOM      3  C   UNL d   1       9.024   4.107 -13.919  0.00  0.00     0.005 C 
ATOM      4  C   UNL d   1       7.769   3.624 -13.695  0.00  0.00    -0.021 C 
ATOM      5  C   UNL d   1       6.832   4.355 -12.719  0.00  0.00     0.061 C 
ATOM      6  C   UNL d   1       7.616   5.306 -11.812  0.00  0.00     0.255 C 
ENDROOT
BRANCH   1   7
ATOM      7  C   UNL d   1       9.152   7.176 -11.753  0.00  0.00     0.253 C 
BRANCH   7   8
ATOM      8  C   UNL d   1       9.771   6.605 -10.453  0.00  0.00     0.062 C 
BRANCH   8   9
ATOM      9  C   UNL d   1      10.798   7.563  -9.858  0.00  0.00     0.141 C 
BRANCH   9  10
ATOM     10  N   UNL d   1      11.064   7.204  -8.467  0.00  0.00    -0.185 NA
BRANCH  10  11
ATOM     11  S   UNL d   1       9.918   7.615  -7.261  0.00  0.00     0.281 S 
ATOM     12  O   UNL d   1       9.152   6.398  -6.957  0.00  0.00    -0.199 OA
ATOM     13  O   UNL d   1       9.246   8.858  -7.662  0.00  0.00    -0.199 OA
BRANCH  11  14
ATOM     14  C   UNL d   1      10.995   7.998  -5.897  0.00  0.00     0.105 A 
ATOM     15  C   UNL d   1      11.768   9.180  -5.947  0.00  0.00     0.013 A 
ATOM     16  C   UNL d   1      12.607   9.490  -4.865  0.00  0.00     0.000 A 
ATOM     17  C   UNL d   1      12.652   8.663  -3.726  0.00  0.00    -0.004 A 
ATOM     18  C   UNL d   1      11.886   7.475  -3.689  0.00  0.00    -0.021 A 
ATOM     19  C   UNL d   1      11.932   6.573  -2.475  0.00  0.00     0.031 C 
ATOM     20  C   UNL d   1      11.059   7.145  -4.785  0.00  0.00     0.009 A 
ENDBRANCH  11  14
ENDBRANCH  10  11
ENDBRANCH   9  10
ENDBRANCH   8   9
ENDBRANCH   7   8
ENDBRANCH   1   7
BRANCH   4  21
ATOM     21  C   UNL d   1       7.296   2.425 -14.423  0.00  0.00     0.011 A 
ATOM     22  C   UNL d   1       7.851   1.893 -15.647  0.00  0.00     0.019 A 
ATOM     23  C   UNL d   1       7.089   0.730 -15.979  0.00  0.00     0.081 A 
ATOM     24  C   UNL d   1       8.898   2.241 -16.561  0.00  0.00     0.013 A 
ATOM     25  N   UNL d   1       6.133   0.601 -14.982  0.00  0.00    -0.250 NA
ATOM     26  C   UNL d   1       7.347  -0.050 -17.122  0.00  0.00     0.020 A 
ATOM     27  C   UNL d   1       6.248   1.600 -14.031  0.00  0.00     0.059 A 
ATOM     28  C   UNL d   1       5.315   1.620 -12.861  0.00  0.00     0.052 C 
ATOM     29  C   UNL d   1       8.416   0.301 -17.978  0.00  0.00     0.013 A 
ATOM     30  C   UNL d   1       9.185   1.446 -17.687  0.00  0.00     0.058 A 
ATOM     31 CL   UNL d   1      10.491   1.894 -18.723  0.00  0.00    -0.082 Cl
ENDBRANCH   4  21
TORSDOF 7
