REMARK  9 active torsions:
REMARK  status: ('A' for Active; 'I' for Inactive)
REMARK    1  A    between atoms: O_2  and  C_3 
REMARK    2  A    between atoms: N_7  and  C_8 
REMARK    3  A    between atoms: C_8  and  C_9 
REMARK    4  A    between atoms: C_9  and  C_10 
REMARK    5  A    between atoms: C_10  and  C_11 
REMARK    6  A    between atoms: C_11  and  N_12 
REMARK    7  A    between atoms: N_15  and  C_16 
REMARK    8  A    between atoms: C_18  and  C_19 
REMARK    9  A    between atoms: C_24  and  C_25 
ROOT
ATOM      1  N   UNL d   1       9.773   3.530 -14.069  0.00  0.00     0.141 N 
ATOM      2  C   UNL d   1      10.672   2.401 -14.298  0.00  0.00     0.274 C 
ATOM      3  C   UNL d   1      10.782   2.113 -15.808  0.00  0.00     0.138 C 
ATOM      4  N   UNL d   1      11.214   3.313 -16.516  0.00  0.00    -0.330 N 
ATOM      5  C   UNL d   1      10.452   4.515 -16.219  0.00  0.00     0.138 C 
ATOM      6  C   UNL d   1      10.357   4.718 -14.700  0.00  0.00     0.274 C 
ENDROOT
BRANCH   4   7
ATOM      7  C   UNL d   1      12.332   3.325 -17.348  0.00  0.00     0.143 A 
ATOM      8  N   UNL d   1      13.063   4.459 -17.408  0.00  0.00    -0.214 NA
ATOM      9  C   UNL d   1      14.107   4.497 -18.241  0.00  0.00     0.140 A 
ATOM     10  N   UNL d   1      14.541   3.460 -18.973  0.00  0.00    -0.227 NA
ATOM     11  C   UNL d   1      13.819   2.319 -18.938  0.00  0.00     0.157 A 
ATOM     12  C   UNL d   1      12.673   2.202 -18.119  0.00  0.00     0.060 A 
BRANCH   9  13
ATOM     13  C   UNL d   1      14.994   5.752 -18.189  0.00  0.00     0.052 C 
ATOM     14  C   UNL d   1      15.776   5.945 -19.510  0.00  0.00     0.008 C 
ATOM     15  C   UNL d   1      16.008   5.634 -17.037  0.00  0.00     0.008 C 
ATOM     16  C   UNL d   1      14.126   7.017 -17.987  0.00  0.00     0.008 C 
ENDBRANCH   9  13
BRANCH  11  17
ATOM     17  C   UNL d   1      14.299   1.177 -19.831  0.00  0.00     0.435 C 
ATOM     18  F   UNL d   1      14.101   1.494 -21.110  0.00  0.00    -0.165 F 
ATOM     19  F   UNL d   1      15.603   0.977 -19.639  0.00  0.00    -0.165 F 
ATOM     20  F   UNL d   1      13.654   0.037 -19.576  0.00  0.00    -0.165 F 
ENDBRANCH  11  17
ENDBRANCH   4   7
BRANCH   1  21
ATOM     21  C   UNL d   1       9.656   3.754 -12.634  0.00  0.00     0.251 C 
BRANCH  21  22
ATOM     22  C   UNL d   1       8.500   4.709 -12.292  0.00  0.00     0.037 C 
BRANCH  22  23
ATOM     23  C   UNL d   1       8.642   5.258 -10.867  0.00  0.00     0.027 C 
BRANCH  23  24
ATOM     24  C   UNL d   1       9.580   6.482 -10.727  0.00  0.00     0.109 C 
BRANCH  24  25
ATOM     25  N   UNL d   1       9.738   6.981  -9.345  0.00  0.00    -0.293 N 
ATOM     26  C   UNL d   1       9.053   6.316  -8.309  0.00  0.00     0.079 A 
ATOM     27  C   UNL d   1       9.134   6.731  -7.037  0.00  0.00     0.021 A 
ATOM     28  C   UNL d   1       9.975   7.858  -6.720  0.00  0.00     0.031 A 
ATOM     29  C   UNL d   1      10.644   8.512  -7.702  0.00  0.00     0.150 A 
ATOM     30  C   UNL d   1      10.522   8.074  -9.107  0.00  0.00     0.283 A 
ATOM     31  O   UNL d   1      11.102   8.652 -10.031  0.00  0.00    -0.265 OA
BRANCH  29  32
ATOM     32  O   UNL d   1      11.468   9.587  -7.459  0.00  0.00    -0.323 OA
ATOM     33  C   UNL d   1      11.619  10.010  -6.109  0.00  0.00     0.182 C 
ENDBRANCH  29  32
ENDBRANCH  24  25
ENDBRANCH  23  24
ENDBRANCH  22  23
ENDBRANCH  21  22
ENDBRANCH   1  21
TORSDOF 9
