REMARK  6 active torsions:
REMARK  status: ('A' for Active; 'I' for Inactive)
REMARK    1  A    between atoms: C_9  and  N_10 
REMARK    2  A    between atoms: N_13  and  C_14 
REMARK    3  A    between atoms: C_14  and  C_15 
REMARK    4  A    between atoms: C_15  and  C_16 
REMARK    5  A    between atoms: C_16  and  O_17 
REMARK    6  A    between atoms: O_17  and  C_18 
ROOT
ATOM      1  N   UNL d   1       8.947   4.710 -12.417  0.00  0.00    -0.344 N 
ATOM      2  C   UNL d   1       9.729   5.646 -13.178  0.00  0.00     0.137 C 
ATOM      3  C   UNL d   1       9.495   7.066 -12.633  0.00  0.00     0.274 C 
ATOM      4  N   UNL d   1       9.856   7.118 -11.210  0.00  0.00     0.141 N 
ATOM      5  C   UNL d   1       8.938   6.224 -10.492  0.00  0.00     0.274 C 
ATOM      6  C   UNL d   1       9.088   4.769 -10.973  0.00  0.00     0.137 C 
ENDROOT
BRANCH   4   7
ATOM      7  C   UNL d   1       9.691   8.507 -10.747  0.00  0.00     0.253 C 
BRANCH   7   8
ATOM      8  C   UNL d   1      10.603   8.850  -9.559  0.00  0.00     0.068 C 
BRANCH   8   9
ATOM      9  C   UNL d   1       9.780   8.941  -8.251  0.00  0.00     0.151 C 
BRANCH   9  10
ATOM     10  O   UNL d   1      10.575   9.575  -7.229  0.00  0.00    -0.331 OA
BRANCH  10  11
ATOM     11  C   UNL d   1      11.034   8.822  -6.161  0.00  0.00     0.094 A 
ATOM     12  C   UNL d   1      11.449   9.533  -4.995  0.00  0.00     0.022 A 
ATOM     13  C   UNL d   1      11.853   8.770  -3.867  0.00  0.00     0.013 A 
ATOM     14  C   UNL d   1      11.859   7.398  -3.903  0.00  0.00     0.012 A 
ATOM     15  C   UNL d   1      12.326   9.214  -2.515  0.00  0.00     0.317 C 
ATOM     16  C   UNL d   1      11.470   6.685  -5.044  0.00  0.00    -0.001 A 
ATOM     17  C   UNL d   1      12.339   6.854  -2.601  0.00  0.00     0.317 C 
ATOM     18  C   UNL d   1      11.098   7.402  -6.195  0.00  0.00     0.024 A 
ATOM     19  N   UNL d   1      12.303   8.006  -1.685  0.00  0.00     0.349 N 
ENDBRANCH  10  11
ENDBRANCH   9  10
ENDBRANCH   8   9
ENDBRANCH   7   8
ENDBRANCH   4   7
BRANCH   1  20
ATOM     20  C   UNL d   1       8.068   3.829 -13.075  0.00  0.00     0.056 A 
ATOM     21  C   UNL d   1       6.716   3.832 -12.681  0.00  0.00     0.017 A 
ATOM     22  C   UNL d   1       5.821   2.921 -13.270  0.00  0.00     0.002 A 
ATOM     23  C   UNL d   1       6.263   2.029 -14.259  0.00  0.00     0.000 A 
ATOM     24  C   UNL d   1       7.603   2.022 -14.670  0.00  0.00     0.002 A 
ATOM     25  C   UNL d   1       8.025   1.120 -15.672  0.00  0.00     0.002 A 
ATOM     26  C   UNL d   1       8.533   2.917 -14.062  0.00  0.00     0.018 A 
ATOM     27  C   UNL d   1       9.374   1.077 -16.077  0.00  0.00     0.030 A 
ATOM     28  C   UNL d   1      10.305   1.927 -15.451  0.00  0.00     0.140 A 
ATOM     29  F   UNL d   1      11.603   1.911 -15.828  0.00  0.00    -0.204 F 
ATOM     30  C   UNL d   1       9.892   2.812 -14.444  0.00  0.00     0.031 A 
ENDBRANCH   1  20
TORSDOF 6
