REMARK  6 active torsions:
REMARK  status: ('A' for Active; 'I' for Inactive)
REMARK    1  A    between atoms: C_2  and  S_3 
REMARK    2  A    between atoms: S_3  and  C_6 
REMARK    3  A    between atoms: C_9  and  O_10 
REMARK    4  A    between atoms: C_12  and  C_13 
REMARK    5  A    between atoms: C_16  and  C_17 
REMARK    6  A    between atoms: C_17  and  N_18 
ROOT
ATOM      1  C   UNL d   1       7.272   0.718 -15.145  0.00  0.00     0.084 A 
ATOM      2  C   UNL d   1       7.814   0.616 -16.435  0.00  0.00     0.013 A 
ATOM      3  C   UNL d   1       8.710   1.616 -16.879  0.00  0.00     0.025 A 
ATOM      4  C   UNL d   1       9.050   2.720 -16.038  0.00  0.00     0.096 A 
ATOM      5  C   UNL d   1       8.488   2.813 -14.739  0.00  0.00     0.041 A 
ATOM      6  C   UNL d   1       7.641   1.788 -14.326  0.00  0.00     0.015 A 
ENDROOT
BRANCH   5   7
ATOM      7  C   UNL d   1       8.738   3.971 -13.852  0.00  0.00     0.083 A 
ATOM      8  N   UNL d   1       8.328   3.993 -12.534  0.00  0.00    -0.248 NA
ATOM      9  C   UNL d   1       8.716   5.133 -11.867  0.00  0.00     0.092 A 
ATOM     10  C   UNL d   1       9.338   5.898 -12.810  0.00  0.00     0.018 A 
ATOM     11  C   UNL d   1       9.330   5.187 -14.042  0.00  0.00     0.020 A 
BRANCH   9  12
ATOM     12  C   UNL d   1       8.450   5.309 -10.393  0.00  0.00     0.296 C 
BRANCH  12  13
ATOM     13  N   UNL d   1       9.519   6.019  -9.691  0.00  0.00     0.143 N 
ATOM     14  C   UNL d   1       9.341   5.809  -8.250  0.00  0.00     0.251 C 
ATOM     15  C   UNL d   1      10.567   6.225  -7.422  0.00  0.00     0.035 C 
ATOM     16  C   UNL d   1      10.936   7.716  -7.526  0.00  0.00     0.002 C 
ATOM     17  C   UNL d   1      11.629   8.056  -8.856  0.00  0.00     0.002 C 
ATOM     18  C   UNL d   1      10.659   8.261 -10.016  0.00  0.00     0.035 C 
ATOM     19  C   UNL d   1       9.365   7.457  -9.952  0.00  0.00     0.251 C 
ENDBRANCH  12  13
ENDBRANCH   9  12
ENDBRANCH   5   7
BRANCH   4  20
ATOM     20  O   UNL d   1       9.899   3.730 -16.448  0.00  0.00    -0.328 OA
ATOM     21  C   UNL d   1      10.541   3.606 -17.693  0.00  0.00     0.181 C 
ENDBRANCH   4  20
BRANCH   1  22
ATOM     22  S   UNL d   1       6.092  -0.487 -14.540  0.00  0.00     0.190 S 
ATOM     23  O   UNL d   1       6.665  -1.064 -13.316  0.00  0.00    -0.222 OA
ATOM     24  O   UNL d   1       5.698  -1.349 -15.654  0.00  0.00    -0.222 OA
BRANCH  22  25
ATOM     25  C   UNL d   1       4.568   0.431 -14.057  0.00  0.00     0.127 C 
ATOM     26  C   UNL d   1       4.838   1.637 -13.138  0.00  0.00     0.018 C 
ENDBRANCH  22  25
ENDBRANCH   1  22
TORSDOF 6
