REMARK  2 active torsions:
REMARK  status: ('A' for Active; 'I' for Inactive)
REMARK    1  A    between atoms: N_5  and  C_6 
REMARK    2  A    between atoms: C_18  and  C_19 
ROOT
ATOM      1  C   UNL d   1       9.638   4.349 -15.892  0.00  0.00     0.246 C 
ATOM      2  C   UNL d   1      10.770   5.162 -16.564  0.00  0.00     0.065 C 
ATOM      3  C   UNL d   1      11.168   4.694 -17.960  0.00  0.00    -0.014 A 
ATOM      4  C   UNL d   1      10.833   5.436 -19.111  0.00  0.00    -0.004 A 
ATOM      5  C   UNL d   1      11.246   4.975 -20.380  0.00  0.00    -0.000 A 
ATOM      6  C   UNL d   1      11.987   3.784 -20.501  0.00  0.00     0.001 A 
ATOM      7  C   UNL d   1      12.320   3.044 -19.353  0.00  0.00     0.006 A 
ATOM      8  C   UNL d   1      11.908   3.510 -18.092  0.00  0.00     0.025 A 
ATOM      9  S   UNL d   1      12.258   2.590 -16.650  0.00  0.00    -0.087 SA
ATOM     10  C   UNL d   1      10.648   1.977 -16.349  0.00  0.00     0.027 A 
ATOM     11  C   UNL d   1      10.501   0.583 -16.359  0.00  0.00     0.006 A 
ATOM     12  C   UNL d   1       9.245   0.002 -16.106  0.00  0.00     0.002 A 
ATOM     13  C   UNL d   1       8.124   0.810 -15.851  0.00  0.00     0.017 A 
ATOM     14  C   UNL d   1       8.268   2.207 -15.903  0.00  0.00    -0.000 A 
ATOM     15  C   UNL d   1       9.529   2.830 -16.115  0.00  0.00     0.015 A 
ENDROOT
BRANCH   1  16
ATOM     16  N   UNL d   1       9.511   4.719 -14.461  0.00  0.00     0.144 N 
ATOM     17  C   UNL d   1      10.238   3.837 -13.572  0.00  0.00     0.286 C 
ATOM     18  C   UNL d   1      10.100   4.335 -12.136  0.00  0.00     0.286 C 
ATOM     19  N   UNL d   1       8.723   4.416 -11.689  0.00  0.00     0.143 N 
ATOM     20  C   UNL d   1       8.640   4.819 -10.294  0.00  0.00     0.285 C 
ATOM     21  C   UNL d   1       8.019   5.338 -12.555  0.00  0.00     0.286 C 
ATOM     22  C   UNL d   1       8.148   4.824 -13.978  0.00  0.00     0.286 C 
ENDBRANCH   1  16
BRANCH  13  23
ATOM     23  C   UNL d   1       6.814   0.239 -15.545  0.00  0.00     0.081 A 
ATOM     24  N   UNL d   1       6.379   0.353 -14.269  0.00  0.00    -0.244 NA
ATOM     25  C   UNL d   1       5.167  -0.150 -13.960  0.00  0.00     0.099 A 
ATOM     26  C   UNL d   1       4.331  -0.793 -14.900  0.00  0.00     0.021 A 
ATOM     27  C   UNL d   1       4.781  -0.893 -16.228  0.00  0.00     0.003 A 
ATOM     28  C   UNL d   1       6.036  -0.363 -16.558  0.00  0.00     0.019 A 
ENDBRANCH  13  23
TORSDOF 2
