REMARK  4 active torsions:
REMARK  status: ('A' for Active; 'I' for Inactive)
REMARK    1  A    between atoms: N_5  and  C_6 
REMARK    2  A    between atoms: C_11  and  C_12 
REMARK    3  A    between atoms: C_12  and  N_13 
REMARK    4  A    between atoms: N_16  and  C_17 
ROOT
ATOM      1  C   UNL d   1      16.108   8.153 -18.991  0.00  0.00     0.160 A 
ATOM      2  C   UNL d   1      14.867   8.827 -19.133  0.00  0.00     0.042 A 
ATOM      3  C   UNL d   1      13.742   8.305 -18.534  0.00  0.00     0.042 A 
ATOM      4  C   UNL d   1      13.867   7.106 -17.792  0.00  0.00     0.164 A 
ATOM      5  N   UNL d   1      13.015   6.365 -17.090  0.00  0.00    -0.228 NA
ATOM      6  C   UNL d   1      13.745   5.268 -16.644  0.00  0.00     0.113 A 
ATOM      7  C   UNL d   1      15.053   5.379 -17.023  0.00  0.00     0.119 A 
ATOM      8  N   UNL d   1      15.156   6.535 -17.765  0.00  0.00    -0.208 N 
ATOM      9  N   UNL d   1      16.288   7.003 -18.337  0.00  0.00    -0.146 NA
ENDROOT
BRANCH   6  10
ATOM     10  C   UNL d   1      13.111   4.170 -15.837  0.00  0.00     0.297 C 
BRANCH  10  11
ATOM     11  N   UNL d   1      11.670   4.163 -15.611  0.00  0.00     0.147 N 
ATOM     12  C   UNL d   1      10.983   3.826 -16.864  0.00  0.00     0.275 C 
ATOM     13  C   UNL d   1       9.459   3.863 -16.661  0.00  0.00     0.137 C 
ATOM     14  N   UNL d   1       9.085   2.983 -15.562  0.00  0.00    -0.344 N 
ATOM     15  C   UNL d   1       9.814   3.200 -14.318  0.00  0.00     0.137 C 
ATOM     16  C   UNL d   1      11.328   3.167 -14.592  0.00  0.00     0.275 C 
BRANCH  14  17
ATOM     17  C   UNL d   1       8.097   1.991 -15.675  0.00  0.00     0.057 A 
ATOM     18  C   UNL d   1       7.264   1.697 -14.574  0.00  0.00     0.029 A 
ATOM     19  C   UNL d   1       6.281   0.697 -14.658  0.00  0.00     0.070 A 
ATOM     20  C   UNL d   1       6.101  -0.014 -15.861  0.00  0.00     0.068 A 
ATOM     21 CL   UNL d   1       5.297   0.387 -13.276  0.00  0.00    -0.081 Cl
ATOM     22  C   UNL d   1       6.917   0.279 -16.970  0.00  0.00     0.014 A 
ATOM     23 CL   UNL d   1       4.887  -1.234 -15.991  0.00  0.00    -0.082 Cl
ATOM     24  C   UNL d   1       7.911   1.276 -16.880  0.00  0.00     0.018 A 
ENDBRANCH  14  17
ENDBRANCH  10  11
ENDBRANCH   6  10
BRANCH   1  25
ATOM     25  N   UNL d   1      17.230   8.738 -19.548  0.00  0.00    -0.328 N 
ATOM     26  C   UNL d   1      18.499   8.622 -18.831  0.00  0.00     0.138 C 
ATOM     27  C   UNL d   1      19.237   7.311 -19.199  0.00  0.00     0.274 C 
ATOM     28  N   UNL d   1      19.446   7.249 -20.645  0.00  0.00     0.143 N 
ATOM     29  C   UNL d   1      20.152   6.018 -20.975  0.00  0.00     0.286 C 
ATOM     30  C   UNL d   1      18.149   7.268 -21.327  0.00  0.00     0.274 C 
ATOM     31  C   UNL d   1      17.384   8.568 -20.991  0.00  0.00     0.138 C 
ENDBRANCH   1  25
TORSDOF 4
