REMARK  7 active torsions:
REMARK  status: ('A' for Active; 'I' for Inactive)
REMARK    1  A    between atoms: C_4  and  C_5 
REMARK    2  A    between atoms: N_13  and  C_14 
REMARK    3  A    between atoms: C_14  and  C_15 
REMARK    4  A    between atoms: C_15  and  C_16 
REMARK    5  A    between atoms: C_16  and  S_17 
REMARK    6  A    between atoms: S_17  and  C_18 
REMARK    7  A    between atoms: C_21  and  C_22 
ROOT
ATOM      1  C   UNL d   1       6.585   0.162 -19.222  0.00  0.00     0.251 C 
ENDROOT
BRANCH   1   2
ATOM      2  N   UNL d   1       6.970   0.264 -17.803  0.00  0.00     0.138 N 
ATOM      3  C   UNL d   1       8.053   1.247 -17.576  0.00  0.00     0.255 C 
ATOM      4  C   UNL d   1       8.701   1.158 -16.185  0.00  0.00     0.061 C 
ATOM      5  C   UNL d   1       7.906   1.862 -15.103  0.00  0.00    -0.024 A 
ATOM      6  C   UNL d   1       6.594   1.454 -14.783  0.00  0.00    -0.024 A 
ATOM      7  C   UNL d   1       8.489   2.940 -14.405  0.00  0.00    -0.003 A 
ATOM      8  C   UNL d   1       5.885   2.127 -13.765  0.00  0.00    -0.004 A 
ATOM      9  C   UNL d   1       5.918   0.319 -15.530  0.00  0.00     0.061 C 
ATOM     10  C   UNL d   1       6.455   3.224 -13.097  0.00  0.00     0.001 A 
ATOM     11  C   UNL d   1       7.771   3.626 -13.400  0.00  0.00     0.020 A 
ATOM     12  C   UNL d   1       5.769   0.569 -17.040  0.00  0.00     0.255 C 
BRANCH  11  13
ATOM     13  C   UNL d   1       8.407   4.701 -12.635  0.00  0.00     0.110 A 
ATOM     14  C   UNL d   1       8.210   5.087 -11.276  0.00  0.00     0.044 A 
ATOM     15  C   UNL d   1       9.053   6.151 -11.109  0.00  0.00     0.105 A 
ATOM     16  C   UNL d   1       9.375   7.048  -9.961  0.00  0.00     0.061 C 
ATOM     17  O   UNL d   1       9.699   6.404 -12.267  0.00  0.00    -0.215 OA
ATOM     18  N   UNL d   1       9.318   5.461 -13.220  0.00  0.00    -0.127 NA
ENDBRANCH  11  13
ENDBRANCH   1   2
BRANCH   1  19
ATOM     19  C   UNL d   1       7.557  -0.822 -19.876  0.00  0.00     0.047 C 
BRANCH  19  20
ATOM     20  C   UNL d   1       7.519  -0.856 -21.419  0.00  0.00     0.067 C 
BRANCH  20  21
ATOM     21  S   UNL d   1       8.830  -1.931 -22.119  0.00  0.00    -0.075 SA
BRANCH  21  22
ATOM     22  C   UNL d   1      10.283  -1.194 -21.474  0.00  0.00     0.193 A 
ATOM     23  N   UNL d   1      11.370  -0.951 -22.221  0.00  0.00    -0.289 N 
ATOM     24  C   UNL d   1      12.184  -0.358 -21.321  0.00  0.00     0.167 A 
ATOM     25  C   UNL d   1      11.632  -1.265 -23.620  0.00  0.00     0.134 C 
ATOM     26  N   UNL d   1      11.665  -0.291 -20.093  0.00  0.00    -0.128 NA
ATOM     27  N   UNL d   1      10.474  -0.841 -20.214  0.00  0.00    -0.122 NA
BRANCH  24  28
ATOM     28  C   UNL d   1      13.524   0.142 -21.557  0.00  0.00     0.037 A 
ATOM     29  C   UNL d   1      14.519  -0.132 -20.608  0.00  0.00     0.015 A 
ATOM     30  C   UNL d   1      15.835   0.349 -20.811  0.00  0.00     0.068 A 
ATOM     31  C   UNL d   1      16.121   1.109 -21.966  0.00  0.00     0.068 A 
ATOM     32 CL   UNL d   1      17.042  -0.025 -19.655  0.00  0.00    -0.082 Cl
ATOM     33  C   UNL d   1      15.116   1.401 -22.900  0.00  0.00     0.012 A 
ATOM     34 CL   UNL d   1      17.709   1.690 -22.245  0.00  0.00    -0.082 Cl
ATOM     35  C   UNL d   1      13.803   0.921 -22.697  0.00  0.00     0.004 A 
ENDBRANCH  24  28
ENDBRANCH  21  22
ENDBRANCH  20  21
ENDBRANCH  19  20
ENDBRANCH   1  19
TORSDOF 7
