REMARK  6 active torsions:
REMARK  status: ('A' for Active; 'I' for Inactive)
REMARK       I    between atoms: C_2  and  N_3 
REMARK    1  A    between atoms: C_2  and  C_24 
REMARK    2  A    between atoms: N_3  and  C_4 
REMARK    3  A    between atoms: C_7  and  C_8 
REMARK    4  A    between atoms: C_8  and  C_9 
REMARK    5  A    between atoms: C_9  and  N_10 
REMARK    6  A    between atoms: N_13  and  C_14 
ROOT
ATOM      1  C   UNL d   1       7.022   4.767 -13.479  0.00  0.00     0.106 C 
ATOM      2  C   UNL d   1       7.461   6.207 -13.157  0.00  0.00     0.024 C 
ATOM      3  C   UNL d   1       8.512   6.314 -12.065  0.00  0.00     0.002 C 
ATOM      4  C   UNL d   1       7.969   5.664 -10.791  0.00  0.00     0.002 C 
ATOM      5  C   UNL d   1       7.553   4.230 -11.120  0.00  0.00     0.002 C 
ATOM      6  C   UNL d   1       6.484   4.134 -12.196  0.00  0.00     0.024 C 
ENDROOT
BRANCH   4   7
ATOM      7  C   UNL d   1       9.015   5.689  -9.675  0.00  0.00     0.035 C 
BRANCH   7   8
ATOM      8  C   UNL d   1       9.254   7.093  -9.095  0.00  0.00     0.250 C 
BRANCH   8   9
ATOM      9  N   UNL d   1      10.430   7.146  -8.247  0.00  0.00     0.141 N 
ATOM     10  C   UNL d   1      10.169   6.366  -7.031  0.00  0.00     0.274 C 
ATOM     11  C   UNL d   1      11.383   6.403  -6.123  0.00  0.00     0.137 C 
ATOM     12  N   UNL d   1      11.604   7.797  -5.795  0.00  0.00    -0.344 N 
ATOM     13  C   UNL d   1      11.867   8.643  -6.964  0.00  0.00     0.137 C 
ATOM     14  C   UNL d   1      10.647   8.552  -7.875  0.00  0.00     0.274 C 
BRANCH  12  15
ATOM     15  C   UNL d   1      11.847   8.192  -4.480  0.00  0.00     0.056 A 
ATOM     16  C   UNL d   1      11.658   9.549  -4.146  0.00  0.00     0.017 A 
ATOM     17  C   UNL d   1      11.852   9.985  -2.835  0.00  0.00     0.002 A 
ATOM     18  C   UNL d   1      12.271   9.085  -1.844  0.00  0.00     0.000 A 
ATOM     19  C   UNL d   1      12.475   7.742  -2.146  0.00  0.00     0.002 A 
ATOM     20  C   UNL d   1      12.282   7.293  -3.466  0.00  0.00     0.017 A 
ENDBRANCH  12  15
ENDBRANCH   8   9
ENDBRANCH   7   8
ENDBRANCH   4   7
BRANCH   1  21
ATOM     21  N   UNL d   1       8.149   4.011 -14.035  0.00  0.00    -0.240 NA
ATOM     22  C   UNL d   1       8.059   2.791 -14.564  0.00  0.00     0.251 C 
ATOM     23  O   UNL d   1       6.984   2.208 -14.723  0.00  0.00    -0.271 OA
BRANCH  22  24
ATOM     24  C   UNL d   1       9.382   2.122 -14.950  0.00  0.00     0.081 C 
ATOM     25  C   UNL d   1       9.182   0.635 -15.316  0.00  0.00     0.009 C 
ATOM     26  C   UNL d   1      10.500  -0.020 -15.732  0.00  0.00     0.001 C 
ATOM     27  C   UNL d   1      11.172   0.743 -16.884  0.00  0.00     0.000 C 
ATOM     28  C   UNL d   1      11.378   2.224 -16.525  0.00  0.00     0.001 C 
ATOM     29  C   UNL d   1      10.059   2.884 -16.115  0.00  0.00     0.009 C 
ENDBRANCH  22  24
ENDBRANCH   1  21
TORSDOF 6
