REMARK  8 active torsions:
REMARK  status: ('A' for Active; 'I' for Inactive)
REMARK    1  A    between atoms: C_2  and  C_3 
REMARK    2  A    between atoms: C_2  and  C_23 
REMARK    3  A    between atoms: C_3  and  C_4 
REMARK    4  A    between atoms: C_4  and  C_5 
REMARK    5  A    between atoms: C_5  and  C_6 
REMARK    6  A    between atoms: C_6  and  C_7 
REMARK    7  A    between atoms: C_7  and  N_8 
REMARK    8  A    between atoms: N_11  and  C_12 
ROOT
ATOM      1  N   UNL d   1       8.163   4.999 -12.024  0.00  0.00     0.141 N 
ATOM      2  C   UNL d   1       9.380   4.261 -12.356  0.00  0.00     0.274 C 
ATOM      3  C   UNL d   1       9.436   3.953 -13.847  0.00  0.00     0.138 C 
ATOM      4  N   UNL d   1       8.241   3.238 -14.259  0.00  0.00    -0.328 N 
ATOM      5  C   UNL d   1       6.975   3.836 -13.843  0.00  0.00     0.138 C 
ATOM      6  C   UNL d   1       6.991   4.176 -12.338  0.00  0.00     0.274 C 
ENDROOT
BRANCH   1   7
ATOM      7  C   UNL d   1       8.159   5.304 -10.598  0.00  0.00     0.250 C 
BRANCH   7   8
ATOM      8  C   UNL d   1       9.197   6.374 -10.214  0.00  0.00     0.035 C 
BRANCH   8   9
ATOM      9  C   UNL d   1       9.195   6.631  -8.705  0.00  0.00     0.003 C 
BRANCH   9  10
ATOM     10  C   UNL d   1       9.622   8.063  -8.365  0.00  0.00     0.008 C 
BRANCH  10  11
ATOM     11  C   UNL d   1       9.791   8.303  -6.864  0.00  0.00     0.069 C 
BRANCH  11  12
ATOM     12  C   UNL d   1      11.046   7.642  -6.261  0.00  0.00     0.175 C 
ATOM     13  O   UNL d   1      11.667   6.802  -6.907  0.00  0.00    -0.291 OA
BRANCH  12  14
ATOM     14  C   UNL d   1      11.428   7.998  -4.873  0.00  0.00     0.060 A 
ATOM     15  C   UNL d   1      11.450   9.328  -4.388  0.00  0.00     0.134 A 
ATOM     16  C   UNL d   1      11.861   9.591  -3.068  0.00  0.00     0.028 A 
ATOM     17  O   UNL d   1      11.085  10.399  -5.154  0.00  0.00    -0.190 OA
ATOM     18  C   UNL d   1      12.265   8.541  -2.225  0.00  0.00     0.002 A 
ATOM     19  C   UNL d   1      12.257   7.215  -2.696  0.00  0.00     0.000 A 
ATOM     20  C   UNL d   1      11.848   6.953  -4.018  0.00  0.00     0.005 A 
ENDBRANCH  12  14
ENDBRANCH  11  12
ENDBRANCH  10  11
ENDBRANCH   9  10
ENDBRANCH   8   9
ENDBRANCH   7   8
ENDBRANCH   1   7
BRANCH   4  21
ATOM     21  C   UNL d   1       8.301   2.030 -14.959  0.00  0.00     0.169 A 
ATOM     22  C   UNL d   1       9.349   1.570 -15.800  0.00  0.00     0.061 A 
ATOM     23  C   UNL d   1       8.995   0.311 -16.298  0.00  0.00     0.128 A 
ATOM     24  C   UNL d   1      10.580   2.145 -16.209  0.00  0.00     0.005 A 
ATOM     25  O   UNL d   1       7.736   0.052 -15.768  0.00  0.00    -0.210 OA
ATOM     26  C   UNL d   1       9.816  -0.435 -17.165  0.00  0.00     0.027 A 
ATOM     27  N   UNL d   1       7.317   1.132 -14.943  0.00  0.00    -0.109 NA
ATOM     28  C   UNL d   1      11.058   0.127 -17.540  0.00  0.00     0.002 A 
ATOM     29  C   UNL d   1      11.430   1.404 -17.060  0.00  0.00     0.000 A 
ENDBRANCH   4  21
TORSDOF 8
