REMARK  1 active torsions:
REMARK  status: ('A' for Active; 'I' for Inactive)
REMARK    1  A    between atoms: N_5  and  C_6 
ROOT
ATOM      1  C   UNL d   1       8.161   1.569 -15.582  0.00  0.00     0.058 C 
ATOM      2  C   UNL d   1       7.766   0.655 -16.497  0.00  0.00     0.019 C 
ATOM      3  C   UNL d   1       6.470  -0.004 -16.622  0.00  0.00     0.024 A 
ATOM      4  C   UNL d   1       6.038  -0.365 -17.915  0.00  0.00     0.002 A 
ATOM      5  C   UNL d   1       4.784  -0.971 -18.104  0.00  0.00     0.000 A 
ATOM      6  C   UNL d   1       3.958  -1.219 -16.992  0.00  0.00     0.002 A 
ATOM      7  C   UNL d   1       4.382  -0.867 -15.697  0.00  0.00     0.025 A 
ATOM      8  C   UNL d   1       5.636  -0.256 -15.510  0.00  0.00     0.100 A 
ATOM      9  O   UNL d   1       6.056   0.016 -14.237  0.00  0.00    -0.307 OA
ATOM     10  C   UNL d   1       6.259   1.329 -13.905  0.00  0.00     0.101 A 
ATOM     11  C   UNL d   1       5.454   1.890 -12.892  0.00  0.00     0.026 A 
ATOM     12  C   UNL d   1       5.652   3.209 -12.446  0.00  0.00     0.013 A 
ATOM     13  C   UNL d   1       6.673   3.980 -13.015  0.00  0.00     0.058 A 
ATOM     14 CL   UNL d   1       6.992   5.568 -12.427  0.00  0.00    -0.082 Cl
ATOM     15  C   UNL d   1       7.463   3.434 -14.041  0.00  0.00     0.015 A 
ATOM     16  C   UNL d   1       7.295   2.099 -14.494  0.00  0.00     0.039 A 
ENDROOT
BRANCH   1  17
ATOM     17  N   UNL d   1       9.469   2.050 -15.627  0.00  0.00    -0.344 N 
ATOM     18  C   UNL d   1      10.356   2.206 -14.472  0.00  0.00     0.137 C 
ATOM     19  C   UNL d   1      11.004   3.611 -14.438  0.00  0.00     0.274 C 
ATOM     20  N   UNL d   1      11.708   3.858 -15.698  0.00  0.00     0.143 N 
ATOM     21  C   UNL d   1      12.318   5.177 -15.662  0.00  0.00     0.286 C 
ATOM     22  C   UNL d   1      10.751   3.793 -16.805  0.00  0.00     0.274 C 
ATOM     23  C   UNL d   1      10.148   2.381 -16.874  0.00  0.00     0.137 C 
ENDBRANCH   1  17
TORSDOF 1
