REMARK  5 active torsions:
REMARK  status: ('A' for Active; 'I' for Inactive)
REMARK    1  A    between atoms: C_2  and  N_3 
REMARK    2  A    between atoms: C_7  and  C_8 
REMARK    3  A    between atoms: C_8  and  N_9 
REMARK       I    between atoms: N_9  and  C_10 
REMARK    4  A    between atoms: C_10  and  C_12 
REMARK    5  A    between atoms: C_13  and  O_14 
ROOT
ATOM      1  N   UNL d   1       8.794   4.883 -12.064  0.00  0.00    -0.232 NA
ATOM      2  C   UNL d   1       9.483   4.719 -13.203  0.00  0.00     0.277 C 
ATOM      3  O   UNL d   1      10.262   5.568 -13.633  0.00  0.00    -0.266 OA
ENDROOT
BRANCH   2   4
ATOM      4  C   UNL d   1       9.300   3.396 -13.899  0.00  0.00     0.086 A 
ATOM      5  C   UNL d   1       8.013   2.802 -14.051  0.00  0.00     0.047 A 
ATOM      6  C   UNL d   1       7.891   1.559 -14.707  0.00  0.00     0.041 A 
ATOM      7 BR   UNL d   1       6.392   3.607 -13.420  0.00  0.00    -0.048 Br
ATOM      8  C   UNL d   1       9.018   0.919 -15.240  0.00  0.00     0.009 A 
ATOM      9 BR   UNL d   1       6.203   0.687 -14.855  0.00  0.00    -0.049 Br
ATOM     10  C   UNL d   1      10.284   1.511 -15.123  0.00  0.00     0.025 A 
ATOM     11  C   UNL d   1      10.436   2.751 -14.465  0.00  0.00     0.099 A 
BRANCH  11  12
ATOM     12  O   UNL d   1      11.684   3.304 -14.297  0.00  0.00    -0.328 OA
ATOM     13  C   UNL d   1      12.465   3.467 -15.476  0.00  0.00     0.181 C 
ENDBRANCH  11  12
ENDBRANCH   2   4
BRANCH   1  14
ATOM     14  C   UNL d   1       8.683   6.150 -11.361  0.00  0.00     0.162 C 
BRANCH  14  15
ATOM     15  C   UNL d   1       9.417   6.077 -10.003  0.00  0.00     0.243 C 
ATOM     16  N   UNL d   1       9.862   7.382  -9.522  0.00  0.00     0.137 N 
ATOM     17  C   UNL d   1      10.195   7.147  -8.129  0.00  0.00     0.250 C 
ATOM     18  C   UNL d   1       9.058   6.279  -7.622  0.00  0.00     0.037 C 
ATOM     19  C   UNL d   1       8.548   5.552  -8.860  0.00  0.00     0.037 C 
BRANCH  16  20
ATOM     20  C   UNL d   1      10.986   7.894 -10.294  0.00  0.00     0.250 C 
ATOM     21  C   UNL d   1      11.486   9.225  -9.758  0.00  0.00     0.037 C 
ENDBRANCH  16  20
ENDBRANCH  14  15
ENDBRANCH   1  14
TORSDOF 5
