REMARK  2 active torsions:
REMARK  status: ('A' for Active; 'I' for Inactive)
REMARK    1  A    between atoms: N_11  and  C_12 
REMARK    2  A    between atoms: C_12  and  C_13 
ROOT
ATOM      1  N   UNL d   1      11.901   2.020 -17.427  0.00  0.00    -0.191 NA
ATOM      2  C   UNL d   1      10.945   2.167 -16.792  0.00  0.00     0.101 C 
ATOM      3  C   UNL d   1       9.744   2.356 -15.995  0.00  0.00     0.068 A 
ATOM      4  C   UNL d   1       8.519   1.793 -16.411  0.00  0.00     0.010 A 
ATOM      5  C   UNL d   1       7.358   1.970 -15.629  0.00  0.00    -0.004 A 
ATOM      6  C   UNL d   1       7.406   2.722 -14.436  0.00  0.00    -0.026 A 
ATOM      7  C   UNL d   1       8.636   3.308 -14.042  0.00  0.00    -0.024 A 
ATOM      8  C   UNL d   1       9.802   3.109 -14.807  0.00  0.00     0.006 A 
ATOM      9  C   UNL d   1       8.685   4.083 -12.748  0.00  0.00     0.057 C 
ATOM     10  C   UNL d   1       9.622   5.265 -12.612  0.00  0.00     0.255 C 
ATOM     11  N   UNL d   1       9.152   5.847 -11.352  0.00  0.00     0.142 N 
ATOM     12  C   UNL d   1       7.707   5.590 -11.227  0.00  0.00     0.251 C 
ATOM     13  C   UNL d   1       7.363   4.746 -12.437  0.00  0.00     0.040 C 
ATOM     14  C   UNL d   1       6.229   3.733 -12.316  0.00  0.00     0.007 C 
ATOM     15  C   UNL d   1       6.109   2.937 -13.635  0.00  0.00     0.026 C 
ENDROOT
BRANCH  11  16
ATOM     16  C   UNL d   1       9.522   7.253 -11.159  0.00  0.00     0.277 C 
BRANCH  16  17
ATOM     17  C   UNL d   1      10.113   7.560  -9.787  0.00  0.00     0.011 A 
ATOM     18  C   UNL d   1       9.459   7.143  -8.605  0.00  0.00    -0.002 A 
ATOM     19  C   UNL d   1      10.000   7.465  -7.347  0.00  0.00    -0.000 A 
ATOM     20  C   UNL d   1      11.201   8.200  -7.258  0.00  0.00    -0.000 A 
ATOM     21  C   UNL d   1      11.860   8.607  -8.431  0.00  0.00    -0.000 A 
ATOM     22  C   UNL d   1      11.317   8.295  -9.689  0.00  0.00    -0.002 A 
ENDBRANCH  16  17
ENDBRANCH  11  16
TORSDOF 2
