REMARK  5 active torsions:
REMARK  status: ('A' for Active; 'I' for Inactive)
REMARK    1  A    between atoms: O_2  and  C_3 
REMARK    2  A    between atoms: C_8  and  N_9 
REMARK    3  A    between atoms: N_12  and  C_13 
REMARK    4  A    between atoms: C_13  and  C_14 
REMARK    5  A    between atoms: C_21  and  C_22 
ROOT
ATOM      1  C   UNL d   1      10.675   4.267 -14.508  0.00  0.00     0.112 A 
ATOM      2  C   UNL d   1       9.450   3.778 -14.878  0.00  0.00     0.098 A 
ATOM      3  N   UNL d   1       8.576   4.074 -13.868  0.00  0.00    -0.288 N 
ATOM      4  C   UNL d   1       7.263   3.769 -13.756  0.00  0.00     0.077 A 
ATOM      5  C   UNL d   1       6.565   4.220 -12.675  0.00  0.00    -0.004 A 
ATOM      6  C   UNL d   1       5.092   3.906 -12.565  0.00  0.00     0.033 C 
ATOM      7  C   UNL d   1       7.231   4.980 -11.685  0.00  0.00     0.000 A 
ATOM      8  C   UNL d   1       8.575   5.271 -11.771  0.00  0.00     0.034 A 
ATOM      9  C   UNL d   1       9.302   4.806 -12.903  0.00  0.00     0.147 A 
ATOM     10  N   UNL d   1      10.580   4.903 -13.279  0.00  0.00    -0.229 NA
ENDROOT
BRANCH   1  11
ATOM     11  C   UNL d   1      11.993   4.168 -15.231  0.00  0.00     0.297 C 
BRANCH  11  12
ATOM     12  N   UNL d   1      12.108   3.384 -16.457  0.00  0.00     0.147 N 
ATOM     13  C   UNL d   1      11.714   1.987 -16.215  0.00  0.00     0.275 C 
ATOM     14  C   UNL d   1      11.862   1.137 -17.482  0.00  0.00     0.137 C 
ATOM     15  N   UNL d   1      11.151   1.777 -18.582  0.00  0.00    -0.343 N 
ATOM     16  C   UNL d   1      11.471   3.174 -18.842  0.00  0.00     0.137 C 
ATOM     17  C   UNL d   1      11.331   3.993 -17.546  0.00  0.00     0.275 C 
BRANCH  15  18
ATOM     18  C   UNL d   1      10.153   1.109 -19.316  0.00  0.00     0.079 A 
ATOM     19  C   UNL d   1       9.036   0.500 -18.681  0.00  0.00     0.110 A 
ATOM     20  C   UNL d   1       8.071  -0.174 -19.474  0.00  0.00     0.026 A 
ATOM     21  C   UNL d   1       8.211  -0.236 -20.874  0.00  0.00     0.002 A 
ATOM     22  C   UNL d   1       9.305   0.376 -21.500  0.00  0.00     0.002 A 
ATOM     23  C   UNL d   1      10.268   1.053 -20.727  0.00  0.00     0.019 A 
BRANCH  19  24
ATOM     24  O   UNL d   1       8.944   0.615 -17.308  0.00  0.00    -0.327 OA
ATOM     25  C   UNL d   1       7.741   0.226 -16.672  0.00  0.00     0.181 C 
ENDBRANCH  19  24
ENDBRANCH  15  18
ENDBRANCH  11  12
ENDBRANCH   1  11
BRANCH   8  26
ATOM     26  C   UNL d   1       9.227   6.053 -10.709  0.00  0.00     0.003 A 
ATOM     27  C   UNL d   1       9.845   7.289 -10.998  0.00  0.00     0.000 A 
ATOM     28  C   UNL d   1      10.470   8.042  -9.987  0.00  0.00     0.000 A 
ATOM     29  C   UNL d   1      10.479   7.563  -8.665  0.00  0.00     0.000 A 
ATOM     30  C   UNL d   1       9.861   6.334  -8.363  0.00  0.00     0.000 A 
ATOM     31  C   UNL d   1       9.241   5.584  -9.380  0.00  0.00     0.000 A 
ENDBRANCH   8  26
TORSDOF 5
