REMARK  8 active torsions:
REMARK  status: ('A' for Active; 'I' for Inactive)
REMARK    1  A    between atoms: C_7  and  N_8 
REMARK    2  A    between atoms: N_11  and  C_12 
REMARK    3  A    between atoms: C_12  and  C_13 
REMARK    4  A    between atoms: C_13  and  C_14 
REMARK    5  A    between atoms: C_14  and  C_15 
REMARK    6  A    between atoms: C_15  and  C_16 
REMARK    7  A    between atoms: C_16  and  C_17 
REMARK       I    between atoms: C_17  and  N_19 
REMARK    8  A    between atoms: N_19  and  C_20 
ROOT
ATOM      1  C   UNL d   1       8.803   6.380 -11.571  0.00  0.00     0.003 C 
ENDROOT
BRANCH   1   2
ATOM      2  C   UNL d   1       9.434   6.906 -10.288  0.00  0.00     0.035 C 
BRANCH   2   3
ATOM      3  C   UNL d   1       9.669   8.444 -10.316  0.00  0.00     0.250 C 
BRANCH   3   4
ATOM      4  N   UNL d   1      10.301   8.949  -9.098  0.00  0.00     0.141 N 
ATOM      5  C   UNL d   1      11.456   8.123  -8.755  0.00  0.00     0.274 C 
ATOM      6  C   UNL d   1      12.189   8.662  -7.540  0.00  0.00     0.137 C 
ATOM      7  N   UNL d   1      11.268   8.793  -6.429  0.00  0.00    -0.343 N 
ATOM      8  C   UNL d   1      10.088   9.557  -6.715  0.00  0.00     0.137 C 
ATOM      9  C   UNL d   1       9.367   9.000  -7.964  0.00  0.00     0.274 C 
BRANCH   7  10
ATOM     10  C   UNL d   1      11.510   8.271  -5.150  0.00  0.00     0.076 A 
ATOM     11  C   UNL d   1      11.469   9.052  -3.957  0.00  0.00     0.118 A 
ATOM     12  N   UNL d   1      11.056  10.361  -4.020  0.00  0.00    -0.147 N 
ATOM     13  C   UNL d   1      11.798   8.512  -2.698  0.00  0.00     0.022 A 
ATOM     14  C   UNL d   1      12.110   7.155  -2.587  0.00  0.00     0.002 A 
ATOM     15  C   UNL d   1      12.164   6.401  -3.773  0.00  0.00     0.002 A 
ATOM     16  C   UNL d   1      11.833   6.926  -5.026  0.00  0.00     0.018 A 
ENDBRANCH   7  10
ENDBRANCH   3   4
ENDBRANCH   2   3
ENDBRANCH   1   2
BRANCH   1  17
ATOM     17  C   UNL d   1       8.562   4.862 -11.444  0.00  0.00     0.010 C 
BRANCH  17  18
ATOM     18  C   UNL d   1       8.274   4.193 -12.797  0.00  0.00     0.090 C 
BRANCH  18  19
ATOM     19  C   UNL d   1       9.524   3.930 -13.652  0.00  0.00     0.252 C 
ATOM     20  O   UNL d   1      10.474   4.716 -13.669  0.00  0.00    -0.271 OA
ATOM     21  N   UNL d   1       9.495   2.808 -14.383  0.00  0.00    -0.235 NA
BRANCH  21  22
ATOM     22  C   UNL d   1      10.498   2.430 -15.368  0.00  0.00     0.128 C 
ATOM     23  C   UNL d   1      10.011   2.787 -16.767  0.00  0.00    -0.004 A 
ATOM     24  C   UNL d   1       9.566   1.790 -17.672  0.00  0.00    -0.024 A 
ATOM     25  C   UNL d   1       9.964   4.147 -17.150  0.00  0.00    -0.003 A 
ATOM     26  C   UNL d   1       9.602   0.311 -17.312  0.00  0.00     0.026 C 
ATOM     27  C   UNL d   1       9.103   2.169 -18.949  0.00  0.00    -0.004 A 
ATOM     28  C   UNL d   1       9.764   0.040 -15.811  0.00  0.00     0.007 C 
ATOM     29  C   UNL d   1      10.839   0.944 -15.198  0.00  0.00     0.029 C 
ATOM     30  C   UNL d   1       9.074   3.524 -19.326  0.00  0.00    -0.000 A 
ATOM     31  C   UNL d   1       9.497   4.515 -18.425  0.00  0.00    -0.000 A 
ENDBRANCH  21  22
ENDBRANCH  18  19
ENDBRANCH  17  18
ENDBRANCH   1  17
TORSDOF 8
