REMARK  2 active torsions:
REMARK  status: ('A' for Active; 'I' for Inactive)
REMARK    1  A    between atoms: C_7  and  C_8 
REMARK    2  A    between atoms: C_14  and  N_15 
ROOT
ATOM      1  C   UNL d   1       8.659   5.775 -11.324  0.00  0.00    -0.001 A 
ATOM      2  C   UNL d   1       7.271   5.871 -11.223  0.00  0.00     0.001 A 
ATOM      3  C   UNL d   1       6.427   5.248 -12.123  0.00  0.00     0.006 A 
ATOM      4  C   UNL d   1       7.021   4.517 -13.124  0.00  0.00     0.027 A 
ATOM      5  C   UNL d   1       8.401   4.434 -13.372  0.00  0.00     0.015 A 
ATOM      6  C   UNL d   1       9.223   5.051 -12.391  0.00  0.00    -0.002 A 
ATOM      7  C   UNL d   1       9.103   3.746 -14.579  0.00  0.00     0.246 C 
ATOM      8  C   UNL d   1       8.357   2.638 -15.346  0.00  0.00     0.065 C 
ATOM      9  C   UNL d   1       7.538   1.725 -14.528  0.00  0.00    -0.014 A 
ATOM     10  C   UNL d   1       7.946   0.391 -14.419  0.00  0.00    -0.004 A 
ATOM     11  C   UNL d   1       7.068  -0.498 -13.766  0.00  0.00    -0.000 A 
ATOM     12  C   UNL d   1       5.845  -0.086 -13.282  0.00  0.00     0.001 A 
ATOM     13  C   UNL d   1       5.433   1.239 -13.373  0.00  0.00     0.006 A 
ATOM     14  C   UNL d   1       6.341   2.131 -13.978  0.00  0.00     0.025 A 
ATOM     15  S   UNL d   1       5.862   3.769 -14.053  0.00  0.00    -0.087 SA
ENDROOT
BRANCH   1  16
ATOM     16  C   UNL d   1       9.505   6.434 -10.322  0.00  0.00    -0.004 A 
ATOM     17  C   UNL d   1       9.640   5.939  -9.009  0.00  0.00    -0.022 A 
ATOM     18  C   UNL d   1       8.909   4.697  -8.572  0.00  0.00     0.031 C 
ATOM     19  C   UNL d   1      10.484   6.592  -8.089  0.00  0.00    -0.004 A 
ATOM     20  C   UNL d   1      11.201   7.740  -8.476  0.00  0.00    -0.000 A 
ATOM     21  C   UNL d   1      11.071   8.232  -9.786  0.00  0.00    -0.000 A 
ATOM     22  C   UNL d   1      10.220   7.580 -10.694  0.00  0.00    -0.000 A 
ENDBRANCH   1  16
BRANCH   7  23
ATOM     23  N   UNL d   1       9.736   4.755 -15.468  0.00  0.00     0.144 N 
ATOM     24  C   UNL d   1      11.107   5.124 -15.072  0.00  0.00     0.286 C 
ATOM     25  C   UNL d   1      12.083   3.960 -15.357  0.00  0.00     0.286 C 
ATOM     26  N   UNL d   1      12.062   3.585 -16.784  0.00  0.00     0.143 N 
ATOM     27  C   UNL d   1      10.728   3.268 -17.203  0.00  0.00     0.286 C 
ATOM     28  C   UNL d   1      12.942   2.470 -17.022  0.00  0.00     0.285 C 
ATOM     29  C   UNL d   1       9.766   4.430 -16.899  0.00  0.00     0.286 C 
ENDBRANCH   7  23
TORSDOF 2
