REMARK  9 active torsions:
REMARK  status: ('A' for Active; 'I' for Inactive)
REMARK    1  A    between atoms: C_3  and  S_4 
REMARK    2  A    between atoms: S_4  and  C_5 
REMARK    3  A    between atoms: C_5  and  C_6 
REMARK    4  A    between atoms: C_6  and  C_7 
REMARK    5  A    between atoms: C_7  and  N_8 
REMARK    6  A    between atoms: C_13  and  C_14 
REMARK    7  A    between atoms: C_17  and  C_18 
REMARK    8  A    between atoms: C_27  and  C_28 
REMARK    9  A    between atoms: C_32  and  C_33 
ROOT
ATOM      1  C   UNL d   1       7.084   1.909 -15.472  0.00  0.00     0.067 C 
ENDROOT
BRANCH   1   2
ATOM      2  S   UNL d   1       6.326   2.556 -13.951  0.00  0.00    -0.075 SA
BRANCH   2   3
ATOM      3  C   UNL d   1       7.608   3.609 -13.349  0.00  0.00     0.193 A 
ATOM      4  N   UNL d   1       7.354   4.721 -12.631  0.00  0.00    -0.289 N 
ATOM      5  C   UNL d   1       6.082   5.316 -12.245  0.00  0.00     0.134 C 
ATOM      6  C   UNL d   1       8.607   5.134 -12.346  0.00  0.00     0.167 A 
ATOM      7  N   UNL d   1       9.569   4.362 -12.846  0.00  0.00    -0.128 NA
ATOM      8  N   UNL d   1       8.907   3.385 -13.522  0.00  0.00    -0.122 NA
BRANCH   6   9
ATOM      9  C   UNL d   1       8.950   6.322 -11.630  0.00  0.00     0.036 A 
ATOM     10  C   UNL d   1       9.566   6.247 -10.369  0.00  0.00     0.007 A 
ATOM     11  C   UNL d   1       9.931   7.437  -9.700  0.00  0.00     0.041 A 
ATOM     12  C   UNL d   1       9.707   8.680 -10.329  0.00  0.00     0.004 A 
ATOM     13  C   UNL d   1       9.092   8.739 -11.604  0.00  0.00     0.000 A 
ATOM     14  C   UNL d   1       8.725   7.552 -12.254  0.00  0.00     0.003 A 
BRANCH  11  15
ATOM     15  C   UNL d   1      10.503   7.364  -8.366  0.00  0.00     0.182 A 
ATOM     16  O   UNL d   1      10.966   8.509  -7.786  0.00  0.00    -0.286 OA
ATOM     17  C   UNL d   1      11.443   8.105  -6.572  0.00  0.00     0.145 A 
ATOM     18  C   UNL d   1      11.261   6.755  -6.441  0.00  0.00     0.128 A 
ATOM     19  N   UNL d   1      10.659   6.290  -7.594  0.00  0.00    -0.218 NA
ENDBRANCH  11  15
ENDBRANCH   6   9
ENDBRANCH   2   3
ENDBRANCH   1   2
BRANCH   1  20
ATOM     20  C   UNL d   1       8.299   0.986 -15.250  0.00  0.00     0.047 C 
BRANCH  20  21
ATOM     21  C   UNL d   1       8.720   0.233 -16.516  0.00  0.00     0.251 C 
BRANCH  21  22
ATOM     22  N   UNL d   1      10.124   0.476 -16.817  0.00  0.00     0.137 N 
ATOM     23  C   UNL d   1      10.272   1.764 -17.466  0.00  0.00     0.251 C 
ATOM     24  C   UNL d   1      11.652   1.748 -18.092  0.00  0.00     0.037 A 
ATOM     25  C   UNL d   1      11.951   0.277 -18.267  0.00  0.00     0.038 C 
ATOM     26  C   UNL d   1      12.055   2.815 -19.104  0.00  0.00     0.024 A 
ATOM     27  C   UNL d   1      12.743   2.760 -17.763  0.00  0.00     0.007 A 
ATOM     28  C   UNL d   1      10.700  -0.453 -17.766  0.00  0.00     0.250 C 
BRANCH  26  29
ATOM     29  C   UNL d   1      11.076   3.908 -19.474  0.00  0.00    -0.022 A 
ATOM     30  C   UNL d   1      10.713   4.141 -20.821  0.00  0.00    -0.004 A 
ATOM     31  C   UNL d   1       9.770   5.143 -21.142  0.00  0.00     0.004 A 
ATOM     32  C   UNL d   1       9.168   5.906 -20.118  0.00  0.00     0.071 A 
ATOM     33  C   UNL d   1       9.523   5.669 -18.776  0.00  0.00     0.004 A 
ATOM     34  C   UNL d   1      10.475   4.691 -18.463  0.00  0.00    -0.004 A 
BRANCH  32  35
ATOM     35  C   UNL d   1       8.162   6.992 -20.440  0.00  0.00     0.419 C 
ATOM     36  F   UNL d   1       7.326   6.579 -21.392  0.00  0.00    -0.166 F 
ATOM     37  F   UNL d   1       7.456   7.320 -19.360  0.00  0.00    -0.166 F 
ATOM     38  F   UNL d   1       8.818   8.073 -20.858  0.00  0.00    -0.166 F 
ENDBRANCH  32  35
ENDBRANCH  26  29
ENDBRANCH  21  22
ENDBRANCH  20  21
ENDBRANCH   1  20
TORSDOF 9
