REMARK  5 active torsions:
REMARK  status: ('A' for Active; 'I' for Inactive)
REMARK    1  A    between atoms: N_10  and  C_11 
REMARK    2  A    between atoms: C_11  and  C_12 
REMARK    3  A    between atoms: C_12  and  C_13 
REMARK    4  A    between atoms: C_16  and  N_17 
REMARK       I    between atoms: N_17  and  C_18 
REMARK    5  A    between atoms: C_18  and  C_20 
ROOT
ATOM      1  N   UNL d   1       5.714   0.743 -23.657  0.00  0.00    -0.191 NA
ATOM      2  C   UNL d   1       5.843   0.613 -22.504  0.00  0.00     0.101 C 
ATOM      3  C   UNL d   1       6.009   0.453 -21.072  0.00  0.00     0.068 A 
ATOM      4  C   UNL d   1       5.079  -0.320 -20.323  0.00  0.00     0.010 A 
ATOM      5  C   UNL d   1       5.230  -0.491 -18.932  0.00  0.00    -0.002 A 
ATOM      6  C   UNL d   1       6.341   0.106 -18.323  0.00  0.00     0.009 A 
ATOM      7  C   UNL d   1       7.255   0.848 -19.050  0.00  0.00     0.009 A 
ATOM      8  C   UNL d   1       7.115   1.059 -20.424  0.00  0.00     0.008 A 
ATOM      9  C   UNL d   1       8.285   1.411 -18.122  0.00  0.00     0.277 C 
ATOM     10  N   UNL d   1       8.125   0.578 -16.920  0.00  0.00     0.146 N 
ATOM     11  C   UNL d   1       6.721   0.127 -16.877  0.00  0.00     0.277 C 
ENDROOT
BRANCH  10  12
ATOM     12  C   UNL d   1       8.652   1.111 -15.665  0.00  0.00     0.251 C 
BRANCH  12  13
ATOM     13  C   UNL d   1       8.015   2.471 -15.332  0.00  0.00     0.035 C 
BRANCH  13  14
ATOM     14  C   UNL d   1       8.413   3.059 -13.984  0.00  0.00     0.002 C 
ATOM     15  C   UNL d   1       7.229   3.852 -13.386  0.00  0.00     0.002 C 
ATOM     16  C   UNL d   1       7.572   4.466 -12.029  0.00  0.00     0.024 C 
ATOM     17  C   UNL d   1       8.834   5.334 -12.131  0.00  0.00     0.107 C 
ATOM     18  C   UNL d   1      10.008   4.542 -12.734  0.00  0.00     0.024 C 
ATOM     19  C   UNL d   1       9.655   3.955 -14.106  0.00  0.00     0.002 C 
BRANCH  17  20
ATOM     20  N   UNL d   1       9.209   5.820 -10.810  0.00  0.00    -0.235 NA
ATOM     21  C   UNL d   1       9.591   7.071 -10.526  0.00  0.00     0.292 C 
ATOM     22  O   UNL d   1       9.589   7.988 -11.348  0.00  0.00    -0.264 OA
BRANCH  21  23
ATOM     23  C   UNL d   1      10.026   7.298  -9.137  0.00  0.00     0.139 A 
ATOM     24  N   UNL d   1      10.320   8.591  -8.737  0.00  0.00    -0.241 NA
ATOM     25  C   UNL d   1      10.724   8.622  -7.416  0.00  0.00     0.082 A 
ATOM     26  C   UNL d   1      10.684   7.265  -6.979  0.00  0.00     0.019 A 
ATOM     27  C   UNL d   1      11.119   9.667  -6.560  0.00  0.00     0.019 A 
ATOM     28  C   UNL d   1      10.250   6.452  -8.080  0.00  0.00     0.025 A 
ATOM     29  C   UNL d   1      11.061   7.005  -5.639  0.00  0.00     0.002 A 
ATOM     30  C   UNL d   1      11.466   8.044  -4.780  0.00  0.00     0.000 A 
ATOM     31  C   UNL d   1      11.484   9.376  -5.234  0.00  0.00     0.002 A 
ENDBRANCH  21  23
ENDBRANCH  17  20
ENDBRANCH  13  14
ENDBRANCH  12  13
ENDBRANCH  10  12
TORSDOF 5
