REMARK  5 active torsions:
REMARK  status: ('A' for Active; 'I' for Inactive)
REMARK    1  A    between atoms: O_2  and  C_3 
REMARK    2  A    between atoms: C_3  and  C_5 
REMARK    3  A    between atoms: C_16  and  C_17 
REMARK    4  A    between atoms: C_17  and  N_18 
REMARK    5  A    between atoms: C_21  and  N_22 
ROOT
ATOM      1  C   UNL d   1       6.871   1.046 -15.606  0.00  0.00     0.144 A 
ATOM      2  C   UNL d   1       6.912   1.669 -14.358  0.00  0.00     0.028 A 
ATOM      3  C   UNL d   1       7.940   2.695 -14.392  0.00  0.00     0.044 A 
ATOM      4  C   UNL d   1       8.534   3.727 -13.539  0.00  0.00     0.118 A 
ATOM      5  C   UNL d   1       9.575   4.529 -14.037  0.00  0.00     0.116 A 
ATOM      6  C   UNL d   1      10.067   4.389 -15.351  0.00  0.00     0.028 A 
ATOM      7  C   UNL d   1       9.518   3.427 -16.187  0.00  0.00     0.021 A 
ATOM      8  C   UNL d   1       8.505   2.606 -15.721  0.00  0.00     0.084 A 
ATOM      9  N   UNL d   1       7.823   1.637 -16.389  0.00  0.00    -0.240 NA
ATOM     10  O   UNL d   1      10.187   5.515 -13.288  0.00  0.00    -0.326 OA
ATOM     11  C   UNL d   1       9.499   5.918 -12.123  0.00  0.00     0.181 C 
ATOM     12  C   UNL d   1       9.039   4.663 -11.384  0.00  0.00     0.185 C 
ATOM     13  O   UNL d   1       8.086   3.991 -12.245  0.00  0.00    -0.327 OA
ENDROOT
BRANCH  12  14
ATOM     14  C   UNL d   1       8.377   5.025 -10.053  0.00  0.00     0.283 C 
BRANCH  14  15
ATOM     15  N   UNL d   1       9.184   5.893  -9.169  0.00  0.00     0.140 N 
ATOM     16  C   UNL d   1       8.352   6.341  -8.080  0.00  0.00     0.252 C 
ATOM     17  C   UNL d   1       9.012   7.409  -7.243  0.00  0.00     0.058 C 
ATOM     18  C   UNL d   1      10.263   6.795  -6.580  0.00  0.00     0.093 C 
ATOM     19  C   UNL d   1      11.101   6.097  -7.641  0.00  0.00     0.058 C 
ATOM     20  C   UNL d   1      10.228   5.174  -8.512  0.00  0.00     0.252 C 
BRANCH  18  21
ATOM     21  N   UNL d   1      11.058   7.777  -5.858  0.00  0.00    -0.292 N 
ATOM     22  C   UNL d   1      11.511   7.668  -4.553  0.00  0.00     0.081 A 
ATOM     23  C   UNL d   1      12.197   8.877  -4.316  0.00  0.00     0.101 A 
ATOM     24  C   UNL d   1      11.399   6.704  -3.546  0.00  0.00     0.019 A 
ATOM     25  N   UNL d   1      12.257   9.665  -5.444  0.00  0.00    -0.203 NA
ATOM     26  C   UNL d   1      12.704   9.087  -3.035  0.00  0.00     0.021 A 
ATOM     27  C   UNL d   1      11.582   8.936  -6.316  0.00  0.00     0.282 A 
ATOM     28  O   UNL d   1      11.428   9.271  -7.618  0.00  0.00    -0.149 OA
ATOM     29  C   UNL d   1      12.599   8.134  -2.008  0.00  0.00     0.002 A 
ATOM     30  C   UNL d   1      11.924   6.929  -2.268  0.00  0.00     0.002 A 
ENDBRANCH  18  21
ENDBRANCH  14  15
ENDBRANCH  12  14
BRANCH   1  31
ATOM     31  C   UNL d   1       6.086  -0.030 -16.210  0.00  0.00     0.314 C 
ATOM     32  O   UNL d   1       6.307  -0.393 -17.376  0.00  0.00    -0.257 OA
BRANCH  31  33
ATOM     33  O   UNL d   1       5.136  -0.574 -15.419  0.00  0.00    -0.295 OA
ATOM     34  C   UNL d   1       4.367  -1.677 -15.905  0.00  0.00     0.185 C 
ENDBRANCH  31  33
ENDBRANCH   1  31
TORSDOF 5
