REMARK  7 active torsions:
REMARK  status: ('A' for Active; 'I' for Inactive)
REMARK    1  A    between atoms: C_9  and  O_10 
REMARK    2  A    between atoms: O_10  and  C_11 
REMARK    3  A    between atoms: C_11  and  C_12 
REMARK    4  A    between atoms: C_12  and  C_13 
REMARK    5  A    between atoms: C_13  and  C_14 
REMARK    6  A    between atoms: C_14  and  N_15 
REMARK    7  A    between atoms: N_18  and  C_19 
ROOT
ATOM      1  N   UNL d   1       9.169   4.650 -12.835  0.00  0.00     0.141 N 
ATOM      2  C   UNL d   1      10.178   3.594 -12.762  0.00  0.00     0.274 C 
ATOM      3  C   UNL d   1      10.865   3.272 -14.107  0.00  0.00     0.137 C 
ATOM      4  N   UNL d   1       9.835   2.920 -15.045  0.00  0.00    -0.344 N 
ATOM      5  C   UNL d   1       8.658   3.725 -15.096  0.00  0.00     0.137 C 
ATOM      6  C   UNL d   1       8.123   4.100 -13.684  0.00  0.00     0.274 C 
ENDROOT
BRANCH   1   7
ATOM      7  C   UNL d   1       8.576   4.937 -11.511  0.00  0.00     0.251 C 
BRANCH   7   8
ATOM      8  C   UNL d   1       9.512   5.644 -10.524  0.00  0.00     0.038 C 
BRANCH   8   9
ATOM      9  C   UNL d   1       8.946   5.848  -9.126  0.00  0.00     0.035 C 
BRANCH   9  10
ATOM     10  C   UNL d   1       9.985   6.633  -8.290  0.00  0.00     0.149 C 
BRANCH  10  11
ATOM     11  O   UNL d   1       9.710   6.476  -6.901  0.00  0.00    -0.329 OA
BRANCH  11  12
ATOM     12  C   UNL d   1      10.344   7.343  -6.045  0.00  0.00     0.121 A 
ATOM     13  C   UNL d   1      10.216   8.749  -6.229  0.00  0.00     0.162 A 
ATOM     14  C   UNL d   1      10.804   9.647  -5.292  0.00  0.00     0.029 A 
ATOM     15  F   UNL d   1       9.476   9.198  -7.251  0.00  0.00    -0.202 F 
ATOM     16  C   UNL d   1      11.480   9.095  -4.207  0.00  0.00     0.009 A 
ATOM     17  C   UNL d   1      12.151   9.772  -3.027  0.00  0.00     0.156 A 
ATOM     18  C   UNL d   1      11.605   7.721  -4.019  0.00  0.00     0.058 A 
ATOM     19  N   UNL d   1      12.575   8.647  -2.206  0.00  0.00    -0.229 NA
ATOM     20  C   UNL d   1      12.284   7.441  -2.748  0.00  0.00     0.275 A 
ATOM     21  O   UNL d   1      12.557   6.350  -2.274  0.00  0.00    -0.266 OA
ATOM     22  C   UNL d   1      11.017   6.816  -4.930  0.00  0.00     0.031 A 
ENDBRANCH  11  12
ENDBRANCH  10  11
ENDBRANCH   9  10
ENDBRANCH   8   9
ENDBRANCH   7   8
ENDBRANCH   1   7
BRANCH   4  23
ATOM     23  C   UNL d   1       9.906   1.781 -15.864  0.00  0.00     0.056 C 
ATOM     24  C   UNL d   1      10.926   1.579 -16.813  0.00  0.00     0.018 A 
ATOM     25  C   UNL d   1      10.918   0.405 -17.627  0.00  0.00     0.002 A 
ATOM     26  C   UNL d   1      11.947   2.533 -17.029  0.00  0.00     0.031 A 
ATOM     27  C   UNL d   1       9.856  -0.510 -17.523  0.00  0.00     0.000 C 
ATOM     28  C   UNL d   1      11.942   0.173 -18.565  0.00  0.00     0.002 A 
ATOM     29  C   UNL d   1       8.775  -0.205 -16.682  0.00  0.00     0.002 C 
ATOM     30  C   UNL d   1       8.827   0.879 -15.805  0.00  0.00     0.017 C 
ATOM     31  C   UNL d   1      12.961   1.121 -18.741  0.00  0.00     0.030 A 
ATOM     32  C   UNL d   1      12.954   2.307 -17.972  0.00  0.00     0.140 A 
ATOM     33  F   UNL d   1      13.947   3.207 -18.106  0.00  0.00    -0.204 F 
ENDBRANCH   4  23
TORSDOF 7
