REMARK  8 active torsions:
REMARK  status: ('A' for Active; 'I' for Inactive)
REMARK    1  A    between atoms: O_2  and  C_3 
REMARK    2  A    between atoms: C_6  and  O_7 
REMARK    3  A    between atoms: O_7  and  C_8 
REMARK    4  A    between atoms: C_8  and  C_9 
REMARK    5  A    between atoms: C_9  and  N_10 
REMARK    6  A    between atoms: N_13  and  S_14 
REMARK    7  A    between atoms: S_14  and  C_17 
REMARK    8  A    between atoms: C_20  and  O_21 
ROOT
ATOM      1  N   UNL d   1       9.594   4.480 -13.590  0.00  0.00     0.144 N 
ATOM      2  C   UNL d   1       9.784   3.059 -13.288  0.00  0.00     0.275 C 
ATOM      3  C   UNL d   1      10.628   2.334 -14.356  0.00  0.00     0.148 C 
ATOM      4  N   UNL d   1      10.021   2.493 -15.684  0.00  0.00    -0.270 N 
ATOM      5  C   UNL d   1       9.584   3.863 -16.003  0.00  0.00     0.148 C 
ATOM      6  C   UNL d   1       8.826   4.519 -14.835  0.00  0.00     0.275 C 
ENDROOT
BRANCH   1   7
ATOM      7  C   UNL d   1       8.793   5.131 -12.531  0.00  0.00     0.283 C 
BRANCH   7   8
ATOM      8  C   UNL d   1       9.645   5.370 -11.280  0.00  0.00     0.184 C 
BRANCH   8   9
ATOM      9  O   UNL d   1       8.920   5.955 -10.232  0.00  0.00    -0.329 OA
BRANCH   9  10
ATOM     10  C   UNL d   1       9.612   6.764  -9.363  0.00  0.00     0.094 A 
ATOM     11  C   UNL d   1      10.570   7.742  -9.767  0.00  0.00     0.026 A 
ATOM     12  C   UNL d   1      11.251   8.509  -8.788  0.00  0.00     0.026 A 
ATOM     13  C   UNL d   1      10.969   8.366  -7.431  0.00  0.00     0.094 A 
ATOM     14  C   UNL d   1       9.963   7.420  -7.038  0.00  0.00     0.026 A 
ATOM     15  C   UNL d   1       9.302   6.643  -8.015  0.00  0.00     0.026 A 
BRANCH  13  16
ATOM     16  O   UNL d   1      11.670   9.159  -6.548  0.00  0.00    -0.328 OA
ATOM     17  C   UNL d   1      11.391   9.013  -5.175  0.00  0.00     0.181 C 
ENDBRANCH  13  16
ENDBRANCH   9  10
ENDBRANCH   8   9
ENDBRANCH   7   8
ENDBRANCH   1   7
BRANCH   4  18
ATOM     18  S   UNL d   1       9.396   1.120 -16.576  0.00  0.00     0.264 S 
ATOM     19  O   UNL d   1       9.046   1.605 -17.915  0.00  0.00    -0.200 OA
ATOM     20  O   UNL d   1      10.372   0.027 -16.413  0.00  0.00    -0.200 OA
BRANCH  18  21
ATOM     21  C   UNL d   1       7.901   0.625 -15.741  0.00  0.00     0.103 A 
ATOM     22  C   UNL d   1       7.859   0.383 -14.347  0.00  0.00     0.015 A 
ATOM     23  C   UNL d   1       6.654   0.025 -13.723  0.00  0.00     0.025 A 
ATOM     24  C   UNL d   1       5.492  -0.172 -14.475  0.00  0.00     0.094 A 
ATOM     25  C   UNL d   1       5.553  -0.013 -15.894  0.00  0.00     0.025 A 
ATOM     26  C   UNL d   1       6.754   0.407 -16.518  0.00  0.00     0.015 A 
BRANCH  24  27
ATOM     27  O   UNL d   1       4.353  -0.509 -13.783  0.00  0.00    -0.328 OA
ATOM     28  C   UNL d   1       3.232  -0.880 -14.539  0.00  0.00     0.181 C 
ENDBRANCH  24  27
ENDBRANCH  18  21
ENDBRANCH   4  18
TORSDOF 8
