REMARK  4 active torsions:
REMARK  status: ('A' for Active; 'I' for Inactive)
REMARK    1  A    between atoms: C_4  and  O_5 
REMARK    2  A    between atoms: O_5  and  C_6 
REMARK    3  A    between atoms: C_6  and  C_7 
REMARK    4  A    between atoms: N_12  and  C_13 
ROOT
ATOM      1  C   UNL d   1       8.890   5.874 -11.265  0.00  0.00     0.064 C 
ATOM      2  C   UNL d   1       7.478   5.491 -10.834  0.00  0.00     0.007 C 
ATOM      3  C   UNL d   1       6.686   5.154 -12.087  0.00  0.00     0.035 C 
ATOM      4  C   UNL d   1       7.445   4.066 -12.881  0.00  0.00     0.242 C 
ATOM      5  C   UNL d   1       6.655   3.668 -14.123  0.00  0.00     0.153 C 
ATOM      6  N   UNL d   1       7.389   2.662 -14.885  0.00  0.00    -0.179 N 
ATOM      7  C   UNL d   1       8.740   3.057 -15.271  0.00  0.00     0.155 C 
ATOM      8  C   UNL d   1       9.538   3.433 -14.016  0.00  0.00     0.275 C 
ATOM      9  N   UNL d   1       8.830   4.479 -13.244  0.00  0.00     0.139 N 
ATOM     10  C   UNL d   1       9.604   4.816 -12.035  0.00  0.00     0.253 C 
ENDROOT
BRANCH   1  11
ATOM     11  C   UNL d   1       8.905   7.267 -11.896  0.00  0.00     0.151 C 
BRANCH  11  12
ATOM     12  O   UNL d   1       9.891   8.147 -11.383  0.00  0.00    -0.331 OA
BRANCH  12  13
ATOM     13  C   UNL d   1      10.227   8.121 -10.031  0.00  0.00     0.094 C 
ATOM     14  C   UNL d   1      11.448   8.756  -9.669  0.00  0.00     0.024 C 
ATOM     15  C   UNL d   1      11.875   8.671  -8.353  0.00  0.00     0.002 C 
ATOM     16  C   UNL d   1      11.164   7.939  -7.373  0.00  0.00     0.000 C 
ATOM     17  C   UNL d   1       9.991   7.300  -7.687  0.00  0.00     0.002 C 
ATOM     18  C   UNL d   1       9.480   7.480  -9.026  0.00  0.00     0.024 C 
ENDBRANCH  12  13
ENDBRANCH  11  12
ENDBRANCH   1  11
BRANCH   6  19
ATOM     19  C   UNL d   1       6.829   1.450 -15.264  0.00  0.00     0.727 A 
ATOM     20  N   UNL d   1       5.978   0.885 -14.402  0.00  0.00    -0.060 NA
ATOM     21  C   UNL d   1       5.446  -0.297 -14.750  0.00  0.00     0.120 A 
ATOM     22  C   UNL d   1       5.749  -0.919 -15.973  0.00  0.00     0.043 A 
ATOM     23  C   UNL d   1       6.657  -0.237 -16.803  0.00  0.00     0.120 A 
ATOM     24  N   UNL d   1       7.191   0.946 -16.449  0.00  0.00    -0.060 NA
ENDBRANCH   6  19
TORSDOF 4
