REMARK  8 active torsions:
REMARK  status: ('A' for Active; 'I' for Inactive)
REMARK    1  A    between atoms: C_2  and  C_3 
REMARK    2  A    between atoms: C_3  and  C_4 
REMARK    3  A    between atoms: C_4  and  C_5 
REMARK    4  A    between atoms: C_5  and  N_6 
REMARK       I    between atoms: N_6  and  C_7 
REMARK       I    between atoms: C_7  and  N_9 
REMARK       I    between atoms: C_10  and  N_12 
REMARK    5  A    between atoms: N_12  and  C_13 
REMARK    6  A    between atoms: C_13  and  C_14 
REMARK    7  A    between atoms: C_14  and  C_15 
REMARK    8  A    between atoms: C_15  and  C_16 
ROOT
ATOM      1  N   UNL d   1       9.671   3.203 -13.399  0.00  0.00    -0.217 NA
ATOM      2  C   UNL d   1       8.898   4.275 -13.211  0.00  0.00     0.367 C 
ATOM      3  O   UNL d   1       8.070   4.638 -14.050  0.00  0.00    -0.243 OA
ATOM      4  N   UNL d   1       9.176   4.842 -11.988  0.00  0.00    -0.159 NA
ATOM      5  C   UNL d   1       8.417   5.769 -11.492  0.00  0.00     0.237 C 
ATOM      6  N   UNL d   1       7.261   6.304 -12.033  0.00  0.00    -0.060 NA
ATOM      7  N   UNL d   1       8.711   6.354 -10.282  0.00  0.00    -0.241 NA
ENDROOT
BRANCH   7   8
ATOM      8  C   UNL d   1       9.950   6.126  -9.556  0.00  0.00     0.129 C 
BRANCH   8   9
ATOM      9  C   UNL d   1      10.000   6.886  -8.232  0.00  0.00     0.032 C 
BRANCH   9  10
ATOM     10  C   UNL d   1      11.342   6.759  -7.504  0.00  0.00     0.037 C 
BRANCH  10  11
ATOM     11  C   UNL d   1      11.374   7.415  -6.167  0.00  0.00     0.029 A 
ATOM     12  S   UNL d   1      11.363   9.152  -5.993  0.00  0.00    -0.050 SA
ATOM     13  C   UNL d   1      11.485   8.929  -4.259  0.00  0.00     0.214 A 
ATOM     14  N   UNL d   1      11.593   7.661  -3.874  0.00  0.00    -0.218 NA
ATOM     15  N   UNL d   1      11.469   9.982  -3.384  0.00  0.00    -0.120 N 
ATOM     16  C   UNL d   1      11.462   6.789  -4.949  0.00  0.00     0.103 A 
ENDBRANCH  10  11
ENDBRANCH   9  10
ENDBRANCH   8   9
ENDBRANCH   7   8
BRANCH   1  17
ATOM     17  C   UNL d   1       9.774   2.398 -14.606  0.00  0.00     0.131 C 
BRANCH  17  18
ATOM     18  C   UNL d   1       8.825   1.185 -14.598  0.00  0.00     0.026 C 
BRANCH  18  19
ATOM     19  C   UNL d   1       7.341   1.567 -14.747  0.00  0.00     0.002 C 
BRANCH  19  20
ATOM     20  C   UNL d   1       6.409   0.353 -14.849  0.00  0.00     0.000 C 
ATOM     21  C   UNL d   1       6.312  -0.430 -13.533  0.00  0.00     0.000 C 
ENDBRANCH  19  20
ENDBRANCH  18  19
ENDBRANCH  17  18
ENDBRANCH   1  17
TORSDOF 8
