REMARK  9 active torsions:
REMARK  status: ('A' for Active; 'I' for Inactive)
REMARK    1  A    between atoms: C_2  and  C_3 
REMARK    2  A    between atoms: C_3  and  N_4 
REMARK    3  A    between atoms: N_4  and  C_5 
REMARK    4  A    between atoms: N_16  and  C_17 
REMARK    5  A    between atoms: C_17  and  C_18 
REMARK    6  A    between atoms: C_18  and  C_19 
REMARK    7  A    between atoms: C_19  and  C_20 
REMARK    8  A    between atoms: C_20  and  N_21 
REMARK       I    between atoms: N_21  and  C_22 
REMARK    9  A    between atoms: C_22  and  C_24 
ROOT
ATOM      1  C   UNL d   1      13.198   6.240 -17.691  0.00  0.00     0.283 C 
ATOM      2  C   UNL d   1      12.059   6.480 -18.717  0.00  0.00     0.066 C 
ATOM      3  C   UNL d   1      11.007   5.390 -18.711  0.00  0.00    -0.003 A 
ATOM      4  C   UNL d   1      10.168   4.952 -19.756  0.00  0.00    -0.003 A 
ATOM      5  C   UNL d   1       9.230   3.909 -19.517  0.00  0.00     0.001 A 
ATOM      6  C   UNL d   1       9.105   3.287 -18.237  0.00  0.00     0.019 A 
ATOM      7  C   UNL d   1       9.955   3.734 -17.189  0.00  0.00     0.080 A 
ATOM      8  C   UNL d   1      10.837   4.735 -17.495  0.00  0.00     0.076 A 
ATOM      9  N   UNL d   1      11.559   4.957 -16.334  0.00  0.00    -0.278 N 
ATOM     10  C   UNL d   1      11.161   4.116 -15.357  0.00  0.00     0.332 A 
ATOM     11  O   UNL d   1      11.648   4.037 -14.243  0.00  0.00    -0.246 OA
ATOM     12  N   UNL d   1      10.130   3.385 -15.846  0.00  0.00    -0.280 N 
ATOM     13  C   UNL d   1      12.621   5.972 -16.272  0.00  0.00     0.147 C 
ENDROOT
BRANCH  12  14
ATOM     14  C   UNL d   1       9.363   2.352 -15.132  0.00  0.00     0.111 C 
BRANCH  14  15
ATOM     15  C   UNL d   1       8.261   2.913 -14.192  0.00  0.00     0.027 C 
BRANCH  15  16
ATOM     16  C   UNL d   1       8.808   3.714 -12.997  0.00  0.00     0.028 C 
BRANCH  16  17
ATOM     17  C   UNL d   1       7.739   4.346 -12.106  0.00  0.00     0.129 C 
BRANCH  17  18
ATOM     18  N   UNL d   1       8.355   4.949 -10.928  0.00  0.00    -0.233 NA
ATOM     19  C   UNL d   1       9.059   6.089 -10.906  0.00  0.00     0.293 C 
ATOM     20  O   UNL d   1       9.298   6.758 -11.915  0.00  0.00    -0.264 OA
BRANCH  19  21
ATOM     21  C   UNL d   1       9.553   6.498  -9.578  0.00  0.00     0.139 A 
ATOM     22  N   UNL d   1      10.329   7.640  -9.471  0.00  0.00    -0.241 NA
ATOM     23  C   UNL d   1      10.668   7.886  -8.155  0.00  0.00     0.082 A 
ATOM     24  C   UNL d   1      10.080   6.831  -7.404  0.00  0.00     0.019 A 
ATOM     25  C   UNL d   1      11.420   8.898  -7.537  0.00  0.00     0.019 A 
ATOM     26  C   UNL d   1       9.383   5.972  -8.319  0.00  0.00     0.025 A 
ATOM     27  C   UNL d   1      10.292   6.846  -6.005  0.00  0.00     0.002 A 
ATOM     28  C   UNL d   1      11.052   7.853  -5.377  0.00  0.00     0.000 A 
ATOM     29  C   UNL d   1      11.605   8.895  -6.142  0.00  0.00     0.002 A 
ENDBRANCH  19  21
ENDBRANCH  17  18
ENDBRANCH  16  17
ENDBRANCH  15  16
ENDBRANCH  14  15
ENDBRANCH  12  14
BRANCH   1  30
ATOM     30  N   UNL d   1      14.103   7.375 -17.627  0.00  0.00     0.339 N 
BRANCH  30  31
ATOM     31  C   UNL d   1      14.928   7.517 -18.824  0.00  0.00     0.290 C 
BRANCH  31  32
ATOM     32  C   UNL d   1      15.662   8.862 -18.795  0.00  0.00     0.038 C 
ATOM     33  C   UNL d   1      14.735  10.071 -18.576  0.00  0.00     0.002 C 
ENDBRANCH  31  32
ENDBRANCH  30  31
ENDBRANCH   1  30
TORSDOF 9
