REMARK  8 active torsions:
REMARK  status: ('A' for Active; 'I' for Inactive)
REMARK    1  A    between atoms: O_2  and  C_3 
REMARK    2  A    between atoms: C_8  and  C_9 
REMARK       I    between atoms: C_9  and  N_11 
REMARK    3  A    between atoms: N_11  and  C_12 
REMARK    4  A    between atoms: C_12  and  C_13 
REMARK    5  A    between atoms: C_13  and  C_14 
REMARK    6  A    between atoms: C_14  and  C_16 
REMARK    7  A    between atoms: C_16  and  N_17 
REMARK    8  A    between atoms: N_20  and  C_21 
ROOT
ATOM      1  C   UNL d   1       7.501   6.033 -12.387  0.00  0.00     0.188 C 
ATOM      2  O   UNL d   1       6.913   7.253 -12.815  0.00  0.00    -0.221 OA
ENDROOT
BRANCH   1   3
ATOM      3  C   UNL d   1       8.098   6.171 -10.985  0.00  0.00     0.061 C 
BRANCH   3   4
ATOM      4  C   UNL d   1       9.420   5.418 -10.730  0.00  0.00     0.132 C 
BRANCH   4   5
ATOM      5  N   UNL d   1      10.080   5.880  -9.492  0.00  0.00    -0.233 NA
ATOM      6  C   UNL d   1      10.350   7.146  -9.120  0.00  0.00     0.293 C 
ATOM      7  O   UNL d   1      10.220   8.133  -9.841  0.00  0.00    -0.264 OA
BRANCH   6   8
ATOM      8  C   UNL d   1      10.717   7.302  -7.715  0.00  0.00     0.139 A 
ATOM      9  N   UNL d   1      10.540   8.536  -7.142  0.00  0.00    -0.241 NA
ATOM     10  C   UNL d   1      10.973   8.561  -5.837  0.00  0.00     0.082 A 
ATOM     11  C   UNL d   1      11.049   9.602  -4.912  0.00  0.00     0.021 A 
ATOM     12  C   UNL d   1      11.386   7.226  -5.555  0.00  0.00     0.021 A 
ATOM     13  C   UNL d   1      11.581   9.341  -3.645  0.00  0.00     0.026 A 
ATOM     14  C   UNL d   1      12.031   8.044  -3.312  0.00  0.00     0.094 A 
ATOM     15  C   UNL d   1      11.862   6.978  -4.236  0.00  0.00     0.026 A 
ATOM     16  C   UNL d   1      11.255   6.455  -6.773  0.00  0.00     0.026 A 
BRANCH  14  17
ATOM     17  O   UNL d   1      12.624   7.690  -2.118  0.00  0.00    -0.328 OA
ATOM     18  C   UNL d   1      13.194   8.766  -1.370  0.00  0.00     0.181 C 
ENDBRANCH  14  17
ENDBRANCH   6   8
ENDBRANCH   4   5
ENDBRANCH   3   4
ENDBRANCH   1   3
BRANCH   1  19
ATOM     19  C   UNL d   1       6.348   5.016 -12.379  0.00  0.00     0.283 C 
BRANCH  19  20
ATOM     20  N   UNL d   1       6.713   3.644 -12.764  0.00  0.00     0.144 N 
ATOM     21  C   UNL d   1       7.667   3.601 -13.889  0.00  0.00     0.274 C 
ATOM     22  C   UNL d   1       7.968   2.208 -14.435  0.00  0.00     0.137 C 
ATOM     23  N   UNL d   1       6.726   1.503 -14.691  0.00  0.00    -0.344 N 
ATOM     24  C   UNL d   1       5.726   1.505 -13.631  0.00  0.00     0.137 C 
ATOM     25  C   UNL d   1       5.487   2.934 -13.137  0.00  0.00     0.274 C 
BRANCH  23  26
ATOM     26  C   UNL d   1       6.546   0.810 -15.926  0.00  0.00     0.068 A 
ATOM     27  C   UNL d   1       5.952  -0.473 -16.028  0.00  0.00     0.084 A 
ATOM     28  C   UNL d   1       5.816  -1.085 -17.293  0.00  0.00     0.070 A 
ATOM     29 CL   UNL d   1       5.452  -1.378 -14.632  0.00  0.00    -0.080 Cl
ATOM     30  C   UNL d   1       6.271  -0.430 -18.448  0.00  0.00     0.012 A 
ATOM     31 CL   UNL d   1       5.123  -2.654 -17.439  0.00  0.00    -0.081 Cl
ATOM     32  C   UNL d   1       6.872   0.830 -18.357  0.00  0.00     0.002 A 
ATOM     33  C   UNL d   1       7.005   1.449 -17.101  0.00  0.00     0.018 A 
ENDBRANCH  23  26
ENDBRANCH  19  20
ENDBRANCH   1  19
TORSDOF 8
