REMARK  8 active torsions:
REMARK  status: ('A' for Active; 'I' for Inactive)
REMARK    1  A    between atoms: N_9  and  C_10 
REMARK    2  A    between atoms: C_10  and  C_11 
REMARK    3  A    between atoms: C_11  and  C_12 
REMARK    4  A    between atoms: C_12  and  C_13 
REMARK    5  A    between atoms: C_13  and  C_14 
REMARK    6  A    between atoms: C_14  and  N_15 
REMARK    7  A    between atoms: N_18  and  C_19 
REMARK    8  A    between atoms: C_28  and  C_29 
ROOT
ATOM      1  C   UNL d   1      13.435   1.679 -21.829  0.00  0.00     0.139 C 
ATOM      2  N   UNL d   1      13.045   1.939 -20.433  0.00  0.00    -0.246 N 
ATOM      3  C   UNL d   1      11.898   1.358 -19.963  0.00  0.00     0.284 A 
ATOM      4  O   UNL d   1      11.143   0.625 -20.602  0.00  0.00    -0.265 OA
ATOM      5  C   UNL d   1      11.609   1.691 -18.575  0.00  0.00     0.172 A 
ATOM      6  C   UNL d   1      12.374   2.489 -17.804  0.00  0.00     0.187 A 
ATOM      7  N   UNL d   1      11.857   2.663 -16.516  0.00  0.00    -0.043 NA
ATOM      8  C   UNL d   1      10.765   1.948 -16.571  0.00  0.00     0.718 A 
ATOM      9  N   UNL d   1       9.746   1.655 -15.718  0.00  0.00    -0.161 N 
ATOM     10  C   UNL d   1       8.838   0.812 -16.412  0.00  0.00     0.095 A 
ATOM     11  C   UNL d   1       9.379   0.647 -17.677  0.00  0.00     0.116 A 
ATOM     12  N   UNL d   1      10.540   1.332 -17.768  0.00  0.00    -0.131 N 
ATOM     13  N   UNL d   1      13.545   3.038 -18.393  0.00  0.00    -0.263 N 
ATOM     14  C   UNL d   1      14.403   3.913 -17.588  0.00  0.00     0.137 C 
ATOM     15  C   UNL d   1      13.874   2.770 -19.698  0.00  0.00     0.335 A 
ATOM     16  O   UNL d   1      14.890   3.263 -20.194  0.00  0.00    -0.246 OA
ENDROOT
BRANCH   9  17
ATOM     17  C   UNL d   1       9.766   2.266 -14.382  0.00  0.00     0.124 C 
BRANCH  17  18
ATOM     18  C   UNL d   1       9.253   3.719 -14.414  0.00  0.00     0.025 C 
BRANCH  18  19
ATOM     19  C   UNL d   1       8.842   4.200 -13.011  0.00  0.00     0.004 C 
BRANCH  19  20
ATOM     20  C   UNL d   1       8.383   5.662 -12.987  0.00  0.00     0.035 C 
BRANCH  20  21
ATOM     21  C   UNL d   1       8.015   6.159 -11.587  0.00  0.00     0.250 C 
BRANCH  21  22
ATOM     22  N   UNL d   1       9.186   6.124 -10.710  0.00  0.00     0.141 N 
ATOM     23  C   UNL d   1       8.757   5.705  -9.373  0.00  0.00     0.274 C 
ATOM     24  C   UNL d   1       9.962   5.625  -8.429  0.00  0.00     0.137 C 
ATOM     25  N   UNL d   1      10.659   6.906  -8.389  0.00  0.00    -0.344 N 
ATOM     26  C   UNL d   1      11.018   7.449  -9.695  0.00  0.00     0.137 C 
ATOM     27  C   UNL d   1       9.790   7.463 -10.619  0.00  0.00     0.274 C 
BRANCH  25  28
ATOM     28  C   UNL d   1      10.943   7.559  -7.175  0.00  0.00     0.056 A 
ATOM     29  C   UNL d   1      11.175   6.799  -6.008  0.00  0.00     0.018 A 
ATOM     30  C   UNL d   1      11.459   7.424  -4.780  0.00  0.00     0.013 A 
ATOM     31  C   UNL d   1      11.511   8.824  -4.712  0.00  0.00     0.058 A 
ATOM     32  C   UNL d   1      11.294   9.599  -5.864  0.00  0.00     0.013 A 
ATOM     33 CL   UNL d   1      11.851   9.585  -3.207  0.00  0.00    -0.082 Cl
ATOM     34  C   UNL d   1      11.008   8.968  -7.093  0.00  0.00     0.018 A 
ENDBRANCH  25  28
ENDBRANCH  21  22
ENDBRANCH  20  21
ENDBRANCH  19  20
ENDBRANCH  18  19
ENDBRANCH  17  18
ENDBRANCH   9  17
BRANCH  10  35
ATOM     35  C   UNL d   1       7.592   0.289 -15.840  0.00  0.00     0.018 A 
ATOM     36  C   UNL d   1       6.476   0.015 -16.676  0.00  0.00     0.002 A 
ATOM     37  C   UNL d   1       5.271  -0.488 -16.126  0.00  0.00     0.000 A 
ATOM     38  C   UNL d   1       5.154  -0.689 -14.732  0.00  0.00     0.000 A 
ATOM     39  C   UNL d   1       6.266  -0.428 -13.905  0.00  0.00     0.000 A 
ATOM     40  C   UNL d   1       7.481   0.004 -14.458  0.00  0.00     0.002 A 
ENDBRANCH  10  35
TORSDOF 8
