REMARK  6 active torsions:
REMARK  status: ('A' for Active; 'I' for Inactive)
REMARK    1  A    between atoms: C_4  and  N_5 
REMARK    2  A    between atoms: N_8  and  C_9 
REMARK    3  A    between atoms: C_9  and  C_10 
REMARK    4  A    between atoms: C_10  and  C_11 
REMARK    5  A    between atoms: C_14  and  N_15 
REMARK    6  A    between atoms: N_15  and  C_16 
ROOT
ATOM      1  C   UNL d   1       8.367   5.368 -10.657  0.00  0.00     0.035 C 
ENDROOT
BRANCH   1   2
ATOM      2  C   UNL d   1       9.601   6.240 -10.375  0.00  0.00     0.250 C 
BRANCH   2   3
ATOM      3  N   UNL d   1       9.477   7.022  -9.155  0.00  0.00     0.141 N 
ATOM      4  C   UNL d   1      10.667   7.862  -8.987  0.00  0.00     0.274 C 
ATOM      5  C   UNL d   1      10.496   8.795  -7.772  0.00  0.00     0.137 C 
ATOM      6  N   UNL d   1      10.176   8.010  -6.589  0.00  0.00    -0.344 N 
ATOM      7  C   UNL d   1       9.084   7.055  -6.734  0.00  0.00     0.137 C 
ATOM      8  C   UNL d   1       9.301   6.172  -7.972  0.00  0.00     0.274 C 
BRANCH   6   9
ATOM      9  C   UNL d   1      10.944   8.081  -5.417  0.00  0.00     0.056 A 
ATOM     10  C   UNL d   1      11.287   9.339  -4.877  0.00  0.00     0.017 A 
ATOM     11  C   UNL d   1      11.995   9.415  -3.658  0.00  0.00     0.002 A 
ATOM     12  C   UNL d   1      12.393   8.245  -2.992  0.00  0.00     0.000 A 
ATOM     13  C   UNL d   1      12.064   6.990  -3.527  0.00  0.00     0.002 A 
ATOM     14  C   UNL d   1      11.343   6.910  -4.737  0.00  0.00     0.017 A 
ENDBRANCH   6   9
ENDBRANCH   2   3
ENDBRANCH   1   2
BRANCH   1  15
ATOM     15  C   UNL d   1       8.248   4.915 -12.119  0.00  0.00     0.002 C 
ATOM     16  C   UNL d   1       6.954   4.103 -12.330  0.00  0.00     0.002 C 
ATOM     17  C   UNL d   1       6.835   3.575 -13.770  0.00  0.00     0.025 C 
ATOM     18  C   UNL d   1       8.083   2.783 -14.228  0.00  0.00     0.122 C 
ATOM     19  C   UNL d   1       9.352   3.622 -14.024  0.00  0.00     0.025 C 
ATOM     20  C   UNL d   1       9.482   4.108 -12.578  0.00  0.00     0.002 C 
BRANCH  18  21
ATOM     21  N   UNL d   1       7.982   2.357 -15.614  0.00  0.00    -0.088 NA
BRANCH  21  22
ATOM     22  C   UNL d   1       7.134   1.373 -16.069  0.00  0.00     0.746 A 
ATOM     23  N   UNL d   1       7.047   1.287 -17.394  0.00  0.00    -0.058 NA
ATOM     24  C   UNL d   1       6.239   0.321 -17.883  0.00  0.00     0.120 A 
ATOM     25  C   UNL d   1       5.519  -0.540 -17.040  0.00  0.00     0.043 A 
ATOM     26  C   UNL d   1       5.688  -0.351 -15.657  0.00  0.00     0.120 A 
ATOM     27  N   UNL d   1       6.494   0.618 -15.172  0.00  0.00    -0.058 NA
ENDBRANCH  21  22
ENDBRANCH  18  21
ENDBRANCH   1  15
TORSDOF 6
