REMARK  7 active torsions:
REMARK  status: ('A' for Active; 'I' for Inactive)
REMARK    1  A    between atoms: C_3  and  S_4 
REMARK    2  A    between atoms: S_4  and  C_5 
REMARK    3  A    between atoms: C_5  and  C_6 
REMARK    4  A    between atoms: C_6  and  C_7 
REMARK    5  A    between atoms: C_7  and  N_8 
REMARK    6  A    between atoms: N_13  and  C_14 
REMARK    7  A    between atoms: C_25  and  C_26 
ROOT
ATOM      1  C   UNL d   1      11.408   1.179 -16.986  0.00  0.00     0.251 C 
ENDROOT
BRANCH   1   2
ATOM      2  C   UNL d   1      11.428   2.236 -18.098  0.00  0.00     0.047 C 
BRANCH   2   3
ATOM      3  C   UNL d   1      12.577   1.987 -19.087  0.00  0.00     0.067 C 
BRANCH   3   4
ATOM      4  S   UNL d   1      12.535   3.125 -20.506  0.00  0.00    -0.075 SA
BRANCH   4   5
ATOM      5  C   UNL d   1      13.192   4.595 -19.774  0.00  0.00     0.193 A 
ATOM      6  N   UNL d   1      13.323   5.750 -20.459  0.00  0.00    -0.287 N 
ATOM      7  C   UNL d   1      12.968   6.020 -21.849  0.00  0.00     0.134 C 
ATOM      8  C   UNL d   1      13.877   6.575 -19.528  0.00  0.00     0.186 A 
ATOM      9  N   UNL d   1      14.072   5.953 -18.357  0.00  0.00    -0.127 NA
ATOM     10  N   UNL d   1      13.631   4.670 -18.518  0.00  0.00    -0.122 NA
BRANCH   8  11
ATOM     11  C   UNL d   1      14.262   7.984 -19.701  0.00  0.00     0.136 A 
ATOM     12  N   UNL d   1      14.045   8.587 -20.895  0.00  0.00    -0.238 NA
ATOM     13  C   UNL d   1      14.420   9.880 -21.014  0.00  0.00     0.120 A 
ATOM     14  C   UNL d   1      15.020  10.574 -19.948  0.00  0.00     0.120 A 
ATOM     15  N   UNL d   1      15.253   9.988 -18.753  0.00  0.00    -0.239 NA
ATOM     16  C   UNL d   1      14.868   8.698 -18.635  0.00  0.00     0.121 A 
ENDBRANCH   8  11
ENDBRANCH   4   5
ENDBRANCH   3   4
ENDBRANCH   2   3
ENDBRANCH   1   2
BRANCH   1  17
ATOM     17  N   UNL d   1      10.169   1.246 -16.225  0.00  0.00     0.138 N 
ATOM     18  C   UNL d   1      10.118   2.380 -15.308  0.00  0.00     0.266 C 
ATOM     19  C   UNL d   1       9.068   1.983 -14.258  0.00  0.00     0.097 C 
ATOM     20  C   UNL d   1       8.872   0.487 -14.434  0.00  0.00     0.052 C 
ATOM     21  N   UNL d   1       7.763   2.618 -14.429  0.00  0.00    -0.252 NA
ATOM     22  C   UNL d   1       9.962   0.060 -15.409  0.00  0.00     0.252 C 
ATOM     23  C   UNL d   1       7.430   0.322 -14.909  0.00  0.00     0.021 C 
ATOM     24  C   UNL d   1       6.757   1.565 -14.364  0.00  0.00     0.077 C 
BRANCH  21  25
ATOM     25  C   UNL d   1       7.551   3.817 -13.717  0.00  0.00     0.039 A 
ATOM     26  C   UNL d   1       8.609   4.740 -13.515  0.00  0.00     0.041 A 
ATOM     27  C   UNL d   1       8.415   5.914 -12.775  0.00  0.00     0.141 A 
ATOM     28  C   UNL d   1       7.154   6.200 -12.238  0.00  0.00     0.030 A 
ATOM     29  F   UNL d   1       9.452   6.760 -12.581  0.00  0.00    -0.204 F 
ATOM     30  C   UNL d   1       6.088   5.303 -12.430  0.00  0.00     0.003 A 
ATOM     31  C   UNL d   1       6.278   4.127 -13.171  0.00  0.00     0.011 A 
ENDBRANCH  21  25
ENDBRANCH   1  17
TORSDOF 7
