REMARK  6 active torsions:
REMARK  status: ('A' for Active; 'I' for Inactive)
REMARK    1  A    between atoms: O_2  and  N_3 
REMARK    2  A    between atoms: C_4  and  C_5 
REMARK    3  A    between atoms: C_4  and  C_19 
REMARK    4  A    between atoms: C_5  and  C_6 
REMARK    5  A    between atoms: C_6  and  N_7 
REMARK    6  A    between atoms: N_10  and  C_11 
ROOT
ATOM      1  C   UNL d   1      11.344   2.328 -15.101  0.00  0.00     0.083 C 
ENDROOT
BRANCH   1   2
ATOM      2  C   UNL d   1      11.099   3.800 -14.804  0.00  0.00     0.087 C 
ATOM      3  N   UNL d   1      10.454   4.130 -13.759  0.00  0.00    -0.136 NA
BRANCH   3   4
ATOM      4  O   UNL d   1      10.259   5.512 -13.639  0.00  0.00    -0.234 OA
ATOM      5  C   UNL d   1       9.415   5.723 -12.520  0.00  0.00     0.211 C 
ENDBRANCH   3   4
BRANCH   2   6
ATOM      6  C   UNL d   1      11.658   4.734 -15.808  0.00  0.00     0.017 A 
ATOM      7  C   UNL d   1      13.055   4.894 -15.903  0.00  0.00     0.015 A 
ATOM      8  C   UNL d   1      13.614   5.789 -16.836  0.00  0.00     0.085 A 
ATOM      9  C   UNL d   1      12.769   6.523 -17.694  0.00  0.00     0.151 A 
ATOM     10 CL   UNL d   1      15.328   5.985 -16.905  0.00  0.00    -0.080 Cl
ATOM     11  C   UNL d   1      11.374   6.350 -17.620  0.00  0.00     0.031 A 
ATOM     12  F   UNL d   1      13.294   7.397 -18.587  0.00  0.00    -0.203 F 
ATOM     13  C   UNL d   1      10.817   5.459 -16.680  0.00  0.00     0.004 A 
ENDBRANCH   2   6
ENDBRANCH   1   2
BRANCH   1  14
ATOM     14  C   UNL d   1      10.158   1.406 -14.718  0.00  0.00     0.257 C 
BRANCH  14  15
ATOM     15  N   UNL d   1       8.945   1.689 -15.485  0.00  0.00     0.141 N 
ATOM     16  C   UNL d   1       9.083   1.236 -16.874  0.00  0.00     0.274 C 
ATOM     17  C   UNL d   1       7.818   1.596 -17.667  0.00  0.00     0.138 C 
ATOM     18  N   UNL d   1       6.646   1.036 -17.009  0.00  0.00    -0.330 N 
ATOM     19  C   UNL d   1       6.517   1.348 -15.590  0.00  0.00     0.138 C 
ATOM     20  C   UNL d   1       7.819   0.994 -14.856  0.00  0.00     0.274 C 
BRANCH  18  21
ATOM     21  C   UNL d   1       5.745   0.196 -17.685  0.00  0.00     0.140 A 
ATOM     22  N   UNL d   1       5.553   0.425 -19.004  0.00  0.00    -0.227 NA
ATOM     23  C   UNL d   1       4.667  -0.344 -19.671  0.00  0.00     0.101 A 
ATOM     24  C   UNL d   1       3.936  -1.379 -19.064  0.00  0.00     0.021 A 
ATOM     25  C   UNL d   1       4.143  -1.625 -17.695  0.00  0.00     0.005 A 
ATOM     26  C   UNL d   1       5.068  -0.832 -16.996  0.00  0.00     0.037 A 
ENDBRANCH  18  21
ENDBRANCH  14  15
ENDBRANCH   1  14
TORSDOF 6
