REMARK  6 active torsions:
REMARK  status: ('A' for Active; 'I' for Inactive)
REMARK       I    between atoms: C_2  and  N_3 
REMARK    1  A    between atoms: C_2  and  C_27 
REMARK    2  A    between atoms: N_3  and  C_4 
REMARK    3  A    between atoms: C_7  and  C_8 
REMARK    4  A    between atoms: C_8  and  C_9 
REMARK    5  A    between atoms: C_9  and  N_10 
REMARK    6  A    between atoms: C_13  and  C_14 
ROOT
ATOM      1  C   UNL d   1       8.510   5.460 -10.157  0.00  0.00     0.250 C 
ENDROOT
BRANCH   1   2
ATOM      2  C   UNL d   1       8.545   6.079 -11.582  0.00  0.00     0.035 C 
BRANCH   2   3
ATOM      3  C   UNL d   1       7.880   5.192 -12.666  0.00  0.00     0.002 C 
ATOM      4  C   UNL d   1       8.617   3.854 -12.786  0.00  0.00     0.002 C 
ATOM      5  C   UNL d   1       7.951   2.871 -13.748  0.00  0.00     0.024 C 
ATOM      6  C   UNL d   1       6.442   2.678 -13.450  0.00  0.00     0.106 C 
ATOM      7  C   UNL d   1       5.709   4.021 -13.467  0.00  0.00     0.024 C 
ATOM      8  C   UNL d   1       6.347   5.000 -12.457  0.00  0.00     0.002 C 
BRANCH   6   9
ATOM      9  N   UNL d   1       5.864   1.756 -14.429  0.00  0.00    -0.240 NA
ATOM     10  C   UNL d   1       6.005   0.430 -14.468  0.00  0.00     0.256 C 
ATOM     11  O   UNL d   1       6.736  -0.215 -13.739  0.00  0.00    -0.270 OA
BRANCH  10  12
ATOM     12  C   UNL d   1       5.097  -0.193 -15.486  0.00  0.00     0.147 A 
ATOM     13  C   UNL d   1       5.689  -0.820 -16.723  0.00  0.00     0.273 A 
ATOM     14  C   UNL d   1       5.146  -1.705 -15.638  0.00  0.00     0.082 A 
ATOM     15  F   UNL d   1       4.960  -0.711 -17.900  0.00  0.00    -0.204 F 
ATOM     16  F   UNL d   1       7.061  -0.758 -16.921  0.00  0.00    -0.204 F 
ENDBRANCH  10  12
ENDBRANCH   6   9
ENDBRANCH   2   3
ENDBRANCH   1   2
BRANCH   1  17
ATOM     17  N   UNL d   1       9.009   6.336  -9.129  0.00  0.00     0.137 N 
ATOM     18  C   UNL d   1       8.588   5.797  -7.839  0.00  0.00     0.251 C 
ATOM     19  C   UNL d   1       8.994   6.767  -6.721  0.00  0.00     0.040 C 
ATOM     20  C   UNL d   1      10.507   7.026  -6.753  0.00  0.00     0.026 C 
ATOM     21  C   UNL d   1      10.948   7.423  -8.175  0.00  0.00     0.040 C 
ATOM     22  C   UNL d   1      10.451   6.426  -9.204  0.00  0.00     0.251 C 
BRANCH  20  23
ATOM     23  C   UNL d   1      10.921   8.056  -5.709  0.00  0.00    -0.024 A 
ATOM     24  C   UNL d   1      11.522   7.697  -4.489  0.00  0.00    -0.001 A 
ATOM     25  C   UNL d   1      11.860   8.618  -3.514  0.00  0.00     0.090 A 
ATOM     26  C   UNL d   1      11.823   6.350  -3.977  0.00  0.00     0.061 A 
ATOM     27  C   UNL d   1      11.586   9.976  -3.715  0.00  0.00     0.024 A 
ATOM     28  O   UNL d   1      12.409   8.060  -2.396  0.00  0.00    -0.331 OA
ATOM     29  C   UNL d   1      11.044  10.377  -4.954  0.00  0.00     0.002 A 
ATOM     30  C   UNL d   1      10.689   9.429  -5.934  0.00  0.00    -0.004 A 
ATOM     31  C   UNL d   1      12.427   6.635  -2.584  0.00  0.00     0.154 A 
ENDBRANCH  20  23
ENDBRANCH   1  17
TORSDOF 6
