REMARK  9 active torsions:
REMARK  status: ('A' for Active; 'I' for Inactive)
REMARK    1  A    between atoms: O_2  and  C_3 
REMARK    2  A    between atoms: C_8  and  N_9 
REMARK    3  A    between atoms: N_12  and  C_13 
REMARK    4  A    between atoms: C_13  and  C_14 
REMARK    5  A    between atoms: C_14  and  C_15 
REMARK    6  A    between atoms: C_15  and  C_16 
REMARK    7  A    between atoms: C_16  and  N_17 
REMARK    8  A    between atoms: N_17  and  S_18 
REMARK    9  A    between atoms: S_18  and  C_21 
ROOT
ATOM      1  C   UNL d   1       8.740   5.308 -12.267  0.00  0.00     0.251 C 
ENDROOT
BRANCH   1   2
ATOM      2  N   UNL d   1       9.584   4.784 -13.347  0.00  0.00     0.141 N 
ATOM      3  C   UNL d   1      10.071   3.437 -13.036  0.00  0.00     0.274 C 
ATOM      4  C   UNL d   1      11.001   2.897 -14.134  0.00  0.00     0.137 C 
ATOM      5  N   UNL d   1      10.314   2.924 -15.408  0.00  0.00    -0.343 N 
ATOM      6  C   UNL d   1       9.649   4.169 -15.748  0.00  0.00     0.137 C 
ATOM      7  C   UNL d   1       8.779   4.671 -14.569  0.00  0.00     0.274 C 
BRANCH   5   8
ATOM      8  C   UNL d   1      10.146   1.763 -16.179  0.00  0.00     0.079 A 
ATOM      9  C   UNL d   1       8.888   1.124 -16.293  0.00  0.00     0.110 A 
ATOM     10  C   UNL d   1       8.776  -0.020 -17.125  0.00  0.00     0.026 A 
ATOM     11  C   UNL d   1       9.892  -0.517 -17.821  0.00  0.00     0.002 A 
ATOM     12  C   UNL d   1      11.134   0.117 -17.694  0.00  0.00     0.002 A 
ATOM     13  C   UNL d   1      11.265   1.250 -16.866  0.00  0.00     0.019 A 
BRANCH   9  14
ATOM     14  O   UNL d   1       7.829   1.647 -15.576  0.00  0.00    -0.327 OA
ATOM     15  C   UNL d   1       6.570   1.000 -15.668  0.00  0.00     0.181 C 
ENDBRANCH   9  14
ENDBRANCH   5   8
ENDBRANCH   1   2
BRANCH   1  16
ATOM     16  C   UNL d   1       9.469   5.401 -10.910  0.00  0.00     0.037 C 
BRANCH  16  17
ATOM     17  C   UNL d   1       8.623   6.006  -9.794  0.00  0.00     0.029 C 
BRANCH  17  18
ATOM     18  C   UNL d   1       9.084   5.555  -8.391  0.00  0.00     0.139 C 
BRANCH  18  19
ATOM     19  N   UNL d   1       9.059   6.660  -7.436  0.00  0.00    -0.185 NA
BRANCH  19  20
ATOM     20  S   UNL d   1      10.202   7.946  -7.592  0.00  0.00     0.281 S 
ATOM     21  O   UNL d   1      11.279   7.502  -8.489  0.00  0.00    -0.199 OA
ATOM     22  O   UNL d   1       9.447   9.172  -7.876  0.00  0.00    -0.199 OA
BRANCH  20  23
ATOM     23  C   UNL d   1      10.893   8.080  -5.952  0.00  0.00     0.105 A 
ATOM     24  C   UNL d   1      11.005   9.340  -5.333  0.00  0.00     0.015 A 
ATOM     25  C   UNL d   1      11.544   9.431  -4.035  0.00  0.00     0.030 A 
ATOM     26  C   UNL d   1      11.976   8.268  -3.362  0.00  0.00     0.140 A 
ATOM     27  C   UNL d   1      11.858   7.010  -3.987  0.00  0.00     0.030 A 
ATOM     28  F   UNL d   1      12.498   8.361  -2.119  0.00  0.00    -0.204 F 
ATOM     29  C   UNL d   1      11.315   6.915  -5.281  0.00  0.00     0.015 A 
ENDBRANCH  20  23
ENDBRANCH  19  20
ENDBRANCH  18  19
ENDBRANCH  17  18
ENDBRANCH  16  17
ENDBRANCH   1  16
TORSDOF 9
