REMARK  7 active torsions:
REMARK  status: ('A' for Active; 'I' for Inactive)
REMARK    1  A    between atoms: C_4  and  C_5 
REMARK    2  A    between atoms: N_13  and  C_14 
REMARK    3  A    between atoms: C_14  and  C_15 
REMARK    4  A    between atoms: C_15  and  C_16 
REMARK    5  A    between atoms: C_16  and  S_17 
REMARK    6  A    between atoms: S_17  and  C_18 
REMARK    7  A    between atoms: C_21  and  C_22 
ROOT
ATOM      1  C   UNL d   1       8.806   4.867 -11.900  0.00  0.00     0.020 A 
ATOM      2  C   UNL d   1       7.535   4.323 -12.195  0.00  0.00     0.001 A 
ATOM      3  C   UNL d   1       7.321   3.599 -13.374  0.00  0.00    -0.004 A 
ATOM      4  C   UNL d   1       8.368   3.390 -14.294  0.00  0.00    -0.024 A 
ATOM      5  C   UNL d   1       9.625   3.930 -14.009  0.00  0.00    -0.024 A 
ATOM      6  C   UNL d   1       9.844   4.679 -12.833  0.00  0.00    -0.003 A 
ATOM      7  C   UNL d   1      10.764   3.693 -14.955  0.00  0.00     0.061 C 
ATOM      8  C   UNL d   1      11.171   2.223 -15.135  0.00  0.00     0.255 C 
ATOM      9  N   UNL d   1      10.322   1.526 -16.090  0.00  0.00     0.138 N 
ATOM     10  C   UNL d   1       8.975   1.296 -15.649  0.00  0.00     0.255 C 
ATOM     11  C   UNL d   1       8.128   2.577 -15.555  0.00  0.00     0.061 C 
ENDROOT
BRANCH   9  12
ATOM     12  C   UNL d   1      11.005   0.306 -16.568  0.00  0.00     0.251 C 
BRANCH  12  13
ATOM     13  C   UNL d   1      10.532  -0.216 -17.954  0.00  0.00     0.047 C 
BRANCH  13  14
ATOM     14  C   UNL d   1      11.595  -1.046 -18.691  0.00  0.00     0.067 C 
BRANCH  14  15
ATOM     15  S   UNL d   1      12.100  -0.390 -20.323  0.00  0.00    -0.075 SA
BRANCH  15  16
ATOM     16  C   UNL d   1      13.133   0.951 -19.789  0.00  0.00     0.193 C 
ATOM     17  N   UNL d   1      12.661   2.073 -19.236  0.00  0.00    -0.289 N 
ATOM     18  C   UNL d   1      13.794   2.754 -18.914  0.00  0.00     0.167 C 
ATOM     19  C   UNL d   1      11.319   2.523 -19.002  0.00  0.00     0.134 C 
ATOM     20  N   UNL d   1      14.879   2.143 -19.396  0.00  0.00    -0.128 NA
ATOM     21  N   UNL d   1      14.454   0.961 -19.964  0.00  0.00    -0.122 NA
BRANCH  18  22
ATOM     22  C   UNL d   1      13.823   4.024 -18.206  0.00  0.00     0.038 A 
ATOM     23  C   UNL d   1      13.048   4.267 -17.064  0.00  0.00     0.033 A 
ATOM     24  C   UNL d   1      13.088   5.505 -16.367  0.00  0.00     0.140 A 
ATOM     25  C   UNL d   1      13.913   6.511 -16.854  0.00  0.00     0.030 A 
ATOM     26  F   UNL d   1      12.368   5.822 -15.288  0.00  0.00    -0.204 F 
ATOM     27  C   UNL d   1      14.660   6.304 -18.000  0.00  0.00     0.002 A 
ATOM     28  C   UNL d   1      14.623   5.071 -18.681  0.00  0.00     0.003 A 
ENDBRANCH  18  22
ENDBRANCH  15  16
ENDBRANCH  14  15
ENDBRANCH  13  14
ENDBRANCH  12  13
ENDBRANCH   9  12
BRANCH   1  29
ATOM     29  C   UNL d   1       9.048   5.622 -10.667  0.00  0.00     0.110 A 
ATOM     30  C   UNL d   1       9.711   6.871 -10.506  0.00  0.00     0.044 A 
ATOM     31  C   UNL d   1       9.652   7.108  -9.162  0.00  0.00     0.105 A 
ATOM     32  C   UNL d   1      10.131   8.233  -8.307  0.00  0.00     0.061 C 
ATOM     33  O   UNL d   1       9.029   6.080  -8.534  0.00  0.00    -0.215 OA
ATOM     34  N   UNL d   1       8.665   5.133  -9.497  0.00  0.00    -0.127 NA
ENDBRANCH   1  29
TORSDOF 7
