REMARK  10 active torsions:
REMARK  status: ('A' for Active; 'I' for Inactive)
REMARK    1  A    between atoms: O_2  and  C_3 
REMARK    2  A    between atoms: C_8  and  N_9 
REMARK    3  A    between atoms: N_12  and  C_13 
REMARK    4  A    between atoms: C_13  and  C_14 
REMARK    5  A    between atoms: C_14  and  C_15 
REMARK    6  A    between atoms: C_15  and  C_16 
REMARK    7  A    between atoms: C_16  and  C_17 
REMARK    8  A    between atoms: C_17  and  C_18 
REMARK    9  A    between atoms: N_20  and  C_21 
REMARK   10  A    between atoms: C_24  and  C_25 
ROOT
ATOM      1  C   UNL d   1       9.752   3.652 -15.224  0.00  0.00     0.006 C 
ENDROOT
BRANCH   1   2
ATOM      2  C   UNL d   1       9.812   2.449 -16.191  0.00  0.00     0.003 C 
BRANCH   2   3
ATOM      3  C   UNL d   1       8.431   1.972 -16.674  0.00  0.00     0.035 C 
BRANCH   3   4
ATOM      4  C   UNL d   1       8.497   0.895 -17.757  0.00  0.00     0.250 C 
BRANCH   4   5
ATOM      5  N   UNL d   1       7.148   0.552 -18.208  0.00  0.00     0.141 N 
ATOM      6  C   UNL d   1       7.241  -0.106 -19.515  0.00  0.00     0.274 C 
ATOM      7  C   UNL d   1       5.833  -0.456 -20.047  0.00  0.00     0.137 C 
ATOM      8  N   UNL d   1       5.135  -1.297 -19.084  0.00  0.00    -0.343 N 
ATOM      9  C   UNL d   1       5.091  -0.772 -17.728  0.00  0.00     0.137 C 
ATOM     10  C   UNL d   1       6.511  -0.383 -17.267  0.00  0.00     0.274 C 
BRANCH   8  11
ATOM     11  C   UNL d   1       4.631  -2.578 -19.397  0.00  0.00     0.079 A 
ATOM     12  C   UNL d   1       5.366  -3.508 -20.179  0.00  0.00     0.110 A 
ATOM     13  C   UNL d   1       4.781  -4.766 -20.488  0.00  0.00     0.026 A 
ATOM     14  C   UNL d   1       3.498  -5.100 -20.025  0.00  0.00     0.002 A 
ATOM     15  C   UNL d   1       2.780  -4.179 -19.241  0.00  0.00     0.002 A 
ATOM     16  C   UNL d   1       3.356  -2.935 -18.919  0.00  0.00     0.019 A 
BRANCH  12  17
ATOM     17  O   UNL d   1       6.639  -3.156 -20.580  0.00  0.00    -0.327 OA
ATOM     18  C   UNL d   1       7.394  -4.070 -21.349  0.00  0.00     0.181 C 
ENDBRANCH  12  17
ENDBRANCH   8  11
ENDBRANCH   4   5
ENDBRANCH   3   4
ENDBRANCH   2   3
ENDBRANCH   1   2
BRANCH   1  19
ATOM     19  C   UNL d   1       8.785   3.443 -14.043  0.00  0.00     0.049 C 
BRANCH  19  20
ATOM     20  C   UNL d   1       8.835   4.544 -13.037  0.00  0.00     0.101 A 
ATOM     21  N   UNL d   1       8.194   5.763 -13.241  0.00  0.00    -0.133 NA
ATOM     22  N   UNL d   1       8.408   6.535 -12.220  0.00  0.00    -0.060 NA
ATOM     23  N   UNL d   1       9.172   5.837 -11.344  0.00  0.00    -0.209 N 
ATOM     24  C   UNL d   1       9.455   4.576 -11.828  0.00  0.00     0.119 A 
BRANCH  23  25
ATOM     25  C   UNL d   1       9.596   6.418 -10.131  0.00  0.00     0.085 A 
ATOM     26  C   UNL d   1       9.629   5.641  -8.958  0.00  0.00     0.019 A 
ATOM     27  C   UNL d   1      10.045   6.216  -7.742  0.00  0.00     0.002 A 
ATOM     28  C   UNL d   1      10.451   7.564  -7.676  0.00  0.00     0.001 A 
ATOM     29  C   UNL d   1      10.436   8.337  -8.860  0.00  0.00     0.002 A 
ATOM     30  C   UNL d   1      10.015   7.768 -10.079  0.00  0.00     0.019 A 
BRANCH  28  31
ATOM     31  C   UNL d   1      10.888   8.128  -6.391  0.00  0.00     0.007 A 
ATOM     32  C   UNL d   1      11.458   7.455  -5.337  0.00  0.00     0.035 A 
ATOM     33  S   UNL d   1      11.881   8.513  -4.017  0.00  0.00    -0.086 SA
ATOM     34  C   UNL d   1      11.180   9.866  -4.848  0.00  0.00     0.035 A 
ATOM     35  C   UNL d   1      10.735   9.518  -6.094  0.00  0.00     0.007 A 
ENDBRANCH  28  31
ENDBRANCH  23  25
ENDBRANCH  19  20
ENDBRANCH   1  19
TORSDOF 10
