REMARK  7 active torsions:
REMARK  status: ('A' for Active; 'I' for Inactive)
REMARK    1  A    between atoms: O_2  and  C_3 
REMARK    2  A    between atoms: C_6  and  N_7 
REMARK    3  A    between atoms: N_10  and  C_11 
REMARK    4  A    between atoms: C_11  and  C_12 
REMARK    5  A    between atoms: C_12  and  C_13 
REMARK    6  A    between atoms: C_13  and  O_14 
REMARK    7  A    between atoms: O_14  and  C_15 
ROOT
ATOM      1  N   UNL d   1       6.946   2.881 -14.078  0.00  0.00    -0.344 N 
ATOM      2  C   UNL d   1       6.267   3.859 -13.229  0.00  0.00     0.137 C 
ATOM      3  C   UNL d   1       7.140   4.156 -12.009  0.00  0.00     0.274 C 
ATOM      4  N   UNL d   1       8.494   4.565 -12.420  0.00  0.00     0.141 N 
ATOM      5  C   UNL d   1       9.139   3.522 -13.239  0.00  0.00     0.274 C 
ATOM      6  C   UNL d   1       8.303   3.222 -14.484  0.00  0.00     0.137 C 
ENDROOT
BRANCH   4   7
ATOM      7  C   UNL d   1       9.285   4.799 -11.217  0.00  0.00     0.253 C 
BRANCH   7   8
ATOM      8  C   UNL d   1       9.441   6.313 -10.976  0.00  0.00     0.068 C 
BRANCH   8   9
ATOM      9  C   UNL d   1      10.251   6.607  -9.706  0.00  0.00     0.151 C 
BRANCH   9  10
ATOM     10  O   UNL d   1      10.563   7.989  -9.660  0.00  0.00    -0.331 OA
BRANCH  10  11
ATOM     11  C   UNL d   1      10.919   8.441  -8.419  0.00  0.00     0.086 A 
ATOM     12  C   UNL d   1      12.263   8.679  -8.108  0.00  0.00    -0.000 A 
ATOM     13  C   UNL d   1      12.590   9.188  -6.840  0.00  0.00    -0.007 A 
ATOM     14  C   UNL d   1      13.349   8.361  -9.122  0.00  0.00     0.033 C 
ATOM     15  C   UNL d   1      11.632   9.401  -5.838  0.00  0.00    -0.022 A 
ATOM     16  C   UNL d   1      10.301   9.195  -6.165  0.00  0.00    -0.007 A 
ATOM     17  C   UNL d   1      12.015   9.778  -4.430  0.00  0.00     0.031 C 
ATOM     18  C   UNL d   1       9.967   8.690  -7.414  0.00  0.00    -0.000 A 
ATOM     19  C   UNL d   1       8.557   8.515  -7.732  0.00  0.00     0.033 C 
ENDBRANCH  10  11
ENDBRANCH   9  10
ENDBRANCH   8   9
ENDBRANCH   7   8
ENDBRANCH   4   7
BRANCH   1  20
ATOM     20  C   UNL d   1       6.352   1.684 -14.509  0.00  0.00     0.056 A 
ATOM     21  C   UNL d   1       6.629   1.210 -15.809  0.00  0.00     0.019 A 
ATOM     22  C   UNL d   1       5.968   0.095 -16.325  0.00  0.00     0.026 A 
ATOM     23  C   UNL d   1       5.013  -0.606 -15.549  0.00  0.00     0.094 A 
ATOM     24  C   UNL d   1       4.732  -0.139 -14.242  0.00  0.00     0.026 A 
ATOM     25  C   UNL d   1       5.407   0.989 -13.719  0.00  0.00     0.019 A 
BRANCH  23  26
ATOM     26  O   UNL d   1       4.327  -1.710 -16.010  0.00  0.00    -0.328 OA
ATOM     27  C   UNL d   1       4.629  -2.160 -17.330  0.00  0.00     0.181 C 
ENDBRANCH  23  26
ENDBRANCH   1  20
TORSDOF 7
