REMARK  7 active torsions:
REMARK  status: ('A' for Active; 'I' for Inactive)
REMARK    1  A    between atoms: C_2  and  C_4 
REMARK    2  A    between atoms: C_2  and  S_18 
REMARK    3  A    between atoms: C_4  and  C_5 
REMARK    4  A    between atoms: C_5  and  C_6 
REMARK    5  A    between atoms: C_6  and  N_7 
REMARK    6  A    between atoms: C_11  and  C_12 
REMARK    7  A    between atoms: S_18  and  C_21 
ROOT
ATOM      1  C   UNL d   1      10.318   6.490  -9.780  0.00  0.00     0.017 C 
ENDROOT
BRANCH   1   2
ATOM      2  C   UNL d   1      10.091   7.447  -8.568  0.00  0.00     0.099 C 
ATOM      3  C   UNL d   1       9.841   8.892  -9.061  0.00  0.00     0.016 C 
ATOM      4  C   UNL d   1       8.968   6.931  -7.662  0.00  0.00     0.016 C 
BRANCH   2   5
ATOM      5  S   UNL d   1      11.638   7.393  -7.576  0.00  0.00     0.188 S 
ATOM      6  O   UNL d   1      11.801   6.040  -7.056  0.00  0.00    -0.222 OA
ATOM      7  O   UNL d   1      12.692   8.023  -8.380  0.00  0.00    -0.222 OA
BRANCH   5   8
ATOM      8  C   UNL d   1      11.461   8.385  -6.121  0.00  0.00     0.084 A 
ATOM      9  C   UNL d   1      11.232   9.755  -6.268  0.00  0.00     0.011 A 
ATOM     10  C   UNL d   1      11.052  10.505  -5.093  0.00  0.00     0.001 A 
ATOM     11  C   UNL d   1      11.177   9.898  -3.814  0.00  0.00     0.000 A 
ATOM     12  C   UNL d   1      11.475   8.546  -3.689  0.00  0.00     0.001 A 
ATOM     13  C   UNL d   1      11.584   7.778  -4.848  0.00  0.00     0.011 A 
ENDBRANCH   5   8
ENDBRANCH   2   5
ENDBRANCH   1   2
BRANCH   1  14
ATOM     14  C   UNL d   1       9.179   6.455 -10.796  0.00  0.00     0.036 C 
BRANCH  14  15
ATOM     15  C   UNL d   1       8.945   5.094 -11.471  0.00  0.00     0.250 C 
BRANCH  15  16
ATOM     16  N   UNL d   1       9.914   4.793 -12.516  0.00  0.00     0.137 N 
ATOM     17  C   UNL d   1       9.579   3.524 -13.140  0.00  0.00     0.257 C 
ATOM     18  C   UNL d   1      10.631   3.113 -14.198  0.00  0.00     0.081 C 
ATOM     19  C   UNL d   1      10.799   4.203 -15.260  0.00  0.00     0.011 C 
ATOM     20  C   UNL d   1      11.048   5.533 -14.563  0.00  0.00     0.036 C 
ATOM     21  C   UNL d   1       9.936   5.840 -13.525  0.00  0.00     0.250 C 
BRANCH  18  22
ATOM     22  C   UNL d   1      10.285   1.805 -14.844  0.00  0.00     0.100 A 
ATOM     23  O   UNL d   1       8.992   1.342 -14.711  0.00  0.00    -0.289 OA
ATOM     24  C   UNL d   1       8.978   0.193 -15.410  0.00  0.00     0.225 A 
ATOM     25  N   UNL d   1      10.138  -0.101 -16.012  0.00  0.00    -0.216 NA
ATOM     26  C   UNL d   1      10.975   0.939 -15.667  0.00  0.00     0.121 A 
ENDBRANCH  18  22
ENDBRANCH  15  16
ENDBRANCH  14  15
ENDBRANCH   1  14
TORSDOF 7
