REMARK  4 active torsions:
REMARK  status: ('A' for Active; 'I' for Inactive)
REMARK    1  A    between atoms: C_8  and  C_9 
REMARK    2  A    between atoms: C_9  and  C_10 
REMARK    3  A    between atoms: C_10  and  N_11 
REMARK    4  A    between atoms: C_14  and  C_15 
ROOT
ATOM      1  N   UNL d   1      10.075   4.977 -13.300  0.00  0.00     0.137 N 
ATOM      2  C   UNL d   1       9.212   3.811 -13.535  0.00  0.00     0.251 C 
ATOM      3  C   UNL d   1      10.065   2.578 -13.788  0.00  0.00     0.041 C 
ATOM      4  C   UNL d   1      11.030   2.751 -14.967  0.00  0.00     0.047 C 
ATOM      5  C   UNL d   1      11.834   4.048 -14.781  0.00  0.00     0.041 C 
ATOM      6  C   UNL d   1      10.916   5.257 -14.490  0.00  0.00     0.251 C 
ENDROOT
BRANCH   1   7
ATOM      7  C   UNL d   1       9.178   6.114 -13.118  0.00  0.00     0.255 C 
BRANCH   7   8
ATOM      8  C   UNL d   1       8.319   6.115 -11.839  0.00  0.00     0.068 C 
BRANCH   8   9
ATOM      9  C   UNL d   1       9.137   6.438 -10.587  0.00  0.00     0.050 A 
ATOM     10  C   UNL d   1       9.434   5.574  -9.597  0.00  0.00     0.061 A 
ATOM     11  C   UNL d   1       9.121   4.155  -9.694  0.00  0.00     0.052 C 
ATOM     12  N   UNL d   1      10.036   5.878  -8.415  0.00  0.00    -0.234 NA
ATOM     13  C   UNL d   1      10.441   7.095  -8.243  0.00  0.00     0.150 A 
ATOM     14  C   UNL d   1      11.111   7.434  -6.913  0.00  0.00     0.177 C 
ATOM     15  N   UNL d   1      10.261   8.060  -9.255  0.00  0.00    -0.283 N 
ATOM     16  C   UNL d   1      11.866   8.759  -6.949  0.00  0.00     0.040 C 
ATOM     17  C   UNL d   1      12.031   6.306  -6.464  0.00  0.00     0.041 C 
ATOM     18  O   UNL d   1      10.081   7.521  -5.942  0.00  0.00    -0.218 OA
ATOM     19  C   UNL d   1      10.958   9.794  -7.569  0.00  0.00     0.028 C 
ATOM     20  C   UNL d   1      10.726   9.423  -9.048  0.00  0.00     0.111 C 
ATOM     21  C   UNL d   1       9.634   7.799 -10.442  0.00  0.00     0.259 A 
ATOM     22  O   UNL d   1       9.495   8.640 -11.330  0.00  0.00    -0.267 OA
ENDBRANCH   8   9
ENDBRANCH   7   8
ENDBRANCH   1   7
BRANCH   4  23
ATOM     23  C   UNL d   1      10.289   2.721 -16.296  0.00  0.00     0.087 A 
ATOM     24  C   UNL d   1      10.315   1.757 -17.332  0.00  0.00     0.041 A 
ATOM     25  C   UNL d   1       9.410   2.149 -18.324  0.00  0.00     0.129 A 
ATOM     26  C   UNL d   1      11.062   0.580 -17.481  0.00  0.00     0.006 A 
ATOM     27  O   UNL d   1       8.845   3.317 -17.878  0.00  0.00    -0.211 OA
ATOM     28  C   UNL d   1       9.215   1.431 -19.511  0.00  0.00     0.057 A 
ATOM     29  N   UNL d   1       9.414   3.668 -16.616  0.00  0.00    -0.131 NA
ATOM     30  C   UNL d   1       9.969   0.262 -19.684  0.00  0.00     0.142 A 
ATOM     31  F   UNL d   1       9.825  -0.462 -20.824  0.00  0.00    -0.204 F 
ATOM     32  C   UNL d   1      10.889  -0.174 -18.681  0.00  0.00     0.030 A 
ENDBRANCH   4  23
TORSDOF 4
