REMARK  5 active torsions:
REMARK  status: ('A' for Active; 'I' for Inactive)
REMARK    1  A    between atoms: C_2  and  C_3 
REMARK    2  A    between atoms: C_3  and  O_4 
REMARK    3  A    between atoms: O_4  and  C_5 
REMARK    4  A    between atoms: C_10  and  O_11 
REMARK    5  A    between atoms: C_19  and  O_20 
ROOT
ATOM      1  C   UNL d   1       9.511   7.041  -9.463  0.00  0.00     0.116 C 
ATOM      2  C   UNL d   1       8.954   5.852  -8.917  0.00  0.00     0.026 C 
ATOM      3  C   UNL d   1       8.604   4.804  -9.766  0.00  0.00    -0.002 C 
ATOM      4  C   UNL d   1       8.742   4.949 -11.156  0.00  0.00    -0.020 C 
ATOM      5  C   UNL d   1       9.256   6.112 -11.725  0.00  0.00     0.031 C 
ATOM      6  C   UNL d   1       9.568   7.200 -10.865  0.00  0.00     0.114 C 
ATOM      7  C   UNL d   1       9.357   6.166 -13.236  0.00  0.00     0.279 C 
ATOM      8  N   UNL d   1       9.428   4.876 -13.918  0.00  0.00     0.144 N 
ATOM      9  C   UNL d   1       9.485   5.083 -15.353  0.00  0.00     0.256 C 
ATOM     10  C   UNL d   1       9.678   3.764 -16.072  0.00  0.00     0.061 C 
ATOM     11  C   UNL d   1       8.659   2.732 -15.658  0.00  0.00    -0.020 A 
ATOM     12  C   UNL d   1       8.414   1.616 -16.491  0.00  0.00     0.022 A 
ATOM     13  C   UNL d   1       7.442   0.681 -16.142  0.00  0.00     0.119 A 
ATOM     14  C   UNL d   1       6.750   0.826 -14.916  0.00  0.00     0.153 A 
ATOM     15  O   UNL d   1       5.885  -0.146 -14.502  0.00  0.00    -0.188 OA
ATOM     16  C   UNL d   1       6.946   1.979 -14.112  0.00  0.00     0.027 A 
ATOM     17  C   UNL d   1       7.926   2.924 -14.456  0.00  0.00     0.007 A 
ATOM     18  C   UNL d   1       8.188   4.180 -13.593  0.00  0.00     0.246 C 
ATOM     19  C   UNL d   1       8.336   3.869 -12.110  0.00  0.00     0.064 C 
ENDROOT
BRANCH   1  20
ATOM     20  O   UNL d   1       9.871   8.118  -8.668  0.00  0.00    -0.329 OA
BRANCH  20  21
ATOM     21  C   UNL d   1       9.819   7.980  -7.258  0.00  0.00     0.149 C 
BRANCH  21  22
ATOM     22  C   UNL d   1      10.966   7.072  -6.733  0.00  0.00     0.033 C 
ATOM     23  C   UNL d   1      10.913   6.893  -5.226  0.00  0.00     0.003 C 
ENDBRANCH  21  22
ENDBRANCH  20  21
ENDBRANCH   1  20
BRANCH   6  24
ATOM     24  O   UNL d   1       9.902   8.408 -11.409  0.00  0.00    -0.326 OA
ATOM     25  C   UNL d   1       8.849   9.126 -12.016  0.00  0.00     0.181 C 
ENDBRANCH   6  24
BRANCH  13  26
ATOM     26  O   UNL d   1       7.299  -0.390 -16.989  0.00  0.00    -0.326 OA
ATOM     27  C   UNL d   1       6.018  -0.472 -17.616  0.00  0.00     0.181 C 
ENDBRANCH  13  26
TORSDOF 5
