REMARK  10 active torsions:
REMARK  status: ('A' for Active; 'I' for Inactive)
REMARK    1  A    between atoms: O_2  and  C_3 
REMARK    2  A    between atoms: C_9  and  C_10 
REMARK    3  A    between atoms: C_12  and  C_13 
REMARK    4  A    between atoms: C_13  and  N_14 
REMARK    5  A    between atoms: N_14  and  C_15 
REMARK    6  A    between atoms: C_15  and  C_16 
REMARK    7  A    between atoms: C_16  and  C_17 
REMARK    8  A    between atoms: C_17  and  C_18 
REMARK    9  A    between atoms: C_18  and  O_19 
REMARK   10  A    between atoms: O_19  and  C_20 
ROOT
ATOM      1  C   UNL d   1       8.345   5.372 -13.153  0.00  0.00     0.290 C 
ENDROOT
BRANCH   1   2
ATOM      2  N   UNL d   1       9.149   4.856 -14.249  0.00  0.00     0.339 N 
BRANCH   2   3
ATOM      3  C   UNL d   1       8.621   3.579 -14.673  0.00  0.00     0.290 C 
BRANCH   3   4
ATOM      4  C   UNL d   1       9.324   3.101 -15.927  0.00  0.00     0.041 A 
ATOM      5  C   UNL d   1       8.863   1.827 -16.613  0.00  0.00     0.026 A 
ATOM      6  C   UNL d   1      10.201   1.860 -15.910  0.00  0.00     0.007 A 
BRANCH   5   7
ATOM      7  C   UNL d   1       7.706   1.004 -16.082  0.00  0.00     0.002 A 
ATOM      8  C   UNL d   1       6.636   0.606 -16.927  0.00  0.00     0.090 A 
ATOM      9  C   UNL d   1       5.568  -0.148 -16.366  0.00  0.00     0.026 A 
ATOM     10  C   UNL d   1       5.552  -0.487 -15.001  0.00  0.00     0.032 A 
ATOM     11  C   UNL d   1       6.617  -0.102 -14.176  0.00  0.00     0.140 A 
ATOM     12  F   UNL d   1       6.646  -0.421 -12.862  0.00  0.00    -0.204 F 
ATOM     13  C   UNL d   1       7.681   0.614 -14.720  0.00  0.00     0.027 A 
BRANCH   8  14
ATOM     14  O   UNL d   1       6.680   0.987 -18.255  0.00  0.00    -0.328 OA
ATOM     15  C   UNL d   1       5.686   0.477 -19.132  0.00  0.00     0.181 C 
ENDBRANCH   8  14
ENDBRANCH   5   7
ENDBRANCH   3   4
ENDBRANCH   2   3
ENDBRANCH   1   2
BRANCH   1  16
ATOM     16  C   UNL d   1       8.431   4.468 -11.913  0.00  0.00     0.041 C 
BRANCH  16  17
ATOM     17  C   UNL d   1       8.002   5.238 -10.647  0.00  0.00     0.035 C 
BRANCH  17  18
ATOM     18  C   UNL d   1       8.280   4.396  -9.364  0.00  0.00     0.149 C 
BRANCH  18  19
ATOM     19  O   UNL d   1       8.279   5.169  -8.178  0.00  0.00    -0.331 OA
BRANCH  19  20
ATOM     20  C   UNL d   1       9.238   6.146  -8.060  0.00  0.00     0.096 A 
ATOM     21  C   UNL d   1       9.172   6.972  -6.926  0.00  0.00     0.043 A 
ATOM     22  C   UNL d   1      10.095   8.038  -6.801  0.00  0.00     0.082 A 
ATOM     23  C   UNL d   1      10.995   8.300  -7.844  0.00  0.00    -0.004 A 
ATOM     24  N   UNL d   1      10.137   8.810  -5.639  0.00  0.00    -0.212 NA
ATOM     25  C   UNL d   1      11.034   7.493  -8.990  0.00  0.00    -0.001 A 
ATOM     26  C   UNL d   1      11.935   9.450  -7.688  0.00  0.00     0.038 C 
ATOM     27  C   UNL d   1      10.199   6.404  -9.059  0.00  0.00     0.024 A 
ATOM     28  C   UNL d   1      12.281   9.779  -6.234  0.00  0.00     0.095 C 
ATOM     29  C   UNL d   1      11.081   9.702  -5.312  0.00  0.00     0.256 C 
ATOM     30  O   UNL d   1      11.007  10.436  -4.330  0.00  0.00    -0.270 OA
ENDBRANCH  19  20
ENDBRANCH  18  19
ENDBRANCH  17  18
ENDBRANCH  16  17
ENDBRANCH   1  16
TORSDOF 10
