REMARK  5 active torsions:
REMARK  status: ('A' for Active; 'I' for Inactive)
REMARK    1  A    between atoms: C_2  and  C_3 
REMARK    2  A    between atoms: C_3  and  C_4 
REMARK    3  A    between atoms: C_4  and  C_5 
REMARK    4  A    between atoms: C_4  and  N_17 
REMARK    5  A    between atoms: C_5  and  C_7 
ROOT
ATOM      1  C   UNL d   1       9.212   5.242 -12.617  0.00  0.00     0.204 C 
ATOM      2  O   UNL d   1      10.250   5.197 -13.284  0.00  0.00    -0.289 OA
ENDROOT
BRANCH   1   3
ATOM      3  C   UNL d   1       7.834   4.940 -13.275  0.00  0.00     0.280 C 
BRANCH   3   4
ATOM      4  C   UNL d   1       6.649   5.727 -12.639  0.00  0.00     0.041 C 
BRANCH   4   5
ATOM      5  C   UNL d   1       6.892   7.237 -12.551  0.00  0.00     0.003 C 
ATOM      6  C   UNL d   1       5.609   8.034 -12.439  0.00  0.00     0.000 C 
ENDBRANCH   4   5
ENDBRANCH   3   4
BRANCH   3   7
ATOM      7  N   UNL d   1       7.546   3.491 -13.380  0.00  0.00     0.142 N 
ATOM      8  C   UNL d   1       6.232   3.131 -13.918  0.00  0.00     0.251 C 
ATOM      9  C   UNL d   1       6.330   1.631 -14.193  0.00  0.00     0.037 C 
ATOM     10  C   UNL d   1       7.814   1.365 -14.390  0.00  0.00     0.037 C 
ATOM     11  C   UNL d   1       8.488   2.725 -14.197  0.00  0.00     0.251 C 
ENDBRANCH   3   7
ENDBRANCH   1   3
BRANCH   1  12
ATOM     12  C   UNL d   1       9.245   5.638 -11.188  0.00  0.00     0.037 A 
ATOM     13  C   UNL d   1       9.872   6.848 -10.823  0.00  0.00     0.003 A 
ATOM     14  C   UNL d   1       9.939   7.253  -9.473  0.00  0.00     0.000 A 
ATOM     15  C   UNL d   1       9.320   6.458  -8.478  0.00  0.00     0.000 A 
ATOM     16  C   UNL d   1      10.582   8.460  -9.123  0.00  0.00     0.000 A 
ATOM     17  C   UNL d   1       8.660   5.266  -8.841  0.00  0.00     0.000 A 
ATOM     18  C   UNL d   1       9.322   6.906  -7.136  0.00  0.00     0.000 A 
ATOM     19  C   UNL d   1       8.633   4.852 -10.191  0.00  0.00     0.003 A 
ATOM     20  C   UNL d   1       9.978   8.103  -6.785  0.00  0.00     0.000 A 
ATOM     21  C   UNL d   1      10.616   8.873  -7.776  0.00  0.00     0.000 A 
ENDBRANCH   1  12
TORSDOF 5
