REMARK  7 active torsions:
REMARK  status: ('A' for Active; 'I' for Inactive)
REMARK    1  A    between atoms: C_2  and  C_3 
REMARK    2  A    between atoms: C_3  and  C_5 
REMARK       I    between atoms: C_5  and  N_7 
REMARK    3  A    between atoms: N_7  and  C_8 
REMARK    4  A    between atoms: C_11  and  C_12 
REMARK    5  A    between atoms: C_12  and  C_13 
REMARK    6  A    between atoms: C_13  and  N_14 
REMARK    7  A    between atoms: C_17  and  C_18 
ROOT
ATOM      1  N   UNL d   1       8.872   4.100 -13.057  0.00  0.00     0.137 N 
ATOM      2  C   UNL d   1      10.315   3.860 -13.018  0.00  0.00     0.251 C 
ATOM      3  C   UNL d   1      10.733   2.748 -13.966  0.00  0.00     0.040 C 
ATOM      4  C   UNL d   1      10.383   3.112 -15.395  0.00  0.00     0.028 C 
ATOM      5  C   UNL d   1       8.905   3.512 -15.453  0.00  0.00     0.040 C 
ATOM      6  C   UNL d   1       8.548   4.581 -14.398  0.00  0.00     0.251 C 
ENDROOT
BRANCH   1   7
ATOM      7  C   UNL d   1       8.455   5.114 -12.088  0.00  0.00     0.250 C 
BRANCH   7   8
ATOM      8  C   UNL d   1       8.840   4.772 -10.630  0.00  0.00     0.035 C 
BRANCH   8   9
ATOM      9  C   UNL d   1       8.864   5.971  -9.713  0.00  0.00     0.002 C 
ATOM     10  C   UNL d   1       9.155   5.478  -8.304  0.00  0.00     0.002 C 
ATOM     11  C   UNL d   1       9.031   6.668  -7.379  0.00  0.00     0.024 C 
ATOM     12  C   UNL d   1      10.127   7.708  -7.743  0.00  0.00     0.106 C 
ATOM     13  C   UNL d   1       9.900   8.234  -9.149  0.00  0.00     0.024 C 
ATOM     14  C   UNL d   1       9.900   7.051 -10.112  0.00  0.00     0.002 C 
BRANCH  12  15
ATOM     15  N   UNL d   1      10.095   8.831  -6.829  0.00  0.00    -0.240 NA
ATOM     16  C   UNL d   1      10.716   8.969  -5.647  0.00  0.00     0.251 C 
ATOM     17  O   UNL d   1      10.458   9.970  -5.003  0.00  0.00    -0.271 OA
BRANCH  16  18
ATOM     18  C   UNL d   1      11.771   7.905  -5.185  0.00  0.00     0.081 C 
ATOM     19  C   UNL d   1      11.237   6.608  -4.546  0.00  0.00     0.010 C 
BRANCH  18  20
ATOM     20  C   UNL d   1      12.903   8.450  -4.288  0.00  0.00     0.009 C 
ATOM     21  C   UNL d   1      12.426   9.011  -2.950  0.00  0.00     0.001 C 
ENDBRANCH  18  20
ENDBRANCH  16  18
ENDBRANCH  12  15
ENDBRANCH   8   9
ENDBRANCH   7   8
ENDBRANCH   1   7
BRANCH   4  22
ATOM     22  C   UNL d   1      10.708   1.971 -16.330  0.00  0.00     0.002 A 
ATOM     23  C   UNL d   1      11.736   2.089 -17.277  0.00  0.00     0.115 A 
ATOM     24  C   UNL d   1      12.032   1.058 -18.141  0.00  0.00     0.119 A 
ATOM     25  O   UNL d   1      12.563   3.139 -17.514  0.00  0.00    -0.300 OA
ATOM     26  C   UNL d   1      11.325  -0.156 -18.114  0.00  0.00     0.026 A 
ATOM     27  O   UNL d   1      13.058   1.427 -18.949  0.00  0.00    -0.300 OA
ATOM     28  C   UNL d   1      10.287  -0.298 -17.167  0.00  0.00     0.002 A 
ATOM     29  C   UNL d   1       9.987   0.753 -16.274  0.00  0.00    -0.002 A 
ATOM     30  C   UNL d   1      13.396   2.736 -18.567  0.00  0.00     0.304 A 
ENDBRANCH   4  22
TORSDOF 7
