REMARK  7 active torsions:
REMARK  status: ('A' for Active; 'I' for Inactive)
REMARK    1  A    between atoms: C_5  and  N_6 
REMARK    2  A    between atoms: N_9  and  C_10 
REMARK    3  A    between atoms: C_10  and  C_11 
REMARK    4  A    between atoms: C_11  and  C_12 
REMARK    5  A    between atoms: C_12  and  C_13 
REMARK    6  A    between atoms: C_13  and  O_14 
REMARK    7  A    between atoms: O_14  and  C_15 
ROOT
ATOM      1  N   UNL d   1       9.687   4.002 -14.480  0.00  0.00    -0.344 N 
ATOM      2  C   UNL d   1       9.829   3.115 -13.334  0.00  0.00     0.137 C 
ATOM      3  C   UNL d   1       9.789   3.948 -12.064  0.00  0.00     0.274 C 
ATOM      4  N   UNL d   1       8.556   4.746 -11.993  0.00  0.00     0.141 N 
ATOM      5  C   UNL d   1       8.477   5.659 -13.142  0.00  0.00     0.274 C 
ATOM      6  C   UNL d   1       8.517   4.866 -14.442  0.00  0.00     0.137 C 
ENDROOT
BRANCH   4   7
ATOM      7  C   UNL d   1       8.517   5.508 -10.748  0.00  0.00     0.251 C 
BRANCH   7   8
ATOM      8  C   UNL d   1       9.543   6.673 -10.694  0.00  0.00     0.038 C 
BRANCH   8   9
ATOM      9  C   UNL d   1       9.602   7.258  -9.300  0.00  0.00     0.035 C 
BRANCH   9  10
ATOM     10  C   UNL d   1      10.706   8.339  -9.193  0.00  0.00     0.149 C 
BRANCH  10  11
ATOM     11  O   UNL d   1      10.565   9.171  -8.051  0.00  0.00    -0.331 OA
BRANCH  11  12
ATOM     12  C   UNL d   1      10.923   8.671  -6.820  0.00  0.00     0.097 A 
ATOM     13  C   UNL d   1      11.091   9.550  -5.769  0.00  0.00     0.043 A 
ATOM     14  C   UNL d   1      11.518   9.035  -4.511  0.00  0.00     0.086 A 
ATOM     15  N   UNL d   1      11.688   7.636  -4.394  0.00  0.00    -0.228 N 
ATOM     16  C   UNL d   1      11.858   9.539  -3.272  0.00  0.00     0.042 A 
ATOM     17  C   UNL d   1      11.468   6.790  -5.420  0.00  0.00     0.102 A 
ATOM     18  N   UNL d   1      12.118   7.276  -3.155  0.00  0.00    -0.164 NA
ATOM     19  C   UNL d   1      11.147   7.284  -6.626  0.00  0.00     0.045 A 
ATOM     20  C   UNL d   1      12.221   8.414  -2.503  0.00  0.00     0.122 A 
ENDBRANCH  11  12
ENDBRANCH  10  11
ENDBRANCH   9  10
ENDBRANCH   8   9
ENDBRANCH   7   8
ENDBRANCH   4   7
BRANCH   1  21
ATOM     21  C   UNL d   1      10.582   3.978 -15.555  0.00  0.00     0.058 A 
ATOM     22  C   UNL d   1      11.235   5.174 -15.927  0.00  0.00     0.019 A 
ATOM     23  C   UNL d   1      12.150   5.186 -16.987  0.00  0.00     0.030 A 
ATOM     24  C   UNL d   1      12.422   4.010 -17.699  0.00  0.00     0.149 A 
ATOM     25  O   UNL d   1      13.306   4.049 -18.741  0.00  0.00    -0.189 OA
ATOM     26  C   UNL d   1      11.782   2.794 -17.363  0.00  0.00     0.108 A 
ATOM     27  C   UNL d   1      10.855   2.786 -16.278  0.00  0.00     0.035 A 
ATOM     28  N   UNL d   1      12.051   1.675 -18.082  0.00  0.00    -0.242 NA
ATOM     29  C   UNL d   1      10.210   1.564 -15.972  0.00  0.00     0.005 A 
ATOM     30  C   UNL d   1      10.508   0.411 -16.711  0.00  0.00     0.021 A 
ATOM     31  C   UNL d   1      11.433   0.519 -17.762  0.00  0.00     0.099 A 
ENDBRANCH   1  21
TORSDOF 7
