REMARK  7 active torsions:
REMARK  status: ('A' for Active; 'I' for Inactive)
REMARK    1  A    between atoms: O_2  and  C_3 
REMARK    2  A    between atoms: C_8  and  N_9 
REMARK    3  A    between atoms: N_12  and  C_13 
REMARK    4  A    between atoms: C_13  and  C_14 
REMARK    5  A    between atoms: C_14  and  C_15 
REMARK    6  A    between atoms: C_15  and  C_16 
REMARK    7  A    between atoms: C_16  and  N_17 
ROOT
ATOM      1  N   UNL d   1       9.453   3.728 -14.370  0.00  0.00    -0.343 N 
ATOM      2  C   UNL d   1      10.813   3.873 -13.863  0.00  0.00     0.137 C 
ATOM      3  C   UNL d   1      11.641   4.723 -14.850  0.00  0.00     0.274 C 
ATOM      4  N   UNL d   1      11.620   4.120 -16.189  0.00  0.00     0.141 N 
ATOM      5  C   UNL d   1      10.236   4.061 -16.668  0.00  0.00     0.274 C 
ATOM      6  C   UNL d   1       9.380   3.198 -15.725  0.00  0.00     0.137 C 
ENDROOT
BRANCH   4   7
ATOM      7  C   UNL d   1      12.405   4.925 -17.119  0.00  0.00     0.251 C 
BRANCH   7   8
ATOM      8  C   UNL d   1      13.890   4.568 -17.012  0.00  0.00     0.037 C 
BRANCH   8   9
ATOM      9  C   UNL d   1      14.752   5.317 -18.028  0.00  0.00     0.027 C 
BRANCH   9  10
ATOM     10  C   UNL d   1      15.062   6.762 -17.582  0.00  0.00     0.109 C 
BRANCH  10  11
ATOM     11  N   UNL d   1      16.069   7.392 -18.438  0.00  0.00    -0.299 N 
ATOM     12  C   UNL d   1      15.859   8.542 -19.213  0.00  0.00     0.059 A 
ATOM     13  C   UNL d   1      17.040   8.876 -19.866  0.00  0.00     0.003 A 
ATOM     14  C   UNL d   1      14.684   9.299 -19.379  0.00  0.00     0.017 A 
ATOM     15  C   UNL d   1      18.137   7.908 -19.506  0.00  0.00     0.116 A 
ATOM     16  C   UNL d   1      17.110   9.979 -20.734  0.00  0.00    -0.002 A 
ATOM     17  C   UNL d   1      17.353   6.996 -18.552  0.00  0.00     0.242 A 
ATOM     18  O   UNL d   1      17.863   6.035 -17.978  0.00  0.00    -0.272 OA
ATOM     19  C   UNL d   1      15.938  10.745 -20.922  0.00  0.00    -0.000 A 
ATOM     20  C   UNL d   1      14.741  10.407 -20.247  0.00  0.00     0.002 A 
ENDBRANCH  10  11
ENDBRANCH   9  10
ENDBRANCH   8   9
ENDBRANCH   7   8
ENDBRANCH   4   7
BRANCH   1  21
ATOM     21  C   UNL d   1       8.289   4.033 -13.636  0.00  0.00     0.079 A 
ATOM     22  C   UNL d   1       8.219   5.157 -12.761  0.00  0.00     0.110 A 
ATOM     23  C   UNL d   1       7.017   5.386 -12.044  0.00  0.00     0.026 A 
ATOM     24  C   UNL d   1       5.906   4.543 -12.202  0.00  0.00     0.002 A 
ATOM     25  C   UNL d   1       5.964   3.454 -13.082  0.00  0.00     0.002 A 
ATOM     26  C   UNL d   1       7.154   3.198 -13.786  0.00  0.00     0.019 A 
BRANCH  22  27
ATOM     27  O   UNL d   1       9.312   6.003 -12.653  0.00  0.00    -0.327 OA
ATOM     28  C   UNL d   1       9.249   7.082 -11.726  0.00  0.00     0.181 C 
ENDBRANCH  22  27
ENDBRANCH   1  21
TORSDOF 7
