REMARK  6 active torsions:
REMARK  status: ('A' for Active; 'I' for Inactive)
REMARK    1  A    between atoms: N_11  and  C_12 
REMARK    2  A    between atoms: C_12  and  C_13 
REMARK    3  A    between atoms: C_13  and  C_14 
REMARK    4  A    between atoms: C_14  and  C_15 
REMARK    5  A    between atoms: C_15  and  N_16 
REMARK    6  A    between atoms: N_19  and  C_20 
ROOT
ATOM      1  C   UNL d   1       9.153   6.125 -10.425  0.00  0.00     0.037 C 
ENDROOT
BRANCH   1   2
ATOM      2  C   UNL d   1       9.375   6.489  -8.961  0.00  0.00     0.026 C 
BRANCH   2   3
ATOM      3  C   UNL d   1      10.461   7.565  -8.818  0.00  0.00     0.104 C 
BRANCH   3   4
ATOM      4  N   UNL d   1      10.639   7.947  -7.397  0.00  0.00    -0.316 N 
ATOM      5  C   UNL d   1      11.289   7.158  -6.518  0.00  0.00     0.257 C 
ATOM      6  O   UNL d   1      11.714   6.055  -6.820  0.00  0.00    -0.267 OA
ATOM      7  C   UNL d   1      11.468   7.671  -5.126  0.00  0.00     0.052 A 
ATOM      8  C   UNL d   1      11.326   9.042  -4.848  0.00  0.00    -0.016 A 
ATOM      9  C   UNL d   1      11.852   6.793  -4.096  0.00  0.00     0.004 A 
ATOM     10  C   UNL d   1      11.557   9.533  -3.549  0.00  0.00    -0.004 A 
ATOM     11  C   UNL d   1      10.916   9.988  -5.958  0.00  0.00     0.051 C 
ATOM     12  C   UNL d   1      11.941   8.653  -2.518  0.00  0.00    -0.000 A 
ATOM     13  C   UNL d   1      12.081   7.283  -2.801  0.00  0.00     0.000 A 
ATOM     14  C   UNL d   1      10.082   9.259  -7.026  0.00  0.00     0.109 C 
ENDBRANCH   3   4
ENDBRANCH   2   3
ENDBRANCH   1   2
BRANCH   1  15
ATOM     15  C   UNL d   1       7.941   5.200 -10.624  0.00  0.00     0.251 C 
BRANCH  15  16
ATOM     16  N   UNL d   1       7.662   4.916 -12.032  0.00  0.00     0.141 N 
ATOM     17  C   UNL d   1       6.392   4.174 -12.103  0.00  0.00     0.274 C 
ATOM     18  C   UNL d   1       6.022   3.873 -13.568  0.00  0.00     0.137 C 
ATOM     19  N   UNL d   1       7.124   3.160 -14.202  0.00  0.00    -0.344 N 
ATOM     20  C   UNL d   1       8.413   3.839 -14.119  0.00  0.00     0.137 C 
ATOM     21  C   UNL d   1       8.747   4.132 -12.647  0.00  0.00     0.274 C 
BRANCH  19  22
ATOM     22  C   UNL d   1       6.952   1.953 -14.905  0.00  0.00     0.067 A 
ATOM     23  C   UNL d   1       6.197   0.871 -14.389  0.00  0.00     0.073 A 
ATOM     24  C   UNL d   1       5.993  -0.290 -15.153  0.00  0.00     0.013 A 
ATOM     25 CL   UNL d   1       5.462   0.899 -12.828  0.00  0.00    -0.081 Cl
ATOM     26  C   UNL d   1       6.573  -0.416 -16.422  0.00  0.00     0.001 A 
ATOM     27  C   UNL d   1       7.357   0.625 -16.928  0.00  0.00     0.002 A 
ATOM     28  C   UNL d   1       7.542   1.808 -16.180  0.00  0.00     0.018 A 
ENDBRANCH  19  22
ENDBRANCH  15  16
ENDBRANCH   1  15
TORSDOF 6
