REMARK  10 active torsions:
REMARK  status: ('A' for Active; 'I' for Inactive)
REMARK    1  A    between atoms: O_2  and  C_3 
REMARK    2  A    between atoms: C_7  and  C_8 
REMARK    3  A    between atoms: C_8  and  C_9 
REMARK    4  A    between atoms: C_9  and  C_10 
REMARK    5  A    between atoms: C_15  and  O_16 
REMARK    6  A    between atoms: O_16  and  C_17 
REMARK    7  A    between atoms: C_17  and  C_18 
REMARK    8  A    between atoms: C_18  and  C_19 
REMARK    9  A    between atoms: C_19  and  N_20 
REMARK   10  A    between atoms: N_23  and  C_24 
ROOT
ATOM      1  C   UNL d   1       8.349   5.767 -11.920  0.00  0.00     0.001 A 
ATOM      2  C   UNL d   1       6.965   5.624 -11.568  0.00  0.00    -0.002 A 
ATOM      3  C   UNL d   1       6.150   4.709 -12.291  0.00  0.00    -0.000 A 
ATOM      4  C   UNL d   1       6.713   4.017 -13.370  0.00  0.00     0.002 A 
ATOM      5  C   UNL d   1       8.053   4.205 -13.770  0.00  0.00     0.024 A 
ATOM      6  C   UNL d   1       8.893   5.052 -13.018  0.00  0.00     0.090 A 
ENDROOT
BRANCH   6   7
ATOM      7  O   UNL d   1      10.241   5.222 -13.301  0.00  0.00    -0.331 OA
BRANCH   7   8
ATOM      8  C   UNL d   1      10.816   4.537 -14.418  0.00  0.00     0.151 C 
BRANCH   8   9
ATOM      9  C   UNL d   1      11.056   3.038 -14.105  0.00  0.00     0.068 C 
BRANCH   9  10
ATOM     10  C   UNL d   1      10.789   2.090 -15.300  0.00  0.00     0.253 C 
BRANCH  10  11
ATOM     11  N   UNL d   1       9.409   2.133 -15.742  0.00  0.00     0.141 N 
ATOM     12  C   UNL d   1       8.519   1.417 -14.773  0.00  0.00     0.275 C 
ATOM     13  C   UNL d   1       7.063   1.630 -15.236  0.00  0.00     0.155 C 
ATOM     14  N   UNL d   1       6.879   1.097 -16.561  0.00  0.00    -0.179 N 
ATOM     15  C   UNL d   1       7.770   1.709 -17.540  0.00  0.00     0.155 C 
ATOM     16  C   UNL d   1       9.227   1.564 -17.049  0.00  0.00     0.275 C 
BRANCH  14  17
ATOM     17  C   UNL d   1       5.856   0.194 -16.859  0.00  0.00     0.727 A 
ATOM     18  N   UNL d   1       5.300  -0.445 -15.828  0.00  0.00    -0.060 NA
ATOM     19  C   UNL d   1       4.357  -1.362 -16.091  0.00  0.00     0.120 A 
ATOM     20  C   UNL d   1       3.949  -1.625 -17.413  0.00  0.00     0.043 A 
ATOM     21  C   UNL d   1       4.574  -0.865 -18.422  0.00  0.00     0.120 A 
ATOM     22  N   UNL d   1       5.526   0.040 -18.141  0.00  0.00    -0.060 NA
ENDBRANCH  14  17
ENDBRANCH  10  11
ENDBRANCH   9  10
ENDBRANCH   8   9
ENDBRANCH   7   8
ENDBRANCH   6   7
BRANCH   1  23
ATOM     23  C   UNL d   1       9.196   6.725 -11.106  0.00  0.00     0.033 C 
BRANCH  23  24
ATOM     24  C   UNL d   1       9.278   6.301  -9.630  0.00  0.00     0.031 C 
BRANCH  24  25
ATOM     25  C   UNL d   1      10.178   7.223  -8.856  0.00  0.00    -0.020 A 
ATOM     26  C   UNL d   1      11.427   7.588  -9.398  0.00  0.00    -0.004 A 
ATOM     27  C   UNL d   1      12.272   8.436  -8.681  0.00  0.00     0.002 A 
ATOM     28  C   UNL d   1      11.887   8.930  -7.437  0.00  0.00     0.024 A 
ATOM     29  C   UNL d   1      10.640   8.583  -6.873  0.00  0.00     0.094 A 
ATOM     30  C   UNL d   1       9.774   7.726  -7.597  0.00  0.00     0.020 A 
BRANCH  29  31
ATOM     31  O   UNL d   1      10.259   9.066  -5.638  0.00  0.00    -0.328 OA
ATOM     32  C   UNL d   1      11.136   9.978  -4.985  0.00  0.00     0.181 C 
ENDBRANCH  29  31
ENDBRANCH  24  25
ENDBRANCH  23  24
ENDBRANCH   1  23
TORSDOF 10
