REMARK  8 active torsions:
REMARK  status: ('A' for Active; 'I' for Inactive)
REMARK    1  A    between atoms: C_2  and  C_3 
REMARK    2  A    between atoms: C_3  and  N_4 
REMARK    3  A    between atoms: N_4  and  C_5 
REMARK    4  A    between atoms: N_4  and  C_12 
REMARK    5  A    between atoms: C_5  and  C_6 
REMARK    6  A    between atoms: C_6  and  C_7 
REMARK    7  A    between atoms: C_20  and  O_21 
REMARK    8  A    between atoms: O_21  and  C_22 
ROOT
ATOM      1  C   UNL d   1       8.614   4.146 -12.750  0.00  0.00     0.224 C 
ATOM      2  C   UNL d   1       9.569   4.360 -13.947  0.00  0.00     0.038 C 
ATOM      3  C   UNL d   1       9.860   3.026 -14.661  0.00  0.00     0.030 C 
ATOM      4  C   UNL d   1       8.628   2.147 -14.896  0.00  0.00    -0.004 A 
ATOM      5  C   UNL d   1       7.442   2.353 -14.200  0.00  0.00    -0.022 A 
ATOM      6  C   UNL d   1       6.278   1.586 -14.429  0.00  0.00    -0.004 A 
ATOM      7  C   UNL d   1       6.333   0.541 -15.365  0.00  0.00     0.002 A 
ATOM      8  C   UNL d   1       7.532   0.292 -16.035  0.00  0.00     0.024 A 
ATOM      9  C   UNL d   1       8.700   1.086 -15.829  0.00  0.00     0.090 A 
ATOM     10  C   UNL d   1       7.315   3.505 -13.272  0.00  0.00     0.059 C 
ENDROOT
BRANCH   1  11
ATOM     11  N   UNL d   1       8.355   5.422 -12.040  0.00  0.00     0.136 N 
BRANCH  11  12
ATOM     12  C   UNL d   1       7.022   5.514 -11.424  0.00  0.00     0.250 C 
BRANCH  12  13
ATOM     13  C   UNL d   1       5.955   6.076 -12.357  0.00  0.00     0.035 C 
ATOM     14  C   UNL d   1       6.281   7.489 -12.850  0.00  0.00     0.002 C 
ENDBRANCH  12  13
ENDBRANCH  11  12
BRANCH  11  15
ATOM     15  C   UNL d   1       9.467   5.737 -11.123  0.00  0.00     0.255 C 
BRANCH  15  16
ATOM     16  C   UNL d   1       9.126   5.910  -9.606  0.00  0.00     0.068 C 
BRANCH  16  17
ATOM     17  C   UNL d   1      10.143   6.633  -8.825  0.00  0.00     0.009 C 
ATOM     18  S   UNL d   1      10.870   8.108  -9.429  0.00  0.00    -0.091 SA
ATOM     19  C   UNL d   1      11.671   8.357  -7.915  0.00  0.00     0.035 C 
ATOM     20  C   UNL d   1      11.295   7.428  -6.981  0.00  0.00     0.007 C 
ATOM     21  C   UNL d   1      10.395   6.457  -7.495  0.00  0.00     0.003 C 
ENDBRANCH  16  17
ENDBRANCH  15  16
ENDBRANCH  11  15
ENDBRANCH   1  11
BRANCH   9  22
ATOM     22  O   UNL d   1       9.900   0.899 -16.442  0.00  0.00    -0.334 OA
BRANCH  22  23
ATOM     23  C   UNL d   1       9.943   0.041 -17.565  0.00  0.00     0.121 C 
ATOM     24  C   UNL d   1       9.100   0.570 -18.730  0.00  0.00     0.030 C 
ATOM     25  C   UNL d   1       9.754  -0.009 -19.977  0.00  0.00     0.003 C 
ATOM     26  C   UNL d   1      11.235  -0.209 -19.629  0.00  0.00     0.003 C 
ATOM     27  C   UNL d   1      11.366  -0.000 -18.115  0.00  0.00     0.030 C 
ENDBRANCH  22  23
ENDBRANCH   9  22
TORSDOF 8
