REMARK  7 active torsions:
REMARK  status: ('A' for Active; 'I' for Inactive)
REMARK    1  A    between atoms: C_5  and  S_6 
REMARK    2  A    between atoms: S_6  and  N_9 
REMARK    3  A    between atoms: N_9  and  C_10 
REMARK    4  A    between atoms: C_13  and  C_14 
REMARK    5  A    between atoms: C_14  and  C_15 
REMARK    6  A    between atoms: C_15  and  N_16 
REMARK    7  A    between atoms: N_19  and  C_20 
ROOT
ATOM      1  C   UNL d   1       8.859   4.792 -10.615  0.00  0.00     0.035 C 
ENDROOT
BRANCH   1   2
ATOM      2  C   UNL d   1       8.923   5.968  -9.652  0.00  0.00     0.002 C 
ATOM      3  C   UNL d   1       9.225   5.521  -8.219  0.00  0.00     0.002 C 
ATOM      4  C   UNL d   1       9.240   6.719  -7.246  0.00  0.00     0.025 C 
ATOM      5  C   UNL d   1      10.262   7.746  -7.706  0.00  0.00     0.116 C 
ATOM      6  C   UNL d   1       9.998   8.233  -9.143  0.00  0.00     0.025 C 
ATOM      7  C   UNL d   1       9.931   7.047 -10.113  0.00  0.00     0.002 C 
BRANCH   5   8
ATOM      8  N   UNL d   1      10.241   8.892  -6.795  0.00  0.00    -0.185 NA
BRANCH   8   9
ATOM      9  S   UNL d   1      11.693   9.593  -6.306  0.00  0.00     0.299 S 
ATOM     10  O   UNL d   1      11.452  11.006  -6.027  0.00  0.00    -0.197 OA
ATOM     11  O   UNL d   1      12.693   9.184  -7.288  0.00  0.00    -0.197 OA
BRANCH   9  12
ATOM     12  C   UNL d   1      12.043   8.850  -4.757  0.00  0.00     0.204 A 
ATOM     13  N   UNL d   1      12.527   9.559  -3.664  0.00  0.00    -0.211 NA
ATOM     14  C   UNL d   1      12.632   8.653  -2.705  0.00  0.00     0.179 A 
ATOM     15  N   UNL d   1      12.266   7.426  -3.089  0.00  0.00    -0.306 N 
ATOM     16  C   UNL d   1      12.307   6.229  -2.297  0.00  0.00     0.132 C 
ATOM     17  C   UNL d   1      11.833   7.536  -4.405  0.00  0.00     0.110 A 
ENDBRANCH   9  12
ENDBRANCH   8   9
ENDBRANCH   5   8
ENDBRANCH   1   2
BRANCH   1  18
ATOM     18  C   UNL d   1       8.166   5.144 -11.949  0.00  0.00     0.250 C 
BRANCH  18  19
ATOM     19  N   UNL d   1       8.066   3.964 -12.791  0.00  0.00     0.141 N 
ATOM     20  C   UNL d   1       7.113   4.162 -13.882  0.00  0.00     0.274 C 
ATOM     21  C   UNL d   1       6.938   2.877 -14.750  0.00  0.00     0.137 C 
ATOM     22  N   UNL d   1       8.248   2.429 -15.233  0.00  0.00    -0.343 N 
ATOM     23  C   UNL d   1       9.250   2.275 -14.195  0.00  0.00     0.137 C 
ATOM     24  C   UNL d   1       9.366   3.569 -13.368  0.00  0.00     0.274 C 
BRANCH  22  25
ATOM     25  C   UNL d   1       8.563   2.264 -16.602  0.00  0.00     0.081 A 
ATOM     26  C   UNL d   1       9.832   2.603 -17.145  0.00  0.00     0.135 A 
ATOM     27  C   UNL d   1      10.144   2.394 -18.476  0.00  0.00     0.121 A 
ATOM     28  O   UNL d   1      10.892   3.187 -16.528  0.00  0.00    -0.298 OA
ATOM     29  C   UNL d   1       9.220   1.846 -19.372  0.00  0.00     0.026 A 
ATOM     30  O   UNL d   1      11.415   2.807 -18.704  0.00  0.00    -0.299 OA
ATOM     31  C   UNL d   1       7.944   1.507 -18.879  0.00  0.00     0.004 A 
ATOM     32  C   UNL d   1       7.615   1.714 -17.515  0.00  0.00     0.019 A 
ATOM     33  C   UNL d   1      11.906   3.282 -17.479  0.00  0.00     0.304 A 
ENDBRANCH  22  25
ENDBRANCH  18  19
ENDBRANCH   1  18
TORSDOF 7
