REMARK  6 active torsions:
REMARK  status: ('A' for Active; 'I' for Inactive)
REMARK    1  A    between atoms: C_3  and  O_4 
REMARK    2  A    between atoms: O_4  and  C_5 
REMARK    3  A    between atoms: C_5  and  C_6 
REMARK    4  A    between atoms: C_6  and  C_7 
REMARK    5  A    between atoms: C_7  and  N_8 
REMARK    6  A    between atoms: N_11  and  C_12 
ROOT
ATOM      1  N   UNL d   1       8.698   3.905 -13.354  0.00  0.00     0.141 N 
ATOM      2  C   UNL d   1       9.980   3.945 -14.052  0.00  0.00     0.274 C 
ATOM      3  C   UNL d   1       9.736   3.864 -15.559  0.00  0.00     0.137 C 
ATOM      4  N   UNL d   1       8.992   2.657 -15.894  0.00  0.00    -0.344 N 
ATOM      5  C   UNL d   1       7.777   2.428 -15.135  0.00  0.00     0.137 C 
ATOM      6  C   UNL d   1       8.060   2.613 -13.638  0.00  0.00     0.274 C 
ENDROOT
BRANCH   1   7
ATOM      7  C   UNL d   1       8.927   4.001 -11.911  0.00  0.00     0.253 C 
BRANCH   7   8
ATOM      8  C   UNL d   1       9.391   5.396 -11.464  0.00  0.00     0.068 C 
BRANCH   8   9
ATOM      9  C   UNL d   1       9.613   5.493  -9.948  0.00  0.00     0.151 C 
BRANCH   9  10
ATOM     10  O   UNL d   1      10.191   6.765  -9.676  0.00  0.00    -0.331 OA
BRANCH  10  11
ATOM     11  C   UNL d   1      10.395   7.143  -8.366  0.00  0.00     0.090 A 
ATOM     12  C   UNL d   1      10.948   8.426  -8.112  0.00  0.00     0.005 A 
ATOM     13  C   UNL d   1      11.303   9.318  -9.285  0.00  0.00     0.033 C 
ATOM     14  C   UNL d   1      11.155   8.808  -6.758  0.00  0.00     0.053 A 
ATOM     15  C   UNL d   1      10.897   7.939  -5.719  0.00  0.00     0.007 A 
ATOM     16  C   UNL d   1      11.624  10.087  -6.150  0.00  0.00     0.275 C 
ATOM     17  C   UNL d   1      10.329   6.686  -5.939  0.00  0.00    -0.000 A 
ATOM     18  C   UNL d   1      11.288   8.580  -4.410  0.00  0.00     0.155 C 
ATOM     19  C   UNL d   1      10.079   6.301  -7.273  0.00  0.00     0.024 A 
ATOM     20  N   UNL d   1      11.826   9.846  -4.854  0.00  0.00    -0.229 NA
ATOM     21  O   UNL d   1      11.804  11.165  -6.686  0.00  0.00    -0.266 OA
ENDBRANCH  10  11
ENDBRANCH   9  10
ENDBRANCH   8   9
ENDBRANCH   7   8
ENDBRANCH   1   7
BRANCH   4  22
ATOM     22  C   UNL d   1       9.439   1.740 -16.853  0.00  0.00     0.056 A 
ATOM     23  C   UNL d   1       9.747   2.150 -18.180  0.00  0.00     0.016 A 
ATOM     24  C   UNL d   1      10.207   1.189 -19.117  0.00  0.00     0.004 A 
ATOM     25  C   UNL d   1       9.582   3.492 -18.608  0.00  0.00     0.004 A 
ATOM     26  C   UNL d   1      10.346  -0.162 -18.742  0.00  0.00     0.000 A 
ATOM     27  C   UNL d   1      10.518   1.582 -20.434  0.00  0.00     0.030 A 
ATOM     28  C   UNL d   1      10.029  -0.568 -17.435  0.00  0.00     0.002 A 
ATOM     29  C   UNL d   1       9.575   0.375 -16.496  0.00  0.00     0.017 A 
ATOM     30  C   UNL d   1      10.377   2.925 -20.833  0.00  0.00     0.140 A 
ATOM     31  F   UNL d   1      10.684   3.300 -22.096  0.00  0.00    -0.204 F 
ATOM     32  C   UNL d   1       9.908   3.880 -19.915  0.00  0.00     0.030 A 
ENDBRANCH   4  22
TORSDOF 6
