REMARK  2 active torsions:
REMARK  status: ('A' for Active; 'I' for Inactive)
REMARK    1  A    between atoms: N_2  and  C_4 
REMARK    2  A    between atoms: C_4  and  C_5 
ROOT
ATOM      1  C   UNL d   1       6.717   0.368 -15.593  0.00  0.00     0.180 C 
ATOM      2  C   UNL d   1       6.690   0.802 -17.062  0.00  0.00     0.064 C 
ATOM      3  C   UNL d   1       7.972   1.603 -17.178  0.00  0.00     0.136 C 
ATOM      4  C   UNL d   1       9.207   0.815 -17.612  0.00  0.00     0.014 A 
ATOM      5  C   UNL d   1       9.213  -0.583 -17.806  0.00  0.00     0.000 A 
ATOM      6  C   UNL d   1      10.399  -1.204 -18.224  0.00  0.00     0.020 A 
ATOM      7  C   UNL d   1      11.541  -0.411 -18.437  0.00  0.00     0.099 A 
ATOM      8  N   UNL d   1      11.555   0.923 -18.245  0.00  0.00    -0.248 NA
ATOM      9  C   UNL d   1      10.411   1.512 -17.837  0.00  0.00     0.061 A 
ATOM     10  C   UNL d   1      10.477   2.996 -17.556  0.00  0.00     0.073 C 
ATOM     11  C   UNL d   1      10.348   3.262 -16.066  0.00  0.00     0.002 A 
ATOM     12  C   UNL d   1      11.431   3.894 -15.420  0.00  0.00    -0.002 A 
ATOM     13  C   UNL d   1      11.394   4.154 -14.040  0.00  0.00    -0.000 A 
ATOM     14  C   UNL d   1      10.253   3.802 -13.299  0.00  0.00     0.002 A 
ATOM     15  C   UNL d   1       9.172   3.169 -13.933  0.00  0.00     0.019 A 
ATOM     16  C   UNL d   1       9.200   2.867 -15.315  0.00  0.00     0.079 A 
ATOM     17  N   UNL d   1       8.063   2.233 -15.867  0.00  0.00    -0.237 N 
ATOM     18  O   UNL d   1       7.215   1.529 -14.942  0.00  0.00    -0.258 OA
ENDROOT
BRANCH   1  19
ATOM     19  C   UNL d   1       5.354  -0.051 -15.005  0.00  0.00     0.282 C 
BRANCH  19  20
ATOM     20  N   UNL d   1       4.606  -0.946 -15.883  0.00  0.00     0.144 N 
ATOM     21  C   UNL d   1       5.276  -2.228 -16.057  0.00  0.00     0.286 C 
ATOM     22  C   UNL d   1       3.277  -1.173 -15.340  0.00  0.00     0.286 C 
ENDBRANCH  19  20
ENDBRANCH   1  19
TORSDOF 2
