REMARK  2 active torsions:
REMARK  status: ('A' for Active; 'I' for Inactive)
REMARK    1  A    between atoms: N_5  and  C_6 
REMARK    2  A    between atoms: C_18  and  C_19 
ROOT
ATOM      1  C   UNL d   1       7.210  -0.034 -19.223  0.00  0.00     0.246 C 
ATOM      2  C   UNL d   1       6.454  -1.253 -19.843  0.00  0.00     0.065 C 
ATOM      3  C   UNL d   1       6.429  -2.508 -19.040  0.00  0.00    -0.014 A 
ATOM      4  C   UNL d   1       7.214  -3.624 -19.414  0.00  0.00    -0.004 A 
ATOM      5  C   UNL d   1       7.120  -4.823 -18.676  0.00  0.00    -0.000 A 
ATOM      6  C   UNL d   1       6.246  -4.902 -17.581  0.00  0.00     0.001 A 
ATOM      7  C   UNL d   1       5.444  -3.783 -17.211  0.00  0.00     0.006 A 
ATOM      8  C   UNL d   1       5.550  -2.597 -17.951  0.00  0.00     0.025 A 
ATOM      9  S   UNL d   1       4.596  -1.178 -17.520  0.00  0.00    -0.087 SA
ATOM     10  C   UNL d   1       5.914  -0.180 -16.899  0.00  0.00     0.027 A 
ATOM     11  C   UNL d   1       5.842   0.176 -15.539  0.00  0.00     0.006 A 
ATOM     12  C   UNL d   1       6.853   0.941 -14.945  0.00  0.00     0.001 A 
ATOM     13  C   UNL d   1       7.995   1.319 -15.690  0.00  0.00     0.001 A 
ATOM     14  C   UNL d   1       8.080   0.893 -17.026  0.00  0.00    -0.002 A 
ATOM     15  C   UNL d   1       7.040   0.205 -17.690  0.00  0.00     0.015 A 
ENDROOT
BRANCH   1  16
ATOM     16  N   UNL d   1       7.033   1.218 -20.000  0.00  0.00     0.144 N 
ATOM     17  C   UNL d   1       8.132   2.208 -19.865  0.00  0.00     0.286 C 
ATOM     18  C   UNL d   1       9.435   1.691 -20.537  0.00  0.00     0.286 C 
ATOM     19  N   UNL d   1       9.225   1.426 -21.968  0.00  0.00     0.143 N 
ATOM     20  C   UNL d   1      10.427   0.922 -22.602  0.00  0.00     0.285 C 
ATOM     21  C   UNL d   1       8.115   0.496 -22.142  0.00  0.00     0.286 C 
ATOM     22  C   UNL d   1       6.827   1.023 -21.458  0.00  0.00     0.286 C 
ENDBRANCH   1  16
BRANCH  13  23
ATOM     23  C   UNL d   1       9.048   2.166 -15.091  0.00  0.00     0.019 A 
ATOM     24  C   UNL d   1      10.394   2.067 -15.501  0.00  0.00     0.099 A 
ATOM     25  N   UNL d   1      11.405   2.805 -15.004  0.00  0.00    -0.242 NA
ATOM     26  C   UNL d   1      11.108   3.700 -14.029  0.00  0.00     0.099 A 
ATOM     27  C   UNL d   1       9.811   3.908 -13.557  0.00  0.00     0.021 A 
ATOM     28  C   UNL d   1       8.759   3.139 -14.101  0.00  0.00     0.003 A 
ENDBRANCH  13  23
TORSDOF 2
