REMARK  8 active torsions:
REMARK  status: ('A' for Active; 'I' for Inactive)
REMARK    1  A    between atoms: O_2  and  C_3 
REMARK    2  A    between atoms: C_10  and  C_11 
REMARK    3  A    between atoms: C_11  and  N_12 
REMARK    4  A    between atoms: N_12  and  C_13 
REMARK    5  A    between atoms: C_13  and  C_14 
REMARK    6  A    between atoms: C_14  and  C_15 
REMARK    7  A    between atoms: C_15  and  C_16 
REMARK    8  A    between atoms: C_16  and  N_17 
ROOT
ATOM      1  C   UNL d   1       9.240   5.152 -11.103  0.00  0.00     0.290 C 
ENDROOT
BRANCH   1   2
ATOM      2  N   UNL d   1       9.795   6.258 -10.344  0.00  0.00     0.339 N 
BRANCH   2   3
ATOM      3  C   UNL d   1       9.880   5.892  -8.941  0.00  0.00     0.293 C 
BRANCH   3   4
ATOM      4  C   UNL d   1      10.403   7.079  -8.121  0.00  0.00     0.071 C 
ATOM      5  C   UNL d   1      10.790   6.632  -6.701  0.00  0.00     0.035 C 
ATOM      6  C   UNL d   1      10.975   7.802  -5.746  0.00  0.00     0.022 A 
ATOM      7  C   UNL d   1      11.590   7.619  -4.481  0.00  0.00     0.092 A 
ATOM      8  C   UNL d   1      10.510   9.086  -6.133  0.00  0.00     0.092 A 
ATOM      9  C   UNL d   1      11.767   8.734  -3.632  0.00  0.00     0.024 A 
ATOM     10  C   UNL d   1      11.316   9.985  -4.015  0.00  0.00     0.004 A 
ATOM     11  C   UNL d   1      10.695  10.178  -5.259  0.00  0.00     0.024 A 
ATOM     12  O   UNL d   1       9.897   9.324  -7.346  0.00  0.00    -0.331 OA
ATOM     13  C   UNL d   1       9.359   8.204  -8.028  0.00  0.00     0.151 C 
BRANCH   7  14
ATOM     14  O   UNL d   1      11.982   6.357  -4.124  0.00  0.00    -0.328 OA
ATOM     15  C   UNL d   1      12.641   6.212  -2.882  0.00  0.00     0.181 C 
ENDBRANCH   7  14
ENDBRANCH   3   4
ENDBRANCH   2   3
ENDBRANCH   1   2
BRANCH   1  16
ATOM     16  C   UNL d   1       9.036   5.572 -12.569  0.00  0.00     0.040 C 
BRANCH  16  17
ATOM     17  C   UNL d   1       8.498   4.415 -13.434  0.00  0.00     0.027 C 
BRANCH  17  18
ATOM     18  C   UNL d   1       9.525   3.283 -13.708  0.00  0.00     0.112 C 
BRANCH  18  19
ATOM     19  N   UNL d   1      10.357   3.547 -14.901  0.00  0.00    -0.271 N 
ATOM     20  C   UNL d   1      11.590   4.102 -14.729  0.00  0.00     0.239 C 
ATOM     21  C   UNL d   1      12.489   4.379 -15.926  0.00  0.00     0.089 C 
ATOM     22  O   UNL d   1      12.046   4.391 -13.632  0.00  0.00    -0.272 OA
ATOM     23  C   UNL d   1      11.714   4.596 -17.219  0.00  0.00     0.018 C 
ATOM     24  C   UNL d   1      10.695   3.454 -17.389  0.00  0.00     0.089 C 
ATOM     25  C   UNL d   1      11.007   5.968 -17.279  0.00  0.00     0.001 C 
ATOM     26  C   UNL d   1      12.727   4.650 -18.366  0.00  0.00     0.001 C 
ATOM     27  C   UNL d   1       9.858   3.220 -16.128  0.00  0.00     0.239 C 
ATOM     28  O   UNL d   1       8.742   2.726 -16.279  0.00  0.00    -0.272 OA
ATOM     29  C   UNL d   1      10.968   6.330 -18.762  0.00  0.00     0.000 C 
ATOM     30  C   UNL d   1      12.169   5.618 -19.409  0.00  0.00     0.000 C 
ENDBRANCH  18  19
ENDBRANCH  17  18
ENDBRANCH  16  17
ENDBRANCH   1  16
TORSDOF 8
