REMARK  3 active torsions:
REMARK  status: ('A' for Active; 'I' for Inactive)
REMARK    1  A    between atoms: N_12  and  C_13 
REMARK    2  A    between atoms: C_13  and  C_14 
REMARK    3  A    between atoms: C_14  and  C_15 
ROOT
ATOM      1  O   UNL d   1      11.459  10.644  -6.650  0.00  0.00    -0.190 OA
ATOM      2  C   UNL d   1      10.970   9.416  -7.021  0.00  0.00     0.131 A 
ATOM      3  C   UNL d   1      10.706   8.468  -6.023  0.00  0.00     0.027 A 
ATOM      4  C   UNL d   1      10.166   7.222  -6.379  0.00  0.00    -0.002 A 
ATOM      5  C   UNL d   1       9.882   6.931  -7.731  0.00  0.00    -0.024 A 
ATOM      6  C   UNL d   1      10.146   7.878  -8.736  0.00  0.00     0.005 A 
ATOM      7  C   UNL d   1      10.708   9.121  -8.379  0.00  0.00     0.025 A 
ATOM      8  C   UNL d   1       9.892   7.549 -10.202  0.00  0.00     0.169 C 
ATOM      9  O   UNL d   1       9.463   8.694 -10.929  0.00  0.00    -0.348 OA
ATOM     10  C   UNL d   1       9.261   8.431 -12.308  0.00  0.00     0.178 C 
ATOM     11  C   UNL d   1       8.337   7.232 -12.525  0.00  0.00     0.282 C 
ATOM     12  N   UNL d   1       8.835   6.023 -11.880  0.00  0.00     0.141 N 
ATOM     13  C   UNL d   1       8.949   6.318 -10.453  0.00  0.00     0.251 C 
ATOM     14  C   UNL d   1       9.347   5.188  -9.537  0.00  0.00     0.041 C 
ATOM     15  C   UNL d   1       9.261   5.605  -8.085  0.00  0.00     0.028 C 
ENDROOT
BRANCH  12  16
ATOM     16  C   UNL d   1       7.931   4.911 -12.178  0.00  0.00     0.255 C 
BRANCH  16  17
ATOM     17  C   UNL d   1       7.980   4.444 -13.637  0.00  0.00     0.062 C 
BRANCH  17  18
ATOM     18  C   UNL d   1       7.295   3.104 -13.857  0.00  0.00    -0.020 A 
ATOM     19  C   UNL d   1       6.045   2.832 -13.280  0.00  0.00    -0.004 A 
ATOM     20  C   UNL d   1       5.466   1.546 -13.408  0.00  0.00    -0.000 A 
ATOM     21  C   UNL d   1       6.130   0.553 -14.165  0.00  0.00    -0.000 A 
ATOM     22  C   UNL d   1       7.376   0.825 -14.747  0.00  0.00    -0.000 A 
ATOM     23  C   UNL d   1       7.969   2.097 -14.587  0.00  0.00    -0.004 A 
ENDBRANCH  17  18
ENDBRANCH  16  17
ENDBRANCH  12  16
TORSDOF 3
