REMARK  2 active torsions:
REMARK  status: ('A' for Active; 'I' for Inactive)
REMARK    1  A    between atoms: N_13  and  C_14 
REMARK    2  A    between atoms: C_14  and  C_15 
ROOT
ATOM      1  N   UNL d   1       9.241   6.116 -13.097  0.00  0.00    -0.120 N 
ATOM      2  C   UNL d   1       9.313   6.486 -11.793  0.00  0.00     0.215 A 
ATOM      3  N   UNL d   1       9.688   7.700 -11.374  0.00  0.00    -0.219 NA
ATOM      4  C   UNL d   1       9.857   7.662 -10.006  0.00  0.00     0.089 A 
ATOM      5  C   UNL d   1      10.339   8.677  -9.136  0.00  0.00     0.015 A 
ATOM      6  C   UNL d   1      10.426   8.452  -7.741  0.00  0.00    -0.022 A 
ATOM      7  C   UNL d   1      10.053   7.218  -7.197  0.00  0.00    -0.024 A 
ATOM      8  C   UNL d   1       9.603   6.188  -8.039  0.00  0.00     0.004 A 
ATOM      9  C   UNL d   1       9.524   6.413  -9.407  0.00  0.00     0.050 A 
ATOM     10  S   UNL d   1       9.036   5.239 -10.595  0.00  0.00    -0.045 SA
ATOM     11  C   UNL d   1      10.052   7.019  -5.701  0.00  0.00     0.061 C 
ATOM     12  C   UNL d   1      11.420   7.172  -5.056  0.00  0.00     0.255 C 
ATOM     13  N   UNL d   1      11.741   8.569  -4.787  0.00  0.00     0.147 N 
ATOM     14  C   UNL d   1      12.074   9.313  -5.999  0.00  0.00     0.255 C 
ATOM     15  C   UNL d   1      10.841   9.581  -6.821  0.00  0.00     0.061 C 
ENDROOT
BRANCH  13  16
ATOM     16  C   UNL d   1      12.876   8.602  -3.886  0.00  0.00     0.352 C 
BRANCH  16  17
ATOM     17  C   UNL d   1      12.453   8.660  -2.415  0.00  0.00     0.429 C 
ATOM     18  F   UNL d   1      13.433   8.791  -1.520  0.00  0.00    -0.168 F 
ATOM     19  F   UNL d   1      11.824   9.833  -2.359  0.00  0.00    -0.168 F 
ATOM     20  F   UNL d   1      11.687   7.630  -2.072  0.00  0.00    -0.168 F 
ENDBRANCH  16  17
ENDBRANCH  13  16
TORSDOF 2
