REMARK  5 active torsions:
REMARK  status: ('A' for Active; 'I' for Inactive)
REMARK    1  A    between atoms: C_2  and  C_4 
REMARK    2  A    between atoms: C_7  and  S_8 
REMARK    3  A    between atoms: S_8  and  C_11 
REMARK    4  A    between atoms: C_17  and  N_18 
REMARK    5  A    between atoms: N_18  and  C_19 
ROOT
ATOM      1  C   UNL d   1      10.029   2.068 -16.704  0.00  0.00     0.192 A 
ATOM      2  N   UNL d   1      11.086   2.775 -17.028  0.00  0.00    -0.136 NA
ATOM      3  N   UNL d   1      10.949   3.008 -18.361  0.00  0.00    -0.147 NA
ATOM      4  C   UNL d   1       9.786   2.483 -18.909  0.00  0.00     0.105 A 
ATOM      5  C   UNL d   1       9.233   2.475 -20.201  0.00  0.00     0.022 A 
ATOM      6  C   UNL d   1       8.003   1.824 -20.415  0.00  0.00     0.020 A 
ATOM      7  C   UNL d   1       7.326   1.198 -19.343  0.00  0.00     0.076 A 
ATOM      8  C   UNL d   1       7.891   1.241 -18.048  0.00  0.00     0.022 A 
ATOM      9  C   UNL d   1       9.137   1.864 -17.806  0.00  0.00     0.051 A 
ENDROOT
BRANCH   1  10
ATOM     10  S   UNL d   1       9.740   1.460 -15.063  0.00  0.00     0.228 S 
ATOM     11  O   UNL d   1      11.056   1.190 -14.469  0.00  0.00    -0.216 OA
ATOM     12  O   UNL d   1       8.735   0.389 -15.151  0.00  0.00    -0.216 OA
BRANCH  10  13
ATOM     13  C   UNL d   1       9.003   2.841 -14.210  0.00  0.00     0.089 A 
ATOM     14  C   UNL d   1       9.816   3.769 -13.532  0.00  0.00     0.011 A 
ATOM     15  C   UNL d   1       9.219   4.829 -12.821  0.00  0.00    -0.004 A 
ATOM     16  C   UNL d   1       7.812   4.980 -12.805  0.00  0.00    -0.022 A 
ATOM     17  C   UNL d   1       7.012   4.044 -13.511  0.00  0.00    -0.004 A 
ATOM     18  C   UNL d   1       7.604   2.984 -14.215  0.00  0.00     0.011 A 
BRANCH  16  19
ATOM     19  C   UNL d   1       7.195   6.132 -12.008  0.00  0.00     0.022 C 
ATOM     20  C   UNL d   1       5.685   5.973 -11.786  0.00  0.00     0.005 C 
ATOM     21  C   UNL d   1       7.504   7.497 -12.643  0.00  0.00     0.005 C 
ENDBRANCH  16  19
ENDBRANCH  10  13
ENDBRANCH   1  10
BRANCH   7  22
ATOM     22  N   UNL d   1       6.104   0.564 -19.608  0.00  0.00    -0.273 NA
BRANCH  22  23
ATOM     23  C   UNL d   1       5.490  -0.337 -18.638  0.00  0.00     0.108 C 
ATOM     24  C   UNL d   1       4.062  -0.693 -19.070  0.00  0.00     0.062 C 
ATOM     25  C   UNL d   1       3.443  -1.710 -18.100  0.00  0.00     0.292 C 
ATOM     26  N   UNL d   1       4.247  -2.921 -18.037  0.00  0.00     0.339 N 
ATOM     27  C   UNL d   1       5.569  -2.612 -17.513  0.00  0.00     0.292 C 
ATOM     28  C   UNL d   1       6.296  -1.640 -18.454  0.00  0.00     0.062 C 
ENDBRANCH  22  23
ENDBRANCH   7  22
TORSDOF 5
