REMARK  1 active torsions:
REMARK  status: ('A' for Active; 'I' for Inactive)
REMARK    1  A    between atoms: O_2  and  C_3 
ROOT
ATOM      1  C   UNL d   1       6.527   0.389 -14.995  0.00  0.00     0.119 A 
ATOM      2  C   UNL d   1       5.772   1.165 -14.103  0.00  0.00     0.022 A 
ATOM      3  C   UNL d   1       6.257   2.393 -13.639  0.00  0.00    -0.020 A 
ATOM      4  C   UNL d   1       7.550   2.810 -14.047  0.00  0.00     0.007 A 
ATOM      5  C   UNL d   1       8.360   2.088 -14.968  0.00  0.00     0.025 A 
ATOM      6  C   UNL d   1       7.804   0.842 -15.386  0.00  0.00     0.153 A 
ATOM      7  O   UNL d   1       8.512  -0.012 -16.179  0.00  0.00    -0.188 OA
ATOM      8  C   UNL d   1       9.698   2.594 -15.370  0.00  0.00    -0.001 A 
ATOM      9  C   UNL d   1      10.325   2.262 -16.597  0.00  0.00     0.014 A 
ATOM     10  C   UNL d   1      11.600   2.756 -16.926  0.00  0.00     0.070 A 
ATOM     11  N   UNL d   1      12.198   2.406 -18.136  0.00  0.00    -0.101 NA
ATOM     12  C   UNL d   1      12.271   3.608 -16.032  0.00  0.00     0.014 A 
ATOM     13  C   UNL d   1      11.656   3.977 -14.824  0.00  0.00    -0.003 A 
ATOM     14  C   UNL d   1      10.373   3.485 -14.506  0.00  0.00    -0.020 A 
ATOM     15  C   UNL d   1       9.671   3.963 -13.254  0.00  0.00     0.064 C 
ATOM     16  C   UNL d   1       8.149   4.124 -13.494  0.00  0.00     0.246 C 
ATOM     17  N   UNL d   1       7.495   4.637 -12.284  0.00  0.00     0.142 N 
ATOM     18  C   UNL d   1       7.937   5.987 -11.933  0.00  0.00     0.286 C 
ATOM     19  C   UNL d   1       6.064   4.703 -12.533  0.00  0.00     0.255 C 
ATOM     20  C   UNL d   1       5.545   3.272 -12.619  0.00  0.00     0.061 C 
ENDROOT
BRANCH   1  21
ATOM     21  O   UNL d   1       6.080  -0.801 -15.528  0.00  0.00    -0.326 OA
ATOM     22  C   UNL d   1       4.793  -1.281 -15.153  0.00  0.00     0.181 C 
ENDBRANCH   1  21
TORSDOF 1
