REMARK  4 active torsions:
REMARK  status: ('A' for Active; 'I' for Inactive)
REMARK    1  A    between atoms: O_2  and  C_3 
REMARK    2  A    between atoms: C_6  and  S_7 
REMARK    3  A    between atoms: S_7  and  N_10 
REMARK    4  A    between atoms: C_21  and  N_22 
ROOT
ATOM      1  C   UNL d   1       6.454   2.179 -14.199  0.00  0.00     0.110 A 
ATOM      2  C   UNL d   1       5.743   3.224 -13.548  0.00  0.00     0.026 A 
ATOM      3  C   UNL d   1       6.403   4.380 -13.102  0.00  0.00     0.015 A 
ATOM      4  C   UNL d   1       7.792   4.443 -13.262  0.00  0.00     0.105 A 
ATOM      5  C   UNL d   1       8.512   3.408 -13.896  0.00  0.00     0.032 A 
ATOM      6  C   UNL d   1       7.850   2.276 -14.391  0.00  0.00     0.080 A 
ENDROOT
BRANCH   4   7
ATOM      7  S   UNL d   1       8.730   5.783 -12.633  0.00  0.00     0.268 S 
ATOM      8  O   UNL d   1      10.056   5.606 -13.194  0.00  0.00    -0.200 OA
ATOM      9  O   UNL d   1       7.937   7.010 -12.832  0.00  0.00    -0.200 OA
BRANCH   7  10
ATOM     10  N   UNL d   1       8.820   5.462 -10.909  0.00  0.00    -0.254 N 
ATOM     11  C   UNL d   1       9.547   6.117  -9.903  0.00  0.00     0.067 A 
ATOM     12  C   UNL d   1       9.133   5.834  -8.606  0.00  0.00    -0.004 A 
ATOM     13  C   UNL d   1      10.601   6.949 -10.073  0.00  0.00     0.023 A 
ATOM     14  C   UNL d   1       7.902   5.052  -8.654  0.00  0.00     0.053 C 
ATOM     15  C   UNL d   1       9.820   6.329  -7.497  0.00  0.00    -0.002 A 
ATOM     16  C   UNL d   1       7.660   5.007 -10.210  0.00  0.00     0.123 C 
ATOM     17  C   UNL d   1      10.966   7.098  -7.670  0.00  0.00     0.006 A 
ATOM     18  C   UNL d   1      11.393   7.423  -8.991  0.00  0.00     0.032 A 
ATOM     19  I   UNL d   1      13.200   8.295  -9.340  0.00  0.00    -0.043 I 
ENDBRANCH   7  10
ENDBRANCH   4   7
BRANCH   6  20
ATOM     20  N   UNL d   1       8.609   1.273 -15.023  0.00  0.00    -0.343 N 
ATOM     21  C   UNL d   1       9.928   0.875 -14.541  0.00  0.00     0.140 C 
ATOM     22  C   UNL d   1      10.891   0.832 -15.735  0.00  0.00     0.314 C 
ATOM     23  N   UNL d   1      10.391  -0.062 -16.781  0.00  0.00     0.343 N 
ATOM     24  C   UNL d   1       9.111   0.442 -17.264  0.00  0.00     0.314 C 
ATOM     25  C   UNL d   1       8.090   0.483 -16.129  0.00  0.00     0.140 C 
ENDBRANCH   6  20
BRANCH   1  26
ATOM     26  O   UNL d   1       5.796   1.095 -14.713  0.00  0.00    -0.327 OA
ATOM     27  C   UNL d   1       4.899   0.406 -13.868  0.00  0.00     0.181 C 
ENDBRANCH   1  26
TORSDOF 4
