REMARK  6 active torsions:
REMARK  status: ('A' for Active; 'I' for Inactive)
REMARK    1  A    between atoms: N_3  and  C_4 
REMARK    2  A    between atoms: C_4  and  C_5 
REMARK    3  A    between atoms: C_5  and  C_6 
REMARK    4  A    between atoms: C_6  and  C_7 
REMARK    5  A    between atoms: C_7  and  N_8 
REMARK    6  A    between atoms: N_11  and  C_12 
ROOT
ATOM      1  C   UNL d   1       9.074   3.370 -15.195  0.00  0.00     0.251 C 
ENDROOT
BRANCH   1   2
ATOM      2  C   UNL d   1       7.980   2.336 -15.508  0.00  0.00     0.037 C 
BRANCH   2   3
ATOM      3  C   UNL d   1       8.104   1.754 -16.901  0.00  0.00     0.029 C 
BRANCH   3   4
ATOM      4  C   UNL d   1       6.919   0.828 -17.201  0.00  0.00     0.133 C 
BRANCH   4   5
ATOM      5  N   UNL d   1       6.974   0.353 -18.573  0.00  0.00    -0.201 N 
ATOM      6  C   UNL d   1       7.755  -0.624 -19.053  0.00  0.00     0.352 A 
ATOM      7  O   UNL d   1       8.579  -1.311 -18.449  0.00  0.00    -0.244 OA
ATOM      8  N   UNL d   1       7.440  -0.670 -20.340  0.00  0.00    -0.237 N 
ATOM      9  C   UNL d   1       6.477   0.298 -20.586  0.00  0.00     0.199 A 
ATOM     10  C   UNL d   1       7.971  -1.519 -21.315  0.00  0.00     0.116 A 
ATOM     11  N   UNL d   1       6.184   0.945 -19.510  0.00  0.00    -0.145 NA
ATOM     12  C   UNL d   1       6.011   0.390 -21.959  0.00  0.00     0.178 A 
ATOM     13  F   UNL d   1       5.084   1.303 -22.292  0.00  0.00    -0.201 F 
ATOM     14  C   UNL d   1       6.513  -0.433 -22.909  0.00  0.00     0.064 A 
ATOM     15  C   UNL d   1       7.530  -1.422 -22.582  0.00  0.00     0.160 A 
ATOM     16  F   UNL d   1       8.026  -2.229 -23.533  0.00  0.00    -0.203 F 
ENDBRANCH   4   5
ENDBRANCH   3   4
ENDBRANCH   2   3
ENDBRANCH   1   2
BRANCH   1  17
ATOM     17  N   UNL d   1       8.578   4.399 -14.287  0.00  0.00     0.141 N 
ATOM     18  C   UNL d   1       9.750   5.136 -13.779  0.00  0.00     0.274 C 
ATOM     19  C   UNL d   1       9.293   6.277 -12.834  0.00  0.00     0.137 C 
ATOM     20  N   UNL d   1       8.527   5.737 -11.744  0.00  0.00    -0.344 N 
ATOM     21  C   UNL d   1       7.352   4.986 -12.193  0.00  0.00     0.137 C 
ATOM     22  C   UNL d   1       7.859   3.866 -13.114  0.00  0.00     0.274 C 
BRANCH  20  23
ATOM     23  C   UNL d   1       8.861   6.066 -10.419  0.00  0.00     0.057 C 
ATOM     24  C   UNL d   1       9.613   7.236 -10.011  0.00  0.00     0.022 A 
ATOM     25  C   UNL d   1       9.869   7.406  -8.604  0.00  0.00     0.031 A 
ATOM     26  C   UNL d   1      10.191   8.340 -10.762  0.00  0.00     0.009 A 
ATOM     27  C   UNL d   1       9.304   6.557  -7.642  0.00  0.00     0.007 C 
ATOM     28  S   UNL d   1      10.874   8.803  -8.259  0.00  0.00    -0.086 SA
ATOM     29  C   UNL d   1       8.471   5.527  -8.085  0.00  0.00     0.002 C 
ATOM     30  C   UNL d   1       8.357   5.214  -9.425  0.00  0.00     0.017 C 
ATOM     31  C   UNL d   1      10.941   9.171  -9.961  0.00  0.00     0.035 A 
ENDBRANCH  20  23
ENDBRANCH   1  17
TORSDOF 6
