REMARK  8 active torsions:
REMARK  status: ('A' for Active; 'I' for Inactive)
REMARK    1  A    between atoms: C_3  and  S_4 
REMARK    2  A    between atoms: S_4  and  C_5 
REMARK    3  A    between atoms: C_5  and  C_6 
REMARK    4  A    between atoms: C_6  and  C_7 
REMARK    5  A    between atoms: C_7  and  N_8 
REMARK    6  A    between atoms: C_12  and  C_13 
REMARK    7  A    between atoms: C_16  and  C_17 
REMARK    8  A    between atoms: C_26  and  C_27 
ROOT
ATOM      1  N   UNL d   1       7.659   4.278 -12.789  0.00  0.00     0.137 N 
ATOM      2  C   UNL d   1       6.383   4.974 -12.657  0.00  0.00     0.251 C 
ATOM      3  C   UNL d   1       6.730   6.239 -11.919  0.00  0.00     0.039 A 
ATOM      4  C   UNL d   1       7.197   7.535 -12.574  0.00  0.00     0.008 A 
ATOM      5  C   UNL d   1       8.193   6.480 -12.120  0.00  0.00     0.052 A 
ATOM      6  C   UNL d   1       8.657   5.349 -13.007  0.00  0.00     0.254 C 
ENDROOT
BRANCH   1   7
ATOM      7  C   UNL d   1       7.579   3.240 -13.821  0.00  0.00     0.251 C 
BRANCH   7   8
ATOM      8  C   UNL d   1       8.974   2.613 -14.046  0.00  0.00     0.047 C 
BRANCH   8   9
ATOM      9  C   UNL d   1       9.111   1.834 -15.369  0.00  0.00     0.067 C 
BRANCH   9  10
ATOM     10  S   UNL d   1      10.863   1.404 -15.735  0.00  0.00    -0.075 SA
BRANCH  10  11
ATOM     11  C   UNL d   1      11.726   2.946 -15.678  0.00  0.00     0.193 A 
ATOM     12  N   UNL d   1      12.467   3.388 -16.716  0.00  0.00    -0.289 N 
ATOM     13  C   UNL d   1      12.805   2.682 -17.975  0.00  0.00     0.134 C 
ATOM     14  C   UNL d   1      12.842   4.620 -16.275  0.00  0.00     0.169 A 
ATOM     15  N   UNL d   1      12.379   4.872 -15.053  0.00  0.00    -0.128 NA
ATOM     16  N   UNL d   1      11.729   3.768 -14.623  0.00  0.00    -0.122 NA
BRANCH  14  17
ATOM     17  C   UNL d   1      13.711   5.581 -16.981  0.00  0.00     0.059 A 
ATOM     18  C   UNL d   1      14.931   5.183 -17.579  0.00  0.00     0.125 A 
ATOM     19  N   UNL d   1      15.737   6.062 -18.218  0.00  0.00    -0.146 NA
ATOM     20  N   UNL d   1      15.397   7.359 -18.273  0.00  0.00    -0.146 NA
ATOM     21  C   UNL d   1      14.274   7.806 -17.654  0.00  0.00     0.122 A 
ATOM     22  C   UNL d   1      13.384   6.948 -16.984  0.00  0.00     0.027 A 
ENDBRANCH  14  17
ENDBRANCH  10  11
ENDBRANCH   9  10
ENDBRANCH   8   9
ENDBRANCH   7   8
ENDBRANCH   1   7
BRANCH   5  23
ATOM     23  C   UNL d   1       9.075   6.723 -10.933  0.00  0.00    -0.021 A 
ATOM     24  C   UNL d   1       9.855   7.902 -10.845  0.00  0.00    -0.004 A 
ATOM     25  C   UNL d   1      10.626   8.173  -9.699  0.00  0.00     0.004 A 
ATOM     26  C   UNL d   1      10.609   7.271  -8.616  0.00  0.00     0.071 A 
ATOM     27  C   UNL d   1       9.833   6.099  -8.693  0.00  0.00     0.004 A 
ATOM     28  C   UNL d   1       9.080   5.821  -9.848  0.00  0.00    -0.004 A 
BRANCH  26  29
ATOM     29  C   UNL d   1      11.428   7.558  -7.372  0.00  0.00     0.419 C 
ATOM     30  F   UNL d   1      10.704   8.223  -6.477  0.00  0.00    -0.166 F 
ATOM     31  F   UNL d   1      11.824   6.406  -6.822  0.00  0.00    -0.166 F 
ATOM     32  F   UNL d   1      12.495   8.290  -7.695  0.00  0.00    -0.166 F 
ENDBRANCH  26  29
ENDBRANCH   5  23
TORSDOF 8
