REMARK  12 active torsions:
REMARK  status: ('A' for Active; 'I' for Inactive)
REMARK    1  A    between atoms: C_2  and  C_3 
REMARK    2  A    between atoms: C_3  and  N_4 
REMARK    3  A    between atoms: N_4  and  C_5 
REMARK    4  A    between atoms: N_4  and  C_21 
REMARK    5  A    between atoms: C_5  and  C_6 
REMARK    6  A    between atoms: C_6  and  C_7 
REMARK    7  A    between atoms: C_7  and  S_8 
REMARK    8  A    between atoms: S_8  and  C_9 
REMARK    9  A    between atoms: C_12  and  C_13 
REMARK   10  A    between atoms: C_21  and  C_22 
REMARK   11  A    between atoms: C_24  and  C_25 
REMARK   12  A    between atoms: C_31  and  O_32 
ROOT
ATOM      1  N   UNL d   1       9.996   0.880 -16.574  0.00  0.00     0.137 N 
ENDROOT
BRANCH   1   2
ATOM      2  C   UNL d   1      10.390  -0.415 -17.112  0.00  0.00     0.250 C 
BRANCH   2   3
ATOM      3  C   UNL d   1      11.526  -0.340 -18.174  0.00  0.00     0.035 C 
ATOM      4  C   UNL d   1      11.051   0.305 -19.491  0.00  0.00     0.002 C 
ENDBRANCH   2   3
ENDBRANCH   1   2
BRANCH   1   5
ATOM      5  C   UNL d   1       8.834   0.718 -15.681  0.00  0.00     0.251 C 
BRANCH   5   6
ATOM      6  C   UNL d   1       8.106   2.085 -15.512  0.00  0.00     0.047 C 
BRANCH   6   7
ATOM      7  C   UNL d   1       6.908   1.974 -14.511  0.00  0.00     0.067 C 
BRANCH   7   8
ATOM      8  S   UNL d   1       6.313   3.548 -13.797  0.00  0.00    -0.075 SA
BRANCH   8   9
ATOM      9  C   UNL d   1       7.685   4.091 -12.871  0.00  0.00     0.193 A 
ATOM     10  N   UNL d   1       7.585   5.095 -11.991  0.00  0.00    -0.289 N 
ATOM     11  C   UNL d   1       8.853   5.256 -11.599  0.00  0.00     0.167 A 
ATOM     12  C   UNL d   1       6.396   5.775 -11.471  0.00  0.00     0.134 C 
ATOM     13  N   UNL d   1       9.689   4.425 -12.207  0.00  0.00    -0.128 NA
ATOM     14  N   UNL d   1       8.913   3.631 -12.976  0.00  0.00    -0.122 NA
BRANCH  11  15
ATOM     15  C   UNL d   1       9.325   6.155 -10.559  0.00  0.00     0.036 A 
ATOM     16  C   UNL d   1       9.813   7.428 -10.897  0.00  0.00     0.003 A 
ATOM     17  C   UNL d   1      10.354   8.258  -9.909  0.00  0.00     0.000 A 
ATOM     18  C   UNL d   1      10.401   7.807  -8.571  0.00  0.00     0.000 A 
ATOM     19  C   UNL d   1       9.954   6.503  -8.236  0.00  0.00     0.000 A 
ATOM     20  C   UNL d   1       9.429   5.672  -9.233  0.00  0.00     0.003 A 
ENDBRANCH  11  15
ENDBRANCH   8   9
ENDBRANCH   7   8
ENDBRANCH   6   7
ENDBRANCH   5   6
ENDBRANCH   1   5
BRANCH   1  21
ATOM     21  C   UNL d   1      11.127   1.584 -15.926  0.00  0.00     0.251 C 
BRANCH  21  22
ATOM     22  C   UNL d   1      11.066   3.035 -16.310  0.00  0.00     0.038 A 
ATOM     23  C   UNL d   1      12.240   3.966 -16.053  0.00  0.00     0.026 A 
ATOM     24  C   UNL d   1      11.039   4.045 -15.152  0.00  0.00     0.007 A 
BRANCH  23  25
ATOM     25  C   UNL d   1      12.671   5.079 -16.935  0.00  0.00     0.001 A 
ATOM     26  C   UNL d   1      11.714   5.856 -17.656  0.00  0.00     0.090 A 
ATOM     27  C   UNL d   1      12.176   6.905 -18.494  0.00  0.00     0.025 A 
ATOM     28  C   UNL d   1      13.553   7.184 -18.596  0.00  0.00     0.013 A 
ATOM     29  C   UNL d   1      14.498   6.423 -17.869  0.00  0.00     0.058 A 
ATOM     30  C   UNL d   1      14.047   5.384 -17.035  0.00  0.00     0.009 A 
ATOM     31 CL   UNL d   1      16.185   6.739 -18.037  0.00  0.00    -0.082 Cl
BRANCH  26  32
ATOM     32  O   UNL d   1      10.374   5.551 -17.490  0.00  0.00    -0.328 OA
ATOM     33  C   UNL d   1       9.423   6.164 -18.312  0.00  0.00     0.181 C 
ENDBRANCH  26  32
ENDBRANCH  23  25
ENDBRANCH  21  22
ENDBRANCH   1  21
TORSDOF 12
