REMARK  4 active torsions:
REMARK  status: ('A' for Active; 'I' for Inactive)
REMARK    1  A    between atoms: C_10  and  C_11 
REMARK    2  A    between atoms: C_11  and  N_12 
REMARK    3  A    between atoms: C_15  and  C_16 
REMARK    4  A    between atoms: C_16  and  C_18 
ROOT
ATOM      1  N   UNL d   1       9.072   5.932 -12.243  0.00  0.00     0.137 N 
ATOM      2  C   UNL d   1       9.329   5.364 -10.914  0.00  0.00     0.251 C 
ATOM      3  C   UNL d   1      10.271   6.255 -10.108  0.00  0.00     0.043 C 
ATOM      4  C   UNL d   1       9.638   7.637  -9.853  0.00  0.00     0.066 C 
ATOM      5  C   UNL d   1       9.196   8.196 -11.244  0.00  0.00     0.043 C 
ATOM      6  C   UNL d   1       8.345   7.187 -12.064  0.00  0.00     0.251 C 
ENDROOT
BRANCH   1   7
ATOM      7  C   UNL d   1       8.212   5.026 -12.996  0.00  0.00     0.251 C 
BRANCH   7   8
ATOM      8  C   UNL d   1       9.012   3.836 -13.557  0.00  0.00     0.048 C 
ATOM      9  C   UNL d   1       8.026   2.783 -14.140  0.00  0.00     0.072 C 
ATOM     10  C   UNL d   1       8.719   1.604 -14.842  0.00  0.00     0.176 C 
ATOM     11  C   UNL d   1       9.976   1.952 -15.512  0.00  0.00     0.071 A 
ATOM     12  O   UNL d   1       8.198   0.489 -14.855  0.00  0.00    -0.291 OA
ATOM     13  C   UNL d   1      10.821   1.216 -16.387  0.00  0.00     0.091 A 
ATOM     14  C   UNL d   1      10.573   3.156 -15.367  0.00  0.00     0.107 A 
ATOM     15  C   UNL d   1      10.667  -0.184 -16.894  0.00  0.00     0.055 C 
ATOM     16  N   UNL d   1      11.854   1.966 -16.750  0.00  0.00    -0.131 NA
ATOM     17  O   UNL d   1      11.710   3.209 -16.105  0.00  0.00    -0.216 OA
ATOM     18  C   UNL d   1      10.110   4.307 -14.553  0.00  0.00     0.056 C 
ENDBRANCH   7   8
ENDBRANCH   1   7
BRANCH   4  19
ATOM     19  C   UNL d   1      10.563   8.600  -9.084  0.00  0.00     0.173 C 
ATOM     20  O   UNL d   1      11.064   9.569  -9.659  0.00  0.00    -0.291 OA
BRANCH  19  21
ATOM     21  C   UNL d   1      10.814   8.386  -7.625  0.00  0.00     0.035 A 
ATOM     22  C   UNL d   1      10.597   7.139  -6.988  0.00  0.00     0.005 A 
ATOM     23  C   UNL d   1      10.973   6.990  -5.635  0.00  0.00     0.030 A 
ATOM     24  C   UNL d   1      11.472   8.075  -4.889  0.00  0.00     0.140 A 
ATOM     25  C   UNL d   1      11.639   9.335  -5.500  0.00  0.00     0.030 A 
ATOM     26  F   UNL d   1      11.783   7.926  -3.564  0.00  0.00    -0.204 F 
ATOM     27  C   UNL d   1      11.330   9.469  -6.877  0.00  0.00     0.005 A 
ENDBRANCH  19  21
ENDBRANCH   4  19
TORSDOF 4
