REMARK  6 active torsions:
REMARK  status: ('A' for Active; 'I' for Inactive)
REMARK    1  A    between atoms: C_2  and  C_3 
REMARK    2  A    between atoms: C_3  and  C_4 
REMARK    3  A    between atoms: C_4  and  C_5 
REMARK    4  A    between atoms: C_8  and  S_9 
REMARK    5  A    between atoms: S_9  and  N_12 
REMARK    6  A    between atoms: N_12  and  C_13 
ROOT
ATOM      1  S   UNL d   1       8.957   4.979  -8.937  0.00  0.00     0.285 S 
ATOM      2  O   UNL d   1       9.990   3.949  -9.223  0.00  0.00    -0.198 OA
ATOM      3  O   UNL d   1       7.863   4.669  -8.030  0.00  0.00    -0.198 OA
ENDROOT
BRANCH   1   4
ATOM      4  C   UNL d   1       9.659   6.429  -8.269  0.00  0.00     0.105 A 
ATOM      5  C   UNL d   1       9.024   7.015  -7.162  0.00  0.00     0.013 A 
ATOM      6  C   UNL d   1       9.550   8.208  -6.664  0.00  0.00    -0.004 A 
ATOM      7  C   UNL d   1      10.695   8.777  -7.242  0.00  0.00    -0.022 A 
ATOM      8  C   UNL d   1      11.323   8.172  -8.347  0.00  0.00    -0.004 A 
ATOM      9  C   UNL d   1      10.779   6.997  -8.877  0.00  0.00     0.013 A 
BRANCH   7  10
ATOM     10  C   UNL d   1      11.258  10.041  -6.664  0.00  0.00     0.026 C 
BRANCH  10  11
ATOM     11  C   UNL d   1      12.525   9.784  -5.852  0.00  0.00     0.005 C 
BRANCH  11  12
ATOM     12  C   UNL d   1      12.280   9.058  -4.523  0.00  0.00     0.000 C 
ATOM     13  C   UNL d   1      11.272   9.754  -3.577  0.00  0.00     0.000 C 
ENDBRANCH  11  12
ENDBRANCH  10  11
ENDBRANCH   7  10
ENDBRANCH   1   4
BRANCH   1  14
ATOM     14  N   UNL d   1       8.287   5.561 -10.461  0.00  0.00    -0.158 NA
BRANCH  14  15
ATOM     15  C   UNL d   1       7.896   4.806 -11.569  0.00  0.00     0.093 A 
ATOM     16  C   UNL d   1       8.859   4.157 -12.367  0.00  0.00     0.017 A 
ATOM     17  C   UNL d   1       8.473   3.412 -13.504  0.00  0.00     0.009 A 
ATOM     18  C   UNL d   1       7.104   3.239 -13.789  0.00  0.00    -0.022 A 
ATOM     19  C   UNL d   1       9.520   2.663 -14.307  0.00  0.00     0.277 C 
ATOM     20  C   UNL d   1       6.124   3.873 -13.012  0.00  0.00    -0.003 A 
ATOM     21  C   UNL d   1       6.677   2.346 -14.937  0.00  0.00     0.061 C 
ATOM     22  C   UNL d   1       6.525   4.645 -11.899  0.00  0.00     0.020 A 
ATOM     23  C   UNL d   1       7.836   1.511 -15.537  0.00  0.00     0.255 C 
ATOM     24  N   UNL d   1       9.054   2.316 -15.648  0.00  0.00     0.144 N 
ATOM     25  C   UNL d   1      10.104   1.535 -16.315  0.00  0.00     0.286 C 
ENDBRANCH  14  15
ENDBRANCH   1  14
TORSDOF 6
