REMARK  6 active torsions:
REMARK  status: ('A' for Active; 'I' for Inactive)
REMARK    1  A    between atoms: C_2  and  C_3 
REMARK    2  A    between atoms: C_3  and  C_6 
REMARK       I    between atoms: C_6  and  N_8 
REMARK    3  A    between atoms: N_8  and  C_9 
REMARK    4  A    between atoms: C_9  and  C_10 
REMARK    5  A    between atoms: C_10  and  N_11 
REMARK    6  A    between atoms: N_14  and  C_15 
ROOT
ATOM      1  N   UNL d   1       9.640   8.159  -9.163  0.00  0.00     0.143 N 
ATOM      2  C   UNL d   1      11.006   7.724  -8.841  0.00  0.00     0.274 C 
ATOM      3  C   UNL d   1      10.997   6.863  -7.560  0.00  0.00     0.137 C 
ATOM      4  N   UNL d   1      10.353   7.603  -6.487  0.00  0.00    -0.344 N 
ATOM      5  C   UNL d   1       9.048   8.166  -6.803  0.00  0.00     0.137 C 
ATOM      6  C   UNL d   1       9.139   8.991  -8.076  0.00  0.00     0.274 C 
ENDROOT
BRANCH   1   7
ATOM      7  C   UNL d   1       9.591   8.966 -10.381  0.00  0.00     0.277 C 
BRANCH   7   8
ATOM      8  C   UNL d   1       9.655   8.087 -11.625  0.00  0.00     0.164 C 
BRANCH   8   9
ATOM      9  N   UNL d   1       8.654   7.050 -11.635  0.00  0.00    -0.236 NA
ATOM     10  C   UNL d   1       8.647   5.955 -12.417  0.00  0.00     0.251 C 
ATOM     11  O   UNL d   1       9.569   5.721 -13.210  0.00  0.00    -0.271 OA
BRANCH  10  12
ATOM     12  C   UNL d   1       7.506   4.929 -12.228  0.00  0.00     0.073 C 
ATOM     13  C   UNL d   1       7.584   4.500 -10.749  0.00  0.00     0.009 C 
ATOM     14  C   UNL d   1       7.754   3.673 -13.082  0.00  0.00     0.009 C 
BRANCH  12  15
ATOM     15  C   UNL d   1       6.077   5.455 -12.591  0.00  0.00     0.009 C 
ATOM     16  C   UNL d   1       5.725   6.871 -12.124  0.00  0.00     0.001 C 
ENDBRANCH  12  15
ENDBRANCH  10  12
ENDBRANCH   8   9
ENDBRANCH   7   8
ENDBRANCH   1   7
BRANCH   4  17
ATOM     17  C   UNL d   1      11.013   7.865  -5.294  0.00  0.00     0.056 A 
ATOM     18  C   UNL d   1      11.105   9.181  -4.778  0.00  0.00     0.018 A 
ATOM     19  C   UNL d   1      11.724   9.401  -3.542  0.00  0.00     0.013 A 
ATOM     20  C   UNL d   1      12.262   8.323  -2.817  0.00  0.00     0.058 A 
ATOM     21  C   UNL d   1      12.170   7.009  -3.312  0.00  0.00     0.013 A 
ATOM     22 CL   UNL d   1      13.028   8.641  -1.327  0.00  0.00    -0.082 Cl
ATOM     23  C   UNL d   1      11.553   6.790  -4.550  0.00  0.00     0.018 A 
ENDBRANCH   4  17
TORSDOF 6
