REMARK  1 active torsions:
REMARK  status: ('A' for Active; 'I' for Inactive)
REMARK    1  A    between atoms: C_6  and  C_7 
ROOT
ATOM      1  N   UNL d   1       9.045   5.032  -8.812  0.00  0.00    -0.191 NA
ATOM      2  C   UNL d   1       9.296   6.120  -9.126  0.00  0.00     0.111 C 
ATOM      3  C   UNL d   1       9.668   7.416  -9.579  0.00  0.00     0.136 C 
ATOM      4  C   UNL d   1       9.457   7.783 -10.939  0.00  0.00     0.111 C 
ATOM      5  N   UNL d   1       9.265   8.036 -12.049  0.00  0.00    -0.191 NA
ATOM      6  C   UNL d   1      10.235   8.331  -8.763  0.00  0.00     0.021 C 
ENDROOT
BRANCH   6   7
ATOM      7  C   UNL d   1      10.665   8.167  -7.361  0.00  0.00     0.004 A 
ATOM      8  C   UNL d   1      10.664   9.285  -6.497  0.00  0.00     0.030 A 
ATOM      9  C   UNL d   1      11.062   9.152  -5.150  0.00  0.00     0.156 A 
ATOM     10  C   UNL d   1      11.466   7.901  -4.650  0.00  0.00     0.156 A 
ATOM     11  O   UNL d   1      11.057  10.231  -4.316  0.00  0.00    -0.188 OA
ATOM     12  C   UNL d   1      11.466   6.788  -5.500  0.00  0.00     0.029 A 
ATOM     13  O   UNL d   1      11.861   7.764  -3.345  0.00  0.00    -0.188 OA
ATOM     14  C   UNL d   1      11.079   6.921  -6.843  0.00  0.00     0.002 A 
ENDBRANCH   6   7
TORSDOF 1
