REMARK  4 active torsions:
REMARK  status: ('A' for Active; 'I' for Inactive)
REMARK    1  A    between atoms: C_2  and  C_3 
REMARK    2  A    between atoms: C_2  and  C_6 
REMARK    3  A    between atoms: C_10  and  O_11 
REMARK    4  A    between atoms: O_11  and  C_12 
ROOT
ATOM      1  C   UNL d   1      10.158   7.166  -9.076  0.00  0.00    -0.010 A 
ATOM      2  C   UNL d   1       9.884   6.029  -8.278  0.00  0.00    -0.004 A 
ATOM      3  C   UNL d   1       9.309   4.890  -8.852  0.00  0.00     0.002 A 
ATOM      4  C   UNL d   1       9.040   4.869 -10.225  0.00  0.00     0.025 A 
ATOM      5  C   UNL d   1       9.306   5.984 -11.050  0.00  0.00     0.100 A 
ATOM      6  C   UNL d   1       9.863   7.136 -10.460  0.00  0.00     0.021 A 
ENDROOT
BRANCH   5   7
ATOM      7  O   UNL d   1       9.041   5.968 -12.407  0.00  0.00    -0.307 OA
BRANCH   7   8
ATOM      8  C   UNL d   1       8.117   5.059 -12.871  0.00  0.00     0.100 A 
ATOM      9  C   UNL d   1       6.770   5.129 -12.449  0.00  0.00     0.025 A 
ATOM     10  C   UNL d   1       5.846   4.151 -12.860  0.00  0.00     0.002 A 
ATOM     11  C   UNL d   1       6.260   3.100 -13.698  0.00  0.00     0.000 A 
ATOM     12  C   UNL d   1       7.598   3.026 -14.126  0.00  0.00     0.002 A 
ATOM     13  C   UNL d   1       8.527   4.002 -13.712  0.00  0.00     0.025 A 
ENDBRANCH   7   8
ENDBRANCH   5   7
BRANCH   1  14
ATOM     14  C   UNL d   1      10.765   8.423  -8.461  0.00  0.00     0.110 C 
ATOM     15  C   UNL d   1      12.291   8.285  -8.298  0.00  0.00     0.016 C 
BRANCH  14  16
ATOM     16  C   UNL d   1      10.065   8.789  -7.143  0.00  0.00     0.189 C 
ATOM     17  O   UNL d   1      10.660   9.144  -6.125  0.00  0.00    -0.647 OA
ATOM     18  O   UNL d   1       8.709   8.712  -7.253  0.00  0.00    -0.647 OA
ENDBRANCH  14  16
ENDBRANCH   1  14
TORSDOF 4
