REMARK  6 active torsions:
REMARK  status: ('A' for Active; 'I' for Inactive)
REMARK    1  A    between atoms: C_2  and  C_3 
REMARK    2  A    between atoms: C_3  and  O_4 
REMARK    3  A    between atoms: O_4  and  C_5 
REMARK    4  A    between atoms: C_8  and  N_9 
REMARK    5  A    between atoms: N_12  and  C_13 
REMARK    6  A    between atoms: C_13  and  C_14 
ROOT
ATOM      1  N   UNL d   1       8.716   3.425 -14.270  0.00  0.00    -0.344 N 
ATOM      2  C   UNL d   1       9.797   4.145 -13.615  0.00  0.00     0.137 C 
ATOM      3  C   UNL d   1       9.465   4.243 -12.130  0.00  0.00     0.275 C 
ATOM      4  N   UNL d   1       8.202   4.955 -11.940  0.00  0.00     0.147 N 
ATOM      5  C   UNL d   1       7.114   4.172 -12.535  0.00  0.00     0.275 C 
ATOM      6  C   UNL d   1       7.395   3.991 -14.033  0.00  0.00     0.137 C 
ENDROOT
BRANCH   1   7
ATOM      7  C   UNL d   1       8.938   2.283 -15.070  0.00  0.00     0.056 A 
ATOM      8  C   UNL d   1       8.058   1.961 -16.128  0.00  0.00     0.019 A 
ATOM      9  C   UNL d   1       8.291   0.834 -16.930  0.00  0.00     0.026 A 
ATOM     10  C   UNL d   1       9.406  -0.004 -16.684  0.00  0.00     0.094 A 
ATOM     11  C   UNL d   1      10.259   0.307 -15.613  0.00  0.00     0.026 A 
ATOM     12  C   UNL d   1      10.040   1.440 -14.823  0.00  0.00     0.019 A 
BRANCH  10  13
ATOM     13  O   UNL d   1       9.722  -1.121 -17.415  0.00  0.00    -0.328 OA
BRANCH  13  14
ATOM     14  C   UNL d   1       9.037  -1.339 -18.643  0.00  0.00     0.187 C 
BRANCH  14  15
ATOM     15  C   UNL d   1       7.660  -2.011 -18.439  0.00  0.00     0.226 C 
ATOM     16  F   UNL d   1       7.034  -2.073 -19.610  0.00  0.00    -0.232 F 
ENDBRANCH  14  15
ENDBRANCH  13  14
ENDBRANCH  10  13
ENDBRANCH   1   7
BRANCH   4  17
ATOM     17  C   UNL d   1       7.932   5.161 -10.520  0.00  0.00     0.298 C 
BRANCH  17  18
ATOM     18  C   UNL d   1       8.869   5.940  -9.650  0.00  0.00     0.114 A 
ATOM     19  N   UNL d   1       9.849   6.645 -10.173  0.00  0.00    -0.168 NA
ATOM     20  N   UNL d   1      10.467   7.213  -9.107  0.00  0.00    -0.229 N 
ATOM     21  C   UNL d   1       9.830   6.876  -7.899  0.00  0.00     0.084 A 
ATOM     22  C   UNL d   1      11.560   8.012  -9.175  0.00  0.00     0.100 A 
ATOM     23  C   UNL d   1       8.802   6.042  -8.237  0.00  0.00     0.038 A 
ATOM     24  C   UNL d   1      10.352   7.423  -6.694  0.00  0.00     0.019 A 
ATOM     25  C   UNL d   1      11.457   8.248  -6.764  0.00  0.00     0.003 A 
ATOM     26  C   UNL d   1      12.078   8.530  -8.012  0.00  0.00     0.021 A 
ENDBRANCH  17  18
ENDBRANCH   4  17
TORSDOF 6
