REMARK  1 active torsions:
REMARK  status: ('A' for Active; 'I' for Inactive)
REMARK    1  A    between atoms: C_5  and  N_6 
ROOT
ATOM      1  O   UNL d   1       8.300   6.212  -9.348  0.00  0.00    -0.188 OA
ATOM      2  C   UNL d   1       9.055   6.644  -8.299  0.00  0.00     0.155 A 
ATOM      3  C   UNL d   1       8.639   6.411  -6.994  0.00  0.00     0.031 A 
ATOM      4  C   UNL d   1       9.460   6.765  -5.916  0.00  0.00     0.021 A 
ATOM      5  C   UNL d   1      10.665   7.383  -6.076  0.00  0.00     0.081 A 
ATOM      6  C   UNL d   1      11.067   7.641  -7.391  0.00  0.00     0.134 A 
ATOM      7  C   UNL d   1      10.271   7.286  -8.516  0.00  0.00     0.143 A 
ATOM      8  O   UNL d   1      10.645   7.555  -9.816  0.00  0.00    -0.324 OA
ATOM      9  C   UNL d   1      12.014   7.926  -9.979  0.00  0.00     0.182 C 
ATOM     10  C   UNL d   1      12.431   8.791  -8.794  0.00  0.00     0.182 C 
ATOM     11  O   UNL d   1      12.262   8.234  -7.529  0.00  0.00    -0.325 OA
ENDROOT
BRANCH   5  12
ATOM     12  N   UNL d   1      11.434   7.716  -4.946  0.00  0.00    -0.343 N 
ATOM     13  C   UNL d   1      11.926   6.735  -3.987  0.00  0.00     0.140 C 
ATOM     14  C   UNL d   1      11.720   7.183  -2.526  0.00  0.00     0.314 C 
ATOM     15  N   UNL d   1      12.274   8.527  -2.356  0.00  0.00     0.343 N 
ATOM     16  C   UNL d   1      11.662   9.465  -3.311  0.00  0.00     0.314 C 
ATOM     17  C   UNL d   1      11.940   9.058  -4.761  0.00  0.00     0.140 C 
ENDBRANCH   5  12
TORSDOF 1
