REMARK  7 active torsions:
REMARK  status: ('A' for Active; 'I' for Inactive)
REMARK    1  A    between atoms: C_4  and  N_5 
REMARK    2  A    between atoms: N_5  and  S_6 
REMARK    3  A    between atoms: S_6  and  C_9 
REMARK    4  A    between atoms: N_20  and  C_21 
REMARK    5  A    between atoms: C_21  and  C_22 
REMARK    6  A    between atoms: C_22  and  C_23 
REMARK    7  A    between atoms: C_23  and  C_24 
ROOT
ATOM      1  C   UNL d   1      12.108   2.644 -16.408  0.00  0.00     0.035 C 
ATOM      2  C   UNL d   1      11.261   2.745 -15.124  0.00  0.00     0.221 C 
ATOM      3  C   UNL d   1      11.123   4.188 -14.624  0.00  0.00     0.060 C 
ATOM      4  C   UNL d   1       9.737   4.252 -13.999  0.00  0.00     0.151 C 
ATOM      5  C   UNL d   1       9.178   2.836 -14.157  0.00  0.00     0.275 C 
ATOM      6  N   UNL d   1       9.880   2.312 -15.330  0.00  0.00     0.137 N 
ENDROOT
BRANCH   4   7
ATOM      7  N   UNL d   1       9.803   4.668 -12.592  0.00  0.00    -0.184 NA
BRANCH   7   8
ATOM      8  S   UNL d   1       8.432   5.443 -11.894  0.00  0.00     0.287 S 
ATOM      9  O   UNL d   1       7.957   6.459 -12.841  0.00  0.00    -0.198 OA
ATOM     10  O   UNL d   1       7.538   4.389 -11.398  0.00  0.00    -0.198 OA
BRANCH   8  11
ATOM     11  C   UNL d   1       9.098   6.291 -10.479  0.00  0.00     0.134 A 
ATOM     12  S   UNL d   1       9.860   7.844 -10.694  0.00  0.00    -0.074 SA
ATOM     13  C   UNL d   1      10.127   7.982  -8.966  0.00  0.00     0.031 A 
ATOM     14  C   UNL d   1       9.619   6.835  -8.275  0.00  0.00     0.007 A 
ATOM     15  C   UNL d   1      10.720   9.061  -8.286  0.00  0.00     0.018 A 
ATOM     16  C   UNL d   1       9.058   5.854  -9.177  0.00  0.00     0.020 A 
ATOM     17  C   UNL d   1       9.751   6.843  -6.864  0.00  0.00     0.001 A 
ATOM     18  C   UNL d   1      10.342   7.919  -6.178  0.00  0.00     0.011 A 
ATOM     19  C   UNL d   1      10.818   9.035  -6.885  0.00  0.00     0.058 A 
ATOM     20 CL   UNL d   1      11.494  10.374  -6.042  0.00  0.00    -0.082 Cl
ENDBRANCH   8  11
ENDBRANCH   7   8
ENDBRANCH   4   7
BRANCH   6  21
ATOM     21  C   UNL d   1       9.760   0.858 -15.441  0.00  0.00     0.251 C 
BRANCH  21  22
ATOM     22  C   UNL d   1       8.361   0.444 -15.944  0.00  0.00     0.042 C 
BRANCH  22  23
ATOM     23  C   UNL d   1       8.366   0.035 -17.431  0.00  0.00     0.050 C 
BRANCH  23  24
ATOM     24  C   UNL d   1       6.981  -0.000 -18.016  0.00  0.00     0.088 A 
ATOM     25  C   UNL d   1       6.113  -1.081 -18.278  0.00  0.00     0.041 A 
ATOM     26  C   UNL d   1       4.930  -0.587 -18.830  0.00  0.00     0.129 A 
ATOM     27  C   UNL d   1       6.251  -2.469 -18.075  0.00  0.00     0.006 A 
ATOM     28  O   UNL d   1       5.109   0.788 -18.900  0.00  0.00    -0.211 OA
ATOM     29  C   UNL d   1       3.862  -1.408 -19.196  0.00  0.00     0.057 A 
ATOM     30  N   UNL d   1       6.387   1.134 -18.385  0.00  0.00    -0.131 NA
ATOM     31  C   UNL d   1       3.999  -2.798 -19.005  0.00  0.00     0.142 A 
ATOM     32  F   UNL d   1       3.006  -3.638 -19.375  0.00  0.00    -0.204 F 
ATOM     33  C   UNL d   1       5.187  -3.325 -18.441  0.00  0.00     0.030 A 
ENDBRANCH  23  24
ENDBRANCH  22  23
ENDBRANCH  21  22
ENDBRANCH   6  21
TORSDOF 7
