REMARK  9 active torsions:
REMARK  status: ('A' for Active; 'I' for Inactive)
REMARK    1  A    between atoms: C_9  and  C_10 
REMARK    2  A    between atoms: C_10  and  N_11 
REMARK    3  A    between atoms: N_11  and  C_12 
REMARK    4  A    between atoms: C_12  and  C_13 
REMARK    5  A    between atoms: C_18  and  O_19 
REMARK    6  A    between atoms: O_19  and  C_20 
REMARK    7  A    between atoms: C_20  and  C_21 
REMARK    8  A    between atoms: C_21  and  C_22 
REMARK    9  A    between atoms: C_22  and  C_23 
ROOT
ATOM      1  N   UNL d   1       9.890   5.651  -9.661  0.00  0.00     0.347 N 
ENDROOT
BRANCH   1   2
ATOM      2  C   UNL d   1      10.182   5.479  -8.249  0.00  0.00     0.320 C 
BRANCH   2   3
ATOM      3  C   UNL d   1      10.541   6.793  -7.605  0.00  0.00     0.158 C 
ATOM      4  O   UNL d   1      11.002   6.531  -6.274  0.00  0.00    -0.331 OA
ATOM      5  C   UNL d   1      11.131   7.629  -5.459  0.00  0.00     0.092 A 
ATOM      6  C   UNL d   1      10.548   8.876  -5.793  0.00  0.00     0.000 A 
ATOM      7  C   UNL d   1      11.862   7.492  -4.250  0.00  0.00     0.051 A 
ATOM      8  C   UNL d   1      10.723   9.981  -4.935  0.00  0.00    -0.000 A 
ATOM      9  C   UNL d   1       9.737   9.003  -7.083  0.00  0.00     0.031 C 
ATOM     10  C   UNL d   1      11.448   9.841  -3.736  0.00  0.00     0.027 A 
ATOM     11  C   UNL d   1      12.017   8.600  -3.391  0.00  0.00     0.133 A 
ATOM     12  O   UNL d   1      12.757   8.498  -2.248  0.00  0.00    -0.190 OA
ATOM     13  C   UNL d   1       9.315   7.672  -7.612  0.00  0.00     0.037 C 
ENDBRANCH   2   3
ENDBRANCH   1   2
BRANCH   1  14
ATOM     14  C   UNL d   1       9.554   4.344 -10.219  0.00  0.00     0.319 C 
BRANCH  14  15
ATOM     15  C   UNL d   1       8.758   4.432 -11.489  0.00  0.00     0.036 C 
ATOM     16  C   UNL d   1       9.303   4.257 -12.807  0.00  0.00     0.092 C 
ATOM     17  C   UNL d   1       8.423   4.310 -13.921  0.00  0.00     0.024 C 
ATOM     18  C   UNL d   1       7.043   4.450 -13.678  0.00  0.00     0.002 C 
ATOM     19  C   UNL d   1       6.542   4.788 -12.408  0.00  0.00    -0.000 C 
ATOM     20  C   UNL d   1       7.438   4.822 -11.320  0.00  0.00    -0.000 C 
BRANCH  16  21
ATOM     21  O   UNL d   1      10.652   3.979 -12.917  0.00  0.00    -0.331 OA
BRANCH  21  22
ATOM     22  C   UNL d   1      11.177   3.543 -14.169  0.00  0.00     0.149 C 
BRANCH  22  23
ATOM     23  C   UNL d   1      10.669   2.149 -14.663  0.00  0.00     0.036 C 
BRANCH  23  24
ATOM     24  C   UNL d   1      11.241   1.799 -16.055  0.00  0.00     0.041 C 
BRANCH  24  25
ATOM     25  C   UNL d   1      10.433   0.663 -16.692  0.00  0.00     0.193 C 
ATOM     26  F   UNL d   1      10.423  -0.410 -15.902  0.00  0.00    -0.234 F 
ENDBRANCH  24  25
ENDBRANCH  23  24
ENDBRANCH  22  23
ENDBRANCH  21  22
ENDBRANCH  16  21
ENDBRANCH  14  15
ENDBRANCH   1  14
TORSDOF 9
