REMARK  2 active torsions:
REMARK  status: ('A' for Active; 'I' for Inactive)
REMARK    1  A    between atoms: C_9  and  C_10 
REMARK    2  A    between atoms: C_10  and  C_11 
ROOT
ATOM      1  F   UNL d   1      11.500  10.327  -2.889  0.00  0.00    -0.204 F 
ATOM      2  C   UNL d   1      11.540   9.373  -3.834  0.00  0.00     0.140 A 
ATOM      3  C   UNL d   1      11.733   8.025  -3.454  0.00  0.00     0.029 A 
ATOM      4  C   UNL d   1      11.677   6.997  -4.413  0.00  0.00    -0.002 A 
ATOM      5  C   UNL d   1      11.457   7.357  -5.751  0.00  0.00    -0.026 A 
ATOM      6  C   UNL d   1      11.359   8.684  -6.134  0.00  0.00    -0.024 A 
ATOM      7  C   UNL d   1      11.357   9.721  -5.192  0.00  0.00     0.025 A 
ATOM      8  C   UNL d   1      11.266   8.832  -7.621  0.00  0.00     0.026 C 
ATOM      9  C   UNL d   1      11.136   7.376  -8.134  0.00  0.00     0.011 C 
ATOM     10  C   UNL d   1      11.525   6.458  -6.940  0.00  0.00     0.026 C 
ENDROOT
BRANCH   9  11
ATOM     11  C   UNL d   1       9.698   7.072  -8.585  0.00  0.00     0.027 C 
BRANCH  11  12
ATOM     12  C   UNL d   1       9.606   5.837  -9.476  0.00  0.00     0.129 C 
ATOM     13  N   UNL d   1       9.860   6.202 -10.852  0.00  0.00    -0.251 NA
ATOM     14  C   UNL d   1       8.867   5.768 -11.555  0.00  0.00     0.190 C 
ATOM     15  N   UNL d   1       7.897   5.059 -10.861  0.00  0.00    -0.249 NA
ATOM     16  C   UNL d   1       8.201   5.258  -9.473  0.00  0.00     0.152 C 
ENDBRANCH  11  12
ENDBRANCH   9  11
TORSDOF 2
