REMARK  10 active torsions:
REMARK  status: ('A' for Active; 'I' for Inactive)
REMARK    1  A    between atoms: O_2  and  C_3 
REMARK    2  A    between atoms: C_3  and  C_5 
REMARK    3  A    between atoms: C_5  and  C_6 
REMARK    4  A    between atoms: C_6  and  C_7 
REMARK    5  A    between atoms: C_10  and  O_11 
REMARK    6  A    between atoms: O_11  and  C_12 
REMARK    7  A    between atoms: C_12  and  C_13 
REMARK    8  A    between atoms: C_13  and  C_15 
REMARK    9  A    between atoms: C_15  and  N_16 
REMARK   10  A    between atoms: N_16  and  C_17 
ROOT
ATOM      1  C   UNL d   1       8.990   5.650 -10.699  0.00  0.00    -0.021 A 
ATOM      2  C   UNL d   1       9.458   6.961 -10.905  0.00  0.00    -0.002 A 
ATOM      3  C   UNL d   1       9.938   7.711  -9.817  0.00  0.00     0.024 A 
ATOM      4  C   UNL d   1       9.940   7.155  -8.512  0.00  0.00     0.094 A 
ATOM      5  C   UNL d   1       9.463   5.846  -8.324  0.00  0.00     0.024 A 
ATOM      6  C   UNL d   1       8.983   5.093  -9.407  0.00  0.00    -0.002 A 
ENDROOT
BRANCH   4   7
ATOM      7  O   UNL d   1      10.399   7.798  -7.390  0.00  0.00    -0.328 OA
BRANCH   7   8
ATOM      8  C   UNL d   1      10.488   9.209  -7.422  0.00  0.00     0.184 C 
BRANCH   8   9
ATOM      9  C   UNL d   1      11.003   9.732  -6.061  0.00  0.00     0.206 C 
ATOM     10  O   UNL d   1      12.149  10.526  -6.293  0.00  0.00    -0.219 OA
BRANCH   9  11
ATOM     11  C   UNL d   1      11.395   8.606  -5.088  0.00  0.00     0.155 C 
BRANCH  11  12
ATOM     12  N   UNL d   1      11.783   9.107  -3.779  0.00  0.00    -0.295 NA
BRANCH  12  13
ATOM     13  C   UNL d   1      11.959   8.088  -2.745  0.00  0.00     0.098 C 
ATOM     14  C   UNL d   1      12.615   8.745  -1.544  0.00  0.00     0.026 C 
ATOM     15  C   UNL d   1      12.761   6.873  -3.217  0.00  0.00     0.026 C 
ENDBRANCH  12  13
ENDBRANCH  11  12
ENDBRANCH   9  11
ENDBRANCH   8   9
ENDBRANCH   7   8
ENDBRANCH   4   7
BRANCH   1  16
ATOM     16  C   UNL d   1       8.507   4.832 -11.871  0.00  0.00     0.037 C 
BRANCH  16  17
ATOM     17  C   UNL d   1       7.015   5.069 -12.182  0.00  0.00     0.101 C 
BRANCH  17  18
ATOM     18  C   UNL d   1       6.396   3.993 -13.084  0.00  0.00     0.272 C 
ATOM     19  O   UNL d   1       5.178   3.882 -13.189  0.00  0.00    -0.264 OA
BRANCH  18  20
ATOM     20  O   UNL d   1       7.303   3.224 -13.705  0.00  0.00    -0.299 OA
ATOM     21  C   UNL d   1       6.901   2.090 -14.445  0.00  0.00     0.184 C 
ENDBRANCH  18  20
ENDBRANCH  17  18
ENDBRANCH  16  17
ENDBRANCH   1  16
TORSDOF 10
