REMARK  5 active torsions:
REMARK  status: ('A' for Active; 'I' for Inactive)
REMARK    1  A    between atoms: C_2  and  C_3 
REMARK    2  A    between atoms: C_3  and  O_4 
REMARK    3  A    between atoms: C_3  and  C_13 
REMARK    4  A    between atoms: O_4  and  C_5 
REMARK    5  A    between atoms: C_18  and  N_19 
ROOT
ATOM      1  C   UNL d   1       9.893   4.134 -13.702  0.00  0.00     0.203 A 
ATOM      2  N   UNL d   1       9.794   2.833 -13.976  0.00  0.00    -0.039 NA
ATOM      3  C   UNL d   1      10.687   2.431 -14.865  0.00  0.00     0.785 A 
ATOM      4  N   UNL d   1      10.637   1.111 -15.198  0.00  0.00     0.063 N 
ATOM      5  N   UNL d   1      11.608   3.157 -15.489  0.00  0.00     0.134 NA
ATOM      6  C   UNL d   1      11.597   4.443 -15.118  0.00  0.00     0.744 A 
ATOM      7  N   UNL d   1      10.767   5.002 -14.228  0.00  0.00    -0.043 NA
ENDROOT
BRANCH   1   8
ATOM      8  C   UNL d   1       8.901   4.668 -12.681  0.00  0.00     0.180 C 
BRANCH   8   9
ATOM      9  C   UNL d   1       7.494   4.834 -13.298  0.00  0.00     0.038 C 
ATOM     10  C   UNL d   1       6.658   3.548 -13.276  0.00  0.00     0.003 C 
ENDBRANCH   8   9
BRANCH   8  11
ATOM     11  O   UNL d   1       9.317   5.948 -12.190  0.00  0.00    -0.326 OA
BRANCH  11  12
ATOM     12  C   UNL d   1       9.383   6.200 -10.834  0.00  0.00     0.095 A 
ATOM     13  C   UNL d   1      10.048   7.383 -10.438  0.00  0.00     0.036 A 
ATOM     14  C   UNL d   1      10.209   7.707  -9.074  0.00  0.00     0.070 A 
ATOM     15  C   UNL d   1       9.689   6.850  -8.087  0.00  0.00     0.068 A 
ATOM     16 CL   UNL d   1      11.057   9.145  -8.636  0.00  0.00    -0.081 Cl
ATOM     17  C   UNL d   1       9.001   5.685  -8.472  0.00  0.00     0.014 A 
ATOM     18 CL   UNL d   1       9.877   7.212  -6.409  0.00  0.00    -0.082 Cl
ATOM     19  C   UNL d   1       8.834   5.362  -9.833  0.00  0.00     0.025 A 
ENDBRANCH  11  12
ENDBRANCH   8  11
ENDBRANCH   1   8
BRANCH   6  20
ATOM     20  N   UNL d   1      12.539   5.282 -15.713  0.00  0.00    -0.178 N 
ATOM     21  C   UNL d   1      12.488   6.748 -15.650  0.00  0.00     0.155 C 
ATOM     22  C   UNL d   1      12.569   7.351 -17.063  0.00  0.00     0.275 C 
ATOM     23  N   UNL d   1      13.780   6.890 -17.740  0.00  0.00     0.143 N 
ATOM     24  C   UNL d   1      13.717   5.435 -17.872  0.00  0.00     0.275 C 
ATOM     25  C   UNL d   1      13.843   7.490 -19.065  0.00  0.00     0.286 C 
ATOM     26  C   UNL d   1      13.685   4.787 -16.482  0.00  0.00     0.155 C 
ENDBRANCH   6  20
TORSDOF 5
