REMARK  9 active torsions:
REMARK  status: ('A' for Active; 'I' for Inactive)
REMARK    1  A    between atoms: S_2  and  C_4 
REMARK    2  A    between atoms: S_2  and  N_10 
REMARK    3  A    between atoms: C_14  and  N_15 
REMARK    4  A    between atoms: N_18  and  C_19 
REMARK    5  A    between atoms: C_19  and  C_20 
REMARK    6  A    between atoms: C_20  and  C_21 
REMARK    7  A    between atoms: C_21  and  C_22 
REMARK    8  A    between atoms: C_22  and  O_23 
REMARK    9  A    between atoms: O_23  and  C_24 
ROOT
ATOM      1  N   UNL d   1      11.290   2.113 -18.146  0.00  0.00    -0.231 N 
ATOM      2  C   UNL d   1      11.054   3.470 -18.300  0.00  0.00     0.092 A 
ATOM      3  C   UNL d   1      10.287   3.924 -17.265  0.00  0.00     0.023 A 
ATOM      4  C   UNL d   1      10.038   2.803 -16.393  0.00  0.00     0.034 A 
ATOM      5  C   UNL d   1       9.333   2.613 -15.173  0.00  0.00     0.058 A 
ATOM      6  C   UNL d   1       9.264   1.326 -14.595  0.00  0.00     0.017 A 
ATOM      7  C   UNL d   1       9.878   0.225 -15.206  0.00  0.00     0.003 A 
ATOM      8  C   UNL d   1      10.582   0.386 -16.404  0.00  0.00     0.018 A 
ATOM      9  C   UNL d   1      10.668   1.661 -16.985  0.00  0.00     0.076 A 
ENDROOT
BRANCH   5  10
ATOM     10  N   UNL d   1       8.699   3.685 -14.519  0.00  0.00    -0.344 N 
ATOM     11  C   UNL d   1       9.187   5.053 -14.614  0.00  0.00     0.137 C 
ATOM     12  C   UNL d   1       9.310   5.638 -13.215  0.00  0.00     0.274 C 
ATOM     13  N   UNL d   1       8.026   5.547 -12.507  0.00  0.00     0.141 N 
ATOM     14  C   UNL d   1       7.599   4.152 -12.394  0.00  0.00     0.274 C 
ATOM     15  C   UNL d   1       7.447   3.534 -13.790  0.00  0.00     0.137 C 
BRANCH  13  16
ATOM     16  C   UNL d   1       8.135   6.137 -11.182  0.00  0.00     0.251 C 
BRANCH  16  17
ATOM     17  C   UNL d   1       9.301   5.578 -10.351  0.00  0.00     0.038 C 
BRANCH  17  18
ATOM     18  C   UNL d   1       9.587   6.376  -9.089  0.00  0.00     0.035 C 
BRANCH  18  19
ATOM     19  C   UNL d   1      10.193   7.791  -9.287  0.00  0.00     0.149 C 
BRANCH  19  20
ATOM     20  O   UNL d   1       9.930   8.690  -8.216  0.00  0.00    -0.331 OA
BRANCH  20  21
ATOM     21  C   UNL d   1      10.461   8.400  -6.981  0.00  0.00     0.094 A 
ATOM     22  C   UNL d   1      11.068   9.473  -6.264  0.00  0.00     0.026 A 
ATOM     23  C   UNL d   1      11.682   9.212  -5.011  0.00  0.00     0.032 A 
ATOM     24  C   UNL d   1      11.709   7.904  -4.478  0.00  0.00     0.140 A 
ATOM     25  C   UNL d   1      11.078   6.864  -5.196  0.00  0.00     0.032 A 
ATOM     26  F   UNL d   1      12.302   7.658  -3.284  0.00  0.00    -0.204 F 
ATOM     27  C   UNL d   1      10.424   7.109  -6.403  0.00  0.00     0.026 A 
ENDBRANCH  20  21
ENDBRANCH  19  20
ENDBRANCH  18  19
ENDBRANCH  17  18
ENDBRANCH  16  17
ENDBRANCH  13  16
ENDBRANCH   5  10
BRANCH   1  28
ATOM     28  S   UNL d   1      12.187   1.179 -19.276  0.00  0.00     0.271 S 
ATOM     29  O   UNL d   1      12.681  -0.004 -18.572  0.00  0.00    -0.200 OA
ATOM     30  O   UNL d   1      13.115   2.136 -19.905  0.00  0.00    -0.200 OA
BRANCH  28  31
ATOM     31  C   UNL d   1      10.939   0.690 -20.464  0.00  0.00     0.104 A 
ATOM     32  C   UNL d   1      10.167  -0.467 -20.233  0.00  0.00     0.013 A 
ATOM     33  C   UNL d   1       9.193  -0.850 -21.177  0.00  0.00     0.001 A 
ATOM     34  C   UNL d   1       8.993  -0.077 -22.339  0.00  0.00     0.000 A 
ATOM     35  C   UNL d   1       9.764   1.082 -22.559  0.00  0.00     0.001 A 
ATOM     36  C   UNL d   1      10.738   1.469 -21.619  0.00  0.00     0.013 A 
ENDBRANCH  28  31
ENDBRANCH   1  28
TORSDOF 9
