REMARK  8 active torsions:
REMARK  status: ('A' for Active; 'I' for Inactive)
REMARK    1  A    between atoms: O_2  and  C_3 
REMARK    2  A    between atoms: C_8  and  N_9 
REMARK    3  A    between atoms: N_12  and  C_13 
REMARK    4  A    between atoms: C_13  and  C_14 
REMARK    5  A    between atoms: C_14  and  C_16 
REMARK    6  A    between atoms: C_16  and  C_17 
REMARK    7  A    between atoms: C_17  and  N_18 
REMARK    8  A    between atoms: C_20  and  C_21 
ROOT
ATOM      1  C   UNL d   1       6.992   5.262 -12.250  0.00  0.00     0.188 C 
ATOM      2  O   UNL d   1       6.388   6.535 -12.385  0.00  0.00    -0.221 OA
ENDROOT
BRANCH   1   3
ATOM      3  C   UNL d   1       7.779   4.920 -13.526  0.00  0.00     0.283 C 
BRANCH   3   4
ATOM      4  N   UNL d   1       8.390   3.581 -13.568  0.00  0.00     0.144 N 
ATOM      5  C   UNL d   1       9.516   3.595 -14.497  0.00  0.00     0.274 C 
ATOM      6  C   UNL d   1      10.175   2.224 -14.603  0.00  0.00     0.137 C 
ATOM      7  N   UNL d   1       9.177   1.229 -15.043  0.00  0.00    -0.343 N 
ATOM      8  C   UNL d   1       8.008   1.119 -14.150  0.00  0.00     0.137 C 
ATOM      9  C   UNL d   1       7.415   2.553 -14.007  0.00  0.00     0.274 C 
BRANCH   7  10
ATOM     10  C   UNL d   1       9.389   0.449 -16.181  0.00  0.00     0.079 A 
ATOM     11  C   UNL d   1       8.323  -0.093 -16.940  0.00  0.00     0.110 A 
ATOM     12  C   UNL d   1       8.638  -0.990 -17.993  0.00  0.00     0.026 A 
ATOM     13  C   UNL d   1       9.987  -1.222 -18.367  0.00  0.00     0.002 A 
ATOM     14  C   UNL d   1      11.076  -0.702 -17.632  0.00  0.00     0.002 A 
ATOM     15  C   UNL d   1      10.731   0.108 -16.515  0.00  0.00     0.019 A 
BRANCH  11  16
ATOM     16  O   UNL d   1       7.017   0.251 -16.653  0.00  0.00    -0.327 OA
ATOM     17  C   UNL d   1       5.988  -0.613 -17.088  0.00  0.00     0.181 C 
ENDBRANCH  11  16
ENDBRANCH   7  10
ENDBRANCH   3   4
ENDBRANCH   1   3
BRANCH   1  18
ATOM     18  C   UNL d   1       7.866   5.291 -10.983  0.00  0.00     0.061 C 
BRANCH  18  19
ATOM     19  C   UNL d   1       9.061   6.256 -10.990  0.00  0.00     0.132 C 
BRANCH  19  20
ATOM     20  N   UNL d   1       9.595   6.429  -9.651  0.00  0.00    -0.230 N 
ATOM     21  N   UNL d   1       9.992   5.356  -8.936  0.00  0.00    -0.064 NA
ATOM     22  N   UNL d   1      10.529   5.807  -7.857  0.00  0.00    -0.129 NA
ATOM     23  C   UNL d   1      10.365   7.181  -7.778  0.00  0.00     0.123 C 
ATOM     24  C   UNL d   1       9.735   7.595  -8.923  0.00  0.00     0.118 C 
BRANCH  23  25
ATOM     25  C   UNL d   1      10.809   7.885  -6.588  0.00  0.00     0.021 A 
ATOM     26  C   UNL d   1      11.112   7.191  -5.388  0.00  0.00     0.003 A 
ATOM     27  C   UNL d   1      11.543   7.883  -4.235  0.00  0.00     0.019 A 
ATOM     28  C   UNL d   1      11.617   9.303  -4.330  0.00  0.00     0.081 A 
ATOM     29  C   UNL d   1      11.914   7.507  -2.896  0.00  0.00     0.022 A 
ATOM     30  C   UNL d   1      11.324  10.001  -5.514  0.00  0.00     0.019 A 
ATOM     31  N   UNL d   1      12.010   9.733  -3.086  0.00  0.00    -0.244 NA
ATOM     32  C   UNL d   1      10.925   9.283  -6.647  0.00  0.00     0.003 A 
ATOM     33  C   UNL d   1      12.230   8.669  -2.240  0.00  0.00     0.099 A 
ENDBRANCH  23  25
ENDBRANCH  19  20
ENDBRANCH  18  19
ENDBRANCH   1  18
TORSDOF 8
