REMARK  1 active torsions:
REMARK  status: ('A' for Active; 'I' for Inactive)
REMARK    1  A    between atoms: C_4  and  C_5 
ROOT
ATOM      1  C   UNL d   1       9.575   7.838 -10.157  0.00  0.00     0.242 C 
ATOM      2  C   UNL d   1      10.723   8.731 -10.534  0.00  0.00     0.040 C 
ATOM      3  C   UNL d   1      11.367   9.212  -9.268  0.00  0.00     0.042 C 
ATOM      4  C   UNL d   1      10.399   8.740  -8.227  0.00  0.00     0.259 C 
ATOM      5  C   UNL d   1      10.915   8.528  -6.853  0.00  0.00     0.086 A 
ATOM      6  N   UNL d   1      11.778   9.329  -6.132  0.00  0.00    -0.248 NA
ATOM      7  C   UNL d   1      11.943   8.787  -4.870  0.00  0.00     0.081 A 
ATOM      8  C   UNL d   1      12.675   9.188  -3.751  0.00  0.00     0.019 A 
ATOM      9  C   UNL d   1      12.689   8.412  -2.576  0.00  0.00     0.002 A 
ATOM     10  C   UNL d   1      12.010   7.194  -2.548  0.00  0.00     0.000 A 
ATOM     11  C   UNL d   1      11.307   6.785  -3.690  0.00  0.00     0.001 A 
ATOM     12  C   UNL d   1      11.220   7.570  -4.864  0.00  0.00     0.015 A 
ATOM     13  C   UNL d   1      10.518   7.475  -6.096  0.00  0.00    -0.003 A 
ATOM     14  C   UNL d   1       9.589   6.448  -6.661  0.00  0.00     0.063 C 
ATOM     15  C   UNL d   1       8.934   6.889  -7.976  0.00  0.00     0.256 C 
ATOM     16  N   UNL d   1       9.973   7.472  -8.813  0.00  0.00     0.143 N 
ENDROOT
BRANCH   1  17
ATOM     17  C   UNL d   1       9.285   6.686 -11.118  0.00  0.00     0.009 A 
ATOM     18  C   UNL d   1       9.665   5.371 -10.780  0.00  0.00    -0.002 A 
ATOM     19  C   UNL d   1       9.457   4.307 -11.669  0.00  0.00    -0.000 A 
ATOM     20  C   UNL d   1       8.797   4.524 -12.887  0.00  0.00    -0.000 A 
ATOM     21  C   UNL d   1       8.383   5.825 -13.218  0.00  0.00    -0.000 A 
ATOM     22  C   UNL d   1       8.637   6.906 -12.347  0.00  0.00    -0.002 A 
ENDBRANCH   1  17
TORSDOF 1
