REMARK  4 active torsions:
REMARK  status: ('A' for Active; 'I' for Inactive)
REMARK    1  A    between atoms: C_2  and  C_4 
REMARK    2  A    between atoms: C_6  and  C_7 
REMARK    3  A    between atoms: C_7  and  N_8 
REMARK    4  A    between atoms: C_11  and  C_12 
ROOT
ATOM      1  N   UNL d   1       9.450   7.059  -9.008  0.00  0.00     0.143 N 
ATOM      2  C   UNL d   1      10.873   6.819  -9.128  0.00  0.00     0.251 C 
ATOM      3  C   UNL d   1      11.525   7.974  -8.380  0.00  0.00     0.042 C 
ATOM      4  C   UNL d   1      10.465   8.381  -7.356  0.00  0.00     0.058 C 
ATOM      5  C   UNL d   1       9.276   7.443  -7.617  0.00  0.00     0.255 C 
ENDROOT
BRANCH   1   6
ATOM      6  C   UNL d   1       8.674   5.869  -9.344  0.00  0.00     0.296 C 
BRANCH   6   7
ATOM      7  C   UNL d   1       8.531   5.463 -10.778  0.00  0.00     0.099 A 
ATOM      8  N   UNL d   1       9.458   4.603 -11.366  0.00  0.00    -0.245 NA
ATOM      9  C   UNL d   1       9.195   4.344 -12.647  0.00  0.00     0.087 A 
ATOM     10  S   UNL d   1       7.783   5.187 -13.234  0.00  0.00    -0.070 SA
ATOM     11  C   UNL d   1       7.545   5.847 -11.642  0.00  0.00     0.053 A 
BRANCH   9  12
ATOM     12  C   UNL d   1      10.058   3.486 -13.514  0.00  0.00     0.047 C 
ATOM     13  C   UNL d   1      11.190   4.284 -14.173  0.00  0.00     0.007 C 
ATOM     14  C   UNL d   1       9.248   2.674 -14.533  0.00  0.00     0.007 C 
ENDBRANCH   9  12
ENDBRANCH   6   7
ENDBRANCH   1   6
BRANCH   4  15
ATOM     15  C   UNL d   1      10.956   8.355  -5.915  0.00  0.00    -0.021 A 
ATOM     16  C   UNL d   1      11.323   7.122  -5.329  0.00  0.00    -0.004 A 
ATOM     17  C   UNL d   1      11.790   7.070  -4.005  0.00  0.00    -0.000 A 
ATOM     18  C   UNL d   1      11.889   8.255  -3.256  0.00  0.00    -0.000 A 
ATOM     19  C   UNL d   1      11.529   9.489  -3.833  0.00  0.00    -0.000 A 
ATOM     20  C   UNL d   1      11.068   9.545  -5.164  0.00  0.00    -0.004 A 
ENDBRANCH   4  15
TORSDOF 4
