REMARK  3 active torsions:
REMARK  status: ('A' for Active; 'I' for Inactive)
REMARK    1  A    between atoms: C_5  and  N_6 
REMARK    2  A    between atoms: N_9  and  C_10 
REMARK    3  A    between atoms: C_10  and  C_11 
ROOT
ATOM      1  N   UNL d   1      10.037   6.571  -9.509  0.00  0.00    -0.344 N 
ATOM      2  C   UNL d   1      10.953   7.693  -9.717  0.00  0.00     0.137 C 
ATOM      3  C   UNL d   1      10.783   8.738  -8.598  0.00  0.00     0.275 C 
ATOM      4  N   UNL d   1      10.960   8.100  -7.288  0.00  0.00     0.145 N 
ATOM      5  C   UNL d   1       9.897   7.103  -7.105  0.00  0.00     0.275 C 
ATOM      6  C   UNL d   1      10.084   6.005  -8.160  0.00  0.00     0.137 C 
ENDROOT
BRANCH   1   7
ATOM      7  C   UNL d   1       9.126   6.117 -10.497  0.00  0.00     0.056 A 
ATOM      8  C   UNL d   1       8.917   6.831 -11.703  0.00  0.00     0.019 A 
ATOM      9  C   UNL d   1       7.990   6.372 -12.665  0.00  0.00     0.029 A 
ATOM     10  C   UNL d   1       7.259   5.198 -12.428  0.00  0.00     0.131 A 
ATOM     11  O   UNL d   1       6.346   4.752 -13.337  0.00  0.00    -0.190 OA
ATOM     12  C   UNL d   1       7.458   4.481 -11.244  0.00  0.00     0.029 A 
ATOM     13  C   UNL d   1       8.386   4.930 -10.289  0.00  0.00     0.019 A 
ENDBRANCH   1   7
BRANCH   4  14
ATOM     14  C   UNL d   1      10.911   9.110  -6.237  0.00  0.00     0.277 C 
BRANCH  14  15
ATOM     15  C   UNL d   1      11.411   8.631  -4.877  0.00  0.00     0.011 A 
ATOM     16  C   UNL d   1      11.607   9.585  -3.851  0.00  0.00    -0.002 A 
ATOM     17  C   UNL d   1      12.060   9.166  -2.579  0.00  0.00    -0.000 A 
ATOM     18  C   UNL d   1      12.268   7.796  -2.312  0.00  0.00    -0.000 A 
ATOM     19  C   UNL d   1      12.060   6.848  -3.334  0.00  0.00    -0.000 A 
ATOM     20  C   UNL d   1      11.666   7.261  -4.617  0.00  0.00    -0.002 A 
ENDBRANCH  14  15
ENDBRANCH   4  14
TORSDOF 3
