REMARK  6 active torsions:
REMARK  status: ('A' for Active; 'I' for Inactive)
REMARK    1  A    between atoms: N_11  and  C_12 
REMARK    2  A    between atoms: C_12  and  C_13 
REMARK    3  A    between atoms: C_13  and  C_14 
REMARK    4  A    between atoms: C_14  and  C_15 
REMARK    5  A    between atoms: C_15  and  N_16 
REMARK    6  A    between atoms: C_19  and  C_20 
ROOT
ATOM      1  N   UNL d   1       7.831   5.266 -12.265  0.00  0.00     0.142 N 
ATOM      2  C   UNL d   1       8.068   6.642 -12.688  0.00  0.00     0.276 C 
ATOM      3  C   UNL d   1       9.062   7.387 -11.820  0.00  0.00     0.005 C 
ATOM      4  C   UNL d   1       9.413   6.952 -10.592  0.00  0.00    -0.021 C 
ATOM      5  C   UNL d   1       8.779   5.691 -10.060  0.00  0.00     0.061 C 
ATOM      6  C   UNL d   1       7.548   5.285 -10.846  0.00  0.00     0.255 C 
ENDROOT
BRANCH   1   7
ATOM      7  C   UNL d   1       6.692   4.725 -12.994  0.00  0.00     0.251 C 
BRANCH   7   8
ATOM      8  C   UNL d   1       6.649   3.212 -12.831  0.00  0.00     0.037 C 
BRANCH   8   9
ATOM      9  C   UNL d   1       5.477   2.558 -13.530  0.00  0.00     0.027 C 
BRANCH   9  10
ATOM     10  C   UNL d   1       5.493   1.006 -13.436  0.00  0.00     0.112 C 
BRANCH  10  11
ATOM     11  N   UNL d   1       5.445   0.332 -14.738  0.00  0.00    -0.264 N 
ATOM     12  C   UNL d   1       4.422  -0.466 -15.144  0.00  0.00     0.263 A 
ATOM     13  O   UNL d   1       3.404  -0.775 -14.526  0.00  0.00    -0.267 OA
ATOM     14  C   UNL d   1       4.757  -0.888 -16.527  0.00  0.00     0.061 A 
ATOM     15  C   UNL d   1       5.967  -0.328 -16.848  0.00  0.00     0.061 A 
ATOM     16  C   UNL d   1       4.049  -1.699 -17.429  0.00  0.00     0.005 A 
ATOM     17  C   UNL d   1       6.583  -0.522 -18.093  0.00  0.00     0.005 A 
ATOM     18  C   UNL d   1       6.417   0.460 -15.677  0.00  0.00     0.263 A 
ATOM     19  C   UNL d   1       5.903  -1.348 -19.020  0.00  0.00     0.000 A 
ATOM     20  C   UNL d   1       4.650  -1.931 -18.690  0.00  0.00     0.000 A 
ATOM     21  O   UNL d   1       7.454   1.118 -15.622  0.00  0.00    -0.267 OA
ENDBRANCH  10  11
ENDBRANCH   9  10
ENDBRANCH   8   9
ENDBRANCH   7   8
ENDBRANCH   1   7
BRANCH   4  22
ATOM     22  C   UNL d   1      10.310   7.725  -9.730  0.00  0.00     0.017 A 
ATOM     23  C   UNL d   1      10.435   7.683  -8.285  0.00  0.00     0.021 A 
ATOM     24  C   UNL d   1      11.451   8.644  -7.961  0.00  0.00     0.082 A 
ATOM     25  C   UNL d   1       9.881   6.972  -7.189  0.00  0.00     0.031 A 
ATOM     26  N   UNL d   1      11.850   9.184  -9.159  0.00  0.00    -0.244 NA
ATOM     27  C   UNL d   1      11.912   8.863  -6.642  0.00  0.00     0.021 A 
ATOM     28  C   UNL d   1      11.146   8.691 -10.217  0.00  0.00     0.099 A 
ATOM     29  C   UNL d   1      11.362   8.105  -5.594  0.00  0.00     0.031 A 
ATOM     30  C   UNL d   1      10.379   7.168  -5.891  0.00  0.00     0.140 A 
ATOM     31  F   UNL d   1       9.950   6.409  -4.881  0.00  0.00    -0.204 F 
ENDBRANCH   4  22
TORSDOF 6
