REMARK  9 active torsions:
REMARK  status: ('A' for Active; 'I' for Inactive)
REMARK    1  A    between atoms: C_2  and  C_3 
REMARK    2  A    between atoms: C_7  and  O_8 
REMARK    3  A    between atoms: C_10  and  C_11 
REMARK       I    between atoms: C_11  and  N_13 
REMARK    4  A    between atoms: N_13  and  C_14 
REMARK    5  A    between atoms: C_14  and  C_15 
REMARK    6  A    between atoms: N_19  and  C_20 
REMARK    7  A    between atoms: C_20  and  C_21 
REMARK    8  A    between atoms: C_21  and  C_22 
REMARK    9  A    between atoms: C_22  and  C_23 
ROOT
ATOM      1  C   UNL d   1       9.466   4.843 -13.851  0.00  0.00     0.279 C 
ATOM      2  O   UNL d   1      10.652   5.081 -13.644  0.00  0.00    -0.265 OA
ATOM      3  N   UNL d   1       8.472   5.606 -13.335  0.00  0.00    -0.232 NA
ENDROOT
BRANCH   3   4
ATOM      4  C   UNL d   1       8.613   6.558 -12.235  0.00  0.00     0.162 C 
BRANCH   4   5
ATOM      5  C   UNL d   1       9.454   5.973 -11.076  0.00  0.00     0.243 C 
ATOM      6  N   UNL d   1       9.450   6.771  -9.860  0.00  0.00     0.137 N 
ATOM      7  C   UNL d   1       9.981   5.862  -8.851  0.00  0.00     0.250 C 
ATOM      8  C   UNL d   1       9.324   4.521  -9.128  0.00  0.00     0.037 C 
ATOM      9  C   UNL d   1       8.984   4.584 -10.609  0.00  0.00     0.037 C 
BRANCH   6  10
ATOM     10  C   UNL d   1      10.171   8.046  -9.999  0.00  0.00     0.251 C 
BRANCH  10  11
ATOM     11  C   UNL d   1      10.843   8.520  -8.695  0.00  0.00     0.040 C 
BRANCH  11  12
ATOM     12  C   UNL d   1       9.876   8.644  -7.504  0.00  0.00     0.028 C 
BRANCH  12  13
ATOM     13  C   UNL d   1      10.573   8.493  -6.165  0.00  0.00    -0.022 A 
ATOM     14  C   UNL d   1      10.904   7.215  -5.647  0.00  0.00    -0.004 A 
ATOM     15  C   UNL d   1      11.560   7.093  -4.411  0.00  0.00    -0.000 A 
ATOM     16  C   UNL d   1      11.896   8.242  -3.670  0.00  0.00    -0.000 A 
ATOM     17  C   UNL d   1      11.570   9.514  -4.182  0.00  0.00    -0.000 A 
ATOM     18  C   UNL d   1      10.921   9.639  -5.428  0.00  0.00    -0.004 A 
ENDBRANCH  12  13
ENDBRANCH  11  12
ENDBRANCH  10  11
ENDBRANCH   6  10
ENDBRANCH   4   5
ENDBRANCH   3   4
BRANCH   1  19
ATOM     19  C   UNL d   1       9.032   3.675 -14.699  0.00  0.00     0.106 A 
ATOM     20  C   UNL d   1       9.849   3.248 -15.787  0.00  0.00     0.111 A 
ATOM     21  C   UNL d   1       9.452   2.145 -16.582  0.00  0.00     0.080 A 
ATOM     22  C   UNL d   1       8.272   1.446 -16.292  0.00  0.00     0.011 A 
ATOM     23 CL   UNL d   1      10.399   1.651 -17.938  0.00  0.00    -0.080 Cl
ATOM     24  C   UNL d   1       7.464   1.835 -15.206  0.00  0.00     0.004 A 
ATOM     25  C   UNL d   1       7.838   2.945 -14.415  0.00  0.00     0.134 A 
ATOM     26  O   UNL d   1       7.007   3.297 -13.381  0.00  0.00    -0.190 OA
BRANCH  20  27
ATOM     27  O   UNL d   1      11.007   3.912 -16.104  0.00  0.00    -0.327 OA
ATOM     28  C   UNL d   1      12.176   3.302 -15.570  0.00  0.00     0.181 C 
ENDBRANCH  20  27
BRANCH  24  29
ATOM     29  C   UNL d   1       6.172   1.078 -14.923  0.00  0.00     0.029 C 
ATOM     30  C   UNL d   1       6.331  -0.140 -14.007  0.00  0.00     0.005 C 
ENDBRANCH  24  29
ENDBRANCH   1  19
TORSDOF 9
