REMARK  6 active torsions:
REMARK  status: ('A' for Active; 'I' for Inactive)
REMARK    1  A    between atoms: O_2  and  C_3 
REMARK    2  A    between atoms: C_8  and  N_9 
REMARK    3  A    between atoms: N_12  and  C_13 
REMARK    4  A    between atoms: C_13  and  C_14 
REMARK    5  A    between atoms: C_14  and  C_15 
REMARK    6  A    between atoms: C_21  and  N_22 
ROOT
ATOM      1  C   UNL d   1       9.711   3.656 -13.046  0.00  0.00     0.251 C 
ENDROOT
BRANCH   1   2
ATOM      2  N   UNL d   1       9.301   3.248 -14.391  0.00  0.00     0.141 N 
ATOM      3  C   UNL d   1      10.229   3.743 -15.425  0.00  0.00     0.274 C 
ATOM      4  C   UNL d   1       9.702   3.363 -16.814  0.00  0.00     0.137 C 
ATOM      5  N   UNL d   1       9.550   1.919 -16.909  0.00  0.00    -0.343 N 
ATOM      6  C   UNL d   1       8.785   1.294 -15.835  0.00  0.00     0.137 C 
ATOM      7  C   UNL d   1       9.299   1.777 -14.458  0.00  0.00     0.274 C 
BRANCH   5   8
ATOM      8  C   UNL d   1      10.216   1.159 -17.883  0.00  0.00     0.079 A 
ATOM      9  C   UNL d   1      11.572   1.409 -18.240  0.00  0.00     0.110 A 
ATOM     10  C   UNL d   1      12.173   0.621 -19.250  0.00  0.00     0.026 A 
ATOM     11  C   UNL d   1      11.453  -0.403 -19.890  0.00  0.00     0.002 A 
ATOM     12  C   UNL d   1      10.116  -0.650 -19.533  0.00  0.00     0.002 A 
ATOM     13  C   UNL d   1       9.505   0.125 -18.534  0.00  0.00     0.019 A 
BRANCH   9  14
ATOM     14  O   UNL d   1      12.264   2.384 -17.549  0.00  0.00    -0.327 OA
ATOM     15  C   UNL d   1      13.470   2.884 -18.105  0.00  0.00     0.181 C 
ENDBRANCH   9  14
ENDBRANCH   5   8
ENDBRANCH   1   2
BRANCH   1  16
ATOM     16  C   UNL d   1       9.686   5.188 -12.850  0.00  0.00     0.043 C 
BRANCH  16  17
ATOM     17  C   UNL d   1       8.591   5.684 -11.908  0.00  0.00     0.064 C 
ATOM     18  C   UNL d   1       8.982   5.486 -10.425  0.00  0.00     0.172 C 
ATOM     19  C   UNL d   1       9.674   6.615  -9.741  0.00  0.00     0.032 A 
ATOM     20  O   UNL d   1       8.753   4.412  -9.871  0.00  0.00    -0.291 OA
ATOM     21  C   UNL d   1       9.869   7.864 -10.370  0.00  0.00    -0.019 A 
ATOM     22  C   UNL d   1      10.103   6.418  -8.419  0.00  0.00     0.026 A 
ATOM     23  C   UNL d   1       9.396   8.119 -11.787  0.00  0.00     0.027 C 
ATOM     24  C   UNL d   1      10.505   8.903  -9.648  0.00  0.00    -0.003 A 
ATOM     25  C   UNL d   1       8.280   7.146 -12.204  0.00  0.00     0.012 C 
ATOM     26  C   UNL d   1      10.912   8.701  -8.328  0.00  0.00     0.023 A 
ATOM     27  C   UNL d   1      10.715   7.461  -7.698  0.00  0.00     0.127 A 
BRANCH  27  28
ATOM     28  N   UNL d   1      11.161   7.259  -6.319  0.00  0.00    -0.114 N 
ATOM     29  O   UNL d   1      11.854   6.274  -6.084  0.00  0.00    -0.532 OA
ATOM     30  O   UNL d   1      10.861   8.103  -5.477  0.00  0.00    -0.532 OA
ENDBRANCH  27  28
ENDBRANCH  16  17
ENDBRANCH   1  16
TORSDOF 6
