REMARK  5 active torsions:
REMARK  status: ('A' for Active; 'I' for Inactive)
REMARK       I    between atoms: N_6  and  C_7 
REMARK    1  A    between atoms: C_7  and  C_9 
REMARK    2  A    between atoms: C_12  and  C_13 
REMARK    3  A    between atoms: N_21  and  C_22 
REMARK    4  A    between atoms: C_22  and  C_23 
REMARK    5  A    between atoms: C_23  and  N_24 
ROOT
ATOM      1  C   UNL d   1       9.041   3.976 -14.502  0.00  0.00    -0.000 A 
ATOM      2  C   UNL d   1       8.420   2.736 -14.749  0.00  0.00     0.000 A 
ATOM      3  C   UNL d   1       8.430   2.182 -16.041  0.00  0.00     0.004 A 
ATOM      4  C   UNL d   1       9.057   2.860 -17.103  0.00  0.00     0.052 A 
ATOM      5  C   UNL d   1       9.683   4.103 -16.863  0.00  0.00    -0.016 A 
ATOM      6  C   UNL d   1       9.684   4.648 -15.564  0.00  0.00    -0.004 A 
ATOM      7  C   UNL d   1      10.340   4.854 -18.003  0.00  0.00     0.051 C 
ATOM      8  C   UNL d   1       9.690   4.521 -19.353  0.00  0.00     0.109 C 
ATOM      9  N   UNL d   1       9.392   3.090 -19.510  0.00  0.00    -0.314 N 
ATOM     10  C   UNL d   1       9.067   2.262 -18.480  0.00  0.00     0.257 C 
ATOM     11  O   UNL d   1       8.763   1.078 -18.615  0.00  0.00    -0.267 OA
ENDROOT
BRANCH   1  12
ATOM     12  C   UNL d   1       9.019   4.579 -13.168  0.00  0.00    -0.000 A 
ATOM     13  C   UNL d   1       9.460   3.852 -12.057  0.00  0.00     0.000 A 
ATOM     14  C   UNL d   1       9.453   4.407 -10.762  0.00  0.00     0.005 A 
ATOM     15  C   UNL d   1       9.053   5.734 -10.572  0.00  0.00     0.056 A 
ATOM     16  C   UNL d   1       8.584   6.467 -11.677  0.00  0.00     0.005 A 
ATOM     17  C   UNL d   1       8.569   5.894 -12.959  0.00  0.00     0.000 A 
BRANCH  15  18
ATOM     18  C   UNL d   1       9.071   6.295  -9.189  0.00  0.00     0.257 C 
ATOM     19  N   UNL d   1       9.860   7.380  -8.964  0.00  0.00    -0.319 N 
ATOM     20  C   UNL d   1      10.018   8.071  -7.672  0.00  0.00     0.084 C 
ATOM     21  C   UNL d   1      10.724   8.008  -9.972  0.00  0.00     0.104 C 
ATOM     22  C   UNL d   1      10.293   7.138  -6.469  0.00  0.00     0.024 C 
ATOM     23  C   UNL d   1      11.183   9.060  -7.874  0.00  0.00     0.024 C 
ATOM     24  C   UNL d   1      11.227   9.302  -9.366  0.00  0.00     0.026 C 
ATOM     25  O   UNL d   1       8.443   5.701  -8.318  0.00  0.00    -0.267 OA
ENDBRANCH  15  18
ENDBRANCH   1  12
BRANCH   9  26
ATOM     26  C   UNL d   1       9.453   2.570 -20.880  0.00  0.00     0.140 C 
BRANCH  26  27
ATOM     27  C   UNL d   1       8.035   2.350 -21.441  0.00  0.00     0.274 C 
BRANCH  27  28
ATOM     28  N   UNL d   1       8.027   1.399 -22.553  0.00  0.00     0.139 N 
ATOM     29  C   UNL d   1       6.692   1.329 -23.143  0.00  0.00     0.250 C 
ATOM     30  C   UNL d   1       5.863   0.438 -22.206  0.00  0.00     0.037 C 
ATOM     31  C   UNL d   1       6.897  -0.433 -21.508  0.00  0.00     0.037 C 
ATOM     32  C   UNL d   1       8.233   0.019 -22.100  0.00  0.00     0.250 C 
ENDBRANCH  27  28
ENDBRANCH  26  27
ENDBRANCH   9  26
TORSDOF 5
