REMARK  4 active torsions:
REMARK  status: ('A' for Active; 'I' for Inactive)
REMARK    1  A    between atoms: C_8  and  C_9 
REMARK    2  A    between atoms: C_9  and  C_10 
REMARK    3  A    between atoms: N_17  and  C_18 
REMARK    4  A    between atoms: C_18  and  C_19 
ROOT
ATOM      1  C   UNL d   1       9.356   5.026 -13.441  0.00  0.00     0.008 C 
ATOM      2  C   UNL d   1       8.871   4.717 -14.869  0.00  0.00     0.034 C 
ATOM      3  C   UNL d   1       9.884   3.881 -15.685  0.00  0.00     0.219 C 
ATOM      4  C   UNL d   1      11.305   4.494 -15.679  0.00  0.00     0.035 C 
ATOM      5  C   UNL d   1      11.960   3.873 -14.447  0.00  0.00     0.035 C 
ATOM      6  C   UNL d   1      10.851   2.985 -13.853  0.00  0.00     0.219 C 
ATOM      7  C   UNL d   1       9.964   3.739 -12.843  0.00  0.00     0.034 C 
ATOM      8  N   UNL d   1      10.008   2.604 -14.981  0.00  0.00     0.136 N 
ENDROOT
BRANCH   8   9
ATOM      9  C   UNL d   1      10.575   1.511 -15.775  0.00  0.00     0.282 C 
BRANCH   9  10
ATOM     10  C   UNL d   1       9.486   0.529 -16.293  0.00  0.00     0.185 C 
ATOM     11  O   UNL d   1       8.344   0.608 -15.455  0.00  0.00    -0.327 OA
ATOM     12  C   UNL d   1       7.203  -0.001 -15.938  0.00  0.00     0.116 A 
ATOM     13  C   UNL d   1       7.072  -0.405 -17.299  0.00  0.00     0.114 A 
ATOM     14  C   UNL d   1       6.165  -0.234 -15.006  0.00  0.00     0.028 A 
ATOM     15  O   UNL d   1       8.090  -0.160 -18.206  0.00  0.00    -0.326 OA
ATOM     16  C   UNL d   1       5.885  -1.085 -17.631  0.00  0.00     0.029 A 
ATOM     17  C   UNL d   1       9.065   0.781 -17.755  0.00  0.00     0.181 C 
ATOM     18  C   UNL d   1       4.883  -1.326 -16.687  0.00  0.00     0.083 A 
ATOM     19  C   UNL d   1       5.477  -1.678 -18.962  0.00  0.00     0.120 A 
ATOM     20  C   UNL d   1       4.983  -0.906 -15.348  0.00  0.00     0.021 A 
ATOM     21  N   UNL d   1       3.837  -2.011 -17.269  0.00  0.00    -0.212 NA
ATOM     22  C   UNL d   1       4.109  -2.248 -18.554  0.00  0.00     0.260 A 
ATOM     23  O   UNL d   1       3.389  -2.889 -19.300  0.00  0.00    -0.270 OA
ENDBRANCH   9  10
ENDBRANCH   8   9
BRANCH   1  24
ATOM     24  C   UNL d   1       8.224   5.600 -12.565  0.00  0.00     0.026 C 
BRANCH  24  25
ATOM     25  C   UNL d   1       8.663   5.808 -11.129  0.00  0.00    -0.021 A 
ATOM     26  C   UNL d   1       8.264   4.894 -10.132  0.00  0.00    -0.004 A 
ATOM     27  C   UNL d   1       8.674   5.065  -8.798  0.00  0.00    -0.003 A 
ATOM     28  C   UNL d   1       9.478   6.175  -8.455  0.00  0.00    -0.004 A 
ATOM     29  C   UNL d   1       9.929   6.398  -7.029  0.00  0.00     0.038 C 
ATOM     30  C   UNL d   1       9.867   7.087  -9.454  0.00  0.00     0.080 A 
ATOM     31  C   UNL d   1      10.098   7.886  -6.709  0.00  0.00     0.095 C 
ATOM     32  C   UNL d   1      10.838   8.627  -7.832  0.00  0.00     0.256 C 
ATOM     33  O   UNL d   1      11.522   9.589  -7.519  0.00  0.00    -0.270 OA
ATOM     34  N   UNL d   1      10.664   8.216  -9.091  0.00  0.00    -0.212 NA
ATOM     35  C   UNL d   1       9.479   6.905 -10.791  0.00  0.00     0.015 A 
ENDBRANCH  24  25
ENDBRANCH   1  24
TORSDOF 4
