REMARK  4 active torsions:
REMARK  status: ('A' for Active; 'I' for Inactive)
REMARK    1  A    between atoms: C_4  and  C_5 
REMARK    2  A    between atoms: C_5  and  N_6 
REMARK    3  A    between atoms: C_9  and  C_10 
REMARK    4  A    between atoms: C_10  and  C_12 
ROOT
ATOM      1  N   UNL d   1       8.789   5.696 -12.251  0.00  0.00     0.137 N 
ATOM      2  C   UNL d   1       9.037   5.124 -10.931  0.00  0.00     0.251 C 
ATOM      3  C   UNL d   1      10.033   5.991 -10.148  0.00  0.00     0.043 C 
ATOM      4  C   UNL d   1       9.516   7.408  -9.921  0.00  0.00     0.066 C 
ATOM      5  C   UNL d   1       9.105   7.957 -11.314  0.00  0.00     0.043 C 
ATOM      6  C   UNL d   1       8.157   7.000 -12.080  0.00  0.00     0.251 C 
ENDROOT
BRANCH   1   7
ATOM      7  C   UNL d   1       7.843   4.855 -12.978  0.00  0.00     0.251 C 
BRANCH   7   8
ATOM      8  C   UNL d   1       8.510   3.614 -13.584  0.00  0.00     0.045 C 
ATOM      9  C   UNL d   1       7.432   2.636 -14.086  0.00  0.00     0.071 C 
ATOM     10  C   UNL d   1       8.037   1.374 -14.695  0.00  0.00     0.173 C 
ATOM     11  O   UNL d   1       7.438   0.306 -14.575  0.00  0.00    -0.291 OA
ATOM     12  C   UNL d   1       9.328   1.527 -15.424  0.00  0.00     0.031 A 
ATOM     13  C   UNL d   1      10.026   2.768 -15.440  0.00  0.00    -0.019 A 
ATOM     14  C   UNL d   1       9.874   0.419 -16.105  0.00  0.00     0.003 A 
ATOM     15  C   UNL d   1       9.485   3.988 -14.714  0.00  0.00     0.029 C 
ATOM     16  C   UNL d   1      11.246   2.875 -16.141  0.00  0.00    -0.004 A 
ATOM     17  C   UNL d   1      11.772   1.768 -16.826  0.00  0.00    -0.000 A 
ATOM     18  C   UNL d   1      11.083   0.542 -16.814  0.00  0.00     0.000 A 
ENDBRANCH   7   8
ENDBRANCH   1   7
BRANCH   4  19
ATOM     19  C   UNL d   1      10.570   8.288  -9.231  0.00  0.00     0.173 C 
ATOM     20  O   UNL d   1      11.204   9.118  -9.886  0.00  0.00    -0.291 OA
BRANCH  19  21
ATOM     21  C   UNL d   1      10.779   8.124  -7.765  0.00  0.00     0.035 A 
ATOM     22  C   UNL d   1      10.317   7.006  -7.032  0.00  0.00     0.005 A 
ATOM     23  C   UNL d   1      10.629   6.883  -5.665  0.00  0.00     0.030 A 
ATOM     24  C   UNL d   1      11.356   7.885  -4.996  0.00  0.00     0.140 A 
ATOM     25  C   UNL d   1      11.782   9.023  -5.699  0.00  0.00     0.030 A 
ATOM     26  F   UNL d   1      11.622   7.773  -3.676  0.00  0.00    -0.204 F 
ATOM     27  C   UNL d   1      11.512   9.125  -7.081  0.00  0.00     0.005 A 
ENDBRANCH  19  21
ENDBRANCH   4  19
TORSDOF 4
