REMARK  12 active torsions:
REMARK  status: ('A' for Active; 'I' for Inactive)
REMARK    1  A    between atoms: C_2  and  C_3 
REMARK    2  A    between atoms: C_7  and  O_8 
REMARK    3  A    between atoms: C_10  and  C_11 
REMARK       I    between atoms: C_11  and  N_13 
REMARK    4  A    between atoms: N_13  and  C_14 
REMARK    5  A    between atoms: C_14  and  C_15 
REMARK    6  A    between atoms: C_17  and  O_18 
REMARK    7  A    between atoms: O_18  and  C_19 
REMARK    8  A    between atoms: C_19  and  C_20 
REMARK    9  A    between atoms: C_20  and  C_21 
REMARK   10  A    between atoms: C_21  and  C_22 
REMARK   11  A    between atoms: C_22  and  N_23 
REMARK       I    between atoms: N_23  and  C_24 
REMARK   12  A    between atoms: C_24  and  C_26 
ROOT
ATOM      1  C   UNL d   1      11.390   2.372 -16.162  0.00  0.00     0.283 C 
ATOM      2  C   UNL d   1      10.372   3.522 -16.299  0.00  0.00     0.070 C 
ATOM      3  C   UNL d   1      11.229   4.776 -16.053  0.00  0.00     0.153 C 
ATOM      4  C   UNL d   1      12.670   4.263 -15.901  0.00  0.00     0.319 C 
ATOM      5  N   UNL d   1      12.660   2.953 -16.526  0.00  0.00     0.342 N 
ENDROOT
BRANCH   3   6
ATOM      6  O   UNL d   1      10.786   5.577 -14.971  0.00  0.00    -0.354 OA
BRANCH   6   7
ATOM      7  C   UNL d   1      10.546   4.886 -13.748  0.00  0.00     0.142 C 
BRANCH   7   8
ATOM      8  C   UNL d   1       9.543   5.757 -12.974  0.00  0.00     0.034 C 
BRANCH   8   9
ATOM      9  C   UNL d   1       9.683   5.561 -11.478  0.00  0.00     0.029 C 
BRANCH   9  10
ATOM     10  C   UNL d   1       8.611   6.271 -10.666  0.00  0.00     0.129 C 
BRANCH  10  11
ATOM     11  N   UNL d   1       9.137   6.589  -9.342  0.00  0.00    -0.233 NA
ATOM     12  C   UNL d   1       9.935   7.639  -9.081  0.00  0.00     0.293 C 
ATOM     13  O   UNL d   1      10.259   8.487  -9.910  0.00  0.00    -0.264 OA
BRANCH  12  14
ATOM     14  C   UNL d   1      10.379   7.746  -7.685  0.00  0.00     0.139 A 
ATOM     15  N   UNL d   1      10.670   8.994  -7.163  0.00  0.00    -0.241 NA
ATOM     16  C   UNL d   1      11.085   8.884  -5.850  0.00  0.00     0.082 A 
ATOM     17  C   UNL d   1      11.095   7.486  -5.564  0.00  0.00     0.019 A 
ATOM     18  C   UNL d   1      11.456   9.838  -4.892  0.00  0.00     0.019 A 
ATOM     19  C   UNL d   1      10.658   6.797  -6.741  0.00  0.00     0.025 A 
ATOM     20  C   UNL d   1      11.516   7.088  -4.273  0.00  0.00     0.002 A 
ATOM     21  C   UNL d   1      11.890   8.041  -3.303  0.00  0.00     0.000 A 
ATOM     22  C   UNL d   1      11.859   9.415  -3.609  0.00  0.00     0.002 A 
ENDBRANCH  12  14
ENDBRANCH  10  11
ENDBRANCH   9  10
ENDBRANCH   8   9
ENDBRANCH   7   8
ENDBRANCH   6   7
ENDBRANCH   3   6
BRANCH   1  23
ATOM     23  C   UNL d   1      11.046   1.145 -17.003  0.00  0.00     0.165 C 
BRANCH  23  24
ATOM     24  N   UNL d   1       9.684   0.763 -16.737  0.00  0.00    -0.232 NA
ATOM     25  C   UNL d   1       8.915  -0.003 -17.500  0.00  0.00     0.279 C 
ATOM     26  O   UNL d   1       9.370  -0.572 -18.500  0.00  0.00    -0.265 OA
BRANCH  25  27
ATOM     27  C   UNL d   1       7.470  -0.111 -17.061  0.00  0.00     0.106 A 
ATOM     28  C   UNL d   1       6.451  -0.376 -18.020  0.00  0.00     0.111 A 
ATOM     29  C   UNL d   1       5.106  -0.532 -17.617  0.00  0.00     0.080 A 
ATOM     30  C   UNL d   1       4.751  -0.434 -16.261  0.00  0.00     0.011 A 
ATOM     31 CL   UNL d   1       3.856  -0.805 -18.796  0.00  0.00    -0.080 Cl
ATOM     32  C   UNL d   1       5.731  -0.153 -15.290  0.00  0.00     0.004 A 
ATOM     33  C   UNL d   1       7.085  -0.011 -15.681  0.00  0.00     0.134 A 
ATOM     34  O   UNL d   1       8.011   0.180 -14.676  0.00  0.00    -0.190 OA
BRANCH  28  35
ATOM     35  O   UNL d   1       6.744  -0.466 -19.359  0.00  0.00    -0.327 OA
ATOM     36  C   UNL d   1       6.893  -1.799 -19.835  0.00  0.00     0.181 C 
ENDBRANCH  28  35
BRANCH  32  37
ATOM     37  C   UNL d   1       5.316  -0.056 -13.824  0.00  0.00     0.029 C 
ATOM     38  C   UNL d   1       5.575   1.335 -13.215  0.00  0.00     0.005 C 
ENDBRANCH  32  37
ENDBRANCH  25  27
ENDBRANCH  23  24
ENDBRANCH   1  23
TORSDOF 12
