REMARK  4 active torsions:
REMARK  status: ('A' for Active; 'I' for Inactive)
REMARK    1  A    between atoms: N_2  and  C_4 
REMARK    2  A    between atoms: C_4  and  C_5 
REMARK    3  A    between atoms: C_5  and  C_6 
REMARK    4  A    between atoms: C_6  and  N_7 
ROOT
ATOM      1  N   UNL d   1       8.320   2.871 -14.752  0.00  0.00    -0.327 N 
ATOM      2  C   UNL d   1       8.272   3.819 -13.697  0.00  0.00     0.066 A 
ATOM      3  C   UNL d   1       7.098   3.991 -12.916  0.00  0.00     0.018 A 
ATOM      4  C   UNL d   1       7.050   4.908 -11.855  0.00  0.00     0.002 A 
ATOM      5  C   UNL d   1       8.171   5.687 -11.546  0.00  0.00     0.001 A 
ATOM      6  C   UNL d   1       9.338   5.550 -12.309  0.00  0.00     0.008 A 
ATOM      7  C   UNL d   1       9.392   4.627 -13.374  0.00  0.00     0.045 A 
ATOM      8  S   UNL d   1      10.911   4.539 -14.265  0.00  0.00    -0.084 SA
ATOM      9  C   UNL d   1      10.714   3.137 -15.309  0.00  0.00     0.045 A 
ATOM     10  C   UNL d   1      11.857   2.723 -16.018  0.00  0.00     0.008 A 
ATOM     11  C   UNL d   1      11.812   1.602 -16.857  0.00  0.00     0.001 A 
ATOM     12  C   UNL d   1      10.614   0.890 -16.999  0.00  0.00     0.002 A 
ATOM     13  C   UNL d   1       9.466   1.306 -16.298  0.00  0.00     0.018 A 
ATOM     14  C   UNL d   1       9.485   2.443 -15.441  0.00  0.00     0.066 A 
ENDROOT
BRANCH   1  15
ATOM     15  C   UNL d   1       7.045   2.371 -15.277  0.00  0.00     0.108 C 
BRANCH  15  16
ATOM     16  C   UNL d   1       6.586   1.054 -14.621  0.00  0.00     0.060 C 
BRANCH  16  17
ATOM     17  C   UNL d   1       5.742   0.200 -15.584  0.00  0.00     0.252 C 
BRANCH  17  18
ATOM     18  N   UNL d   1       5.239  -0.994 -14.916  0.00  0.00     0.141 N 
ATOM     19  C   UNL d   1       3.998  -0.711 -14.203  0.00  0.00     0.285 C 
ATOM     20  C   UNL d   1       4.983  -2.020 -15.923  0.00  0.00     0.285 C 
ENDBRANCH  17  18
ENDBRANCH  16  17
ENDBRANCH  15  16
ENDBRANCH   1  15
TORSDOF 4
