REMARK  7 active torsions:
REMARK  status: ('A' for Active; 'I' for Inactive)
REMARK    1  A    between atoms: S_2  and  C_4 
REMARK    2  A    between atoms: S_2  and  N_14 
REMARK    3  A    between atoms: C_17  and  C_18 
REMARK    4  A    between atoms: C_18  and  C_19 
REMARK    5  A    between atoms: C_19  and  N_20 
REMARK    6  A    between atoms: N_23  and  C_24 
REMARK    7  A    between atoms: C_28  and  C_29 
ROOT
ATOM      1  N   UNL d   1       9.165   2.917 -14.998  0.00  0.00    -0.275 N 
ATOM      2  C   UNL d   1      10.131   2.780 -13.918  0.00  0.00     0.113 C 
ATOM      3  C   UNL d   1       9.980   3.973 -12.953  0.00  0.00     0.025 C 
ATOM      4  C   UNL d   1       8.523   4.175 -12.473  0.00  0.00     0.006 C 
ATOM      5  C   UNL d   1       7.586   4.246 -13.663  0.00  0.00     0.025 C 
ATOM      6  C   UNL d   1       7.758   2.986 -14.509  0.00  0.00     0.113 C 
ENDROOT
BRANCH   4   7
ATOM      7  C   UNL d   1       8.340   5.338 -11.483  0.00  0.00     0.035 C 
BRANCH   7   8
ATOM      8  C   UNL d   1       8.796   4.973 -10.053  0.00  0.00     0.250 C 
BRANCH   8   9
ATOM      9  N   UNL d   1       8.794   6.160  -9.228  0.00  0.00     0.141 N 
ATOM     10  C   UNL d   1       9.923   7.053  -9.530  0.00  0.00     0.274 C 
ATOM     11  C   UNL d   1       9.844   8.332  -8.694  0.00  0.00     0.137 C 
ATOM     12  N   UNL d   1       9.793   7.976  -7.281  0.00  0.00    -0.344 N 
ATOM     13  C   UNL d   1       8.735   7.061  -6.917  0.00  0.00     0.137 C 
ATOM     14  C   UNL d   1       8.810   5.810  -7.807  0.00  0.00     0.274 C 
BRANCH  12  15
ATOM     15  C   UNL d   1      10.714   8.427  -6.344  0.00  0.00     0.056 A 
ATOM     16  C   UNL d   1      11.008   7.745  -5.137  0.00  0.00     0.021 A 
ATOM     17  C   UNL d   1      11.853   8.310  -4.155  0.00  0.00     0.073 A 
ATOM     18  C   UNL d   1      12.525   9.498  -4.447  0.00  0.00     0.004 A 
ATOM     19  C   UNL d   1      12.280  10.134  -5.683  0.00  0.00     0.001 A 
ATOM     20  C   UNL d   1      11.365   9.646  -6.595  0.00  0.00     0.017 A 
BRANCH  17  21
ATOM     21  C   UNL d   1      12.045   7.598  -2.816  0.00  0.00     0.419 C 
ATOM     22  F   UNL d   1      11.041   6.801  -2.441  0.00  0.00    -0.166 F 
ATOM     23  F   UNL d   1      13.057   6.781  -2.916  0.00  0.00    -0.166 F 
ATOM     24  F   UNL d   1      12.251   8.479  -1.828  0.00  0.00    -0.166 F 
ENDBRANCH  17  21
ENDBRANCH  12  15
ENDBRANCH   8   9
ENDBRANCH   7   8
ENDBRANCH   4   7
BRANCH   1  25
ATOM     25  S   UNL d   1       9.681   2.782 -16.686  0.00  0.00     0.266 S 
ATOM     26  O   UNL d   1      11.149   3.031 -16.680  0.00  0.00    -0.200 OA
ATOM     27  O   UNL d   1       8.846   3.594 -17.551  0.00  0.00    -0.200 OA
BRANCH  25  28
ATOM     28  C   UNL d   1       9.431   1.075 -17.131  0.00  0.00     0.122 A 
ATOM     29  C   UNL d   1       8.161   0.547 -17.500  0.00  0.00     0.015 A 
ATOM     30  C   UNL d   1       8.128  -0.814 -17.949  0.00  0.00     0.020 A 
ATOM     31  C   UNL d   1       6.932   1.241 -17.457  0.00  0.00     0.001 A 
ATOM     32  C   UNL d   1       9.344  -1.511 -18.043  0.00  0.00     0.099 A 
ATOM     33  C   UNL d   1       6.899  -1.454 -18.241  0.00  0.00     0.002 A 
ATOM     34  N   UNL d   1      10.553  -0.991 -17.740  0.00  0.00    -0.242 NA
ATOM     35  C   UNL d   1      10.578   0.276 -17.267  0.00  0.00     0.112 A 
ATOM     36  C   UNL d   1       5.683  -0.760 -18.119  0.00  0.00     0.000 A 
ATOM     37  C   UNL d   1       5.710   0.595 -17.743  0.00  0.00     0.000 A 
ENDBRANCH  25  28
ENDBRANCH   1  25
TORSDOF 7
