REMARK  11 active torsions:
REMARK  status: ('A' for Active; 'I' for Inactive)
REMARK    1  A    between atoms: O_2  and  C_3 
REMARK    2  A    between atoms: C_6  and  C_7 
REMARK    3  A    between atoms: C_12  and  N_13 
REMARK    4  A    between atoms: N_16  and  C_17 
REMARK    5  A    between atoms: C_17  and  C_18 
REMARK    6  A    between atoms: C_18  and  C_19 
REMARK    7  A    between atoms: C_19  and  C_20 
REMARK    8  A    between atoms: C_20  and  C_21 
REMARK    9  A    between atoms: C_21  and  C_22 
REMARK       I    between atoms: C_22  and  N_24 
REMARK   10  A    between atoms: N_24  and  C_25 
REMARK   11  A    between atoms: C_25  and  C_26 
ROOT
ATOM      1  N   UNL d   1      11.379   3.114 -16.820  0.00  0.00    -0.344 N 
ATOM      2  C   UNL d   1      10.418   4.200 -16.871  0.00  0.00     0.137 C 
ATOM      3  C   UNL d   1      10.319   4.830 -15.471  0.00  0.00     0.274 C 
ATOM      4  N   UNL d   1       9.975   3.835 -14.448  0.00  0.00     0.141 N 
ATOM      5  C   UNL d   1      11.055   2.845 -14.399  0.00  0.00     0.274 C 
ATOM      6  C   UNL d   1      11.191   2.161 -15.748  0.00  0.00     0.137 C 
ENDROOT
BRANCH   4   7
ATOM      7  C   UNL d   1       9.890   4.442 -13.129  0.00  0.00     0.250 C 
BRANCH   7   8
ATOM      8  C   UNL d   1       8.559   5.183 -12.919  0.00  0.00     0.035 C 
BRANCH   8   9
ATOM      9  C   UNL d   1       8.476   5.843 -11.541  0.00  0.00     0.003 C 
BRANCH   9  10
ATOM     10  C   UNL d   1       8.646   4.853 -10.375  0.00  0.00     0.010 C 
BRANCH  10  11
ATOM     11  C   UNL d   1       8.472   5.487  -8.989  0.00  0.00     0.090 C 
BRANCH  11  12
ATOM     12  C   UNL d   1       9.498   6.576  -8.670  0.00  0.00     0.252 C 
ATOM     13  O   UNL d   1      10.653   6.484  -9.055  0.00  0.00    -0.271 OA
ATOM     14  N   UNL d   1       9.061   7.612  -7.940  0.00  0.00    -0.233 NA
BRANCH  14  15
ATOM     15  C   UNL d   1       9.890   8.728  -7.507  0.00  0.00     0.157 C 
BRANCH  15  16
ATOM     16  C   UNL d   1      10.696   8.462  -6.239  0.00  0.00     0.021 A 
ATOM     17  C   UNL d   1      11.472   9.492  -5.666  0.00  0.00     0.097 A 
ATOM     18  N   UNL d   1      12.205   9.335  -4.542  0.00  0.00    -0.243 NA
ATOM     19  C   UNL d   1      12.199   8.126  -3.943  0.00  0.00     0.099 A 
ATOM     20  C   UNL d   1      11.466   7.030  -4.433  0.00  0.00     0.020 A 
ATOM     21  C   UNL d   1      10.701   7.203  -5.598  0.00  0.00     0.001 A 
ENDBRANCH  15  16
ENDBRANCH  14  15
ENDBRANCH  11  12
ENDBRANCH  10  11
ENDBRANCH   9  10
ENDBRANCH   8   9
ENDBRANCH   7   8
ENDBRANCH   4   7
BRANCH   1  22
ATOM     22  C   UNL d   1      12.406   2.961 -17.775  0.00  0.00     0.056 A 
ATOM     23  C   UNL d   1      12.441   1.874 -18.700  0.00  0.00     0.015 A 
ATOM     24  C   UNL d   1      13.511   1.837 -19.620  0.00  0.00     0.001 A 
ATOM     25  C   UNL d   1      14.531   2.811 -19.626  0.00  0.00     0.000 A 
ATOM     26  C   UNL d   1      14.488   3.865 -18.697  0.00  0.00     0.002 A 
ATOM     27  C   UNL d   1      13.426   3.939 -17.780  0.00  0.00     0.017 A 
BRANCH  23  28
ATOM     28  C   UNL d   1      11.425   0.798 -18.767  0.00  0.00     0.002 C 
ATOM     29  C   UNL d   1      11.142  -0.019 -17.655  0.00  0.00     0.002 C 
ATOM     30  C   UNL d   1      10.077  -0.916 -17.697  0.00  0.00     0.024 C 
ATOM     31  C   UNL d   1       9.350  -1.158 -18.886  0.00  0.00     0.094 C 
ATOM     32  C   UNL d   1       9.705  -0.427 -20.058  0.00  0.00     0.024 C 
ATOM     33  C   UNL d   1      10.721   0.564 -19.991  0.00  0.00     0.002 C 
BRANCH  31  34
ATOM     34  O   UNL d   1       8.367  -2.129 -18.835  0.00  0.00    -0.328 OA
ATOM     35  C   UNL d   1       7.659  -2.409 -20.024  0.00  0.00     0.181 C 
ENDBRANCH  31  34
ENDBRANCH  23  28
ENDBRANCH   1  22
TORSDOF 11
