REMARK  4 active torsions:
REMARK  status: ('A' for Active; 'I' for Inactive)
REMARK    1  A    between atoms: C_8  and  C_9 
REMARK    2  A    between atoms: C_9  and  C_10 
REMARK    3  A    between atoms: C_10  and  N_11 
REMARK    4  A    between atoms: N_14  and  C_15 
ROOT
ATOM      1  N   UNL d   1       9.168   6.010  -9.480  0.00  0.00     0.141 N 
ATOM      2  C   UNL d   1       9.971   5.385  -8.447  0.00  0.00     0.274 C 
ATOM      3  C   UNL d   1       9.831   6.124  -7.124  0.00  0.00     0.137 C 
ATOM      4  N   UNL d   1      10.142   7.529  -7.258  0.00  0.00    -0.344 N 
ATOM      5  C   UNL d   1       9.410   8.200  -8.342  0.00  0.00     0.137 C 
ATOM      6  C   UNL d   1       9.610   7.404  -9.651  0.00  0.00     0.274 C 
ENDROOT
BRANCH   1   7
ATOM      7  C   UNL d   1       9.332   5.266 -10.713  0.00  0.00     0.255 C 
BRANCH   7   8
ATOM      8  C   UNL d   1       8.184   5.549 -11.679  0.00  0.00     0.068 C 
BRANCH   8   9
ATOM      9  C   UNL d   1       8.009   4.485 -12.768  0.00  0.00     0.050 A 
ATOM     10  C   UNL d   1       6.803   3.916 -13.040  0.00  0.00     0.061 A 
ATOM     11  C   UNL d   1       5.525   4.271 -12.303  0.00  0.00     0.052 C 
ATOM     12  N   UNL d   1       6.662   2.949 -14.032  0.00  0.00    -0.236 NA
ATOM     13  C   UNL d   1       7.696   2.558 -14.704  0.00  0.00     0.137 A 
ATOM     14  C   UNL d   1       7.521   1.532 -15.829  0.00  0.00     0.137 C 
ATOM     15  N   UNL d   1       8.989   3.104 -14.489  0.00  0.00    -0.284 N 
ATOM     16  C   UNL d   1       8.806   0.854 -16.304  0.00  0.00     0.026 C 
ATOM     17 CL   UNL d   1       6.345   0.264 -15.377  0.00  0.00    -0.107 Cl
ATOM     18  C   UNL d   1       9.864   1.910 -16.565  0.00  0.00     0.026 C 
ATOM     19  C   UNL d   1      10.169   2.638 -15.256  0.00  0.00     0.110 C 
ATOM     20  C   UNL d   1       9.197   4.063 -13.538  0.00  0.00     0.259 A 
ATOM     21  O   UNL d   1      10.321   4.539 -13.351  0.00  0.00    -0.267 OA
ENDBRANCH   8   9
ENDBRANCH   7   8
ENDBRANCH   1   7
BRANCH   4  22
ATOM     22  C   UNL d   1      11.031   8.177  -6.377  0.00  0.00     0.057 A 
ATOM     23  C   UNL d   1      11.399   7.693  -5.065  0.00  0.00     0.022 A 
ATOM     24  C   UNL d   1      12.305   8.438  -4.277  0.00  0.00     0.031 A 
ATOM     25  C   UNL d   1      10.974   6.561  -4.318  0.00  0.00     0.009 A 
ATOM     26  C   UNL d   1      12.889   9.579  -4.768  0.00  0.00     0.007 A 
ATOM     27  S   UNL d   1      12.619   7.734  -2.716  0.00  0.00    -0.086 SA
ATOM     28  C   UNL d   1      12.514  10.057  -6.026  0.00  0.00     0.002 A 
ATOM     29  C   UNL d   1      11.629   9.369  -6.837  0.00  0.00     0.017 A 
ATOM     30  C   UNL d   1      11.558   6.440  -3.082  0.00  0.00     0.035 A 
ENDBRANCH   4  22
TORSDOF 4
