REMARK  10 active torsions:
REMARK  status: ('A' for Active; 'I' for Inactive)
REMARK    1  A    between atoms: O_2  and  C_3 
REMARK    2  A    between atoms: C_8  and  N_9 
REMARK    3  A    between atoms: N_12  and  C_13 
REMARK    4  A    between atoms: C_13  and  C_14 
REMARK    5  A    between atoms: C_14  and  C_15 
REMARK    6  A    between atoms: C_15  and  C_16 
REMARK    7  A    between atoms: C_16  and  N_17 
REMARK       I    between atoms: N_17  and  C_18 
REMARK    8  A    between atoms: C_18  and  C_20 
REMARK    9  A    between atoms: C_21  and  C_22 
REMARK   10  A    between atoms: C_23  and  C_24 
ROOT
ATOM      1  C   UNL d   1       9.845   4.392 -14.473  0.00  0.00     0.037 C 
ENDROOT
BRANCH   1   2
ATOM      2  C   UNL d   1       9.995   2.978 -15.049  0.00  0.00     0.251 C 
BRANCH   2   3
ATOM      3  N   UNL d   1       8.690   2.528 -15.541  0.00  0.00     0.141 N 
ATOM      4  C   UNL d   1       8.759   2.256 -16.979  0.00  0.00     0.274 C 
ATOM      5  C   UNL d   1       7.382   1.821 -17.516  0.00  0.00     0.137 C 
ATOM      6  N   UNL d   1       6.871   0.691 -16.763  0.00  0.00    -0.343 N 
ATOM      7  C   UNL d   1       6.873   0.867 -15.316  0.00  0.00     0.137 C 
ATOM      8  C   UNL d   1       8.264   1.321 -14.836  0.00  0.00     0.274 C 
BRANCH   6   9
ATOM      9  C   UNL d   1       6.487  -0.513 -17.383  0.00  0.00     0.079 A 
ATOM     10  C   UNL d   1       5.337  -1.232 -16.954  0.00  0.00     0.110 A 
ATOM     11  C   UNL d   1       5.007  -2.446 -17.611  0.00  0.00     0.026 A 
ATOM     12  C   UNL d   1       5.785  -2.930 -18.676  0.00  0.00     0.002 A 
ATOM     13  C   UNL d   1       6.912  -2.215 -19.104  0.00  0.00     0.002 A 
ATOM     14  C   UNL d   1       7.263  -1.015 -18.455  0.00  0.00     0.019 A 
BRANCH  10  15
ATOM     15  O   UNL d   1       4.578  -0.708 -15.922  0.00  0.00    -0.327 OA
ATOM     16  C   UNL d   1       3.381  -1.365 -15.554  0.00  0.00     0.181 C 
ENDBRANCH  10  15
ENDBRANCH   6   9
ENDBRANCH   2   3
ENDBRANCH   1   2
BRANCH   1  17
ATOM     17  C   UNL d   1       9.669   4.415 -12.943  0.00  0.00     0.029 C 
BRANCH  17  18
ATOM     18  C   UNL d   1       8.798   5.589 -12.474  0.00  0.00     0.129 C 
BRANCH  18  19
ATOM     19  N   UNL d   1       9.233   6.097 -11.182  0.00  0.00    -0.234 NA
ATOM     20  C   UNL d   1       9.501   7.382 -10.916  0.00  0.00     0.275 C 
ATOM     21  O   UNL d   1       9.463   8.276 -11.766  0.00  0.00    -0.266 OA
BRANCH  20  22
ATOM     22  C   UNL d   1       9.847   7.550  -9.516  0.00  0.00     0.062 C 
ATOM     23  C   UNL d   1      10.307   8.722  -9.035  0.00  0.00     0.005 C 
BRANCH  23  24
ATOM     24  C   UNL d   1      10.673   8.938  -7.644  0.00  0.00     0.000 C 
ATOM     25  C   UNL d   1      10.968   7.942  -6.787  0.00  0.00     0.000 C 
BRANCH  25  26
ATOM     26  C   UNL d   1      11.329   8.068  -5.370  0.00  0.00     0.000 A 
ATOM     27  C   UNL d   1      11.498   6.879  -4.633  0.00  0.00     0.000 A 
ATOM     28  C   UNL d   1      11.861   6.915  -3.275  0.00  0.00     0.000 A 
ATOM     29  C   UNL d   1      12.048   8.158  -2.640  0.00  0.00     0.000 A 
ATOM     30  C   UNL d   1      11.860   9.354  -3.362  0.00  0.00     0.000 A 
ATOM     31  C   UNL d   1      11.502   9.312  -4.725  0.00  0.00     0.000 A 
ENDBRANCH  25  26
ENDBRANCH  23  24
ENDBRANCH  20  22
ENDBRANCH  18  19
ENDBRANCH  17  18
ENDBRANCH   1  17
TORSDOF 10
