REMARK  4 active torsions:
REMARK  status: ('A' for Active; 'I' for Inactive)
REMARK    1  A    between atoms: N_3  and  C_4 
REMARK    2  A    between atoms: C_4  and  C_5 
REMARK    3  A    between atoms: N_13  and  C_14 
REMARK    4  A    between atoms: C_18  and  C_19 
ROOT
ATOM      1  O   UNL d   1       9.421   7.412 -11.550  0.00  0.00    -0.247 OA
ATOM      2  C   UNL d   1       9.455   6.640 -10.593  0.00  0.00     0.328 A 
ATOM      3  N   UNL d   1       9.811   6.939  -9.353  0.00  0.00    -0.298 N 
ATOM      4  C   UNL d   1       9.646   5.779  -8.513  0.00  0.00     0.131 A 
ATOM      5  C   UNL d   1       9.160   4.678  -9.347  0.00  0.00     0.135 A 
ATOM      6  N   UNL d   1       9.091   5.346 -10.621  0.00  0.00    -0.280 N 
ENDROOT
BRANCH   6   7
ATOM      7  C   UNL d   1       8.650   4.689 -11.768  0.00  0.00     0.064 A 
ATOM      8  C   UNL d   1       9.586   4.048 -12.598  0.00  0.00     0.021 A 
ATOM      9  C   UNL d   1       9.144   3.388 -13.750  0.00  0.00     0.073 A 
ATOM     10  C   UNL d   1       7.764   3.355 -14.019  0.00  0.00     0.004 A 
ATOM     11  C   UNL d   1       6.833   3.982 -13.189  0.00  0.00     0.001 A 
ATOM     12  C   UNL d   1       7.276   4.653 -12.046  0.00  0.00     0.017 A 
BRANCH   9  13
ATOM     13  C   UNL d   1      10.134   2.688 -14.669  0.00  0.00     0.419 C 
ATOM     14  F   UNL d   1      11.385   3.092 -14.436  0.00  0.00    -0.166 F 
ATOM     15  F   UNL d   1      10.062   1.375 -14.469  0.00  0.00    -0.166 F 
ATOM     16  F   UNL d   1       9.834   2.948 -15.940  0.00  0.00    -0.166 F 
ENDBRANCH   9  13
ENDBRANCH   6   7
BRANCH   3  17
ATOM     17  C   UNL d   1      10.239   8.268  -8.889  0.00  0.00     0.142 C 
BRANCH  17  18
ATOM     18  C   UNL d   1      11.077   8.238  -7.586  0.00  0.00     0.279 C 
ATOM     19  N   UNL d   1      11.292   9.613  -7.121  0.00  0.00     0.339 N 
ATOM     20  C   UNL d   1      12.150   9.627  -5.946  0.00  0.00     0.290 C 
ATOM     21  C   UNL d   1      11.530   8.861  -4.769  0.00  0.00     0.038 C 
ATOM     22  C   UNL d   1      11.233   7.429  -5.168  0.00  0.00     0.004 C 
ATOM     23  C   UNL d   1      10.386   7.481  -6.407  0.00  0.00     0.038 C 
ENDBRANCH  17  18
ENDBRANCH   3  17
TORSDOF 4
