REMARK  6 active torsions:
REMARK  status: ('A' for Active; 'I' for Inactive)
REMARK    1  A    between atoms: C_2  and  C_3 
REMARK    2  A    between atoms: N_13  and  C_14 
REMARK    3  A    between atoms: C_14  and  C_15 
REMARK    4  A    between atoms: C_15  and  C_17 
REMARK    5  A    between atoms: C_17  and  N_18 
REMARK    6  A    between atoms: N_21  and  C_22 
ROOT
ATOM      1  C   UNL d   1       7.256   3.828 -13.704  0.00  0.00     0.148 C 
ENDROOT
BRANCH   1   2
ATOM      2  N   UNL d   1       8.520   3.389 -14.348  0.00  0.00    -0.247 N 
ATOM      3  C   UNL d   1       9.692   4.058 -14.429  0.00  0.00     0.348 A 
ATOM      4  N   UNL d   1      10.586   3.281 -15.063  0.00  0.00    -0.209 NA
ATOM      5  O   UNL d   1       9.935   5.187 -14.016  0.00  0.00    -0.245 OA
ATOM      6  C   UNL d   1      10.012   2.044 -15.548  0.00  0.00     0.179 A 
ATOM      7  C   UNL d   1      10.782   0.873 -14.912  0.00  0.00     0.039 C 
ATOM      8  C   UNL d   1       8.614   2.201 -14.955  0.00  0.00     0.265 A 
ATOM      9  O   UNL d   1       7.719   1.359 -15.023  0.00  0.00    -0.269 OA
BRANCH   6  10
ATOM     10  C   UNL d   1       9.945   1.982 -17.084  0.00  0.00     0.006 A 
ATOM     11  C   UNL d   1      10.059   3.167 -17.862  0.00  0.00     0.000 A 
ATOM     12  C   UNL d   1      10.020   3.107 -19.266  0.00  0.00     0.029 A 
ATOM     13  C   UNL d   1       9.861   1.867 -19.912  0.00  0.00     0.140 A 
ATOM     14  C   UNL d   1       9.740   0.690 -19.154  0.00  0.00     0.029 A 
ATOM     15  F   UNL d   1       9.819   1.807 -21.261  0.00  0.00    -0.204 F 
ATOM     16  C   UNL d   1       9.774   0.748 -17.749  0.00  0.00     0.000 A 
ENDBRANCH   6  10
ENDBRANCH   1   2
BRANCH   1  17
ATOM     17  C   UNL d   1       7.401   5.023 -12.740  0.00  0.00     0.208 C 
ATOM     18  O   UNL d   1       6.128   5.501 -12.329  0.00  0.00    -0.219 OA
BRANCH  17  19
ATOM     19  C   UNL d   1       8.174   4.608 -11.464  0.00  0.00     0.285 C 
BRANCH  19  20
ATOM     20  N   UNL d   1       9.240   5.510 -11.052  0.00  0.00     0.144 N 
ATOM     21  C   UNL d   1       8.693   6.831 -10.780  0.00  0.00     0.274 C 
ATOM     22  C   UNL d   1       9.720   7.898 -10.332  0.00  0.00     0.137 C 
ATOM     23  N   UNL d   1      10.296   7.375  -9.105  0.00  0.00    -0.343 N 
ATOM     24  C   UNL d   1      10.828   6.055  -9.272  0.00  0.00     0.137 C 
ATOM     25  C   UNL d   1       9.806   5.042  -9.804  0.00  0.00     0.274 C 
BRANCH  23  26
ATOM     26  C   UNL d   1      10.584   8.057  -7.938  0.00  0.00     0.084 A 
ATOM     27  C   UNL d   1      10.447   7.398  -6.695  0.00  0.00     0.155 A 
ATOM     28  C   UNL d   1      10.691   8.074  -5.491  0.00  0.00     0.031 A 
ATOM     29  F   UNL d   1      10.015   6.128  -6.642  0.00  0.00    -0.203 F 
ATOM     30  C   UNL d   1      11.013   9.428  -5.499  0.00  0.00     0.002 A 
ATOM     31  C   UNL d   1      11.174  10.092  -6.726  0.00  0.00     0.002 A 
ATOM     32  C   UNL d   1      10.987   9.414  -7.945  0.00  0.00     0.019 A 
ENDBRANCH  23  26
ENDBRANCH  19  20
ENDBRANCH  17  19
ENDBRANCH   1  17
TORSDOF 6
