REMARK  7 active torsions:
REMARK  status: ('A' for Active; 'I' for Inactive)
REMARK    1  A    between atoms: C_9  and  O_10 
REMARK    2  A    between atoms: O_10  and  C_11 
REMARK    3  A    between atoms: C_11  and  C_12 
REMARK    4  A    between atoms: C_12  and  C_13 
REMARK    5  A    between atoms: C_13  and  C_14 
REMARK    6  A    between atoms: C_14  and  N_15 
REMARK    7  A    between atoms: N_18  and  C_19 
ROOT
ATOM      1  N   UNL d   1       9.382   5.626  -9.387  0.00  0.00     0.141 N 
ATOM      2  C   UNL d   1      10.601   6.431  -9.305  0.00  0.00     0.274 C 
ATOM      3  C   UNL d   1      11.117   6.370  -7.855  0.00  0.00     0.137 C 
ATOM      4  N   UNL d   1      10.155   6.925  -6.953  0.00  0.00    -0.344 N 
ATOM      5  C   UNL d   1       8.779   6.537  -7.155  0.00  0.00     0.137 C 
ATOM      6  C   UNL d   1       8.436   6.385  -8.609  0.00  0.00     0.274 C 
ENDROOT
BRANCH   1   7
ATOM      7  C   UNL d   1       8.897   5.582 -10.772  0.00  0.00     0.251 C 
BRANCH   7   8
ATOM      8  C   UNL d   1       9.717   4.650 -11.682  0.00  0.00     0.038 C 
BRANCH   8   9
ATOM      9  C   UNL d   1       8.977   4.148 -12.911  0.00  0.00     0.035 C 
BRANCH   9  10
ATOM     10  C   UNL d   1       9.914   3.319 -13.836  0.00  0.00     0.149 C 
BRANCH  10  11
ATOM     11  O   UNL d   1       9.498   3.383 -15.191  0.00  0.00    -0.330 OA
BRANCH  11  12
ATOM     12  C   UNL d   1       8.562   2.483 -15.638  0.00  0.00     0.105 A 
ATOM     13  C   UNL d   1       8.457   2.310 -17.047  0.00  0.00     0.080 A 
ATOM     14  C   UNL d   1       7.530   1.398 -17.600  0.00  0.00     0.011 A 
ATOM     15 CL   UNL d   1       9.473   3.220 -18.111  0.00  0.00    -0.080 Cl
ATOM     16  C   UNL d   1       6.700   0.691 -16.713  0.00  0.00     0.008 A 
ATOM     17  C   UNL d   1       5.639  -0.342 -16.988  0.00  0.00     0.155 A 
ATOM     18  C   UNL d   1       6.779   0.876 -15.349  0.00  0.00     0.058 A 
ATOM     19  N   UNL d   1       5.161  -0.668 -15.633  0.00  0.00    -0.229 NA
ATOM     20  C   UNL d   1       5.784   0.023 -14.664  0.00  0.00     0.275 A 
ATOM     21  O   UNL d   1       5.585  -0.009 -13.452  0.00  0.00    -0.266 OA
ATOM     22  C   UNL d   1       7.699   1.756 -14.773  0.00  0.00     0.030 A 
ENDBRANCH  11  12
ENDBRANCH  10  11
ENDBRANCH   9  10
ENDBRANCH   8   9
ENDBRANCH   7   8
ENDBRANCH   1   7
BRANCH   4  23
ATOM     23  C   UNL d   1      10.539   7.979  -6.189  0.00  0.00     0.056 C 
ATOM     24  C   UNL d   1      11.155   7.844  -4.918  0.00  0.00     0.015 A 
ATOM     25  C   UNL d   1      11.473   8.959  -4.122  0.00  0.00     0.001 A 
ATOM     26  C   UNL d   1      11.373   6.572  -4.393  0.00  0.00     0.001 A 
ATOM     27  C   UNL d   1      11.195  10.217  -4.620  0.00  0.00     0.000 C 
ATOM     28  C   UNL d   1      12.002   8.855  -2.821  0.00  0.00     0.000 A 
ATOM     29  C   UNL d   1      10.763  10.317  -5.945  0.00  0.00     0.002 C 
ATOM     30  C   UNL d   1      10.384   9.255  -6.720  0.00  0.00     0.017 C 
ATOM     31  C   UNL d   1      12.211   7.578  -2.308  0.00  0.00     0.000 A 
ATOM     32  C   UNL d   1      11.886   6.463  -3.098  0.00  0.00     0.000 A 
ENDBRANCH   4  23
TORSDOF 7
