REMARK  1 active torsions:
REMARK  status: ('A' for Active; 'I' for Inactive)
REMARK    1  A    between atoms: C_2  and  C_3 
ROOT
ATOM      1  C   UNL d   1      10.888   8.627  -6.190  0.00  0.00     0.016 A 
ATOM      2  C   UNL d   1      10.933   9.987  -6.110  0.00  0.00     0.099 A 
ATOM      3  N   UNL d   1      11.310  10.323  -4.831  0.00  0.00    -0.244 NA
ATOM      4  C   UNL d   1      11.601   9.200  -4.088  0.00  0.00     0.081 A 
ATOM      5  C   UNL d   1      12.075   9.044  -2.777  0.00  0.00     0.019 A 
ATOM      6  C   UNL d   1      12.259   7.752  -2.259  0.00  0.00     0.002 A 
ATOM      7  C   UNL d   1      11.958   6.631  -3.053  0.00  0.00     0.000 A 
ATOM      8  C   UNL d   1      11.492   6.793  -4.375  0.00  0.00     0.002 A 
ATOM      9  C   UNL d   1      11.308   8.080  -4.927  0.00  0.00     0.019 A 
ENDROOT
BRANCH   1  10
ATOM     10  C   UNL d   1      10.457   7.907  -7.385  0.00  0.00    -0.021 C 
ATOM     11  C   UNL d   1       9.713   6.787  -7.306  0.00  0.00     0.007 C 
ATOM     12  C   UNL d   1       9.296   5.978  -8.521  0.00  0.00     0.316 C 
ATOM     13  N   UNL d   1      10.025   6.333  -9.737  0.00  0.00     0.344 N 
ATOM     14  C   UNL d   1      10.120   7.776  -9.892  0.00  0.00     0.295 C 
ATOM     15  C   UNL d   1      10.943   8.377  -8.745  0.00  0.00     0.064 C 
ENDBRANCH   1  10
TORSDOF 1
