REMARK  7 active torsions:
REMARK  status: ('A' for Active; 'I' for Inactive)
REMARK    1  A    between atoms: S_2  and  N_4 
REMARK    2  A    between atoms: S_2  and  C_20 
REMARK    3  A    between atoms: N_4  and  C_5 
REMARK    4  A    between atoms: N_8  and  C_9 
REMARK    5  A    between atoms: C_9  and  C_10 
REMARK    6  A    between atoms: C_10  and  O_11 
REMARK    7  A    between atoms: O_11  and  C_12 
ROOT
ATOM      1  C   UNL d   1       9.618   6.388 -10.559  0.00  0.00     0.151 C 
ATOM      2  C   UNL d   1       9.077   7.200 -11.733  0.00  0.00     0.063 C 
ATOM      3  C   UNL d   1       7.847   6.416 -12.192  0.00  0.00     0.253 C 
ATOM      4  N   UNL d   1       8.109   5.052 -11.758  0.00  0.00     0.142 N 
ATOM      5  C   UNL d   1       8.643   5.223 -10.412  0.00  0.00     0.275 C 
ENDROOT
BRANCH   1   6
ATOM      6  N   UNL d   1       9.682   7.160  -9.324  0.00  0.00    -0.185 NA
BRANCH   6   7
ATOM      7  S   UNL d   1      11.021   8.210  -9.048  0.00  0.00     0.281 S 
ATOM      8  O   UNL d   1      12.211   7.592  -9.640  0.00  0.00    -0.199 OA
ATOM      9  O   UNL d   1      10.616   9.562  -9.441  0.00  0.00    -0.199 OA
BRANCH   7  10
ATOM     10  C   UNL d   1      11.193   8.134  -7.270  0.00  0.00     0.107 A 
ATOM     11  C   UNL d   1      11.263   9.318  -6.508  0.00  0.00     0.045 A 
ATOM     12  C   UNL d   1      11.394   9.234  -5.108  0.00  0.00     0.168 A 
ATOM     13  C   UNL d   1      11.465   7.972  -4.479  0.00  0.00     0.167 A 
ATOM     14  F   UNL d   1      11.438  10.363  -4.363  0.00  0.00    -0.202 F 
ATOM     15  C   UNL d   1      11.394   6.794  -5.248  0.00  0.00     0.033 A 
ATOM     16  F   UNL d   1      11.595   7.890  -3.133  0.00  0.00    -0.202 F 
ATOM     17  C   UNL d   1      11.252   6.874  -6.647  0.00  0.00     0.015 A 
ENDBRANCH   7  10
ENDBRANCH   6   7
ENDBRANCH   1   6
BRANCH   4  18
ATOM     18  C   UNL d   1       6.891   4.242 -11.763  0.00  0.00     0.283 C 
BRANCH  18  19
ATOM     19  C   UNL d   1       6.723   3.553 -13.125  0.00  0.00     0.184 C 
BRANCH  19  20
ATOM     20  O   UNL d   1       5.843   2.438 -12.985  0.00  0.00    -0.329 OA
BRANCH  20  21
ATOM     21  C   UNL d   1       5.877   1.432 -13.932  0.00  0.00     0.096 A 
ATOM     22  C   UNL d   1       6.700   1.446 -15.087  0.00  0.00     0.054 A 
ATOM     23  C   UNL d   1       6.652   0.388 -16.015  0.00  0.00     0.142 A 
ATOM     24  C   UNL d   1       5.780  -0.696 -15.810  0.00  0.00     0.030 A 
ATOM     25  F   UNL d   1       7.444   0.425 -17.113  0.00  0.00    -0.204 F 
ATOM     26  C   UNL d   1       4.962  -0.727 -14.668  0.00  0.00     0.004 A 
ATOM     27  C   UNL d   1       5.018   0.329 -13.735  0.00  0.00     0.024 A 
ENDBRANCH  20  21
ENDBRANCH  19  20
ENDBRANCH  18  19
ENDBRANCH   4  18
TORSDOF 7
