REMARK  8 active torsions:
REMARK  status: ('A' for Active; 'I' for Inactive)
REMARK    1  A    between atoms: S_2  and  N_4 
REMARK    2  A    between atoms: S_2  and  C_25 
REMARK    3  A    between atoms: N_4  and  C_5 
REMARK    4  A    between atoms: N_8  and  C_9 
REMARK    5  A    between atoms: C_9  and  C_10 
REMARK    6  A    between atoms: C_10  and  O_11 
REMARK    7  A    between atoms: O_11  and  C_12 
REMARK    8  A    between atoms: C_17  and  C_18 
ROOT
ATOM      1  C   UNL d   1       9.142   6.445  -9.068  0.00  0.00     0.151 C 
ATOM      2  C   UNL d   1       9.588   5.101  -8.549  0.00  0.00     0.063 C 
ATOM      3  C   UNL d   1       9.207   4.187  -9.620  0.00  0.00     0.253 C 
ATOM      4  N   UNL d   1       9.286   4.973 -10.849  0.00  0.00     0.142 N 
ATOM      5  C   UNL d   1       8.570   6.170 -10.456  0.00  0.00     0.275 C 
ENDROOT
BRANCH   4   6
ATOM      6  C   UNL d   1       8.588   4.275 -11.888  0.00  0.00     0.283 C 
BRANCH   6   7
ATOM      7  C   UNL d   1       8.719   4.934 -13.280  0.00  0.00     0.184 C 
BRANCH   7   8
ATOM      8  O   UNL d   1       8.471   4.021 -14.348  0.00  0.00    -0.329 OA
BRANCH   8   9
ATOM      9  C   UNL d   1       7.474   3.080 -14.203  0.00  0.00     0.094 C 
ATOM     10  C   UNL d   1       7.639   1.783 -14.789  0.00  0.00     0.022 C 
ATOM     11  C   UNL d   1       6.675   0.777 -14.543  0.00  0.00     0.002 C 
ATOM     12  C   UNL d   1       5.585   1.025 -13.689  0.00  0.00     0.000 C 
ATOM     13  C   UNL d   1       5.436   2.306 -13.136  0.00  0.00     0.002 C 
ATOM     14  C   UNL d   1       6.303   3.356 -13.452  0.00  0.00     0.024 C 
BRANCH  10  15
ATOM     15  C   UNL d   1       8.831   1.464 -15.621  0.00  0.00     0.002 A 
ATOM     16  C   UNL d   1       8.670   0.770 -16.843  0.00  0.00     0.000 A 
ATOM     17  C   UNL d   1       9.771   0.481 -17.672  0.00  0.00     0.000 A 
ATOM     18  C   UNL d   1      11.066   0.876 -17.285  0.00  0.00     0.000 A 
ATOM     19  C   UNL d   1      11.250   1.551 -16.066  0.00  0.00     0.000 A 
ATOM     20  C   UNL d   1      10.145   1.821 -15.234  0.00  0.00     0.000 A 
ENDBRANCH  10  15
ENDBRANCH   8   9
ENDBRANCH   7   8
ENDBRANCH   6   7
ENDBRANCH   4   6
BRANCH   1  21
ATOM     21  N   UNL d   1      10.300   7.322  -9.199  0.00  0.00    -0.184 NA
BRANCH  21  22
ATOM     22  S   UNL d   1      10.402   8.704  -8.214  0.00  0.00     0.287 S 
ATOM     23  O   UNL d   1      11.457   9.545  -8.793  0.00  0.00    -0.198 OA
ATOM     24  O   UNL d   1       9.042   9.187  -8.023  0.00  0.00    -0.198 OA
BRANCH  22  25
ATOM     25  C   UNL d   1      10.947   8.157  -6.610  0.00  0.00     0.135 A 
ATOM     26  S   UNL d   1      11.440   9.305  -5.368  0.00  0.00    -0.062 SA
ATOM     27  C   UNL d   1      11.756   7.971  -4.284  0.00  0.00     0.088 A 
ATOM     28  C   UNL d   1      11.471   6.759  -4.854  0.00  0.00     0.019 A 
ATOM     29 CL   UNL d   1      12.338   8.248  -2.687  0.00  0.00    -0.075 Cl
ATOM     30  C   UNL d   1      11.007   6.857  -6.182  0.00  0.00     0.021 A 
ENDBRANCH  22  25
ENDBRANCH  21  22
ENDBRANCH   1  21
TORSDOF 8
