REMARK  4 active torsions:
REMARK  status: ('A' for Active; 'I' for Inactive)
REMARK    1  A    between atoms: N_12  and  C_13 
REMARK    2  A    between atoms: C_13  and  C_14 
REMARK    3  A    between atoms: C_14  and  N_15 
REMARK    4  A    between atoms: N_18  and  C_19 
ROOT
ATOM      1  N   UNL d   1       9.156   5.905 -10.101  0.00  0.00     0.143 N 
ATOM      2  C   UNL d   1      10.355   6.746 -10.088  0.00  0.00     0.274 C 
ATOM      3  C   UNL d   1      10.215   7.910  -9.120  0.00  0.00     0.137 C 
ATOM      4  N   UNL d   1       9.935   7.408  -7.781  0.00  0.00    -0.343 N 
ATOM      5  C   UNL d   1       8.794   6.494  -7.719  0.00  0.00     0.137 C 
ATOM      6  C   UNL d   1       8.946   5.357  -8.755  0.00  0.00     0.274 C 
ENDROOT
BRANCH   1   7
ATOM      7  C   UNL d   1       9.310   4.821 -11.061  0.00  0.00     0.275 C 
BRANCH   7   8
ATOM      8  C   UNL d   1       9.256   5.343 -12.512  0.00  0.00     0.147 C 
BRANCH   8   9
ATOM      9  N   UNL d   1       9.405   4.222 -13.464  0.00  0.00    -0.268 N 
ATOM     10  C   UNL d   1      10.645   3.909 -13.920  0.00  0.00     0.239 C 
ATOM     11  O   UNL d   1      11.652   4.572 -13.656  0.00  0.00    -0.272 OA
ATOM     12  C   UNL d   1      10.846   2.673 -14.783  0.00  0.00     0.089 C 
ATOM     13  C   UNL d   1       9.609   2.355 -15.641  0.00  0.00     0.018 C 
ATOM     14  C   UNL d   1       9.850   1.038 -16.379  0.00  0.00     0.001 C 
ATOM     15  C   UNL d   1       9.455   3.358 -16.808  0.00  0.00     0.001 C 
ATOM     16  C   UNL d   1       8.370   2.332 -14.738  0.00  0.00     0.089 C 
ATOM     17  C   UNL d   1      10.596   1.408 -17.676  0.00  0.00     0.000 C 
ATOM     18  C   UNL d   1      10.481   2.934 -17.861  0.00  0.00     0.000 C 
ATOM     19  C   UNL d   1       8.278   3.552 -13.821  0.00  0.00     0.239 C 
ATOM     20  O   UNL d   1       7.148   3.863 -13.441  0.00  0.00    -0.272 OA
ENDBRANCH   8   9
ENDBRANCH   7   8
ENDBRANCH   1   7
BRANCH   4  21
ATOM     21  C   UNL d   1      10.658   7.809  -6.644  0.00  0.00     0.084 A 
ATOM     22  C   UNL d   1      11.265   9.085  -6.552  0.00  0.00     0.158 A 
ATOM     23  C   UNL d   1      12.031   9.441  -5.436  0.00  0.00     0.061 A 
ATOM     24  F   UNL d   1      11.104   9.967  -7.539  0.00  0.00    -0.203 F 
ATOM     25  C   UNL d   1      12.184   8.565  -4.354  0.00  0.00     0.142 A 
ATOM     26  C   UNL d   1      11.576   7.295  -4.423  0.00  0.00     0.031 A 
ATOM     27  F   UNL d   1      12.900   8.930  -3.270  0.00  0.00    -0.204 F 
ATOM     28  C   UNL d   1      10.822   6.948  -5.554  0.00  0.00     0.021 A 
ENDBRANCH   4  21
TORSDOF 4
