REMARK  8 active torsions:
REMARK  status: ('A' for Active; 'I' for Inactive)
REMARK    1  A    between atoms: C_2  and  N_3 
REMARK    2  A    between atoms: N_3  and  C_4 
REMARK    3  A    between atoms: N_3  and  C_23 
REMARK    4  A    between atoms: C_4  and  C_5 
REMARK    5  A    between atoms: C_8  and  C_9 
REMARK    6  A    between atoms: C_11  and  S_12 
REMARK    7  A    between atoms: S_12  and  C_15 
REMARK    8  A    between atoms: C_19  and  O_20 
ROOT
ATOM      1  C   UNL d   1       8.733   5.731 -11.472  0.00  0.00     0.081 C 
ATOM      2  C   UNL d   1       7.432   5.517 -11.169  0.00  0.00     0.018 C 
ATOM      3  C   UNL d   1       6.873   4.693 -12.153  0.00  0.00     0.020 C 
ATOM      4  C   UNL d   1       7.888   4.237 -12.955  0.00  0.00     0.083 C 
ATOM      5  N   UNL d   1       9.008   4.935 -12.558  0.00  0.00    -0.248 NA
ENDROOT
BRANCH   1   6
ATOM      6  C   UNL d   1       9.713   6.706 -10.970  0.00  0.00     0.144 C 
BRANCH   6   7
ATOM      7  N   UNL d   1       9.229   8.052 -10.713  0.00  0.00    -0.362 N 
BRANCH   7   8
ATOM      8  C   UNL d   1       8.633   8.835 -11.808  0.00  0.00     0.098 C 
ATOM      9  C   UNL d   1       7.446   8.152 -12.545  0.00  0.00     0.026 C 
ENDBRANCH   7   8
BRANCH   7  10
ATOM     10  C   UNL d   1      10.013   8.831  -9.764  0.00  0.00     0.100 C 
ATOM     11  C   UNL d   1      10.207   8.134  -8.441  0.00  0.00    -0.006 A 
ATOM     12  C   UNL d   1      11.494   7.625  -8.341  0.00  0.00    -0.024 A 
ATOM     13  C   UNL d   1       9.278   7.900  -7.415  0.00  0.00    -0.003 A 
ATOM     14  C   UNL d   1      12.333   7.979  -9.563  0.00  0.00     0.028 C 
ATOM     15  C   UNL d   1      11.870   6.855  -7.254  0.00  0.00    -0.004 A 
ATOM     16  C   UNL d   1      11.440   8.967 -10.321  0.00  0.00     0.031 C 
ATOM     17  C   UNL d   1      10.998   6.647  -6.175  0.00  0.00    -0.000 A 
ATOM     18  C   UNL d   1       9.710   7.166  -6.277  0.00  0.00    -0.000 A 
ENDBRANCH   7  10
ENDBRANCH   6   7
ENDBRANCH   1   6
BRANCH   4  19
ATOM     19  C   UNL d   1       7.986   3.252 -14.037  0.00  0.00     0.041 A 
ATOM     20  C   UNL d   1       6.895   2.421 -14.395  0.00  0.00     0.096 A 
ATOM     21  C   UNL d   1       7.025   1.506 -15.466  0.00  0.00     0.025 A 
ATOM     22  C   UNL d   1       8.249   1.357 -16.145  0.00  0.00     0.013 A 
ATOM     23  C   UNL d   1       9.345   2.142 -15.754  0.00  0.00     0.084 A 
ATOM     24  C   UNL d   1       9.213   3.087 -14.723  0.00  0.00     0.015 A 
BRANCH  20  25
ATOM     25  O   UNL d   1       5.674   2.538 -13.778  0.00  0.00    -0.328 OA
ATOM     26  C   UNL d   1       5.522   2.013 -12.465  0.00  0.00     0.181 C 
ENDBRANCH  20  25
BRANCH  23  27
ATOM     27  S   UNL d   1      10.913   1.960 -16.595  0.00  0.00     0.190 S 
ATOM     28  O   UNL d   1      11.917   2.698 -15.815  0.00  0.00    -0.222 OA
ATOM     29  O   UNL d   1      11.104   0.530 -16.883  0.00  0.00    -0.222 OA
BRANCH  27  30
ATOM     30  C   UNL d   1      10.692   2.843 -18.195  0.00  0.00     0.127 C 
ATOM     31  C   UNL d   1      10.623   4.362 -17.994  0.00  0.00     0.018 C 
ENDBRANCH  27  30
ENDBRANCH  23  27
ENDBRANCH   4  19
TORSDOF 8
