REMARK  4 active torsions:
REMARK  status: ('A' for Active; 'I' for Inactive)
REMARK    1  A    between atoms: C_2  and  N_5 
REMARK    2  A    between atoms: N_5  and  C_6 
REMARK    3  A    between atoms: C_6  and  C_7 
REMARK    4  A    between atoms: C_7  and  C_9 
ROOT
ATOM      1  C   UNL d   1      11.432   9.072  -6.460  0.00  0.00     0.011 A 
ATOM      2  C   UNL d   1      12.301   8.902  -7.543  0.00  0.00     0.011 A 
ATOM      3  C   UNL d   1      11.980   8.069  -8.623  0.00  0.00     0.071 A 
ATOM      4 CL   UNL d   1      13.085   7.986  -9.950  0.00  0.00    -0.081 Cl
ATOM      5  C   UNL d   1      10.787   7.309  -8.589  0.00  0.00     0.091 A 
ATOM      6  N   UNL d   1      10.424   6.461  -9.630  0.00  0.00    -0.099 NA
ATOM      7  C   UNL d   1       9.978   7.391  -7.439  0.00  0.00     0.071 A 
ATOM      8 CL   UNL d   1       8.640   6.354  -7.239  0.00  0.00    -0.081 Cl
ATOM      9  C   UNL d   1      10.265   8.283  -6.405  0.00  0.00     0.011 A 
ENDROOT
BRANCH   1  10
ATOM     10  C   UNL d   1      11.768  10.048  -5.355  0.00  0.00     0.198 C 
ATOM     11  O   UNL d   1      10.659  10.774  -4.901  0.00  0.00    -0.216 OA
BRANCH  10  12
ATOM     12  C   UNL d   1      12.396   9.382  -4.134  0.00  0.00     0.157 C 
BRANCH  12  13
ATOM     13  N   UNL d   1      11.476   8.398  -3.546  0.00  0.00    -0.296 NA
BRANCH  13  14
ATOM     14  C   UNL d   1      11.996   7.532  -2.496  0.00  0.00     0.080 C 
ATOM     15  C   UNL d   1      13.050   6.626  -3.072  0.00  0.00     0.024 C 
ATOM     16  C   UNL d   1      10.866   6.628  -1.997  0.00  0.00     0.024 C 
ATOM     17  C   UNL d   1      12.622   8.338  -1.354  0.00  0.00     0.024 C 
ENDBRANCH  13  14
ENDBRANCH  12  13
ENDBRANCH  10  12
ENDBRANCH   1  10
TORSDOF 4
