REMARK  8 active torsions:
REMARK  status: ('A' for Active; 'I' for Inactive)
REMARK    1  A    between atoms: O_2  and  C_3 
REMARK    2  A    between atoms: C_3  and  C_5 
REMARK    3  A    between atoms: C_5  and  C_6 
REMARK       I    between atoms: C_6  and  N_8 
REMARK    4  A    between atoms: N_8  and  C_9 
REMARK    5  A    between atoms: C_12  and  C_13 
REMARK    6  A    between atoms: C_13  and  C_14 
REMARK    7  A    between atoms: C_14  and  N_15 
REMARK    8  A    between atoms: N_18  and  C_19 
ROOT
ATOM      1  C   UNL d   1       9.575   6.248 -11.643  0.00  0.00     0.250 C 
ENDROOT
BRANCH   1   2
ATOM      2  C   UNL d   1       8.412   5.389 -12.172  0.00  0.00     0.035 C 
BRANCH   2   3
ATOM      3  C   UNL d   1       8.810   4.439 -13.322  0.00  0.00     0.002 C 
ATOM      4  C   UNL d   1       9.919   3.447 -12.907  0.00  0.00     0.002 C 
ATOM      5  C   UNL d   1      10.304   2.480 -14.025  0.00  0.00     0.024 C 
ATOM      6  C   UNL d   1       9.073   1.714 -14.552  0.00  0.00     0.106 C 
ATOM      7  C   UNL d   1       7.931   2.677 -14.938  0.00  0.00     0.024 C 
ATOM      8  C   UNL d   1       7.571   3.662 -13.820  0.00  0.00     0.002 C 
BRANCH   6   9
ATOM      9  N   UNL d   1       9.441   0.842 -15.675  0.00  0.00    -0.240 NA
ATOM     10  C   UNL d   1       9.928   1.260 -16.860  0.00  0.00     0.254 C 
ATOM     11  O   UNL d   1      10.052   2.445 -17.163  0.00  0.00    -0.271 OA
BRANCH  10  12
ATOM     12  C   UNL d   1      10.334   0.200 -17.879  0.00  0.00     0.119 C 
BRANCH  12  13
ATOM     13  C   UNL d   1      11.845   0.223 -18.235  0.00  0.00     0.125 C 
ATOM     14  C   UNL d   1      12.376   1.564 -18.814  0.00  0.00     0.033 C 
BRANCH  13  15
ATOM     15  O   UNL d   1      12.063  -0.809 -19.194  0.00  0.00    -0.353 OA
ATOM     16  C   UNL d   1      13.417  -1.204 -19.365  0.00  0.00     0.174 C 
ENDBRANCH  13  15
ENDBRANCH  12  13
ENDBRANCH  10  12
ENDBRANCH   6   9
ENDBRANCH   2   3
ENDBRANCH   1   2
BRANCH   1  17
ATOM     17  N   UNL d   1       9.319   6.647 -10.261  0.00  0.00     0.141 N 
ATOM     18  C   UNL d   1      10.161   5.888  -9.342  0.00  0.00     0.274 C 
ATOM     19  C   UNL d   1       9.939   6.281  -7.874  0.00  0.00     0.138 C 
ATOM     20  N   UNL d   1      10.100   7.723  -7.721  0.00  0.00    -0.330 N 
ATOM     21  C   UNL d   1       9.342   8.527  -8.669  0.00  0.00     0.138 C 
ATOM     22  C   UNL d   1       9.624   8.070 -10.118  0.00  0.00     0.274 C 
BRANCH  20  23
ATOM     23  C   UNL d   1      10.876   8.311  -6.709  0.00  0.00     0.138 A 
ATOM     24  C   UNL d   1      11.098   7.722  -5.460  0.00  0.00     0.036 A 
ATOM     25  C   UNL d   1      11.892   8.342  -4.511  0.00  0.00     0.095 A 
ATOM     26  C   UNL d   1      10.632   6.436  -4.890  0.00  0.00     0.064 A 
ATOM     27  C   UNL d   1      12.515   9.539  -4.814  0.00  0.00     0.045 A 
ATOM     28  O   UNL d   1      12.021   7.647  -3.347  0.00  0.00    -0.331 OA
ATOM     29  C   UNL d   1      12.210  10.111  -6.074  0.00  0.00     0.103 A 
ATOM     30  N   UNL d   1      11.417   9.520  -6.997  0.00  0.00    -0.228 NA
ATOM     31  C   UNL d   1      11.357   6.390  -3.525  0.00  0.00     0.154 A 
ENDBRANCH  20  23
ENDBRANCH   1  17
TORSDOF 8
