REMARK  7 active torsions:
REMARK  status: ('A' for Active; 'I' for Inactive)
REMARK    1  A    between atoms: O_2  and  C_3 
REMARK    2  A    between atoms: C_8  and  N_9 
REMARK    3  A    between atoms: N_12  and  C_13 
REMARK    4  A    between atoms: C_13  and  C_14 
REMARK    5  A    between atoms: C_14  and  N_15 
REMARK       I    between atoms: N_15  and  C_16 
REMARK    6  A    between atoms: C_16  and  O_18 
REMARK    7  A    between atoms: O_18  and  C_19 
ROOT
ATOM      1  N   UNL d   1      11.463   7.340  -6.190  0.00  0.00    -0.343 N 
ATOM      2  C   UNL d   1      11.997   7.946  -7.414  0.00  0.00     0.137 C 
ATOM      3  C   UNL d   1      10.874   8.027  -8.464  0.00  0.00     0.274 C 
ATOM      4  N   UNL d   1      10.323   6.682  -8.730  0.00  0.00     0.143 N 
ATOM      5  C   UNL d   1       9.772   6.151  -7.468  0.00  0.00     0.274 C 
ATOM      6  C   UNL d   1      10.898   6.053  -6.428  0.00  0.00     0.137 C 
ENDROOT
BRANCH   4   7
ATOM      7  C   UNL d   1       9.262   6.733  -9.720  0.00  0.00     0.277 C 
BRANCH   7   8
ATOM      8  C   UNL d   1       9.826   6.875 -11.146  0.00  0.00     0.166 C 
BRANCH   8   9
ATOM      9  N   UNL d   1       8.818   6.646 -12.180  0.00  0.00    -0.210 NA
ATOM     10  C   UNL d   1       8.624   5.355 -12.662  0.00  0.00     0.383 C 
ATOM     11  O   UNL d   1       9.384   4.396 -12.508  0.00  0.00    -0.236 OA
BRANCH  10  12
ATOM     12  O   UNL d   1       7.402   5.270 -13.238  0.00  0.00    -0.289 OA
BRANCH  12  13
ATOM     13  C   UNL d   1       6.566   4.092 -13.161  0.00  0.00     0.103 C 
ATOM     14  C   UNL d   1       7.110   2.878 -13.948  0.00  0.00     0.030 C 
ATOM     15  C   UNL d   1       5.163   4.458 -13.720  0.00  0.00     0.030 C 
ATOM     16  C   UNL d   1       6.291   3.797 -11.694  0.00  0.00     0.030 C 
ENDBRANCH  12  13
ENDBRANCH  10  12
ENDBRANCH   8   9
ENDBRANCH   7   8
ENDBRANCH   4   7
BRANCH   1  17
ATOM     17  C   UNL d   1      11.620   7.838  -4.910  0.00  0.00     0.079 A 
ATOM     18  C   UNL d   1      11.349   9.207  -4.653  0.00  0.00     0.110 A 
ATOM     19  C   UNL d   1      11.551   9.751  -3.378  0.00  0.00     0.026 A 
ATOM     20  C   UNL d   1      11.977   8.951  -2.323  0.00  0.00     0.002 A 
ATOM     21  C   UNL d   1      12.197   7.585  -2.535  0.00  0.00     0.002 A 
ATOM     22  C   UNL d   1      12.021   7.029  -3.813  0.00  0.00     0.019 A 
BRANCH  18  23
ATOM     23  O   UNL d   1      10.826   9.953  -5.653  0.00  0.00    -0.327 OA
ATOM     24  C   UNL d   1      11.632  11.050  -5.990  0.00  0.00     0.181 C 
ENDBRANCH  18  23
ENDBRANCH   1  17
TORSDOF 7
