REMARK  12 active torsions:
REMARK  status: ('A' for Active; 'I' for Inactive)
REMARK    1  A    between atoms: C_2  and  C_3 
REMARK    2  A    between atoms: C_3  and  N_4 
REMARK    3  A    between atoms: N_4  and  C_5 
REMARK    4  A    between atoms: N_4  and  C_21 
REMARK    5  A    between atoms: C_5  and  C_6 
REMARK    6  A    between atoms: C_6  and  C_7 
REMARK    7  A    between atoms: C_7  and  C_8 
REMARK    8  A    between atoms: C_8  and  N_9 
REMARK       I    between atoms: N_9  and  C_10 
REMARK    9  A    between atoms: C_10  and  C_12 
REMARK   10  A    between atoms: C_21  and  C_22 
REMARK   11  A    between atoms: C_24  and  C_25 
REMARK   12  A    between atoms: C_31  and  O_32 
ROOT
ATOM      1  N   UNL d   1       6.953   1.031 -15.460  0.00  0.00     0.137 N 
ENDROOT
BRANCH   1   2
ATOM      2  C   UNL d   1       5.888   0.387 -14.688  0.00  0.00     0.250 C 
BRANCH   2   3
ATOM      3  C   UNL d   1       4.922  -0.431 -15.556  0.00  0.00     0.035 C 
ATOM      4  C   UNL d   1       3.658  -0.815 -14.790  0.00  0.00     0.002 C 
ENDBRANCH   2   3
ENDBRANCH   1   2
BRANCH   1   5
ATOM      5  C   UNL d   1       7.744   1.933 -14.632  0.00  0.00     0.250 C 
BRANCH   5   6
ATOM      6  C   UNL d   1       6.910   3.045 -13.981  0.00  0.00     0.037 C 
BRANCH   6   7
ATOM      7  C   UNL d   1       7.784   4.015 -13.204  0.00  0.00     0.029 C 
BRANCH   7   8
ATOM      8  C   UNL d   1       6.956   5.001 -12.361  0.00  0.00     0.129 C 
BRANCH   8   9
ATOM      9  N   UNL d   1       7.696   5.588 -11.239  0.00  0.00    -0.233 NA
ATOM     10  C   UNL d   1       9.008   5.883 -11.196  0.00  0.00     0.293 C 
ATOM     11  O   UNL d   1       9.795   5.750 -12.131  0.00  0.00    -0.264 OA
BRANCH  10  12
ATOM     12  C   UNL d   1       9.457   6.488  -9.940  0.00  0.00     0.139 A 
ATOM     13  N   UNL d   1      10.546   7.346 -10.020  0.00  0.00    -0.241 NA
ATOM     14  C   UNL d   1      10.844   7.839  -8.767  0.00  0.00     0.082 A 
ATOM     15  C   UNL d   1       9.924   7.221  -7.869  0.00  0.00     0.019 A 
ATOM     16  C   UNL d   1      11.825   8.742  -8.334  0.00  0.00     0.019 A 
ATOM     17  C   UNL d   1       9.065   6.358  -8.635  0.00  0.00     0.025 A 
ATOM     18  C   UNL d   1      10.035   7.548  -6.503  0.00  0.00     0.002 A 
ATOM     19  C   UNL d   1      11.012   8.460  -6.052  0.00  0.00     0.000 A 
ATOM     20  C   UNL d   1      11.895   9.065  -6.968  0.00  0.00     0.002 A 
ENDBRANCH  10  12
ENDBRANCH   8   9
ENDBRANCH   7   8
ENDBRANCH   6   7
ENDBRANCH   5   6
ENDBRANCH   1   5
BRANCH   1  21
ATOM     21  C   UNL d   1       7.838   0.004 -16.023  0.00  0.00     0.251 C 
BRANCH  21  22
ATOM     22  C   UNL d   1       8.805   0.543 -17.061  0.00  0.00     0.038 A 
ATOM     23  C   UNL d   1      10.283   0.245 -16.944  0.00  0.00     0.026 A 
ATOM     24  C   UNL d   1       9.463  -0.453 -18.000  0.00  0.00     0.007 A 
BRANCH  23  25
ATOM     25  C   UNL d   1      11.280   1.303 -17.313  0.00  0.00     0.002 A 
ATOM     26  C   UNL d   1      12.273   1.016 -18.270  0.00  0.00     0.090 A 
ATOM     27  C   UNL d   1      13.183   2.043 -18.635  0.00  0.00     0.026 A 
ATOM     28  C   UNL d   1      13.098   3.318 -18.041  0.00  0.00     0.032 A 
ATOM     29  C   UNL d   1      12.109   3.586 -17.079  0.00  0.00     0.140 A 
ATOM     30  C   UNL d   1      11.204   2.574 -16.716  0.00  0.00     0.027 A 
ATOM     31  F   UNL d   1      12.014   4.814 -16.520  0.00  0.00    -0.204 F 
BRANCH  26  32
ATOM     32  O   UNL d   1      12.319  -0.262 -18.786  0.00  0.00    -0.328 OA
ATOM     33  C   UNL d   1      13.341  -0.584 -19.711  0.00  0.00     0.181 C 
ENDBRANCH  26  32
ENDBRANCH  23  25
ENDBRANCH  21  22
ENDBRANCH   1  21
TORSDOF 12
