REMARK  3 active torsions:
REMARK  status: ('A' for Active; 'I' for Inactive)
REMARK    1  A    between atoms: C_2  and  C_4 
REMARK    2  A    between atoms: C_7  and  C_8 
REMARK       I    between atoms: C_8  and  N_10 
REMARK    3  A    between atoms: N_10  and  C_11 
ROOT
ATOM      1  C   UNL d   1      10.986   8.001  -6.521  0.00  0.00     0.037 C 
ATOM      2  C   UNL d   1      10.217   6.670  -6.431  0.00  0.00     0.003 C 
ATOM      3  C   UNL d   1      10.073   6.001  -7.796  0.00  0.00     0.009 C 
ATOM      4  C   UNL d   1       9.370   6.939  -8.786  0.00  0.00     0.081 C 
ATOM      5  C   UNL d   1      10.141   8.273  -8.893  0.00  0.00     0.009 C 
ATOM      6  C   UNL d   1      10.287   8.934  -7.531  0.00  0.00     0.003 C 
ENDROOT
BRANCH   4   7
ATOM      7  C   UNL d   1       9.284   6.264 -10.151  0.00  0.00     0.255 C 
ATOM      8  O   UNL d   1      10.230   6.390 -10.918  0.00  0.00    -0.270 OA
ATOM      9  N   UNL d   1       8.161   5.585 -10.445  0.00  0.00    -0.212 NA
BRANCH   9  10
ATOM     10  C   UNL d   1       7.872   4.900 -11.657  0.00  0.00     0.087 A 
ATOM     11  C   UNL d   1       6.526   4.721 -12.045  0.00  0.00     0.040 A 
ATOM     12  C   UNL d   1       6.255   4.022 -13.242  0.00  0.00     0.101 A 
ATOM     13  N   UNL d   1       7.217   3.506 -14.034  0.00  0.00    -0.242 NA
ATOM     14  C   UNL d   1       8.501   3.675 -13.659  0.00  0.00     0.101 A 
ATOM     15  C   UNL d   1       8.876   4.343 -12.484  0.00  0.00     0.040 A 
ENDBRANCH   9  10
ENDBRANCH   4   7
BRANCH   1  16
ATOM     16  C   UNL d   1      11.091   8.673  -5.137  0.00  0.00     0.302 C 
ATOM     17  C   UNL d   1      11.701   7.795  -4.029  0.00  0.00     0.041 C 
ATOM     18  N   UNL d   1      11.882   9.879  -5.233  0.00  0.00     0.616 N 
ENDBRANCH   1  16
TORSDOF 3
