REMARK  3 active torsions:
REMARK  status: ('A' for Active; 'I' for Inactive)
REMARK    1  A    between atoms: C_5  and  C_6 
REMARK    2  A    between atoms: N_8  and  C_9 
REMARK    3  A    between atoms: C_18  and  C_19 
ROOT
ATOM      1  C   UNL d   1       7.773   1.069 -16.171  0.00  0.00    -0.003 A 
ATOM      2  C   UNL d   1       7.336   1.839 -15.123  0.00  0.00     0.076 A 
ATOM      3  N   UNL d   1       8.326   2.714 -14.702  0.00  0.00    -0.305 N 
ATOM      4  C   UNL d   1       9.453   2.530 -15.502  0.00  0.00     0.064 A 
ATOM      5  C   UNL d   1      10.712   3.160 -15.536  0.00  0.00     0.018 A 
ATOM      6  C   UNL d   1      11.680   2.736 -16.459  0.00  0.00     0.002 A 
ATOM      7  C   UNL d   1      11.397   1.709 -17.389  0.00  0.00     0.003 A 
ATOM      8  C   UNL d   1      10.118   1.104 -17.353  0.00  0.00     0.001 A 
ATOM      9  C   UNL d   1       9.125   1.488 -16.421  0.00  0.00     0.014 A 
ENDROOT
BRANCH   1  10
ATOM     10  C   UNL d   1       6.976   0.024 -16.910  0.00  0.00     0.028 C 
ATOM     11  C   UNL d   1       6.394   0.592 -18.216  0.00  0.00     0.040 C 
ATOM     12  C   UNL d   1       5.475  -0.428 -18.913  0.00  0.00     0.251 C 
ATOM     13  N   UNL d   1       4.396  -0.829 -18.011  0.00  0.00     0.139 N 
ATOM     14  C   UNL d   1       3.491  -1.735 -18.707  0.00  0.00     0.285 C 
ATOM     15  C   UNL d   1       4.943  -1.512 -16.839  0.00  0.00     0.251 C 
ATOM     16  C   UNL d   1       5.829  -0.542 -16.049  0.00  0.00     0.040 C 
ENDBRANCH   1  10
BRANCH   3  17
ATOM     17  C   UNL d   1       8.173   3.633 -13.634  0.00  0.00     0.067 A 
ATOM     18  C   UNL d   1       9.259   3.974 -12.799  0.00  0.00     0.038 A 
ATOM     19  C   UNL d   1       9.045   4.893 -11.757  0.00  0.00     0.101 A 
ATOM     20  N   UNL d   1       7.848   5.447 -11.495  0.00  0.00    -0.242 NA
ATOM     21  C   UNL d   1       6.800   5.091 -12.262  0.00  0.00     0.101 A 
ATOM     22  C   UNL d   1       6.909   4.196 -13.344  0.00  0.00     0.038 A 
ENDBRANCH   3  17
BRANCH   7  23
ATOM     23  C   UNL d   1      12.417   1.293 -18.375  0.00  0.00     0.038 A 
ATOM     24  C   UNL d   1      13.454   2.150 -18.814  0.00  0.00     0.102 A 
ATOM     25  N   UNL d   1      14.404   1.757 -19.689  0.00  0.00    -0.223 NA
ATOM     26  C   UNL d   1      14.309   0.511 -20.147  0.00  0.00     0.199 A 
ATOM     27  N   UNL d   1      13.386  -0.392 -19.823  0.00  0.00    -0.223 NA
ATOM     28  C   UNL d   1      12.447  -0.004 -18.935  0.00  0.00     0.102 A 
ENDBRANCH   7  23
TORSDOF 3
