REMARK  6 active torsions:
REMARK  status: ('A' for Active; 'I' for Inactive)
REMARK    1  A    between atoms: C_6  and  C_7 
REMARK       I    between atoms: C_7  and  N_9 
REMARK    2  A    between atoms: N_9  and  C_10 
REMARK    3  A    between atoms: C_13  and  C_14 
REMARK    4  A    between atoms: C_14  and  C_15 
REMARK    5  A    between atoms: C_15  and  N_16 
REMARK    6  A    between atoms: N_19  and  C_20 
ROOT
ATOM      1  C   UNL d   1       9.116   6.095 -10.910  0.00  0.00     0.106 C 
ATOM      2  C   UNL d   1       9.301   4.598 -10.662  0.00  0.00     0.024 C 
ATOM      3  C   UNL d   1       9.312   3.904 -12.040  0.00  0.00     0.002 C 
ATOM      4  C   UNL d   1       7.939   4.069 -12.726  0.00  0.00     0.002 C 
ATOM      5  C   UNL d   1       7.603   5.558 -12.878  0.00  0.00     0.002 C 
ATOM      6  C   UNL d   1       7.747   6.321 -11.553  0.00  0.00     0.024 C 
ENDROOT
BRANCH   4   7
ATOM      7  C   UNL d   1       7.820   3.299 -14.052  0.00  0.00     0.035 C 
BRANCH   7   8
ATOM      8  C   UNL d   1       9.037   3.519 -14.981  0.00  0.00     0.250 C 
BRANCH   8   9
ATOM      9  N   UNL d   1       8.946   2.692 -16.164  0.00  0.00     0.141 N 
ATOM     10  C   UNL d   1       9.728   3.358 -17.195  0.00  0.00     0.274 C 
ATOM     11  C   UNL d   1       9.637   2.552 -18.486  0.00  0.00     0.138 C 
ATOM     12  N   UNL d   1      10.090   1.186 -18.276  0.00  0.00    -0.330 N 
ATOM     13  C   UNL d   1       9.492   0.493 -17.145  0.00  0.00     0.138 C 
ATOM     14  C   UNL d   1       9.557   1.382 -15.886  0.00  0.00     0.274 C 
BRANCH  12  15
ATOM     15  C   UNL d   1      11.084   0.594 -19.100  0.00  0.00     0.138 A 
ATOM     16  C   UNL d   1      11.171   0.857 -20.471  0.00  0.00     0.036 A 
ATOM     17  C   UNL d   1      12.158   0.234 -21.247  0.00  0.00     0.095 A 
ATOM     18  C   UNL d   1      10.331   1.687 -21.388  0.00  0.00     0.064 C 
ATOM     19  C   UNL d   1      13.075  -0.624 -20.624  0.00  0.00     0.045 A 
ATOM     20  O   UNL d   1      12.074   0.535 -22.572  0.00  0.00    -0.331 OA
ATOM     21  C   UNL d   1      12.931  -0.824 -19.244  0.00  0.00     0.103 A 
ATOM     22  N   UNL d   1      11.945  -0.248 -18.498  0.00  0.00    -0.228 NA
ATOM     23  C   UNL d   1      10.883   1.316 -22.777  0.00  0.00     0.154 C 
ENDBRANCH  12  15
ENDBRANCH   8   9
ENDBRANCH   7   8
ENDBRANCH   4   7
BRANCH   1  24
ATOM     24  N   UNL d   1       9.209   6.756  -9.630  0.00  0.00    -0.240 NA
ATOM     25  C   UNL d   1      10.315   7.254  -9.075  0.00  0.00     0.251 C 
ATOM     26  O   UNL d   1      11.402   7.346  -9.667  0.00  0.00    -0.271 OA
BRANCH  25  27
ATOM     27  C   UNL d   1      10.212   7.700  -7.622  0.00  0.00     0.081 C 
ATOM     28  C   UNL d   1      11.321   7.045  -6.779  0.00  0.00     0.012 C 
ATOM     29  C   UNL d   1      11.326   7.559  -5.328  0.00  0.00     0.031 C 
ATOM     30  C   UNL d   1      11.434   9.091  -5.279  0.00  0.00     0.127 C 
ATOM     31  C   UNL d   1      12.783   9.628  -5.740  0.00  0.00     0.033 C 
ATOM     32  C   UNL d   1      10.312   9.703  -6.120  0.00  0.00     0.031 C 
ATOM     33  O   UNL d   1      11.269   9.520  -3.950  0.00  0.00    -0.226 OA
ATOM     34  C   UNL d   1      10.294   9.222  -7.574  0.00  0.00     0.012 C 
ENDBRANCH  25  27
ENDBRANCH   1  24
TORSDOF 6
