REMARK  7 active torsions:
REMARK  status: ('A' for Active; 'I' for Inactive)
REMARK       I    between atoms: C_2  and  N_4 
REMARK    1  A    between atoms: N_4  and  C_5 
REMARK    2  A    between atoms: C_8  and  O_9 
REMARK    3  A    between atoms: O_9  and  C_10 
REMARK    4  A    between atoms: C_10  and  C_11 
REMARK    5  A    between atoms: C_11  and  C_12 
REMARK    6  A    between atoms: C_12  and  N_13 
REMARK    7  A    between atoms: N_16  and  C_17 
ROOT
ATOM      1  C   UNL d   1       9.649   6.318 -10.690  0.00  0.00     0.068 C 
ENDROOT
BRANCH   1   2
ATOM      2  C   UNL d   1       8.463   6.184 -11.641  0.00  0.00     0.151 C 
BRANCH   2   3
ATOM      3  O   UNL d   1       9.008   6.074 -12.958  0.00  0.00    -0.331 OA
BRANCH   3   4
ATOM      4  C   UNL d   1       9.070   4.872 -13.617  0.00  0.00     0.094 A 
ATOM      5  C   UNL d   1      10.148   4.682 -14.512  0.00  0.00     0.026 A 
ATOM      6  C   UNL d   1      10.303   3.474 -15.220  0.00  0.00     0.021 A 
ATOM      7  C   UNL d   1       9.348   2.439 -15.059  0.00  0.00     0.085 A 
ATOM      8  C   UNL d   1       8.235   2.666 -14.214  0.00  0.00     0.021 A 
ATOM      9  C   UNL d   1       8.087   3.872 -13.503  0.00  0.00     0.026 A 
BRANCH   7  10
ATOM     10  N   UNL d   1       9.414   1.168 -15.700  0.00  0.00    -0.212 NA
ATOM     11  C   UNL d   1      10.301   0.697 -16.598  0.00  0.00     0.256 C 
ATOM     12  C   UNL d   1      10.038  -0.713 -17.107  0.00  0.00     0.100 C 
ATOM     13  O   UNL d   1      11.274   1.316 -17.025  0.00  0.00    -0.270 OA
ENDBRANCH   7  10
ENDBRANCH   3   4
ENDBRANCH   2   3
ENDBRANCH   1   2
BRANCH   1  14
ATOM     14  C   UNL d   1       9.214   6.862  -9.333  0.00  0.00     0.253 C 
BRANCH  14  15
ATOM     15  N   UNL d   1      10.377   7.157  -8.523  0.00  0.00     0.141 N 
ATOM     16  C   UNL d   1      10.496   6.086  -7.547  0.00  0.00     0.274 C 
ATOM     17  C   UNL d   1      11.663   6.414  -6.617  0.00  0.00     0.138 C 
ATOM     18  N   UNL d   1      11.400   7.691  -5.955  0.00  0.00    -0.330 N 
ATOM     19  C   UNL d   1      11.330   8.758  -6.950  0.00  0.00     0.138 C 
ATOM     20  C   UNL d   1      10.152   8.441  -7.865  0.00  0.00     0.274 C 
BRANCH  18  21
ATOM     21  C   UNL d   1      11.723   7.911  -4.613  0.00  0.00     0.140 A 
ATOM     22  N   UNL d   1      11.852   6.803  -3.864  0.00  0.00    -0.227 NA
ATOM     23  C   UNL d   1      12.130   6.910  -2.541  0.00  0.00     0.101 A 
ATOM     24  C   UNL d   1      12.252   8.155  -1.911  0.00  0.00     0.021 A 
ATOM     25  C   UNL d   1      12.111   9.310  -2.683  0.00  0.00     0.005 A 
ATOM     26  C   UNL d   1      11.892   9.198  -4.078  0.00  0.00     0.037 A 
ENDBRANCH  18  21
ENDBRANCH  14  15
ENDBRANCH   1  14
TORSDOF 7
