REMARK  4 active torsions:
REMARK  status: ('A' for Active; 'I' for Inactive)
REMARK    1  A    between atoms: C_2  and  C_3 
REMARK       I    between atoms: C_2  and  N_18 
REMARK    2  A    between atoms: C_3  and  N_4 
REMARK    3  A    between atoms: N_7  and  C_8 
REMARK    4  A    between atoms: C_8  and  C_9 
ROOT
ATOM      1  O   UNL d   1      10.566   3.180 -13.711  0.00  0.00    -0.270 OA
ATOM      2  C   UNL d   1       9.395   3.169 -14.081  0.00  0.00     0.271 C 
ATOM      3  N   UNL d   1       8.910   2.320 -15.040  0.00  0.00    -0.301 N 
ATOM      4  C   UNL d   1       7.690   1.587 -14.979  0.00  0.00     0.058 A 
ATOM      5  C   UNL d   1       6.605   1.654 -14.042  0.00  0.00     0.017 A 
ATOM      6  C   UNL d   1       5.522   0.774 -14.186  0.00  0.00     0.002 A 
ATOM      7  C   UNL d   1       5.422  -0.128 -15.260  0.00  0.00    -0.000 A 
ATOM      8  C   UNL d   1       6.492  -0.210 -16.189  0.00  0.00    -0.003 A 
ATOM      9  C   UNL d   1       7.613   0.644 -15.986  0.00  0.00    -0.004 A 
ATOM     10  C   UNL d   1       8.858   0.652 -16.833  0.00  0.00     0.049 C 
ATOM     11  C   UNL d   1       9.673   1.858 -16.259  0.00  0.00     0.075 C 
ATOM     12  C   UNL d   1       9.734   2.983 -17.306  0.00  0.00     0.021 C 
ATOM     13  C   UNL d   1      10.972   3.807 -16.968  0.00  0.00     0.002 C 
ATOM     14  C   UNL d   1      11.959   2.825 -16.318  0.00  0.00     0.002 C 
ATOM     15  C   UNL d   1      11.175   1.552 -16.035  0.00  0.00     0.021 C 
ENDROOT
BRANCH   2  16
ATOM     16  C   UNL d   1       8.427   4.168 -13.424  0.00  0.00     0.337 C 
BRANCH  16  17
ATOM     17  N   UNL d   1       9.065   5.307 -12.772  0.00  0.00     0.151 N 
ATOM     18  C   UNL d   1       8.171   6.464 -12.696  0.00  0.00     0.286 C 
ATOM     19  C   UNL d   1       8.886   7.652 -12.043  0.00  0.00     0.286 C 
ATOM     20  N   UNL d   1       9.352   7.323 -10.694  0.00  0.00     0.146 N 
ATOM     21  C   UNL d   1      10.167   6.139 -10.704  0.00  0.00     0.286 C 
ATOM     22  C   UNL d   1       9.473   4.974 -11.403  0.00  0.00     0.286 C 
BRANCH  20  23
ATOM     23  C   UNL d   1       9.959   8.472 -10.054  0.00  0.00     0.277 C 
BRANCH  23  24
ATOM     24  C   UNL d   1      10.308   8.266  -8.591  0.00  0.00     0.011 A 
ATOM     25  C   UNL d   1      11.445   8.925  -8.092  0.00  0.00    -0.002 A 
ATOM     26  C   UNL d   1      11.821   8.780  -6.749  0.00  0.00     0.011 A 
ATOM     27  C   UNL d   1      11.083   7.937  -5.900  0.00  0.00     0.058 A 
ATOM     28  C   UNL d   1       9.934   7.279  -6.388  0.00  0.00     0.011 A 
ATOM     29 CL   UNL d   1      11.634   7.693  -4.284  0.00  0.00    -0.082 Cl
ATOM     30  C   UNL d   1       9.533   7.460  -7.728  0.00  0.00    -0.002 A 
ENDBRANCH  23  24
ENDBRANCH  20  23
ENDBRANCH  16  17
ENDBRANCH   2  16
TORSDOF 4
