REMARK  6 active torsions:
REMARK  status: ('A' for Active; 'I' for Inactive)
REMARK    1  A    between atoms: O_2  and  C_3 
REMARK    2  A    between atoms: C_8  and  N_9 
REMARK    3  A    between atoms: N_12  and  C_13 
REMARK    4  A    between atoms: C_13  and  C_14 
REMARK    5  A    between atoms: C_14  and  C_15 
REMARK    6  A    between atoms: C_15  and  C_16 
ROOT
ATOM      1  N   UNL d   1      11.398   7.480  -6.716  0.00  0.00    -0.343 N 
ATOM      2  C   UNL d   1      10.417   6.518  -7.165  0.00  0.00     0.137 C 
ATOM      3  C   UNL d   1       9.593   7.162  -8.279  0.00  0.00     0.274 C 
ATOM      4  N   UNL d   1      10.483   7.562  -9.397  0.00  0.00     0.141 N 
ATOM      5  C   UNL d   1      11.428   8.585  -8.934  0.00  0.00     0.274 C 
ATOM      6  C   UNL d   1      12.272   8.014  -7.761  0.00  0.00     0.137 C 
ENDROOT
BRANCH   4   7
ATOM      7  C   UNL d   1       9.706   8.192 -10.458  0.00  0.00     0.251 C 
BRANCH   7   8
ATOM      8  C   UNL d   1       8.812   7.202 -11.209  0.00  0.00     0.040 C 
BRANCH   8   9
ATOM      9  C   UNL d   1       9.540   6.366 -12.237  0.00  0.00     0.029 C 
BRANCH   9  10
ATOM     10  C   UNL d   1       8.702   5.235 -12.805  0.00  0.00    -0.021 A 
ATOM     11  C   UNL d   1       9.347   4.231 -13.556  0.00  0.00     0.016 A 
ATOM     12  C   UNL d   1       8.580   3.177 -14.079  0.00  0.00     0.101 A 
ATOM     13  C   UNL d   1       7.170   3.092 -13.869  0.00  0.00     0.101 A 
ATOM     14  N   UNL d   1       8.877   2.055 -14.830  0.00  0.00    -0.223 NA
ATOM     15  C   UNL d   1       6.544   4.098 -13.111  0.00  0.00     0.020 A 
ATOM     16  N   UNL d   1       6.636   1.957 -14.453  0.00  0.00    -0.223 NA
ATOM     17  C   UNL d   1       7.299   5.159 -12.588  0.00  0.00    -0.003 A 
ATOM     18  C   UNL d   1       7.711   1.407 -15.003  0.00  0.00     0.199 A 
ENDBRANCH   9  10
ENDBRANCH   8   9
ENDBRANCH   7   8
ENDBRANCH   4   7
BRANCH   1  19
ATOM     19  C   UNL d   1      11.519   7.770  -5.318  0.00  0.00     0.079 A 
ATOM     20  C   UNL d   1      11.920   9.033  -4.832  0.00  0.00     0.110 A 
ATOM     21  C   UNL d   1      12.081   9.249  -3.459  0.00  0.00     0.026 A 
ATOM     22  C   UNL d   1      11.873   8.221  -2.530  0.00  0.00     0.002 A 
ATOM     23  C   UNL d   1      11.515   6.943  -3.005  0.00  0.00     0.002 A 
ATOM     24  C   UNL d   1      11.343   6.734  -4.383  0.00  0.00     0.019 A 
BRANCH  20  25
ATOM     25  O   UNL d   1      12.209  10.079  -5.657  0.00  0.00    -0.327 OA
ATOM     26  C   UNL d   1      11.077  10.645  -6.249  0.00  0.00     0.181 C 
ENDBRANCH  20  25
ENDBRANCH   1  19
TORSDOF 6
