REMARK  9 active torsions:
REMARK  status: ('A' for Active; 'I' for Inactive)
REMARK    1  A    between atoms: C_2  and  N_3 
REMARK    2  A    between atoms: N_3  and  C_4 
REMARK    3  A    between atoms: N_3  and  C_7 
REMARK    4  A    between atoms: C_4  and  C_5 
REMARK    5  A    between atoms: C_7  and  C_8 
REMARK    6  A    between atoms: C_8  and  C_9 
REMARK    7  A    between atoms: C_9  and  C_10 
REMARK    8  A    between atoms: C_10  and  N_12 
REMARK    9  A    between atoms: N_12  and  C_13 
ROOT
ATOM      1  N   UNL d   1       8.338   5.007 -13.361  0.00  0.00    -0.273 NA
ENDROOT
BRANCH   1   2
ATOM      2  C   UNL d   1       8.166   5.811 -12.157  0.00  0.00     0.103 C 
ATOM      3  C   UNL d   1       8.311   7.295 -12.532  0.00  0.00     0.026 C 
BRANCH   2   4
ATOM      4  C   UNL d   1       9.155   5.368 -11.060  0.00  0.00     0.026 C 
BRANCH   4   5
ATOM      5  C   UNL d   1       8.910   6.026  -9.690  0.00  0.00     0.037 C 
BRANCH   5   6
ATOM      6  C   UNL d   1      10.135   5.947  -8.758  0.00  0.00     0.250 C 
BRANCH   6   7
ATOM      7  N   UNL d   1      10.141   6.853  -7.598  0.00  0.00     0.140 N 
BRANCH   7   8
ATOM      8  C   UNL d   1      11.316   6.591  -6.758  0.00  0.00     0.250 C 
ATOM      9  C   UNL d   1      11.316   7.262  -5.384  0.00  0.00     0.037 C 
ENDBRANCH   7   8
BRANCH   7  10
ATOM     10  C   UNL d   1       9.994   8.275  -7.961  0.00  0.00     0.285 C 
BRANCH  10  11
ATOM     11  C   UNL d   1      10.997   8.820  -9.003  0.00  0.00     0.218 C 
ATOM     12  O   UNL d   1      12.295   8.771  -8.465  0.00  0.00    -0.218 OA
ENDBRANCH  10  11
ENDBRANCH   7  10
ENDBRANCH   6   7
ENDBRANCH   5   6
ENDBRANCH   4   5
ENDBRANCH   2   4
ENDBRANCH   1   2
BRANCH   1  13
ATOM     13  C   UNL d   1       7.647   3.805 -13.588  0.00  0.00     0.079 A 
ATOM     14  C   UNL d   1       8.191   2.792 -14.431  0.00  0.00     0.035 A 
ATOM     15  C   UNL d   1       7.449   1.588 -14.625  0.00  0.00     0.084 A 
ATOM     16  C   UNL d   1       9.449   2.942 -15.066  0.00  0.00     0.004 A 
ATOM     17  N   UNL d   1       6.253   1.381 -14.035  0.00  0.00    -0.244 NA
ATOM     18  C   UNL d   1       7.986   0.578 -15.453  0.00  0.00     0.031 A 
ATOM     19  C   UNL d   1       5.747   2.341 -13.240  0.00  0.00     0.101 A 
ATOM     20  C   UNL d   1       6.385   3.564 -12.999  0.00  0.00     0.039 A 
ATOM     21  C   UNL d   1       9.233   0.741 -16.081  0.00  0.00     0.059 A 
ATOM     22 CL   UNL d   1       9.866  -0.501 -17.097  0.00  0.00    -0.082 Cl
ATOM     23  C   UNL d   1       9.965   1.923 -15.883  0.00  0.00     0.012 A 
ENDBRANCH   1  13
TORSDOF 9
