REMARK  4 active torsions:
REMARK  status: ('A' for Active; 'I' for Inactive)
REMARK    1  A    between atoms: C_5  and  C_6 
REMARK    2  A    between atoms: N_9  and  C_10 
REMARK    3  A    between atoms: C_10  and  C_11 
REMARK    4  A    between atoms: C_15  and  C_16 
ROOT
ATOM      1  C   UNL d   1       8.726   6.350 -12.515  0.00  0.00     0.251 C 
ENDROOT
BRANCH   1   2
ATOM      2  N   UNL d   1       8.741   5.333 -13.560  0.00  0.00     0.142 N 
ATOM      3  C   UNL d   1      10.102   5.045 -14.011  0.00  0.00     0.276 C 
ATOM      4  C   UNL d   1      10.188   3.824 -14.905  0.00  0.00     0.005 C 
ATOM      5  C   UNL d   1       9.184   2.933 -15.031  0.00  0.00    -0.022 C 
ATOM      6  C   UNL d   1       7.899   3.126 -14.236  0.00  0.00     0.061 C 
ATOM      7  C   UNL d   1       8.052   4.123 -13.124  0.00  0.00     0.255 C 
BRANCH   5   8
ATOM      8  C   UNL d   1       9.314   1.724 -15.861  0.00  0.00    -0.004 A 
ATOM      9  C   UNL d   1      10.583   1.185 -16.170  0.00  0.00     0.002 A 
ATOM     10  C   UNL d   1      10.670   0.059 -17.010  0.00  0.00     0.027 A 
ATOM     11  C   UNL d   1       9.497  -0.531 -17.520  0.00  0.00     0.131 A 
ATOM     12  O   UNL d   1       9.575  -1.616 -18.329  0.00  0.00    -0.190 OA
ATOM     13  C   UNL d   1       8.231  -0.019 -17.183  0.00  0.00     0.027 A 
ATOM     14  C   UNL d   1       8.146   1.108 -16.353  0.00  0.00     0.002 A 
ENDBRANCH   5   8
ENDBRANCH   1   2
BRANCH   1  15
ATOM     15  C   UNL d   1       9.086   5.822 -11.098  0.00  0.00     0.038 C 
ATOM     16  C   UNL d   1       9.697   6.971 -10.262  0.00  0.00     0.028 C 
ATOM     17  C   UNL d   1       9.882   6.596  -8.804  0.00  0.00    -0.026 C 
ATOM     18  C   UNL d   1       9.305   5.520  -8.274  0.00  0.00    -0.030 C 
ATOM     19  C   UNL d   1       8.437   4.558  -9.031  0.00  0.00     0.026 C 
ATOM     20  C   UNL d   1       7.906   5.134 -10.368  0.00  0.00     0.007 C 
BRANCH  17  21
ATOM     21  C   UNL d   1      10.611   7.500  -7.935  0.00  0.00    -0.004 A 
ATOM     22  C   UNL d   1      10.088   7.832  -6.666  0.00  0.00     0.002 A 
ATOM     23  C   UNL d   1      10.821   8.702  -5.838  0.00  0.00     0.027 A 
ATOM     24  C   UNL d   1      12.046   9.193  -6.304  0.00  0.00     0.131 A 
ATOM     25  C   UNL d   1      12.555   8.878  -7.586  0.00  0.00     0.027 A 
ATOM     26  O   UNL d   1      12.757   9.978  -5.476  0.00  0.00    -0.190 OA
ATOM     27  C   UNL d   1      11.835   7.991  -8.400  0.00  0.00     0.002 A 
ENDBRANCH  17  21
ENDBRANCH   1  15
TORSDOF 4
