REMARK  5 active torsions:
REMARK  status: ('A' for Active; 'I' for Inactive)
REMARK    1  A    between atoms: O_2  and  C_3 
REMARK    2  A    between atoms: C_7  and  N_8 
REMARK    3  A    between atoms: N_11  and  C_12 
REMARK    4  A    between atoms: C_12  and  C_13 
REMARK    5  A    between atoms: C_15  and  C_16 
ROOT
ATOM      1  N   UNL d   1       7.571   4.547 -12.812  0.00  0.00    -0.344 N 
ATOM      2  C   UNL d   1       8.123   5.786 -13.325  0.00  0.00     0.137 C 
ATOM      3  C   UNL d   1       9.352   6.227 -12.489  0.00  0.00     0.274 C 
ATOM      4  N   UNL d   1       8.992   6.305 -11.068  0.00  0.00     0.141 N 
ATOM      5  C   UNL d   1       8.519   4.999 -10.584  0.00  0.00     0.274 C 
ATOM      6  C   UNL d   1       7.301   4.548 -11.391  0.00  0.00     0.137 C 
ENDROOT
BRANCH   1   7
ATOM      7  C   UNL d   1       7.307   3.412 -13.616  0.00  0.00     0.058 A 
ATOM      8  C   UNL d   1       8.201   3.052 -14.640  0.00  0.00     0.030 A 
ATOM      9  C   UNL d   1       7.973   1.896 -15.399  0.00  0.00     0.082 A 
ATOM     10  C   UNL d   1       6.861   1.063 -15.123  0.00  0.00     0.115 A 
ATOM     11 CL   UNL d   1       9.038   1.506 -16.699  0.00  0.00    -0.080 Cl
ATOM     12  C   UNL d   1       5.992   1.392 -14.054  0.00  0.00     0.082 A 
ATOM     13  C   UNL d   1       6.202   2.578 -13.326  0.00  0.00     0.030 A 
ATOM     14 CL   UNL d   1       4.711   0.310 -13.611  0.00  0.00    -0.080 Cl
BRANCH  10  15
ATOM     15  O   UNL d   1       6.661  -0.040 -15.889  0.00  0.00    -0.326 OA
ATOM     16  C   UNL d   1       5.604   0.121 -16.830  0.00  0.00     0.181 C 
ENDBRANCH  10  15
ENDBRANCH   1   7
BRANCH   4  17
ATOM     17  C   UNL d   1      10.129   6.756 -10.271  0.00  0.00     0.251 C 
BRANCH  17  18
ATOM     18  C   UNL d   1       9.705   7.165  -8.871  0.00  0.00     0.038 A 
ATOM     19  C   UNL d   1      10.620   6.842  -7.689  0.00  0.00     0.024 A 
ATOM     20  C   UNL d   1       9.275   6.204  -7.767  0.00  0.00     0.007 A 
BRANCH  19  21
ATOM     21  C   UNL d   1      10.924   7.781  -6.584  0.00  0.00    -0.022 A 
ATOM     22  C   UNL d   1      11.247   7.294  -5.299  0.00  0.00    -0.004 A 
ATOM     23  C   UNL d   1      11.496   8.196  -4.249  0.00  0.00    -0.000 A 
ATOM     24  C   UNL d   1      11.407   9.586  -4.478  0.00  0.00    -0.000 A 
ATOM     25  C   UNL d   1      11.103  10.066  -5.767  0.00  0.00    -0.000 A 
ATOM     26  C   UNL d   1      10.880   9.174  -6.816  0.00  0.00    -0.004 A 
ENDBRANCH  19  21
ENDBRANCH  17  18
ENDBRANCH   4  17
TORSDOF 5
