REMARK  4 active torsions:
REMARK  status: ('A' for Active; 'I' for Inactive)
REMARK    1  A    between atoms: C_3  and  C_4 
REMARK    2  A    between atoms: C_4  and  N_5 
REMARK    3  A    between atoms: C_8  and  C_9 
REMARK    4  A    between atoms: C_12  and  C_13 
ROOT
ATOM      1  N   UNL d   1       9.164   5.379 -12.453  0.00  0.00     0.145 N 
ATOM      2  C   UNL d   1       8.366   5.417 -13.672  0.00  0.00     0.251 C 
ATOM      3  C   UNL d   1       9.213   4.943 -14.860  0.00  0.00     0.041 C 
ATOM      4  C   UNL d   1       9.731   3.514 -14.652  0.00  0.00     0.045 C 
ATOM      5  C   UNL d   1      10.428   3.439 -13.293  0.00  0.00     0.041 C 
ATOM      6  C   UNL d   1       9.549   3.998 -12.169  0.00  0.00     0.251 C 
ENDROOT
BRANCH   1   7
ATOM      7  C   UNL d   1       8.376   5.905 -11.338  0.00  0.00     0.313 C 
BRANCH   7   8
ATOM      8  C   UNL d   1       9.220   6.374 -10.194  0.00  0.00     0.154 A 
ATOM      9  N   UNL d   1       9.848   7.570 -10.270  0.00  0.00    -0.312 N 
ATOM     10  C   UNL d   1       9.833   8.492 -11.371  0.00  0.00     0.132 C 
ATOM     11  C   UNL d   1      10.462   7.769  -9.050  0.00  0.00     0.079 A 
ATOM     12  C   UNL d   1      10.157   6.588  -8.319  0.00  0.00     0.099 A 
ATOM     13  C   UNL d   1      11.242   8.809  -8.500  0.00  0.00     0.019 A 
ATOM     14  N   UNL d   1       9.404   5.698  -9.059  0.00  0.00    -0.229 NA
ATOM     15  C   UNL d   1      10.650   6.497  -7.005  0.00  0.00     0.021 A 
ATOM     16  C   UNL d   1      11.433   7.521  -6.443  0.00  0.00     0.002 A 
ATOM     17  C   UNL d   1      11.740   8.679  -7.188  0.00  0.00     0.002 A 
ENDBRANCH   7   8
ENDBRANCH   1   7
BRANCH   4  18
ATOM     18  C   UNL d   1      10.656   3.047 -15.780  0.00  0.00     0.069 A 
ATOM     19  C   UNL d   1      10.542   1.772 -16.389  0.00  0.00     0.071 A 
ATOM     20  C   UNL d   1      11.447   1.432 -17.418  0.00  0.00     0.018 A 
ATOM     21 CL   UNL d   1       9.349   0.621 -15.908  0.00  0.00    -0.081 Cl
ATOM     22  C   UNL d   1      12.442   2.357 -17.785  0.00  0.00     0.091 A 
ATOM     23  C   UNL d   1      12.498   3.586 -17.099  0.00  0.00     0.102 A 
ATOM     24  N   UNL d   1      11.644   3.914 -16.110  0.00  0.00    -0.248 NA
BRANCH  22  25
ATOM     25  C   UNL d   1      13.427   2.052 -18.905  0.00  0.00     0.420 C 
ATOM     26  F   UNL d   1      12.880   2.389 -20.074  0.00  0.00    -0.166 F 
ATOM     27  F   UNL d   1      14.562   2.740 -18.751  0.00  0.00    -0.166 F 
ATOM     28  F   UNL d   1      13.715   0.749 -18.923  0.00  0.00    -0.166 F 
ENDBRANCH  22  25
ENDBRANCH   4  18
TORSDOF 4
