REMARK  4 active torsions:
REMARK  status: ('A' for Active; 'I' for Inactive)
REMARK    1  A    between atoms: C_8  and  N_9 
REMARK    2  A    between atoms: N_9  and  C_10 
REMARK    3  A    between atoms: C_10  and  C_11 
REMARK    4  A    between atoms: C_11  and  N_12 
ROOT
ATOM      1 CL   UNL d   1      12.900   6.692 -16.328  0.00  0.00    -0.082 Cl
ATOM      2  C   UNL d   1      12.165   5.190 -15.902  0.00  0.00     0.058 A 
ATOM      3  C   UNL d   1      12.672   3.987 -16.420  0.00  0.00     0.013 A 
ATOM      4  C   UNL d   1      12.059   2.770 -16.065  0.00  0.00     0.020 A 
ATOM      5  C   UNL d   1      10.948   2.748 -15.191  0.00  0.00     0.086 A 
ATOM      6  C   UNL d   1      10.448   3.953 -14.637  0.00  0.00     0.054 A 
ATOM      7  C   UNL d   1      11.075   5.162 -15.012  0.00  0.00     0.016 A 
ATOM      8  C   UNL d   1       9.333   4.010 -13.621  0.00  0.00     0.160 C 
ATOM      9  N   UNL d   1       8.277   3.260 -13.640  0.00  0.00    -0.224 NA
ATOM     10  C   UNL d   1       8.018   2.206 -14.526  0.00  0.00     0.119 A 
ATOM     11  C   UNL d   1       6.664   1.915 -14.775  0.00  0.00     0.024 A 
ATOM     12  C   UNL d   1       6.323   0.793 -15.555  0.00  0.00     0.022 A 
ATOM     13  C   UNL d   1       7.360  -0.001 -16.063  0.00  0.00     0.101 A 
ATOM     14  N   UNL d   1       8.665   0.257 -15.837  0.00  0.00    -0.224 NA
ATOM     15  C   UNL d   1       8.984   1.329 -15.087  0.00  0.00     0.180 A 
ATOM     16  N   UNL d   1      10.352   1.516 -14.940  0.00  0.00    -0.225 NA
ENDROOT
BRANCH   8  17
ATOM     17  N   UNL d   1       9.517   4.948 -12.608  0.00  0.00    -0.251 NA
BRANCH  17  18
ATOM     18  C   UNL d   1       8.980   4.837 -11.260  0.00  0.00     0.163 C 
BRANCH  18  19
ATOM     19  C   UNL d   1       8.823   6.224 -10.622  0.00  0.00     0.276 C 
BRANCH  19  20
ATOM     20  N   UNL d   1       9.878   6.519  -9.650  0.00  0.00     0.139 N 
ATOM     21  C   UNL d   1       9.468   6.066  -8.314  0.00  0.00     0.250 C 
ATOM     22  C   UNL d   1      10.576   6.347  -7.278  0.00  0.00     0.035 C 
ATOM     23  C   UNL d   1      10.933   7.835  -7.231  0.00  0.00     0.004 C 
ATOM     24  C   UNL d   1      11.239   8.326  -8.648  0.00  0.00     0.035 C 
ATOM     25  C   UNL d   1      10.094   7.968  -9.614  0.00  0.00     0.250 C 
ENDBRANCH  19  20
ENDBRANCH  18  19
ENDBRANCH  17  18
ENDBRANCH   8  17
TORSDOF 4
