REMARK  6 active torsions:
REMARK  status: ('A' for Active; 'I' for Inactive)
REMARK    1  A    between atoms: C_2  and  C_3 
REMARK    2  A    between atoms: N_13  and  C_14 
REMARK    3  A    between atoms: C_14  and  C_15 
REMARK    4  A    between atoms: C_15  and  C_17 
REMARK    5  A    between atoms: C_17  and  N_18 
REMARK    6  A    between atoms: N_21  and  C_22 
ROOT
ATOM      1  C   UNL d   1       5.813  -1.023 -18.533  0.00  0.00     0.066 A 
ATOM      2  C   UNL d   1       6.295  -1.233 -19.847  0.00  0.00     0.018 A 
ATOM      3  C   UNL d   1       5.536  -1.927 -20.799  0.00  0.00     0.002 A 
ATOM      4  C   UNL d   1       4.276  -2.436 -20.442  0.00  0.00     0.001 A 
ATOM      5  C   UNL d   1       3.781  -2.253 -19.137  0.00  0.00     0.012 A 
ATOM      6  C   UNL d   1       4.528  -1.549 -18.175  0.00  0.00     0.084 A 
ATOM      7  C   UNL d   1       3.957  -1.395 -16.839  0.00  0.00     0.102 C 
ATOM      8  N   UNL d   1       3.504  -1.251 -15.783  0.00  0.00    -0.191 NA
ENDROOT
BRANCH   1   9
ATOM      9  N   UNL d   1       6.612  -0.300 -17.656  0.00  0.00    -0.344 N 
ATOM     10  C   UNL d   1       6.108   0.769 -16.805  0.00  0.00     0.137 C 
ATOM     11  C   UNL d   1       7.010   1.992 -16.982  0.00  0.00     0.274 C 
ATOM     12  N   UNL d   1       8.424   1.704 -16.733  0.00  0.00     0.144 N 
ATOM     13  C   UNL d   1       8.882   0.658 -17.637  0.00  0.00     0.274 C 
ATOM     14  C   UNL d   1       8.031  -0.599 -17.496  0.00  0.00     0.137 C 
BRANCH  12  15
ATOM     15  C   UNL d   1       9.227   2.916 -16.826  0.00  0.00     0.285 C 
BRANCH  15  16
ATOM     16  C   UNL d   1      10.612   2.814 -16.153  0.00  0.00     0.208 C 
ATOM     17  O   UNL d   1      11.310   4.001 -16.461  0.00  0.00    -0.219 OA
BRANCH  16  18
ATOM     18  C   UNL d   1      10.633   2.572 -14.613  0.00  0.00     0.148 C 
BRANCH  18  19
ATOM     19  N   UNL d   1       9.647   3.374 -13.870  0.00  0.00    -0.247 N 
ATOM     20  C   UNL d   1       8.349   3.109 -13.679  0.00  0.00     0.348 A 
ATOM     21  N   UNL d   1       7.785   4.106 -12.998  0.00  0.00    -0.209 NA
ATOM     22  O   UNL d   1       7.726   2.116 -14.040  0.00  0.00    -0.245 OA
ATOM     23  C   UNL d   1       8.718   5.161 -12.664  0.00  0.00     0.179 A 
ATOM     24  C   UNL d   1       8.252   6.444 -13.309  0.00  0.00     0.039 C 
ATOM     25  C   UNL d   1       9.936   4.584 -13.395  0.00  0.00     0.265 A 
ATOM     26  O   UNL d   1      11.006   5.185 -13.603  0.00  0.00    -0.269 OA
BRANCH  23  27
ATOM     27  C   UNL d   1       8.962   5.384 -11.176  0.00  0.00     0.006 A 
ATOM     28  C   UNL d   1       9.865   6.365 -10.741  0.00  0.00     0.000 A 
ATOM     29  C   UNL d   1      10.118   6.570  -9.376  0.00  0.00     0.029 A 
ATOM     30  C   UNL d   1       9.432   5.814  -8.420  0.00  0.00     0.140 A 
ATOM     31  C   UNL d   1       8.521   4.833  -8.836  0.00  0.00     0.029 A 
ATOM     32  F   UNL d   1       9.625   6.057  -7.109  0.00  0.00    -0.204 F 
ATOM     33  C   UNL d   1       8.243   4.676 -10.203  0.00  0.00     0.000 A 
ENDBRANCH  23  27
ENDBRANCH  18  19
ENDBRANCH  16  18
ENDBRANCH  15  16
ENDBRANCH  12  15
ENDBRANCH   1   9
TORSDOF 6
