REMARK  5 active torsions:
REMARK  status: ('A' for Active; 'I' for Inactive)
REMARK    1  A    between atoms: C_8  and  S_9 
REMARK    2  A    between atoms: S_9  and  N_12 
REMARK    3  A    between atoms: N_12  and  C_13 
REMARK    4  A    between atoms: N_21  and  C_22 
REMARK    5  A    between atoms: C_22  and  C_23 
ROOT
ATOM      1  C   UNL d   1       9.569   6.141 -10.447  0.00  0.00     0.093 A 
ATOM      2  C   UNL d   1       8.493   5.746  -9.638  0.00  0.00     0.020 A 
ATOM      3  C   UNL d   1       8.650   5.933  -8.272  0.00  0.00    -0.003 A 
ATOM      4  C   UNL d   1       9.778   6.542  -7.719  0.00  0.00    -0.024 A 
ATOM      5  C   UNL d   1      10.815   7.014  -8.548  0.00  0.00    -0.022 A 
ATOM      6  C   UNL d   1      10.678   6.830  -9.925  0.00  0.00     0.015 A 
ATOM      7  C   UNL d   1      12.144   7.578  -8.056  0.00  0.00     0.061 C 
ATOM      8  C   UNL d   1      12.014   8.862  -7.285  0.00  0.00     0.255 C 
ATOM      9  N   UNL d   1      11.594   8.477  -5.961  0.00  0.00     0.144 N 
ATOM     10  C   UNL d   1      10.157   8.208  -5.898  0.00  0.00     0.255 C 
ATOM     11  C   UNL d   1       9.848   6.747  -6.248  0.00  0.00     0.061 C 
ENDROOT
BRANCH   1  12
ATOM     12  N   UNL d   1       9.624   5.772 -11.771  0.00  0.00    -0.158 NA
BRANCH  12  13
ATOM     13  S   UNL d   1       8.358   5.277 -12.823  0.00  0.00     0.285 S 
ATOM     14  O   UNL d   1       7.874   6.565 -13.350  0.00  0.00    -0.198 OA
ATOM     15  O   UNL d   1       7.465   4.344 -12.104  0.00  0.00    -0.198 OA
BRANCH  13  16
ATOM     16  C   UNL d   1       9.266   4.347 -14.038  0.00  0.00     0.107 A 
ATOM     17  C   UNL d   1       8.969   2.982 -14.160  0.00  0.00     0.039 A 
ATOM     18  C   UNL d   1       9.683   2.166 -15.053  0.00  0.00     0.110 A 
ATOM     19  O   UNL d   1       9.319   0.839 -15.120  0.00  0.00    -0.327 OA
ATOM     20  C   UNL d   1      10.719   2.741 -15.852  0.00  0.00     0.079 A 
ATOM     21  C   UNL d   1       9.715   0.186 -16.313  0.00  0.00     0.173 C 
ATOM     22  C   UNL d   1      11.184   0.498 -16.635  0.00  0.00     0.134 C 
ATOM     23  N   UNL d   1      11.435   1.929 -16.737  0.00  0.00    -0.342 N 
ATOM     24  C   UNL d   1      12.643   2.394 -17.419  0.00  0.00     0.126 C 
ATOM     25  C   UNL d   1      11.000   4.124 -15.717  0.00  0.00     0.020 A 
ATOM     26  C   UNL d   1      10.318   4.915 -14.783  0.00  0.00     0.015 A 
ENDBRANCH  13  16
ENDBRANCH  12  13
ENDBRANCH   1  12
BRANCH   9  27
ATOM     27  C   UNL d   1      11.904   9.581  -5.089  0.00  0.00     0.297 C 
BRANCH  27  28
ATOM     28  C   UNL d   1      12.105   9.116  -3.696  0.00  0.00     0.116 A 
ATOM     29  N   UNL d   1      11.895  10.049  -2.820  0.00  0.00    -0.150 NA
ATOM     30  N   UNL d   1      12.216   9.468  -1.651  0.00  0.00    -0.147 NA
ATOM     31  C   UNL d   1      12.662   8.194  -1.780  0.00  0.00     0.123 A 
ATOM     32  C   UNL d   1      12.658   7.928  -3.120  0.00  0.00     0.041 A 
ENDBRANCH  27  28
ENDBRANCH   9  27
TORSDOF 5
