REMARK  3 active torsions:
REMARK  status: ('A' for Active; 'I' for Inactive)
REMARK    1  A    between atoms: N_14  and  C_15 
REMARK    2  A    between atoms: C_15  and  C_16 
REMARK    3  A    between atoms: C_16  and  C_17 
ROOT
ATOM      1  O   UNL d   1      11.080   9.394  -8.594  0.00  0.00    -0.223 OA
ATOM      2  C   UNL d   1      11.560   9.122  -7.315  0.00  0.00     0.156 C 
ATOM      3  C   UNL d   1      11.249  10.367  -6.515  0.00  0.00     0.038 C 
ATOM      4  C   UNL d   1      11.875  10.330  -5.171  0.00  0.00     0.029 C 
ATOM      5  C   UNL d   1      11.766   9.036  -4.410  0.00  0.00    -0.026 A 
ATOM      6  C   UNL d   1      12.096   9.042  -3.042  0.00  0.00    -0.005 A 
ATOM      7  C   UNL d   1      12.061   7.843  -2.296  0.00  0.00    -0.000 A 
ATOM      8  C   UNL d   1      11.681   6.668  -2.949  0.00  0.00    -0.000 A 
ATOM      9  C   UNL d   1      11.340   6.665  -4.301  0.00  0.00    -0.004 A 
ATOM     10  C   UNL d   1      11.389   7.858  -5.068  0.00  0.00    -0.024 A 
ATOM     11  C   UNL d   1      10.994   7.845  -6.553  0.00  0.00     0.051 C 
ATOM     12  C   UNL d   1      11.549   6.593  -7.247  0.00  0.00     0.042 C 
ATOM     13  C   UNL d   1      10.925   6.454  -8.651  0.00  0.00     0.251 C 
ATOM     14  N   UNL d   1       9.481   6.301  -8.545  0.00  0.00     0.137 N 
ATOM     15  C   UNL d   1       8.946   7.512  -8.030  0.00  0.00     0.251 C 
ATOM     16  C   UNL d   1       9.445   7.753  -6.601  0.00  0.00     0.042 C 
ENDROOT
BRANCH  14  17
ATOM     17  C   UNL d   1       8.997   6.055  -9.904  0.00  0.00     0.255 C 
BRANCH  17  18
ATOM     18  C   UNL d   1       8.935   4.576 -10.212  0.00  0.00     0.062 C 
BRANCH  18  19
ATOM     19  C   UNL d   1       8.476   4.354 -11.645  0.00  0.00    -0.020 A 
ATOM     20  C   UNL d   1       7.099   4.317 -11.949  0.00  0.00    -0.004 A 
ATOM     21  C   UNL d   1       6.675   3.918 -13.234  0.00  0.00    -0.000 A 
ATOM     22  C   UNL d   1       7.634   3.543 -14.187  0.00  0.00    -0.000 A 
ATOM     23  C   UNL d   1       9.005   3.627 -13.907  0.00  0.00    -0.000 A 
ATOM     24  C   UNL d   1       9.430   4.015 -12.617  0.00  0.00    -0.004 A 
ENDBRANCH  18  19
ENDBRANCH  17  18
ENDBRANCH  14  17
TORSDOF 3
