REMARK  7 active torsions:
REMARK  status: ('A' for Active; 'I' for Inactive)
REMARK    1  A    between atoms: O_2  and  C_3 
REMARK    2  A    between atoms: C_8  and  N_9 
REMARK    3  A    between atoms: N_12  and  C_13 
REMARK    4  A    between atoms: C_13  and  C_14 
REMARK    5  A    between atoms: C_14  and  C_15 
REMARK    6  A    between atoms: C_15  and  C_16 
REMARK    7  A    between atoms: C_16  and  N_17 
ROOT
ATOM      1  C   UNL d   1       9.279   4.879 -11.234  0.00  0.00     0.251 C 
ENDROOT
BRANCH   1   2
ATOM      2  N   UNL d   1       8.651   4.565 -12.515  0.00  0.00     0.141 N 
ATOM      3  C   UNL d   1       7.244   4.197 -12.284  0.00  0.00     0.274 C 
ATOM      4  C   UNL d   1       6.553   3.834 -13.604  0.00  0.00     0.137 C 
ATOM      5  N   UNL d   1       7.318   2.818 -14.323  0.00  0.00    -0.343 N 
ATOM      6  C   UNL d   1       8.732   3.123 -14.525  0.00  0.00     0.137 C 
ATOM      7  C   UNL d   1       9.395   3.481 -13.181  0.00  0.00     0.274 C 
BRANCH   5   8
ATOM      8  C   UNL d   1       6.721   1.649 -14.833  0.00  0.00     0.079 A 
ATOM      9  C   UNL d   1       6.982   1.208 -16.158  0.00  0.00     0.110 A 
ATOM     10  C   UNL d   1       6.341   0.030 -16.622  0.00  0.00     0.026 A 
ATOM     11  C   UNL d   1       5.439  -0.673 -15.802  0.00  0.00     0.002 A 
ATOM     12  C   UNL d   1       5.177  -0.216 -14.501  0.00  0.00     0.002 A 
ATOM     13  C   UNL d   1       5.825   0.930 -14.016  0.00  0.00     0.019 A 
BRANCH   9  14
ATOM     14  O   UNL d   1       7.816   1.980 -16.945  0.00  0.00    -0.327 OA
ATOM     15  C   UNL d   1       8.166   1.497 -18.233  0.00  0.00     0.181 C 
ENDBRANCH   9  14
ENDBRANCH   5   8
ENDBRANCH   1   2
BRANCH   1  16
ATOM     16  C   UNL d   1       9.403   6.399 -11.070  0.00  0.00     0.037 C 
BRANCH  16  17
ATOM     17  C   UNL d   1      10.275   6.772  -9.858  0.00  0.00     0.026 C 
BRANCH  17  18
ATOM     18  C   UNL d   1       9.706   7.941  -9.041  0.00  0.00     0.104 C 
BRANCH  18  19
ATOM     19  N   UNL d   1      10.460   8.140  -7.797  0.00  0.00    -0.316 N 
ATOM     20  C   UNL d   1      10.254   7.342  -6.727  0.00  0.00     0.257 C 
ATOM     21  C   UNL d   1      11.088   7.609  -5.507  0.00  0.00     0.052 A 
ATOM     22  O   UNL d   1       9.448   6.404  -6.726  0.00  0.00    -0.267 OA
ATOM     23  C   UNL d   1      11.754   8.839  -5.337  0.00  0.00    -0.016 A 
ATOM     24  C   UNL d   1      11.195   6.633  -4.499  0.00  0.00     0.004 A 
ATOM     25  C   UNL d   1      11.675   9.874  -6.434  0.00  0.00     0.051 C 
ATOM     26  C   UNL d   1      12.500   9.077  -4.161  0.00  0.00    -0.004 A 
ATOM     27  C   UNL d   1      11.464   9.214  -7.815  0.00  0.00     0.109 C 
ATOM     28  C   UNL d   1      12.581   8.092  -3.152  0.00  0.00    -0.000 A 
ATOM     29  C   UNL d   1      11.930   6.862  -3.325  0.00  0.00     0.000 A 
ENDBRANCH  18  19
ENDBRANCH  17  18
ENDBRANCH  16  17
ENDBRANCH   1  16
TORSDOF 7
