REMARK  3 active torsions:
REMARK  status: ('A' for Active; 'I' for Inactive)
REMARK    1  A    between atoms: C_5  and  N_6 
REMARK    2  A    between atoms: N_9  and  C_10 
REMARK    3  A    between atoms: C_10  and  C_11 
ROOT
ATOM      1  N   UNL d   1      10.754   7.781  -8.915  0.00  0.00    -0.344 N 
ATOM      2  C   UNL d   1      10.843   8.666 -10.089  0.00  0.00     0.137 C 
ATOM      3  C   UNL d   1       9.602   8.468 -10.971  0.00  0.00     0.275 C 
ATOM      4  N   UNL d   1       9.453   7.063 -11.381  0.00  0.00     0.147 N 
ATOM      5  C   UNL d   1       9.280   6.250 -10.178  0.00  0.00     0.275 C 
ATOM      6  C   UNL d   1      10.523   6.391  -9.310  0.00  0.00     0.137 C 
ENDROOT
BRANCH   4   7
ATOM      7  C   UNL d   1       8.271   6.928 -12.210  0.00  0.00     0.297 C 
BRANCH   7   8
ATOM      8  C   UNL d   1       7.929   5.610 -12.800  0.00  0.00     0.113 A 
ATOM      9  N   UNL d   1       6.729   4.984 -12.493  0.00  0.00    -0.228 NA
ATOM     10  C   UNL d   1       6.756   3.831 -13.151  0.00  0.00     0.164 A 
ATOM     11  N   UNL d   1       7.958   3.712 -13.890  0.00  0.00    -0.209 N 
ATOM     12  C   UNL d   1       5.860   2.741 -13.249  0.00  0.00     0.041 A 
ATOM     13  C   UNL d   1       8.686   4.858 -13.650  0.00  0.00     0.119 A 
ATOM     14  N   UNL d   1       8.353   2.701 -14.701  0.00  0.00    -0.152 NA
ATOM     15  C   UNL d   1       7.459   1.720 -14.751  0.00  0.00     0.159 A 
ATOM     16 CL   UNL d   1       7.840   0.391 -15.780  0.00  0.00    -0.060 Cl
ATOM     17  C   UNL d   1       6.227   1.683 -14.050  0.00  0.00     0.036 A 
ENDBRANCH   7   8
ENDBRANCH   4   7
BRANCH   1  18
ATOM     18  C   UNL d   1      10.960   8.175  -7.589  0.00  0.00     0.056 A 
ATOM     19  C   UNL d   1      10.820   7.277  -6.499  0.00  0.00     0.018 A 
ATOM     20  C   UNL d   1      11.023   7.712  -5.168  0.00  0.00     0.013 A 
ATOM     21  C   UNL d   1      11.340   9.051  -4.887  0.00  0.00     0.058 A 
ATOM     22 CL   UNL d   1      11.555   9.585  -3.255  0.00  0.00    -0.082 Cl
ATOM     23  C   UNL d   1      11.475   9.960  -5.940  0.00  0.00     0.013 A 
ATOM     24  C   UNL d   1      11.306   9.520  -7.271  0.00  0.00     0.018 A 
ENDBRANCH   1  18
TORSDOF 3
