REMARK  7 active torsions:
REMARK  status: ('A' for Active; 'I' for Inactive)
REMARK    1  A    between atoms: C_3  and  S_4 
REMARK    2  A    between atoms: S_4  and  C_5 
REMARK    3  A    between atoms: C_5  and  C_6 
REMARK    4  A    between atoms: C_6  and  C_7 
REMARK    5  A    between atoms: C_7  and  N_8 
REMARK    6  A    between atoms: N_13  and  C_14 
REMARK    7  A    between atoms: C_26  and  C_27 
ROOT
ATOM      1  N   UNL d   1       9.646   5.871  -8.576  0.00  0.00     0.139 N 
ATOM      2  C   UNL d   1       9.947   6.968  -9.493  0.00  0.00     0.252 C 
ATOM      3  C   UNL d   1      11.072   7.711  -8.819  0.00  0.00     0.058 C 
ATOM      4  C   UNL d   1      11.003   9.228  -8.816  0.00  0.00     0.028 C 
ATOM      5  C   UNL d   1      11.476   9.568  -7.396  0.00  0.00     0.102 C 
ATOM      6  N   UNL d   1      10.990   8.481  -6.550  0.00  0.00    -0.346 N 
ATOM      7  C   UNL d   1      10.982   7.285  -7.378  0.00  0.00     0.117 C 
ATOM      8  C   UNL d   1       9.680   6.508  -7.268  0.00  0.00     0.272 C 
ENDROOT
BRANCH   1   9
ATOM      9  C   UNL d   1       8.340   5.276  -8.827  0.00  0.00     0.251 C 
BRANCH   9  10
ATOM     10  C   UNL d   1       8.228   4.686 -10.242  0.00  0.00     0.047 C 
BRANCH  10  11
ATOM     11  C   UNL d   1       7.762   5.675 -11.328  0.00  0.00     0.067 C 
BRANCH  11  12
ATOM     12  S   UNL d   1       7.070   4.834 -12.760  0.00  0.00    -0.075 SA
BRANCH  12  13
ATOM     13  C   UNL d   1       8.544   4.285 -13.566  0.00  0.00     0.193 A 
ATOM     14  N   UNL d   1       8.529   3.239 -14.410  0.00  0.00    -0.287 N 
ATOM     15  C   UNL d   1       7.356   2.446 -14.787  0.00  0.00     0.134 C 
ATOM     16  C   UNL d   1       9.818   3.176 -14.820  0.00  0.00     0.186 A 
ATOM     17  N   UNL d   1      10.579   4.128 -14.256  0.00  0.00    -0.127 NA
ATOM     18  N   UNL d   1       9.747   4.846 -13.435  0.00  0.00    -0.122 NA
BRANCH  16  19
ATOM     19  C   UNL d   1      10.387   2.193 -15.744  0.00  0.00     0.136 A 
ATOM     20  N   UNL d   1      11.412   2.618 -16.529  0.00  0.00    -0.238 NA
ATOM     21  C   UNL d   1      11.964   1.727 -17.391  0.00  0.00     0.120 A 
ATOM     22  C   UNL d   1      11.460   0.409 -17.496  0.00  0.00     0.120 A 
ATOM     23  N   UNL d   1      10.443  -0.027 -16.722  0.00  0.00    -0.239 NA
ATOM     24  C   UNL d   1       9.924   0.853 -15.837  0.00  0.00     0.121 A 
ENDBRANCH  16  19
ENDBRANCH  12  13
ENDBRANCH  11  12
ENDBRANCH  10  11
ENDBRANCH   9  10
ENDBRANCH   1   9
BRANCH   6  25
ATOM     25  C   UNL d   1      11.396   8.416  -5.202  0.00  0.00     0.084 A 
ATOM     26  C   UNL d   1      11.444   9.586  -4.392  0.00  0.00     0.158 A 
ATOM     27  C   UNL d   1      11.879   9.510  -3.061  0.00  0.00     0.061 A 
ATOM     28  F   UNL d   1      11.009  10.781  -4.869  0.00  0.00    -0.203 F 
ATOM     29  C   UNL d   1      12.255   8.283  -2.509  0.00  0.00     0.142 A 
ATOM     30  C   UNL d   1      12.194   7.111  -3.274  0.00  0.00     0.031 A 
ATOM     31  F   UNL d   1      12.672   8.227  -1.243  0.00  0.00    -0.204 F 
ATOM     32  C   UNL d   1      11.743   7.172  -4.598  0.00  0.00     0.021 A 
ENDBRANCH   6  25
TORSDOF 7
