REMARK  6 active torsions:
REMARK  status: ('A' for Active; 'I' for Inactive)
REMARK       I    between atoms: C_2  and  N_3 
REMARK    1  A    between atoms: C_2  and  C_19 
REMARK    2  A    between atoms: N_3  and  C_4 
REMARK    3  A    between atoms: C_4  and  C_5 
REMARK    4  A    between atoms: C_5  and  C_6 
REMARK    5  A    between atoms: C_6  and  N_7 
REMARK    6  A    between atoms: N_10  and  C_11 
ROOT
ATOM      1  O   UNL d   1       9.553  -0.469 -16.992  0.00  0.00    -0.266 OA
ATOM      2  C   UNL d   1      10.318   0.467 -16.758  0.00  0.00     0.275 C 
ATOM      3  N   UNL d   1      10.194   1.262 -15.692  0.00  0.00    -0.234 NA
ENDROOT
BRANCH   3   4
ATOM      4  C   UNL d   1       9.006   1.321 -14.852  0.00  0.00     0.131 C 
BRANCH   4   5
ATOM      5  C   UNL d   1       9.015   2.645 -14.090  0.00  0.00     0.062 C 
BRANCH   5   6
ATOM      6  C   UNL d   1       7.614   3.274 -13.868  0.00  0.00     0.253 C 
BRANCH   6   7
ATOM      7  N   UNL d   1       7.625   4.545 -13.116  0.00  0.00     0.141 N 
ATOM      8  C   UNL d   1       7.552   4.268 -11.683  0.00  0.00     0.274 C 
ATOM      9  C   UNL d   1       7.532   5.570 -10.868  0.00  0.00     0.137 C 
ATOM     10  N   UNL d   1       8.700   6.374 -11.198  0.00  0.00    -0.344 N 
ATOM     11  C   UNL d   1       8.807   6.688 -12.615  0.00  0.00     0.137 C 
ATOM     12  C   UNL d   1       8.808   5.373 -13.393  0.00  0.00     0.274 C 
BRANCH  10  13
ATOM     13  C   UNL d   1       9.566   6.877 -10.216  0.00  0.00     0.056 A 
ATOM     14  C   UNL d   1       9.784   6.187  -8.993  0.00  0.00     0.017 A 
ATOM     15  C   UNL d   1      10.662   6.700  -8.015  0.00  0.00     0.002 A 
ATOM     16  C   UNL d   1      11.352   7.903  -8.247  0.00  0.00     0.000 A 
ATOM     17  C   UNL d   1      11.149   8.601  -9.450  0.00  0.00     0.002 A 
ATOM     18  C   UNL d   1      10.255   8.096 -10.419  0.00  0.00     0.017 A 
ENDBRANCH  10  13
ENDBRANCH   6   7
ENDBRANCH   5   6
ENDBRANCH   4   5
ENDBRANCH   3   4
BRANCH   2  19
ATOM     19  C   UNL d   1      11.471   0.761 -17.673  0.00  0.00     0.057 A 
ATOM     20  C   UNL d   1      11.995  -0.279 -18.476  0.00  0.00     0.001 A 
ATOM     21  C   UNL d   1      13.063   0.004 -19.342  0.00  0.00    -0.018 A 
ATOM     22  C   UNL d   1      13.604   1.291 -19.432  0.00  0.00    -0.004 A 
ATOM     23  C   UNL d   1      13.777  -0.971 -20.260  0.00  0.00     0.053 A 
ATOM     24  C   UNL d   1      13.085   2.346 -18.665  0.00  0.00    -0.000 A 
ATOM     25  C   UNL d   1      14.697   1.259 -20.392  0.00  0.00    -0.004 A 
ATOM     26  C   UNL d   1      12.011   2.075 -17.788  0.00  0.00     0.005 A 
ATOM     27  C   UNL d   1      14.810  -0.047 -20.879  0.00  0.00    -0.018 A 
ATOM     28  C   UNL d   1      15.558   2.278 -20.839  0.00  0.00    -0.000 A 
ATOM     29  C   UNL d   1      15.784  -0.385 -21.832  0.00  0.00    -0.004 A 
ATOM     30  C   UNL d   1      16.654   0.629 -22.290  0.00  0.00    -0.000 A 
ATOM     31  C   UNL d   1      16.547   1.949 -21.793  0.00  0.00    -0.000 A 
ENDBRANCH   2  19
TORSDOF 6
