REMARK  4 active torsions:
REMARK  status: ('A' for Active; 'I' for Inactive)
REMARK    1  A    between atoms: C_2  and  C_3 
REMARK    2  A    between atoms: C_3  and  N_4 
REMARK    3  A    between atoms: C_8  and  C_9 
REMARK    4  A    between atoms: C_13  and  S_14 
ROOT
ATOM      1  C   UNL d   1       7.484   4.678 -12.429  0.00  0.00    -0.020 A 
ATOM      2  C   UNL d   1       6.119   4.319 -12.387  0.00  0.00    -0.004 A 
ATOM      3  C   UNL d   1       5.630   3.270 -13.191  0.00  0.00     0.000 A 
ATOM      4  C   UNL d   1       6.502   2.573 -14.050  0.00  0.00     0.011 A 
ATOM      5  C   UNL d   1       7.867   2.930 -14.089  0.00  0.00     0.084 A 
ATOM      6  C   UNL d   1       8.362   3.962 -13.275  0.00  0.00     0.007 A 
ENDROOT
BRANCH   1   7
ATOM      7  C   UNL d   1       8.011   5.810 -11.563  0.00  0.00     0.056 C 
ATOM      8  C   UNL d   1       8.927   6.755 -12.359  0.00  0.00     0.008 C 
ATOM      9  C   UNL d   1       9.508   7.821 -11.440  0.00  0.00     0.036 C 
ATOM     10  C   UNL d   1      10.191   7.173 -10.225  0.00  0.00     0.250 C 
ATOM     11  N   UNL d   1       9.241   6.351  -9.474  0.00  0.00     0.137 N 
ATOM     12  C   UNL d   1       8.728   5.262 -10.312  0.00  0.00     0.255 C 
BRANCH  11  13
ATOM     13  C   UNL d   1       9.831   5.794  -8.257  0.00  0.00     0.250 C 
BRANCH  13  14
ATOM     14  C   UNL d   1      10.194   6.867  -7.213  0.00  0.00     0.035 C 
ATOM     15  C   UNL d   1       9.001   7.747  -6.817  0.00  0.00     0.002 C 
ENDBRANCH  13  14
ENDBRANCH  11  13
ENDBRANCH   1   7
BRANCH   5  16
ATOM     16  S   UNL d   1       8.980   2.070 -15.191  0.00  0.00     0.191 S 
ATOM     17  C   UNL d   1       8.839   0.315 -14.686  0.00  0.00     0.145 C 
ATOM     18  O   UNL d   1       8.455   2.202 -16.557  0.00  0.00    -0.222 OA
ATOM     19  O   UNL d   1      10.355   2.506 -14.893  0.00  0.00    -0.222 OA
ENDBRANCH   5  16
TORSDOF 4
