REMARK  7 active torsions:
REMARK  status: ('A' for Active; 'I' for Inactive)
REMARK    1  A    between atoms: C_4  and  C_5 
REMARK    2  A    between atoms: N_13  and  C_14 
REMARK    3  A    between atoms: C_14  and  C_15 
REMARK    4  A    between atoms: C_15  and  C_16 
REMARK    5  A    between atoms: C_16  and  S_17 
REMARK    6  A    between atoms: S_17  and  C_18 
REMARK    7  A    between atoms: C_21  and  C_22 
ROOT
ATOM      1  C   UNL d   1       6.670  -3.232 -18.445  0.00  0.00     0.020 A 
ATOM      2  C   UNL d   1       5.538  -3.443 -17.637  0.00  0.00     0.001 A 
ATOM      3  C   UNL d   1       5.032  -2.391 -16.858  0.00  0.00    -0.004 A 
ATOM      4  C   UNL d   1       5.632  -1.119 -16.889  0.00  0.00    -0.024 A 
ATOM      5  C   UNL d   1       6.765  -0.894 -17.700  0.00  0.00    -0.024 A 
ATOM      6  C   UNL d   1       7.274  -1.955 -18.488  0.00  0.00    -0.003 A 
ATOM      7  C   UNL d   1       7.432   0.471 -17.737  0.00  0.00     0.061 C 
ATOM      8  C   UNL d   1       7.956   0.938 -16.367  0.00  0.00     0.255 C 
ATOM      9  N   UNL d   1       6.923   1.523 -15.511  0.00  0.00     0.138 N 
ATOM     10  C   UNL d   1       5.997   0.528 -14.974  0.00  0.00     0.255 C 
ATOM     11  C   UNL d   1       5.044  -0.008 -16.051  0.00  0.00     0.061 C 
ENDROOT
BRANCH   9  12
ATOM     12  C   UNL d   1       7.579   2.240 -14.421  0.00  0.00     0.251 C 
BRANCH  12  13
ATOM     13  C   UNL d   1       6.634   3.269 -13.744  0.00  0.00     0.047 C 
BRANCH  13  14
ATOM     14  C   UNL d   1       7.337   4.206 -12.769  0.00  0.00     0.067 C 
BRANCH  14  15
ATOM     15  S   UNL d   1       8.742   5.053 -13.522  0.00  0.00    -0.075 SA
BRANCH  15  16
ATOM     16  C   UNL d   1       9.081   6.182 -12.222  0.00  0.00     0.193 A 
ATOM     17  N   UNL d   1       9.403   5.815 -10.963  0.00  0.00    -0.289 N 
ATOM     18  C   UNL d   1       9.618   7.008 -10.377  0.00  0.00     0.168 A 
ATOM     19  C   UNL d   1       9.499   4.495 -10.352  0.00  0.00     0.134 C 
ATOM     20  N   UNL d   1       9.472   8.043 -11.215  0.00  0.00    -0.128 NA
ATOM     21  N   UNL d   1       9.080   7.496 -12.410  0.00  0.00    -0.122 NA
BRANCH  18  22
ATOM     22  C   UNL d   1       9.941   7.165  -8.963  0.00  0.00     0.047 A 
ATOM     23  C   UNL d   1      11.120   7.806  -8.523  0.00  0.00     0.061 A 
ATOM     24  C   UNL d   1      11.391   7.955  -7.153  0.00  0.00     0.011 A 
ATOM     25 CL   UNL d   1      12.285   8.387  -9.641  0.00  0.00    -0.082 Cl
ATOM     26  C   UNL d   1      10.498   7.444  -6.199  0.00  0.00     0.001 A 
ATOM     27  C   UNL d   1       9.333   6.791  -6.627  0.00  0.00     0.000 A 
ATOM     28  C   UNL d   1       9.056   6.648  -7.996  0.00  0.00     0.004 A 
ENDBRANCH  18  22
ENDBRANCH  15  16
ENDBRANCH  14  15
ENDBRANCH  13  14
ENDBRANCH  12  13
ENDBRANCH   9  12
BRANCH   1  29
ATOM     29  C   UNL d   1       7.222  -4.332 -19.219  0.00  0.00     0.110 A 
ATOM     30  C   UNL d   1       7.224  -4.501 -20.628  0.00  0.00     0.044 A 
ATOM     31  C   UNL d   1       7.850  -5.706 -20.808  0.00  0.00     0.105 A 
ATOM     32  C   UNL d   1       8.179  -6.506 -22.021  0.00  0.00     0.061 C 
ATOM     33  O   UNL d   1       8.229  -6.216 -19.609  0.00  0.00    -0.215 OA
ATOM     34  N   UNL d   1       7.814  -5.341 -18.601  0.00  0.00    -0.127 NA
ENDBRANCH   1  29
TORSDOF 7
