REMARK  7 active torsions:
REMARK  status: ('A' for Active; 'I' for Inactive)
REMARK    1  A    between atoms: O_2  and  C_3 
REMARK    2  A    between atoms: C_8  and  N_9 
REMARK    3  A    between atoms: N_12  and  C_13 
REMARK    4  A    between atoms: C_13  and  C_14 
REMARK    5  A    between atoms: C_16  and  C_17 
REMARK    6  A    between atoms: C_17  and  N_18 
REMARK    7  A    between atoms: N_21  and  C_22 
ROOT
ATOM      1  C   UNL d   1       9.368   4.321 -14.329  0.00  0.00    -0.007 A 
ATOM      2  C   UNL d   1       9.474   5.292 -13.293  0.00  0.00     0.048 A 
ATOM      3  C   UNL d   1       8.365   5.117 -12.405  0.00  0.00    -0.007 A 
ATOM      4  C   UNL d   1       7.561   4.059 -12.885  0.00  0.00    -0.006 A 
ATOM      5  C   UNL d   1       6.371   3.639 -12.289  0.00  0.00    -0.001 A 
ATOM      6  C   UNL d   1       5.540   2.543 -12.685  0.00  0.00    -0.000 A 
ATOM      7  C   UNL d   1       5.723   1.616 -13.765  0.00  0.00    -0.000 A 
ATOM      8  C   UNL d   1       6.713   1.609 -14.799  0.00  0.00    -0.000 A 
ATOM      9  C   UNL d   1       7.849   2.469 -14.949  0.00  0.00    -0.001 A 
ATOM     10  C   UNL d   1       8.231   3.523 -14.110  0.00  0.00    -0.006 A 
ENDROOT
BRANCH   1  11
ATOM     11  C   UNL d   1      10.282   4.213 -15.516  0.00  0.00     0.273 C 
BRANCH  11  12
ATOM     12  N   UNL d   1      11.584   4.848 -15.354  0.00  0.00     0.145 N 
ATOM     13  C   UNL d   1      12.694   3.890 -15.482  0.00  0.00     0.275 C 
ATOM     14  C   UNL d   1      12.773   3.280 -16.901  0.00  0.00     0.137 C 
ATOM     15  N   UNL d   1      12.821   4.359 -17.885  0.00  0.00    -0.343 N 
ATOM     16  C   UNL d   1      11.813   5.413 -17.765  0.00  0.00     0.137 C 
ATOM     17  C   UNL d   1      11.806   5.943 -16.309  0.00  0.00     0.275 C 
BRANCH  15  18
ATOM     18  C   UNL d   1      13.809   4.387 -18.875  0.00  0.00     0.079 A 
ATOM     19  C   UNL d   1      14.500   5.583 -19.187  0.00  0.00     0.110 A 
ATOM     20  C   UNL d   1      15.470   5.568 -20.228  0.00  0.00     0.026 A 
ATOM     21  C   UNL d   1      15.754   4.371 -20.916  0.00  0.00     0.002 A 
ATOM     22  C   UNL d   1      15.083   3.180 -20.588  0.00  0.00     0.002 A 
ATOM     23  C   UNL d   1      14.106   3.197 -19.565  0.00  0.00     0.019 A 
BRANCH  19  24
ATOM     24  O   UNL d   1      14.232   6.713 -18.437  0.00  0.00    -0.327 OA
ATOM     25  C   UNL d   1      14.769   7.955 -18.836  0.00  0.00     0.181 C 
ENDBRANCH  19  24
ENDBRANCH  15  18
ENDBRANCH  11  12
ENDBRANCH   1  11
BRANCH   3  26
ATOM     26  C   UNL d   1       8.147   5.979 -11.196  0.00  0.00     0.273 C 
BRANCH  26  27
ATOM     27  N   UNL d   1       9.357   6.039 -10.367  0.00  0.00     0.145 N 
ATOM     28  C   UNL d   1       9.833   7.421 -10.285  0.00  0.00     0.275 C 
ATOM     29  C   UNL d   1      11.077   7.526  -9.390  0.00  0.00     0.137 C 
ATOM     30  N   UNL d   1      10.791   6.957  -8.072  0.00  0.00    -0.344 N 
ATOM     31  C   UNL d   1      10.209   5.622  -8.110  0.00  0.00     0.137 C 
ATOM     32  C   UNL d   1       8.996   5.587  -9.032  0.00  0.00     0.275 C 
BRANCH  30  33
ATOM     33  C   UNL d   1      11.055   7.611  -6.862  0.00  0.00     0.056 A 
ATOM     34  C   UNL d   1      11.355   6.866  -5.695  0.00  0.00     0.018 A 
ATOM     35  C   UNL d   1      11.600   7.513  -4.467  0.00  0.00     0.013 A 
ATOM     36  C   UNL d   1      11.565   8.907  -4.391  0.00  0.00     0.058 A 
ATOM     37  C   UNL d   1      11.283   9.676  -5.537  0.00  0.00     0.013 A 
ATOM     38 CL   UNL d   1      11.874   9.615  -2.862  0.00  0.00    -0.082 Cl
ATOM     39  C   UNL d   1      11.025   9.025  -6.771  0.00  0.00     0.018 A 
ENDBRANCH  30  33
ENDBRANCH  26  27
ENDBRANCH   3  26
TORSDOF 7
