REMARK  8 active torsions:
REMARK  status: ('A' for Active; 'I' for Inactive)
REMARK    1  A    between atoms: S_2  and  N_4 
REMARK    2  A    between atoms: S_2  and  C_23 
REMARK    3  A    between atoms: N_4  and  C_5 
REMARK    4  A    between atoms: C_5  and  C_6 
REMARK    5  A    between atoms: C_6  and  C_7 
REMARK    6  A    between atoms: C_7  and  C_8 
REMARK    7  A    between atoms: C_8  and  N_9 
REMARK    8  A    between atoms: N_12  and  C_13 
ROOT
ATOM      1  C   UNL d   1       9.341   6.529 -11.010  0.00  0.00     0.029 C 
ENDROOT
BRANCH   1   2
ATOM      2  C   UNL d   1       9.676   6.252  -9.540  0.00  0.00     0.139 C 
BRANCH   2   3
ATOM      3  N   UNL d   1      10.753   7.131  -9.119  0.00  0.00    -0.183 NA
BRANCH   3   4
ATOM      4  S   UNL d   1      10.498   8.777  -8.703  0.00  0.00     0.298 S 
ATOM      5  O   UNL d   1      11.456   9.555  -9.504  0.00  0.00    -0.197 OA
ATOM      6  O   UNL d   1       9.073   9.104  -8.734  0.00  0.00    -0.197 OA
BRANCH   4   7
ATOM      7  C   UNL d   1      10.987   8.822  -6.988  0.00  0.00     0.186 A 
ATOM      8  N   UNL d   1      11.069  10.059  -6.463  0.00  0.00    -0.231 NA
ATOM      9  C   UNL d   1      11.351  10.165  -5.156  0.00  0.00     0.100 A 
ATOM     10  C   UNL d   1      11.620   9.064  -4.323  0.00  0.00     0.019 A 
ATOM     11  C   UNL d   1      11.522   7.773  -4.888  0.00  0.00     0.004 A 
ATOM     12  C   UNL d   1      11.986   9.218  -2.970  0.00  0.00     0.002 A 
ATOM     13  C   UNL d   1      11.184   7.639  -6.245  0.00  0.00     0.032 A 
ATOM     14  C   UNL d   1      11.798   6.643  -4.101  0.00  0.00     0.000 A 
ATOM     15  C   UNL d   1      12.165   6.790  -2.751  0.00  0.00     0.000 A 
ATOM     16  C   UNL d   1      12.259   8.079  -2.187  0.00  0.00     0.000 A 
ENDBRANCH   4   7
ENDBRANCH   3   4
ENDBRANCH   2   3
ENDBRANCH   1   2
BRANCH   1  17
ATOM     17  C   UNL d   1       8.610   5.371 -11.695  0.00  0.00     0.037 C 
BRANCH  17  18
ATOM     18  C   UNL d   1       9.471   4.680 -12.775  0.00  0.00     0.251 C 
BRANCH  18  19
ATOM     19  N   UNL d   1       8.880   3.432 -13.243  0.00  0.00     0.141 N 
ATOM     20  C   UNL d   1       7.588   3.684 -13.886  0.00  0.00     0.274 C 
ATOM     21  C   UNL d   1       6.944   2.371 -14.351  0.00  0.00     0.137 C 
ATOM     22  N   UNL d   1       7.857   1.652 -15.225  0.00  0.00    -0.344 N 
ATOM     23  C   UNL d   1       9.192   1.443 -14.687  0.00  0.00     0.137 C 
ATOM     24  C   UNL d   1       9.788   2.778 -14.198  0.00  0.00     0.274 C 
BRANCH  22  25
ATOM     25  C   UNL d   1       7.478   1.172 -16.489  0.00  0.00     0.068 A 
ATOM     26  C   UNL d   1       6.323   0.366 -16.668  0.00  0.00     0.084 A 
ATOM     27  C   UNL d   1       5.982  -0.087 -17.963  0.00  0.00     0.070 A 
ATOM     28 CL   UNL d   1       5.333  -0.116 -15.329  0.00  0.00    -0.080 Cl
ATOM     29  C   UNL d   1       6.789   0.241 -19.066  0.00  0.00     0.012 A 
ATOM     30 CL   UNL d   1       4.591  -1.078 -18.214  0.00  0.00    -0.081 Cl
ATOM     31  C   UNL d   1       7.936   1.030 -18.892  0.00  0.00     0.002 A 
ATOM     32  C   UNL d   1       8.279   1.496 -17.607  0.00  0.00     0.018 A 
ENDBRANCH  22  25
ENDBRANCH  18  19
ENDBRANCH  17  18
ENDBRANCH   1  17
TORSDOF 8
