REMARK  7 active torsions:
REMARK  status: ('A' for Active; 'I' for Inactive)
REMARK       I    between atoms: C_2  and  N_3 
REMARK    1  A    between atoms: C_2  and  C_20 
REMARK    2  A    between atoms: N_3  and  C_4 
REMARK    3  A    between atoms: C_4  and  C_5 
REMARK    4  A    between atoms: C_5  and  C_6 
REMARK    5  A    between atoms: C_6  and  C_7 
REMARK    6  A    between atoms: C_7  and  N_8 
REMARK    7  A    between atoms: N_11  and  C_12 
ROOT
ATOM      1  C   UNL d   1       9.618   7.864 -10.347  0.00  0.00     0.251 C 
ENDROOT
BRANCH   1   2
ATOM      2  C   UNL d   1       8.666   6.790 -10.922  0.00  0.00     0.037 C 
BRANCH   2   3
ATOM      3  C   UNL d   1       9.443   5.685 -11.595  0.00  0.00     0.029 C 
BRANCH   3   4
ATOM      4  C   UNL d   1       8.550   4.681 -12.328  0.00  0.00     0.129 C 
BRANCH   4   5
ATOM      5  N   UNL d   1       9.288   3.709 -13.123  0.00  0.00    -0.234 NA
ATOM      6  C   UNL d   1      10.241   3.960 -14.039  0.00  0.00     0.276 C 
ATOM      7  O   UNL d   1      10.783   5.052 -14.193  0.00  0.00    -0.266 OA
BRANCH   6   8
ATOM      8  C   UNL d   1      10.593   2.820 -14.951  0.00  0.00     0.077 A 
ATOM      9  C   UNL d   1      11.509   3.028 -16.009  0.00  0.00     0.104 A 
ATOM     10  N   UNL d   1      11.853   2.082 -16.907  0.00  0.00    -0.242 NA
ATOM     11  C   UNL d   1      11.286   0.867 -16.783  0.00  0.00     0.099 A 
ATOM     12  C   UNL d   1      10.365   0.538 -15.764  0.00  0.00     0.021 A 
ATOM     13  C   UNL d   1      10.016   1.531 -14.834  0.00  0.00     0.008 A 
ENDBRANCH   6   8
ENDBRANCH   4   5
ENDBRANCH   3   4
ENDBRANCH   2   3
ENDBRANCH   1   2
BRANCH   1  14
ATOM     14  N   UNL d   1      10.445   7.377  -9.249  0.00  0.00     0.141 N 
ATOM     15  C   UNL d   1       9.602   6.974  -8.114  0.00  0.00     0.274 C 
ATOM     16  C   UNL d   1      10.467   6.446  -6.966  0.00  0.00     0.137 C 
ATOM     17  N   UNL d   1      11.407   7.466  -6.584  0.00  0.00    -0.344 N 
ATOM     18  C   UNL d   1      12.232   8.009  -7.650  0.00  0.00     0.137 C 
ATOM     19  C   UNL d   1      11.334   8.465  -8.817  0.00  0.00     0.274 C 
BRANCH  17  20
ATOM     20  C   UNL d   1      11.547   7.848  -5.234  0.00  0.00     0.056 A 
ATOM     21  C   UNL d   1      11.697   6.864  -4.236  0.00  0.00     0.017 A 
ATOM     22  C   UNL d   1      11.876   7.240  -2.890  0.00  0.00     0.002 A 
ATOM     23  C   UNL d   1      11.899   8.603  -2.547  0.00  0.00     0.000 A 
ATOM     24  C   UNL d   1      11.738   9.584  -3.538  0.00  0.00     0.002 A 
ATOM     25  C   UNL d   1      11.586   9.210  -4.891  0.00  0.00     0.017 A 
ENDBRANCH  17  20
ENDBRANCH   1  14
TORSDOF 7
