REMARK  1 active torsions:
REMARK  status: ('A' for Active; 'I' for Inactive)
REMARK    1  A    between atoms: C_13  and  C_14 
REMARK       I    between atoms: C_14  and  N_16 
ROOT
ATOM      1  C   UNL d   1      10.864   9.503  -9.760  0.00  0.00     0.042 C 
ATOM      2  C   UNL d   1      11.412   8.251  -9.130  0.00  0.00     0.164 A 
ATOM      3  O   UNL d   1      12.716   7.998  -9.623  0.00  0.00    -0.217 OA
ATOM      4  C   UNL d   1      11.387   8.329  -7.621  0.00  0.00     0.009 A 
ATOM      5  C   UNL d   1      12.104   9.213  -6.806  0.00  0.00    -0.002 A 
ATOM      6  C   UNL d   1      11.952   9.126  -5.406  0.00  0.00    -0.000 A 
ATOM      7  C   UNL d   1      11.142   8.117  -4.846  0.00  0.00    -0.000 A 
ATOM      8  C   UNL d   1      10.379   7.253  -5.674  0.00  0.00    -0.000 A 
ATOM      9  C   UNL d   1      10.516   7.378  -7.072  0.00  0.00    -0.002 A 
ATOM     10  C   UNL d   1       9.909   6.630  -8.171  0.00  0.00    -0.002 A 
ATOM     11  C   UNL d   1       8.947   5.606  -8.179  0.00  0.00    -0.000 C 
ATOM     12  C   UNL d   1       8.580   5.016  -9.405  0.00  0.00     0.005 C 
ATOM     13  C   UNL d   1       9.046   5.545 -10.631  0.00  0.00     0.058 C 
ATOM     14  C   UNL d   1       9.934   6.642 -10.625  0.00  0.00     0.003 C 
ATOM     15  C   UNL d   1      10.422   7.117  -9.376  0.00  0.00     0.009 A 
ENDROOT
BRANCH  13  16
ATOM     16  C   UNL d   1       8.615   4.930 -11.933  0.00  0.00     0.281 C 
ATOM     17  O   UNL d   1       9.484   4.702 -12.786  0.00  0.00    -0.265 OA
ATOM     18  N   UNL d   1       7.239   4.752 -12.055  0.00  0.00    -0.175 NA
ATOM     19  C   UNL d   1       6.720   4.066 -13.016  0.00  0.00     0.259 C 
ATOM     20  N   UNL d   1       5.351   3.962 -13.108  0.00  0.00    -0.111 N 
ATOM     21  N   UNL d   1       7.371   3.375 -14.024  0.00  0.00    -0.058 NA
ENDBRANCH  13  16
TORSDOF 1
