REMARK  7 active torsions:
REMARK  status: ('A' for Active; 'I' for Inactive)
REMARK    1  A    between atoms: C_6  and  C_7 
REMARK    2  A    between atoms: C_10  and  S_11 
REMARK    3  A    between atoms: S_11  and  C_12 
REMARK    4  A    between atoms: C_12  and  C_13 
REMARK    5  A    between atoms: C_13  and  C_14 
REMARK    6  A    between atoms: C_14  and  N_15 
REMARK    7  A    between atoms: C_19  and  C_20 
ROOT
ATOM      1  C   UNL d   1       8.720   2.492 -14.128  0.00  0.00     0.047 C 
ENDROOT
BRANCH   1   2
ATOM      2  C   UNL d   1       8.848   1.557 -15.328  0.00  0.00     0.067 C 
BRANCH   2   3
ATOM      3  S   UNL d   1      10.617   1.160 -15.698  0.00  0.00    -0.075 SA
BRANCH   3   4
ATOM      4  C   UNL d   1      11.455   2.723 -15.561  0.00  0.00     0.193 A 
ATOM      5  N   UNL d   1      11.614   3.379 -14.405  0.00  0.00    -0.122 NA
ATOM      6  N   UNL d   1      12.275   4.536 -14.713  0.00  0.00    -0.126 NA
ATOM      7  C   UNL d   1      12.481   4.504 -16.037  0.00  0.00     0.191 A 
ATOM      8  N   UNL d   1      12.011   3.368 -16.616  0.00  0.00    -0.287 N 
ATOM      9  C   UNL d   1      12.143   2.911 -17.994  0.00  0.00     0.134 C 
BRANCH   7  10
ATOM     10  C   UNL d   1      13.202   5.591 -16.708  0.00  0.00     0.151 A 
ATOM     11  C   UNL d   1      14.285   5.621 -17.562  0.00  0.00     0.087 A 
ATOM     12  C   UNL d   1      15.099   4.499 -18.145  0.00  0.00     0.054 C 
ATOM     13  N   UNL d   1      14.573   6.950 -17.858  0.00  0.00    -0.221 NA
ATOM     14  C   UNL d   1      13.662   7.647 -17.183  0.00  0.00     0.225 A 
ATOM     15  O   UNL d   1      12.810   6.882 -16.446  0.00  0.00    -0.282 OA
ENDBRANCH   7  10
ENDBRANCH   3   4
ENDBRANCH   2   3
ENDBRANCH   1   2
BRANCH   1  16
ATOM     16  C   UNL d   1       7.314   3.052 -13.795  0.00  0.00     0.251 C 
BRANCH  16  17
ATOM     17  N   UNL d   1       7.418   4.080 -12.752  0.00  0.00     0.137 N 
ATOM     18  C   UNL d   1       8.502   5.075 -12.924  0.00  0.00     0.254 C 
ATOM     19  C   UNL d   1       8.103   6.237 -12.053  0.00  0.00     0.052 A 
ATOM     20  C   UNL d   1       6.621   6.123 -11.895  0.00  0.00     0.039 A 
ATOM     21  C   UNL d   1       7.213   7.349 -12.567  0.00  0.00     0.008 A 
ATOM     22  C   UNL d   1       6.197   4.881 -12.646  0.00  0.00     0.251 C 
BRANCH  19  23
ATOM     23  C   UNL d   1       8.980   6.398 -10.850  0.00  0.00    -0.021 A 
ATOM     24  C   UNL d   1       8.877   5.506  -9.762  0.00  0.00    -0.003 A 
ATOM     25  C   UNL d   1       9.623   5.720  -8.589  0.00  0.00     0.011 A 
ATOM     26  C   UNL d   1      10.494   6.824  -8.496  0.00  0.00     0.058 A 
ATOM     27  C   UNL d   1      10.630   7.704  -9.585  0.00  0.00     0.011 A 
ATOM     28 CL   UNL d   1      11.411   7.080  -7.055  0.00  0.00    -0.082 Cl
ATOM     29  C   UNL d   1       9.865   7.495 -10.752  0.00  0.00    -0.003 A 
ENDBRANCH  19  23
ENDBRANCH  16  17
ENDBRANCH   1  16
TORSDOF 7
