REMARK  8 active torsions:
REMARK  status: ('A' for Active; 'I' for Inactive)
REMARK    1  A    between atoms: C_3  and  S_4 
REMARK    2  A    between atoms: S_4  and  C_5 
REMARK    3  A    between atoms: C_5  and  C_6 
REMARK    4  A    between atoms: C_6  and  C_7 
REMARK    5  A    between atoms: C_7  and  N_8 
REMARK    6  A    between atoms: N_13  and  C_14 
REMARK    7  A    between atoms: C_17  and  C_18 
REMARK    8  A    between atoms: C_28  and  C_29 
ROOT
ATOM      1  N   UNL d   1       9.396   3.436 -14.855  0.00  0.00     0.139 N 
ATOM      2  C   UNL d   1      10.089   2.203 -14.501  0.00  0.00     0.252 C 
ATOM      3  C   UNL d   1       9.951   1.336 -15.750  0.00  0.00     0.058 C 
ATOM      4  C   UNL d   1       8.678   0.496 -15.826  0.00  0.00     0.028 C 
ATOM      5  C   UNL d   1       8.278   0.607 -17.292  0.00  0.00     0.102 C 
ATOM      6  N   UNL d   1       8.672   1.950 -17.695  0.00  0.00    -0.348 N 
ATOM      7  C   UNL d   1       9.842   2.323 -16.902  0.00  0.00     0.117 C 
ATOM      8  C   UNL d   1       9.757   3.710 -16.242  0.00  0.00     0.272 C 
ENDROOT
BRANCH   1   9
ATOM      9  C   UNL d   1       9.708   4.563 -13.988  0.00  0.00     0.251 C 
BRANCH   9  10
ATOM     10  C   UNL d   1       9.192   4.319 -12.563  0.00  0.00     0.047 C 
BRANCH  10  11
ATOM     11  C   UNL d   1       9.254   5.598 -11.742  0.00  0.00     0.067 C 
BRANCH  11  12
ATOM     12  S   UNL d   1       8.893   5.281  -9.982  0.00  0.00    -0.075 SA
BRANCH  12  13
ATOM     13  C   UNL d   1       9.779   6.582  -9.173  0.00  0.00     0.193 A 
ATOM     14  N   UNL d   1       9.591   6.918  -7.876  0.00  0.00    -0.287 N 
ATOM     15  C   UNL d   1       8.620   6.440  -6.912  0.00  0.00     0.134 C 
ATOM     16  C   UNL d   1      10.542   7.856  -7.689  0.00  0.00     0.191 A 
ATOM     17  N   UNL d   1      11.275   8.114  -8.774  0.00  0.00    -0.126 NA
ATOM     18  N   UNL d   1      10.768   7.277  -9.743  0.00  0.00    -0.122 NA
BRANCH  16  19
ATOM     19  C   UNL d   1      10.781   8.559  -6.458  0.00  0.00     0.147 C 
ATOM     20  S   UNL d   1      11.410   7.765  -5.023  0.00  0.00    -0.063 SA
ATOM     21  C   UNL d   1      11.473   9.323  -4.242  0.00  0.00     0.058 C 
ATOM     22  C   UNL d   1      11.060  10.327  -5.084  0.00  0.00     0.107 C 
ATOM     23  N   UNL d   1      10.750   9.888  -6.361  0.00  0.00    -0.234 NA
ENDBRANCH  16  19
ENDBRANCH  12  13
ENDBRANCH  11  12
ENDBRANCH  10  11
ENDBRANCH   9  10
ENDBRANCH   1   9
BRANCH   6  24
ATOM     24  C   UNL d   1       8.669   2.289 -19.066  0.00  0.00     0.056 A 
ATOM     25  C   UNL d   1       9.351   3.444 -19.538  0.00  0.00     0.017 A 
ATOM     26  C   UNL d   1       9.392   3.753 -20.902  0.00  0.00     0.005 A 
ATOM     27  C   UNL d   1       8.750   2.925 -21.838  0.00  0.00     0.072 A 
ATOM     28  C   UNL d   1       8.040   1.791 -21.387  0.00  0.00     0.005 A 
ATOM     29  C   UNL d   1       7.995   1.484 -20.015  0.00  0.00     0.017 A 
BRANCH  27  30
ATOM     30  C   UNL d   1       8.813   3.266 -23.310  0.00  0.00     0.419 C 
ATOM     31  F   UNL d   1       8.713   2.161 -24.046  0.00  0.00    -0.166 F 
ATOM     32  F   UNL d   1       7.798   4.080 -23.590  0.00  0.00    -0.166 F 
ATOM     33  F   UNL d   1       9.960   3.877 -23.618  0.00  0.00    -0.166 F 
ENDBRANCH  27  30
ENDBRANCH   6  24
TORSDOF 8
