REMARK  5 active torsions:
REMARK  status: ('A' for Active; 'I' for Inactive)
REMARK    1  A    between atoms: C_2  and  C_3 
REMARK    2  A    between atoms: C_3  and  C_4 
REMARK    3  A    between atoms: C_4  and  C_5 
REMARK    4  A    between atoms: C_4  and  N_14 
REMARK    5  A    between atoms: C_5  and  C_7 
ROOT
ATOM      1  C   UNL d   1       7.166   5.111 -11.960  0.00  0.00     0.280 C 
ENDROOT
BRANCH   1   2
ATOM      2  C   UNL d   1       5.945   5.987 -11.778  0.00  0.00     0.041 C 
BRANCH   2   3
ATOM      3  C   UNL d   1       5.726   7.113 -12.792  0.00  0.00     0.003 C 
ATOM      4  C   UNL d   1       5.130   8.405 -12.247  0.00  0.00     0.000 C 
ENDBRANCH   2   3
ENDBRANCH   1   2
BRANCH   1   5
ATOM      5  C   UNL d   1       8.495   5.933 -11.845  0.00  0.00     0.204 C 
ATOM      6  O   UNL d   1       9.061   6.354 -12.838  0.00  0.00    -0.289 OA
BRANCH   5   7
ATOM      7  C   UNL d   1       9.069   6.138 -10.493  0.00  0.00     0.033 A 
ATOM      8  C   UNL d   1       9.761   7.338 -10.123  0.00  0.00    -0.019 A 
ATOM      9  C   UNL d   1      10.363   7.462  -8.855  0.00  0.00    -0.004 A 
ATOM     10  C   UNL d   1       9.838   8.538 -11.016  0.00  0.00     0.031 C 
ATOM     11  C   UNL d   1      10.259   6.423  -7.937  0.00  0.00    -0.000 A 
ATOM     12  C   UNL d   1       9.585   5.245  -8.312  0.00  0.00     0.000 A 
ATOM     13  C   UNL d   1       9.052   5.077  -9.576  0.00  0.00     0.003 A 
ENDBRANCH   5   7
ENDBRANCH   1   5
BRANCH   1  14
ATOM     14  N   UNL d   1       7.047   4.215 -13.134  0.00  0.00     0.142 N 
ATOM     15  C   UNL d   1       6.051   3.162 -12.908  0.00  0.00     0.251 C 
ATOM     16  C   UNL d   1       6.424   2.106 -13.942  0.00  0.00     0.037 C 
ATOM     17  C   UNL d   1       7.868   2.360 -14.325  0.00  0.00     0.037 C 
ATOM     18  C   UNL d   1       8.310   3.538 -13.470  0.00  0.00     0.251 C 
ENDBRANCH   1  14
TORSDOF 5
