REMARK  5 active torsions:
REMARK  status: ('A' for Active; 'I' for Inactive)
REMARK    1  A    between atoms: O_2  and  C_3 
REMARK    2  A    between atoms: C_8  and  N_9 
REMARK    3  A    between atoms: N_12  and  C_13 
REMARK    4  A    between atoms: C_13  and  C_14 
REMARK    5  A    between atoms: C_14  and  C_15 
ROOT
ATOM      1  N   UNL d   1      11.442   7.174  -6.643  0.00  0.00    -0.343 N 
ATOM      2  C   UNL d   1      10.570   6.098  -7.041  0.00  0.00     0.137 C 
ATOM      3  C   UNL d   1       9.676   6.489  -8.223  0.00  0.00     0.274 C 
ATOM      4  N   UNL d   1      10.525   6.971  -9.320  0.00  0.00     0.141 N 
ATOM      5  C   UNL d   1      11.234   8.176  -8.878  0.00  0.00     0.274 C 
ATOM      6  C   UNL d   1      12.185   7.841  -7.696  0.00  0.00     0.137 C 
ENDROOT
BRANCH   4   7
ATOM      7  C   UNL d   1       9.695   7.341 -10.437  0.00  0.00     0.251 C 
BRANCH   7   8
ATOM      8  C   UNL d   1       9.492   6.147 -11.340  0.00  0.00     0.038 C 
BRANCH   8   9
ATOM      9  C   UNL d   1       8.931   6.537 -12.741  0.00  0.00     0.037 C 
ATOM     10  C   UNL d   1       8.835   5.316 -13.708  0.00  0.00     0.174 C 
ATOM     11  C   UNL d   1       7.620   4.444 -13.440  0.00  0.00     0.005 A 
ATOM     12  O   UNL d   1      10.087   4.625 -13.758  0.00  0.00    -0.219 OA
ATOM     13  C   UNL d   1       6.538   4.914 -12.650  0.00  0.00    -0.024 A 
ATOM     14  C   UNL d   1       7.576   3.163 -14.016  0.00  0.00     0.012 A 
ATOM     15  C   UNL d   1       6.504   6.309 -12.046  0.00  0.00     0.026 C 
ATOM     16  C   UNL d   1       5.469   4.051 -12.384  0.00  0.00    -0.003 A 
ATOM     17  C   UNL d   1       7.555   7.248 -12.658  0.00  0.00     0.008 C 
ATOM     18  C   UNL d   1       5.456   2.753 -12.909  0.00  0.00     0.014 A 
ATOM     19  C   UNL d   1       6.479   2.316 -13.764  0.00  0.00     0.070 A 
ATOM     20  N   UNL d   1       6.494   1.012 -14.263  0.00  0.00    -0.101 NA
ENDBRANCH   8   9
ENDBRANCH   7   8
ENDBRANCH   4   7
BRANCH   1  21
ATOM     21  C   UNL d   1      11.450   7.661  -5.314  0.00  0.00     0.079 A 
ATOM     22  C   UNL d   1      11.384   9.043  -5.040  0.00  0.00     0.110 A 
ATOM     23  C   UNL d   1      11.571   9.510  -3.715  0.00  0.00     0.026 A 
ATOM     24  C   UNL d   1      11.857   8.607  -2.680  0.00  0.00     0.002 A 
ATOM     25  C   UNL d   1      11.877   7.222  -2.930  0.00  0.00     0.002 A 
ATOM     26  C   UNL d   1      11.699   6.772  -4.261  0.00  0.00     0.019 A 
BRANCH  22  27
ATOM     27  O   UNL d   1      11.014   9.868  -6.059  0.00  0.00    -0.327 OA
ATOM     28  C   UNL d   1      11.735  11.054  -6.105  0.00  0.00     0.181 C 
ENDBRANCH  22  27
ENDBRANCH   1  21
TORSDOF 5
