REMARK  10 active torsions:
REMARK  status: ('A' for Active; 'I' for Inactive)
REMARK    1  A    between atoms: C_6  and  N_7 
REMARK    2  A    between atoms: N_7  and  C_8 
REMARK    3  A    between atoms: N_7  and  C_11 
REMARK    4  A    between atoms: C_8  and  C_9 
REMARK    5  A    between atoms: C_11  and  C_12 
REMARK    6  A    between atoms: C_12  and  C_13 
REMARK    7  A    between atoms: C_13  and  C_14 
REMARK    8  A    between atoms: C_14  and  N_15 
REMARK       I    between atoms: N_15  and  C_16 
REMARK    9  A    between atoms: C_16  and  C_18 
REMARK   10  A    between atoms: C_21  and  C_22 
ROOT
ATOM      1  C   UNL d   1      13.639  -1.312 -19.339  0.00  0.00     0.081 C 
ATOM      2  C   UNL d   1      12.879  -0.449 -18.847  0.00  0.00    -0.131 C 
ATOM      3  C   UNL d   1      12.039   0.557 -18.343  0.00  0.00     0.004 C 
ATOM      4  C   UNL d   1      10.835   0.234 -17.821  0.00  0.00    -0.021 C 
ATOM      5  C   UNL d   1       9.879   1.230 -17.196  0.00  0.00     0.059 C 
ATOM      6  C   UNL d   1      10.300   2.690 -17.489  0.00  0.00     0.224 C 
ATOM      7  C   UNL d   1      11.829   2.913 -17.416  0.00  0.00     0.039 C 
ATOM      8  C   UNL d   1      12.592   1.977 -18.354  0.00  0.00     0.035 C 
ENDROOT
BRANCH   6   9
ATOM      9  N   UNL d   1       9.534   3.669 -16.684  0.00  0.00     0.135 N 
BRANCH   9  10
ATOM     10  C   UNL d   1       9.691   5.042 -17.195  0.00  0.00     0.250 C 
BRANCH  10  11
ATOM     11  C   UNL d   1       9.250   5.213 -18.656  0.00  0.00     0.035 C 
ATOM     12  C   UNL d   1       9.134   6.684 -19.058  0.00  0.00     0.002 C 
ENDBRANCH  10  11
ENDBRANCH   9  10
BRANCH   9  13
ATOM     13  C   UNL d   1       9.875   3.603 -15.260  0.00  0.00     0.250 C 
BRANCH  13  14
ATOM     14  C   UNL d   1       8.853   4.301 -14.358  0.00  0.00     0.037 C 
BRANCH  14  15
ATOM     15  C   UNL d   1       9.406   4.526 -12.954  0.00  0.00     0.029 C 
BRANCH  15  16
ATOM     16  C   UNL d   1       8.391   5.286 -12.098  0.00  0.00     0.129 C 
BRANCH  16  17
ATOM     17  N   UNL d   1       8.992   5.729 -10.845  0.00  0.00    -0.234 NA
ATOM     18  C   UNL d   1       9.465   6.958 -10.625  0.00  0.00     0.275 C 
ATOM     19  O   UNL d   1       9.525   7.832 -11.493  0.00  0.00    -0.266 OA
BRANCH  18  20
ATOM     20  C   UNL d   1       9.961   7.210  -9.225  0.00  0.00     0.058 A 
ATOM     21  C   UNL d   1      11.017   8.116  -9.000  0.00  0.00     0.005 A 
ATOM     22  C   UNL d   1      11.461   8.378  -7.692  0.00  0.00     0.000 A 
ATOM     23  C   UNL d   1      10.848   7.756  -6.580  0.00  0.00     0.000 A 
ATOM     24  C   UNL d   1       9.772   6.874  -6.812  0.00  0.00     0.000 A 
ATOM     25  C   UNL d   1       9.322   6.610  -8.117  0.00  0.00     0.005 A 
BRANCH  23  26
ATOM     26  C   UNL d   1      11.328   8.018  -5.213  0.00  0.00     0.000 A 
ATOM     27  C   UNL d   1      11.723   6.950  -4.376  0.00  0.00     0.000 A 
ATOM     28  C   UNL d   1      12.194   7.186  -3.069  0.00  0.00     0.000 A 
ATOM     29  C   UNL d   1      12.257   8.501  -2.576  0.00  0.00     0.000 A 
ATOM     30  C   UNL d   1      11.846   9.572  -3.390  0.00  0.00     0.000 A 
ATOM     31  C   UNL d   1      11.402   9.333  -4.707  0.00  0.00     0.000 A 
ENDBRANCH  23  26
ENDBRANCH  18  20
ENDBRANCH  16  17
ENDBRANCH  15  16
ENDBRANCH  14  15
ENDBRANCH  13  14
ENDBRANCH   9  13
ENDBRANCH   6   9
TORSDOF 10
