REMARK  2 active torsions:
REMARK  status: ('A' for Active; 'I' for Inactive)
REMARK    1  A    between atoms: N_10  and  C_11 
REMARK    2  A    between atoms: C_11  and  C_12 
ROOT
ATOM      1  F   UNL d   1       6.495   5.858 -12.322  0.00  0.00    -0.204 F 
ATOM      2  C   UNL d   1       6.689   4.643 -12.880  0.00  0.00     0.140 A 
ATOM      3  C   UNL d   1       5.666   3.676 -12.837  0.00  0.00     0.032 A 
ATOM      4  C   UNL d   1       5.862   2.411 -13.423  0.00  0.00     0.026 A 
ATOM      5  C   UNL d   1       7.073   2.104 -14.071  0.00  0.00     0.090 A 
ATOM      6  C   UNL d   1       8.100   3.089 -14.120  0.00  0.00     0.004 A 
ATOM      7  C   UNL d   1       7.906   4.353 -13.527  0.00  0.00     0.027 A 
ATOM      8  C   UNL d   1       9.398   2.721 -14.800  0.00  0.00     0.062 C 
ATOM      9  C   UNL d   1      10.161   3.758 -15.611  0.00  0.00     0.255 C 
ATOM     10  N   UNL d   1      11.121   2.911 -16.332  0.00  0.00     0.142 N 
ATOM     11  C   UNL d   1      10.493   1.597 -16.551  0.00  0.00     0.254 C 
ATOM     12  C   UNL d   1       9.132   1.700 -15.866  0.00  0.00     0.070 C 
ATOM     13  C   UNL d   1       8.486   0.479 -15.208  0.00  0.00     0.151 C 
ATOM     14  O   UNL d   1       7.218   0.847 -14.642  0.00  0.00    -0.331 OA
ENDROOT
BRANCH  10  15
ATOM     15  C   UNL d   1      11.578   3.517 -17.578  0.00  0.00     0.277 C 
BRANCH  15  16
ATOM     16  C   UNL d   1      12.451   4.741 -17.376  0.00  0.00     0.011 A 
ATOM     17  C   UNL d   1      11.881   6.031 -17.354  0.00  0.00    -0.002 A 
ATOM     18  C   UNL d   1      12.700   7.161 -17.167  0.00  0.00    -0.000 A 
ATOM     19  C   UNL d   1      14.087   7.009 -17.002  0.00  0.00    -0.000 A 
ATOM     20  C   UNL d   1      14.662   5.725 -17.024  0.00  0.00    -0.000 A 
ATOM     21  C   UNL d   1      13.845   4.593 -17.213  0.00  0.00    -0.002 A 
ENDBRANCH  15  16
ENDBRANCH  10  15
TORSDOF 2
