REMARK  8 active torsions:
REMARK  status: ('A' for Active; 'I' for Inactive)
REMARK    1  A    between atoms: C_4  and  C_5 
REMARK    2  A    between atoms: C_9  and  C_10 
REMARK       I    between atoms: C_10  and  N_12 
REMARK    3  A    between atoms: N_12  and  C_13 
REMARK    4  A    between atoms: C_16  and  C_17 
REMARK    5  A    between atoms: C_17  and  C_18 
REMARK    6  A    between atoms: C_18  and  N_19 
REMARK    7  A    between atoms: C_25  and  O_26 
REMARK    8  A    between atoms: O_26  and  S_27 
ROOT
ATOM      1  C   UNL d   1       6.725   1.381 -14.757  0.00  0.00     0.107 C 
ATOM      2  C   UNL d   1       8.194   1.448 -15.201  0.00  0.00     0.024 C 
ATOM      3  C   UNL d   1       9.066   2.060 -14.107  0.00  0.00     0.002 C 
ATOM      4  C   UNL d   1       8.553   3.462 -13.669  0.00  0.00     0.002 C 
ATOM      5  C   UNL d   1       7.008   3.457 -13.318  0.00  0.00     0.002 C 
ATOM      6  C   UNL d   1       6.211   2.784 -14.381  0.00  0.00     0.024 C 
ENDROOT
BRANCH   4   7
ATOM      7  C   UNL d   1       9.487   4.051 -12.563  0.00  0.00     0.035 C 
BRANCH   7   8
ATOM      8  C   UNL d   1       8.745   5.011 -11.618  0.00  0.00     0.250 C 
BRANCH   8   9
ATOM      9  N   UNL d   1       9.647   5.591 -10.623  0.00  0.00     0.138 N 
ATOM     10  C   UNL d   1       9.091   5.430  -9.290  0.00  0.00     0.255 C 
ATOM     11  C   UNL d   1      10.106   5.602  -8.162  0.00  0.00     0.061 C 
ATOM     12  C   UNL d   1      10.444   7.021  -7.804  0.00  0.00    -0.022 A 
ATOM     13  C   UNL d   1      10.900   7.927  -8.789  0.00  0.00    -0.024 A 
ATOM     14  C   UNL d   1      10.327   7.433  -6.452  0.00  0.00     0.021 A 
ATOM     15  C   UNL d   1      11.062   7.592 -10.265  0.00  0.00     0.061 C 
ATOM     16  C   UNL d   1      11.241   9.215  -8.411  0.00  0.00    -0.003 A 
ATOM     17  C   UNL d   1       9.828   7.002 -10.932  0.00  0.00     0.255 C 
ATOM     18  C   UNL d   1      11.164   9.625  -7.058  0.00  0.00     0.025 A 
ATOM     19  C   UNL d   1      10.701   8.736  -6.070  0.00  0.00     0.113 A 
BRANCH  19  20
ATOM     20  O   UNL d   1      10.646   9.153  -4.760  0.00  0.00    -0.230 OA
BRANCH  20  21
ATOM     21  S   UNL d   1      12.068   8.908  -3.858  0.00  0.00     0.285 S 
ATOM     22  C   UNL d   1      12.021   7.074  -3.654  0.00  0.00     0.172 C 
ATOM     23  O   UNL d   1      13.179   9.331  -4.724  0.00  0.00    -0.197 OA
ATOM     24  O   UNL d   1      11.874   9.527  -2.537  0.00  0.00    -0.197 OA
ENDBRANCH  20  21
ENDBRANCH  19  20
ENDBRANCH   8   9
ENDBRANCH   7   8
ENDBRANCH   4   7
BRANCH   1  25
ATOM     25  N   UNL d   1       6.010   0.821 -15.904  0.00  0.00    -0.236 NA
ATOM     26  C   UNL d   1       5.511  -0.405 -16.088  0.00  0.00     0.275 C 
ATOM     27  O   UNL d   1       5.364  -1.226 -15.188  0.00  0.00    -0.266 OA
BRANCH  26  28
ATOM     28  C   UNL d   1       5.128  -0.693 -17.519  0.00  0.00     0.058 A 
ATOM     29  C   UNL d   1       4.281  -1.788 -17.794  0.00  0.00     0.005 A 
ATOM     30  C   UNL d   1       4.032  -2.172 -19.124  0.00  0.00     0.000 A 
ATOM     31  C   UNL d   1       4.616  -1.463 -20.191  0.00  0.00     0.002 A 
ATOM     32  C   UNL d   1       5.438  -0.340 -19.950  0.00  0.00     0.025 A 
ATOM     33  C   UNL d   1       5.686   0.028 -18.609  0.00  0.00     0.007 A 
BRANCH  32  34
ATOM     34  C   UNL d   1       6.040   0.398 -21.061  0.00  0.00     0.126 A 
ATOM     35  C   UNL d   1       7.121   1.238 -21.130  0.00  0.00     0.044 A 
ATOM     36  C   UNL d   1       7.151   1.638 -22.496  0.00  0.00     0.088 A 
ATOM     37  C   UNL d   1       8.132   2.534 -23.192  0.00  0.00     0.055 C 
ATOM     38  N   UNL d   1       6.165   1.098 -23.190  0.00  0.00    -0.131 NA
ATOM     39  O   UNL d   1       5.465   0.289 -22.289  0.00  0.00    -0.211 OA
ENDBRANCH  32  34
ENDBRANCH  26  28
ENDBRANCH   1  25
TORSDOF 8
