REMARK  3 active torsions:
REMARK  status: ('A' for Active; 'I' for Inactive)
REMARK    1  A    between atoms: C_7  and  N_8 
REMARK    2  A    between atoms: N_19  and  S_20 
REMARK    3  A    between atoms: S_20  and  C_23 
ROOT
ATOM      1  C   UNL d   1      10.823   1.304 -15.019  0.00  0.00     0.026 C 
ATOM      2  C   UNL d   1      10.169   2.368 -15.925  0.00  0.00     0.105 C 
ATOM      3  C   UNL d   1      10.760   3.740 -15.643  0.00  0.00     0.093 C 
ATOM      4  C   UNL d   1      10.277   4.285 -14.319  0.00  0.00     0.177 C 
ATOM      5  O   UNL d   1      11.068   4.948 -13.672  0.00  0.00    -0.291 OA
ATOM      6  C   UNL d   1       8.870   3.950 -13.934  0.00  0.00     0.061 A 
ATOM      7  C   UNL d   1       8.222   4.557 -12.817  0.00  0.00     0.041 A 
ATOM      8  C   UNL d   1       6.878   4.237 -12.491  0.00  0.00     0.011 A 
ATOM      9  C   UNL d   1       6.174   3.302 -13.246  0.00  0.00     0.003 A 
ATOM     10  C   UNL d   1       6.811   2.679 -14.322  0.00  0.00     0.018 A 
ATOM     11  C   UNL d   1       8.148   2.980 -14.695  0.00  0.00     0.074 A 
ATOM     12  N   UNL d   1       8.701   2.326 -15.812  0.00  0.00    -0.255 N 
ENDROOT
BRANCH  12  13
ATOM     13  S   UNL d   1       7.831   1.054 -16.672  0.00  0.00     0.268 S 
ATOM     14  O   UNL d   1       7.684  -0.017 -15.709  0.00  0.00    -0.200 OA
ATOM     15  O   UNL d   1       6.658   1.710 -17.274  0.00  0.00    -0.200 OA
BRANCH  13  16
ATOM     16  C   UNL d   1       8.871   0.505 -18.006  0.00  0.00     0.104 A 
ATOM     17  C   UNL d   1       8.582   0.976 -19.298  0.00  0.00     0.013 A 
ATOM     18  C   UNL d   1       9.423   0.610 -20.362  0.00  0.00     0.001 A 
ATOM     19  C   UNL d   1      10.572  -0.186 -20.114  0.00  0.00     0.000 A 
ATOM     20  C   UNL d   1       9.118   1.027 -21.673  0.00  0.00     0.000 A 
ATOM     21  C   UNL d   1      10.854  -0.648 -18.818  0.00  0.00     0.001 A 
ATOM     22  C   UNL d   1      11.412  -0.556 -21.171  0.00  0.00     0.000 A 
ATOM     23  C   UNL d   1       9.961  -0.363 -17.771  0.00  0.00     0.013 A 
ATOM     24  C   UNL d   1      11.097  -0.157 -22.483  0.00  0.00     0.000 A 
ATOM     25  C   UNL d   1       9.956   0.633 -22.730  0.00  0.00     0.000 A 
ENDBRANCH  13  16
ENDBRANCH  12  13
BRANCH   7  26
ATOM     26  N   UNL d   1       8.901   5.463 -12.019  0.00  0.00    -0.248 NA
ATOM     27  C   UNL d   1       9.160   4.977 -10.669  0.00  0.00     0.112 C 
ATOM     28  C   UNL d   1      10.073   5.953  -9.915  0.00  0.00     0.268 C 
ATOM     29  N   UNL d   1       9.475   7.277  -9.892  0.00  0.00     0.142 N 
ATOM     30  C   UNL d   1       9.292   7.767 -11.264  0.00  0.00     0.268 C 
ATOM     31  C   UNL d   1      10.320   8.197  -9.153  0.00  0.00     0.285 C 
ATOM     32  C   UNL d   1       8.361   6.817 -12.042  0.00  0.00     0.112 C 
ENDBRANCH   7  26
TORSDOF 3
