REMARK  9 active torsions:
REMARK  status: ('A' for Active; 'I' for Inactive)
REMARK    1  A    between atoms: C_2  and  C_3 
REMARK    2  A    between atoms: C_3  and  N_4 
REMARK    3  A    between atoms: N_4  and  C_5 
REMARK    4  A    between atoms: N_4  and  C_21 
REMARK    5  A    between atoms: C_5  and  C_6 
REMARK    6  A    between atoms: C_6  and  C_7 
REMARK    7  A    between atoms: C_7  and  C_8 
REMARK    8  A    between atoms: C_8  and  N_9 
REMARK    9  A    between atoms: C_28  and  O_29 
ROOT
ATOM      1  N   UNL d   1       7.139   4.663 -12.519  0.00  0.00     0.138 N 
ENDROOT
BRANCH   1   2
ATOM      2  C   UNL d   1       6.040   3.832 -11.962  0.00  0.00     0.250 C 
BRANCH   2   3
ATOM      3  C   UNL d   1       5.201   3.006 -12.954  0.00  0.00     0.035 C 
ATOM      4  C   UNL d   1       5.863   1.672 -13.381  0.00  0.00     0.002 C 
ENDBRANCH   2   3
ENDBRANCH   1   2
BRANCH   1   5
ATOM      5  C   UNL d   1       7.700   4.112 -13.732  0.00  0.00     0.250 C 
BRANCH   5   6
ATOM      6  C   UNL d   1       8.795   4.931 -14.405  0.00  0.00     0.037 C 
BRANCH   6   7
ATOM      7  C   UNL d   1       9.543   4.111 -15.438  0.00  0.00     0.027 C 
BRANCH   7   8
ATOM      8  C   UNL d   1      10.198   5.034 -16.460  0.00  0.00     0.112 C 
BRANCH   8   9
ATOM      9  N   UNL d   1      10.791   4.268 -17.582  0.00  0.00    -0.271 N 
ATOM     10  C   UNL d   1       9.928   3.965 -18.603  0.00  0.00     0.239 C 
ATOM     11  C   UNL d   1      10.486   3.220 -19.826  0.00  0.00     0.089 C 
ATOM     12  O   UNL d   1       8.765   4.243 -18.609  0.00  0.00    -0.272 OA
ATOM     13  C   UNL d   1      11.693   2.342 -19.491  0.00  0.00     0.018 C 
ATOM     14  C   UNL d   1      12.725   3.139 -18.691  0.00  0.00     0.089 C 
ATOM     15  C   UNL d   1      12.256   1.817 -20.827  0.00  0.00     0.001 C 
ATOM     16  C   UNL d   1      11.264   1.048 -18.769  0.00  0.00     0.001 C 
ATOM     17  C   UNL d   1      12.075   3.901 -17.516  0.00  0.00     0.239 C 
ATOM     18  O   UNL d   1      12.805   4.158 -16.547  0.00  0.00    -0.272 OA
ATOM     19  C   UNL d   1      11.463   0.542 -21.154  0.00  0.00     0.000 C 
ATOM     20  C   UNL d   1      10.706   0.157 -19.863  0.00  0.00     0.000 C 
ENDBRANCH   8   9
ENDBRANCH   7   8
ENDBRANCH   6   7
ENDBRANCH   5   6
ENDBRANCH   1   5
BRANCH   1  21
ATOM     21  C   UNL d   1       8.254   4.942 -11.585  0.00  0.00     0.254 C 
ATOM     22  C   UNL d   1       8.536   6.441 -11.667  0.00  0.00     0.066 C 
ATOM     23  C   UNL d   1       9.432   6.939 -10.523  0.00  0.00     0.024 A 
ATOM     24  C   UNL d   1       9.690   6.123  -9.421  0.00  0.00     0.092 A 
ATOM     25  C   UNL d   1       9.972   8.220 -10.584  0.00  0.00     0.092 A 
ATOM     26  O   UNL d   1       9.120   4.875  -9.308  0.00  0.00    -0.329 OA
ATOM     27  C   UNL d   1      10.553   6.582  -8.386  0.00  0.00     0.024 A 
ATOM     28  C   UNL d   1       7.958   4.713 -10.102  0.00  0.00     0.182 C 
ATOM     29  C   UNL d   1      11.166   7.856  -8.493  0.00  0.00     0.004 A 
ATOM     30  C   UNL d   1      10.885   8.664  -9.597  0.00  0.00     0.024 A 
BRANCH  25  31
ATOM     31  O   UNL d   1       9.761   8.978 -11.642  0.00  0.00    -0.328 OA
ATOM     32  C   UNL d   1       8.471   9.384 -12.069  0.00  0.00     0.181 C 
ENDBRANCH  25  31
ENDBRANCH   1  21
TORSDOF 9
