REMARK  2 active torsions:
REMARK  status: ('A' for Active; 'I' for Inactive)
REMARK    1  A    between atoms: C_2  and  C_3 
REMARK    2  A    between atoms: C_3  and  N_4 
ROOT
ATOM      1  N   UNL d   1       4.695  -0.804 -16.926  0.00  0.00     0.137 N 
ATOM      2  C   UNL d   1       4.728  -0.504 -15.485  0.00  0.00     0.253 C 
ATOM      3  C   UNL d   1       6.198  -0.230 -15.182  0.00  0.00     0.070 C 
ATOM      4  C   UNL d   1       6.615   0.791 -14.124  0.00  0.00     0.151 C 
ATOM      5  O   UNL d   1       8.049   0.843 -14.041  0.00  0.00    -0.331 OA
ATOM      6  C   UNL d   1       8.795   0.716 -15.202  0.00  0.00     0.090 A 
ATOM      7  C   UNL d   1      10.193   0.880 -15.121  0.00  0.00     0.025 A 
ATOM      8  C   UNL d   1      10.994   0.742 -16.270  0.00  0.00     0.012 A 
ATOM      9  C   UNL d   1      10.411   0.416 -17.510  0.00  0.00     0.068 A 
ATOM     10  C   UNL d   1      11.245   0.268 -18.691  0.00  0.00     0.101 C 
ATOM     11  N   UNL d   1      11.907   0.151 -19.631  0.00  0.00    -0.191 NA
ATOM     12  C   UNL d   1       9.015   0.244 -17.604  0.00  0.00     0.008 A 
ATOM     13  C   UNL d   1       8.213   0.391 -16.455  0.00  0.00     0.003 A 
ATOM     14  C   UNL d   1       6.711   0.238 -16.511  0.00  0.00     0.062 C 
ATOM     15  C   UNL d   1       6.075  -0.800 -17.422  0.00  0.00     0.255 C 
ENDROOT
BRANCH   1  16
ATOM     16  C   UNL d   1       3.982  -2.041 -17.214  0.00  0.00     0.250 C 
BRANCH  16  17
ATOM     17  C   UNL d   1       3.722  -2.220 -18.719  0.00  0.00     0.035 C 
ATOM     18  C   UNL d   1       3.042  -3.556 -19.035  0.00  0.00     0.002 C 
ENDBRANCH  16  17
ENDBRANCH   1  16
TORSDOF 2
