REMARK  6 active torsions:
REMARK  status: ('A' for Active; 'I' for Inactive)
REMARK    1  A    between atoms: C_2  and  C_3 
REMARK    2  A    between atoms: C_3  and  N_4 
REMARK    3  A    between atoms: C_19  and  O_20 
REMARK    4  A    between atoms: O_20  and  C_21 
REMARK       I    between atoms: C_21  and  N_23 
REMARK    5  A    between atoms: N_23  and  C_24 
REMARK    6  A    between atoms: C_24  and  C_25 
ROOT
ATOM      1  N   UNL d   1       9.316   0.925 -15.398  0.00  0.00     0.140 N 
ATOM      2  C   UNL d   1      10.717   0.550 -15.249  0.00  0.00     0.255 C 
ATOM      3  C   UNL d   1      11.527   1.678 -15.882  0.00  0.00     0.061 C 
ATOM      4  C   UNL d   1      11.262   3.036 -15.287  0.00  0.00    -0.022 C 
ATOM      5  C   UNL d   1      12.133   4.121 -15.395  0.00  0.00    -0.004 C 
ATOM      6  C   UNL d   1      11.742   5.337 -14.834  0.00  0.00    -0.000 C 
ATOM      7  C   UNL d   1      10.564   5.422 -14.066  0.00  0.00    -0.000 C 
ATOM      8  C   UNL d   1       9.635   4.377 -13.934  0.00  0.00    -0.001 C 
ATOM      9  C   UNL d   1      10.034   3.193 -14.585  0.00  0.00     0.005 C 
ATOM     10  C   UNL d   1       9.056   2.019 -14.460  0.00  0.00     0.245 C 
ATOM     11  C   UNL d   1       7.592   2.505 -14.586  0.00  0.00     0.064 C 
ATOM     12  C   UNL d   1       7.288   3.645 -13.640  0.00  0.00    -0.018 A 
ATOM     13  C   UNL d   1       6.004   3.733 -13.074  0.00  0.00    -0.004 A 
ATOM     14  C   UNL d   1       5.742   4.702 -12.098  0.00  0.00     0.002 A 
ATOM     15  C   UNL d   1       6.747   5.588 -11.705  0.00  0.00     0.025 A 
ATOM     16  C   UNL d   1       8.040   5.486 -12.245  0.00  0.00     0.104 A 
ATOM     17  C   UNL d   1       8.323   4.530 -13.261  0.00  0.00     0.019 A 
ENDROOT
BRANCH  16  18
ATOM     18  O   UNL d   1       8.985   6.339 -11.749  0.00  0.00    -0.258 OA
BRANCH  18  19
ATOM     19  C   UNL d   1       9.512   6.094 -10.541  0.00  0.00     0.388 C 
ATOM     20  O   UNL d   1       9.270   5.113  -9.835  0.00  0.00    -0.236 OA
ATOM     21  N   UNL d   1      10.431   7.087 -10.285  0.00  0.00    -0.207 NA
BRANCH  21  22
ATOM     22  C   UNL d   1      11.336   7.056  -9.154  0.00  0.00     0.158 C 
BRANCH  22  23
ATOM     23  C   UNL d   1      10.986   7.962  -8.037  0.00  0.00     0.002 A 
ATOM     24  C   UNL d   1      11.959   8.803  -7.463  0.00  0.00    -0.002 A 
ATOM     25  C   UNL d   1      11.608   9.617  -6.372  0.00  0.00    -0.000 A 
ATOM     26  C   UNL d   1      10.309   9.538  -5.843  0.00  0.00    -0.000 A 
ATOM     27  C   UNL d   1       9.348   8.687  -6.435  0.00  0.00    -0.000 A 
ATOM     28  C   UNL d   1       9.697   7.876  -7.518  0.00  0.00    -0.002 A 
ENDBRANCH  22  23
ENDBRANCH  21  22
ENDBRANCH  18  19
ENDBRANCH  16  18
BRANCH   1  29
ATOM     29  C   UNL d   1       8.474  -0.218 -15.090  0.00  0.00     0.251 C 
BRANCH  29  30
ATOM     30  C   UNL d   1       7.225  -0.275 -16.005  0.00  0.00     0.035 C 
ATOM     31  C   UNL d   1       5.984  -0.822 -15.280  0.00  0.00     0.002 C 
ENDBRANCH  29  30
ENDBRANCH   1  29
TORSDOF 6
