REMARK  9 active torsions:
REMARK  status: ('A' for Active; 'I' for Inactive)
REMARK    1  A    between atoms: O_2  and  C_3 
REMARK    2  A    between atoms: C_6  and  C_7 
REMARK    3  A    between atoms: C_7  and  C_8 
REMARK    4  A    between atoms: C_8  and  N_9 
REMARK    5  A    between atoms: N_9  and  C_11 
REMARK    6  A    between atoms: C_11  and  C_12 
REMARK    7  A    between atoms: C_12  and  N_13 
REMARK    8  A    between atoms: N_16  and  C_17 
REMARK    9  A    between atoms: C_27  and  O_28 
ROOT
ATOM      1  C   UNL d   1       9.882   2.658 -14.778  0.00  0.00     0.274 C 
ENDROOT
BRANCH   1   2
ATOM      2  N   UNL d   1      10.473   2.381 -16.085  0.00  0.00     0.141 N 
ATOM      3  C   UNL d   1      11.390   1.257 -15.953  0.00  0.00     0.285 C 
BRANCH   2   4
ATOM      4  C   UNL d   1      11.154   3.534 -16.700  0.00  0.00     0.255 C 
BRANCH   4   5
ATOM      5  C   UNL d   1      12.299   4.137 -15.841  0.00  0.00     0.062 C 
BRANCH   5   6
ATOM      6  C   UNL d   1      13.030   5.261 -16.521  0.00  0.00    -0.018 A 
ATOM      7  C   UNL d   1      12.513   6.569 -16.469  0.00  0.00    -0.002 A 
ATOM      8  C   UNL d   1      13.226   7.625 -17.062  0.00  0.00     0.026 A 
ATOM      9  C   UNL d   1      14.470   7.385 -17.707  0.00  0.00     0.116 A 
ATOM     10  C   UNL d   1      14.999   6.066 -17.716  0.00  0.00     0.116 A 
ATOM     11  C   UNL d   1      14.258   5.013 -17.159  0.00  0.00     0.022 A 
BRANCH   9  12
ATOM     12  O   UNL d   1      15.202   8.361 -18.344  0.00  0.00    -0.326 OA
ATOM     13  C   UNL d   1      14.609   9.635 -18.508  0.00  0.00     0.181 C 
ENDBRANCH   9  12
BRANCH  10  14
ATOM     14  O   UNL d   1      16.188   5.743 -18.323  0.00  0.00    -0.326 OA
ATOM     15  C   UNL d   1      17.344   6.344 -17.746  0.00  0.00     0.181 C 
ENDBRANCH  10  14
ENDBRANCH   5   6
ENDBRANCH   4   5
ENDBRANCH   2   4
ENDBRANCH   1   2
BRANCH   1  16
ATOM     16  C   UNL d   1       8.694   3.638 -14.872  0.00  0.00     0.141 C 
BRANCH  16  17
ATOM     17  N   UNL d   1       8.287   4.098 -13.558  0.00  0.00    -0.298 N 
ATOM     18  C   UNL d   1       9.071   4.821 -12.746  0.00  0.00     0.328 A 
ATOM     19  N   UNL d   1       8.388   5.071 -11.613  0.00  0.00    -0.280 N 
ATOM     20  O   UNL d   1      10.222   5.178 -13.002  0.00  0.00    -0.247 OA
ATOM     21  C   UNL d   1       7.040   4.513 -11.649  0.00  0.00     0.135 A 
ATOM     22  C   UNL d   1       6.954   3.874 -13.035  0.00  0.00     0.131 A 
BRANCH  19  23
ATOM     23  C   UNL d   1       8.925   5.752 -10.486  0.00  0.00     0.065 A 
ATOM     24  C   UNL d   1       9.717   6.908 -10.649  0.00  0.00     0.029 A 
ATOM     25  C   UNL d   1      10.244   7.580  -9.535  0.00  0.00     0.059 A 
ATOM     26  C   UNL d   1       9.977   7.110  -8.238  0.00  0.00     0.011 A 
ATOM     27 CL   UNL d   1      11.214   8.988  -9.749  0.00  0.00    -0.082 Cl
ATOM     28  C   UNL d   1       9.181   5.969  -8.066  0.00  0.00     0.002 A 
ATOM     29  C   UNL d   1       8.665   5.276  -9.179  0.00  0.00     0.017 A 
ENDBRANCH  19  23
ENDBRANCH  16  17
ENDBRANCH   1  16
TORSDOF 9
