REMARK  7 active torsions:
REMARK  status: ('A' for Active; 'I' for Inactive)
REMARK    1  A    between atoms: S_2  and  N_4 
REMARK    2  A    between atoms: S_2  and  C_22 
REMARK    3  A    between atoms: N_4  and  C_5 
REMARK    4  A    between atoms: N_8  and  C_9 
REMARK    5  A    between atoms: C_9  and  C_10 
REMARK    6  A    between atoms: C_10  and  C_11 
REMARK    7  A    between atoms: C_11  and  C_12 
ROOT
ATOM      1  C   UNL d   1       7.581   5.292 -11.669  0.00  0.00     0.151 C 
ATOM      2  C   UNL d   1       7.865   6.439 -12.640  0.00  0.00     0.063 C 
ATOM      3  C   UNL d   1       9.123   7.099 -12.092  0.00  0.00     0.252 C 
ATOM      4  N   UNL d   1       9.128   6.754 -10.681  0.00  0.00     0.139 N 
ATOM      5  C   UNL d   1       8.713   5.360 -10.634  0.00  0.00     0.275 C 
ENDROOT
BRANCH   1   6
ATOM      6  N   UNL d   1       7.586   4.006 -12.358  0.00  0.00    -0.185 NA
BRANCH   6   7
ATOM      7  S   UNL d   1       6.149   3.365 -13.061  0.00  0.00     0.281 S 
ATOM      8  O   UNL d   1       5.468   2.557 -12.046  0.00  0.00    -0.199 OA
ATOM      9  O   UNL d   1       5.429   4.471 -13.693  0.00  0.00    -0.199 OA
BRANCH   7  10
ATOM     10  C   UNL d   1       6.790   2.254 -14.326  0.00  0.00     0.105 A 
ATOM     11  C   UNL d   1       8.035   2.510 -14.941  0.00  0.00     0.013 A 
ATOM     12  C   UNL d   1       8.543   1.622 -15.912  0.00  0.00     0.001 A 
ATOM     13  C   UNL d   1       7.793   0.476 -16.280  0.00  0.00     0.000 A 
ATOM     14  C   UNL d   1       9.789   1.872 -16.519  0.00  0.00     0.000 A 
ATOM     15  C   UNL d   1       6.549   0.221 -15.659  0.00  0.00     0.001 A 
ATOM     16  C   UNL d   1       8.296  -0.399 -17.263  0.00  0.00     0.000 A 
ATOM     17  C   UNL d   1       6.060   1.096 -14.667  0.00  0.00     0.013 A 
ATOM     18  C   UNL d   1       9.557  -0.164 -17.847  0.00  0.00     0.000 A 
ATOM     19  C   UNL d   1      10.302   0.976 -17.477  0.00  0.00     0.000 A 
ENDBRANCH   7  10
ENDBRANCH   6   7
ENDBRANCH   1   6
BRANCH   4  20
ATOM     20  C   UNL d   1      10.390   7.031 -10.003  0.00  0.00     0.251 C 
BRANCH  20  21
ATOM     21  C   UNL d   1      10.142   7.497  -8.565  0.00  0.00     0.042 C 
BRANCH  21  22
ATOM     22  C   UNL d   1      11.430   7.464  -7.724  0.00  0.00     0.050 C 
BRANCH  22  23
ATOM     23  C   UNL d   1      11.413   8.423  -6.568  0.00  0.00     0.088 A 
ATOM     24  C   UNL d   1      11.581   8.212  -5.182  0.00  0.00     0.041 A 
ATOM     25  C   UNL d   1      11.566   9.449  -4.534  0.00  0.00     0.126 A 
ATOM     26  C   UNL d   1      11.819   7.036  -4.436  0.00  0.00     0.003 A 
ATOM     27  O   UNL d   1      11.368  10.389  -5.534  0.00  0.00    -0.211 OA
ATOM     28  C   UNL d   1      11.765   9.586  -3.155  0.00  0.00     0.027 A 
ATOM     29  N   UNL d   1      11.311   9.735  -6.793  0.00  0.00    -0.131 NA
ATOM     30  C   UNL d   1      11.989   8.412  -2.405  0.00  0.00     0.002 A 
ATOM     31  C   UNL d   1      12.021   7.149  -3.040  0.00  0.00     0.000 A 
ENDBRANCH  22  23
ENDBRANCH  21  22
ENDBRANCH  20  21
ENDBRANCH   4  20
TORSDOF 7
