REMARK  1 active torsions:
REMARK  status: ('A' for Active; 'I' for Inactive)
REMARK    1  A    between atoms: C_2  and  C_4 
ROOT
ATOM      1  C   UNL d   1      11.234   3.096 -16.067  0.00  0.00     0.034 A 
ATOM      2  C   UNL d   1      11.822   2.143 -16.930  0.00  0.00     0.003 A 
ATOM      3  C   UNL d   1      11.370   0.815 -16.965  0.00  0.00    -0.000 A 
ATOM      4  C   UNL d   1      10.291   0.433 -16.159  0.00  0.00    -0.004 A 
ATOM      5  C   UNL d   1       9.698   1.370 -15.290  0.00  0.00    -0.020 A 
ATOM      6  C   UNL d   1      10.197   2.691 -15.163  0.00  0.00    -0.001 A 
ATOM      7  C   UNL d   1       9.558   3.542 -14.119  0.00  0.00    -0.003 A 
ATOM      8  C   UNL d   1      10.249   4.526 -13.372  0.00  0.00    -0.000 A 
ATOM      9  C   UNL d   1       9.628   5.343 -12.406  0.00  0.00    -0.000 A 
ATOM     10  C   UNL d   1       8.281   5.164 -12.078  0.00  0.00    -0.004 A 
ATOM     11  C   UNL d   1       7.564   4.143 -12.713  0.00  0.00    -0.022 A 
ATOM     12  C   UNL d   1       8.216   3.343 -13.693  0.00  0.00     0.005 A 
ATOM     13  C   UNL d   1       7.476   2.155 -14.350  0.00  0.00     0.246 C 
ATOM     14  C   UNL d   1       8.449   0.959 -14.538  0.00  0.00     0.064 C 
ATOM     15  N   UNL d   1       6.260   1.717 -13.646  0.00  0.00     0.142 N 
ATOM     16  C   UNL d   1       5.466   0.774 -14.431  0.00  0.00     0.286 C 
ATOM     17  C   UNL d   1       5.454   2.897 -13.389  0.00  0.00     0.255 C 
ATOM     18  C   UNL d   1       6.154   3.740 -12.337  0.00  0.00     0.061 C 
ENDROOT
BRANCH   1  19
ATOM     19  C   UNL d   1      11.736   4.492 -16.242  0.00  0.00     0.173 C 
ATOM     20  C   UNL d   1      11.539   5.110 -17.624  0.00  0.00     0.077 C 
ATOM     21  O   UNL d   1      12.311   5.140 -15.353  0.00  0.00    -0.291 OA
ENDBRANCH   1  19
TORSDOF 1
