REMARK  11 active torsions:
REMARK  status: ('A' for Active; 'I' for Inactive)
REMARK    1  A    between atoms: C_2  and  C_3 
REMARK    2  A    between atoms: C_3  and  N_4 
REMARK    3  A    between atoms: N_4  and  C_5 
REMARK    4  A    between atoms: N_4  and  C_21 
REMARK    5  A    between atoms: C_5  and  C_6 
REMARK    6  A    between atoms: C_6  and  C_7 
REMARK    7  A    between atoms: C_7  and  C_8 
REMARK    8  A    between atoms: C_8  and  N_9 
REMARK       I    between atoms: N_9  and  C_10 
REMARK    9  A    between atoms: C_10  and  C_12 
REMARK   10  A    between atoms: C_21  and  C_22 
REMARK   11  A    between atoms: C_24  and  C_25 
ROOT
ATOM      1  N   UNL d   1      10.416   4.916 -14.594  0.00  0.00     0.137 N 
ENDROOT
BRANCH   1   2
ATOM      2  C   UNL d   1      11.433   4.102 -15.259  0.00  0.00     0.250 C 
BRANCH   2   3
ATOM      3  C   UNL d   1      12.832   4.738 -15.210  0.00  0.00     0.035 C 
ATOM      4  C   UNL d   1      13.615   4.401 -16.488  0.00  0.00     0.002 C 
ENDBRANCH   2   3
ENDBRANCH   1   2
BRANCH   1   5
ATOM      5  C   UNL d   1      10.487   4.802 -13.138  0.00  0.00     0.250 C 
BRANCH   5   6
ATOM      6  C   UNL d   1       9.687   5.929 -12.450  0.00  0.00     0.037 C 
BRANCH   6   7
ATOM      7  C   UNL d   1      10.014   5.992 -10.957  0.00  0.00     0.029 C 
BRANCH   7   8
ATOM      8  C   UNL d   1       9.067   6.875 -10.168  0.00  0.00     0.129 C 
BRANCH   8   9
ATOM      9  N   UNL d   1       9.533   7.045  -8.792  0.00  0.00    -0.233 NA
ATOM     10  C   UNL d   1      10.153   8.128  -8.305  0.00  0.00     0.293 C 
ATOM     11  O   UNL d   1      10.319   9.172  -8.937  0.00  0.00    -0.264 OA
BRANCH  10  12
ATOM     12  C   UNL d   1      10.642   8.002  -6.920  0.00  0.00     0.139 A 
ATOM     13  N   UNL d   1      10.799   9.139  -6.144  0.00  0.00    -0.241 NA
ATOM     14  C   UNL d   1      11.293   8.816  -4.892  0.00  0.00     0.082 A 
ATOM     15  C   UNL d   1      11.448   7.400  -4.898  0.00  0.00     0.019 A 
ATOM     16  C   UNL d   1      11.611   9.595  -3.762  0.00  0.00     0.019 A 
ATOM     17  C   UNL d   1      11.042   6.913  -6.186  0.00  0.00     0.025 A 
ATOM     18  C   UNL d   1      11.939   6.792  -3.718  0.00  0.00     0.002 A 
ATOM     19  C   UNL d   1      12.260   7.561  -2.581  0.00  0.00     0.000 A 
ATOM     20  C   UNL d   1      12.100   8.957  -2.605  0.00  0.00     0.002 A 
ENDBRANCH  10  12
ENDBRANCH   8   9
ENDBRANCH   7   8
ENDBRANCH   6   7
ENDBRANCH   5   6
ENDBRANCH   1   5
BRANCH   1  21
ATOM     21  C   UNL d   1       9.107   4.537 -15.134  0.00  0.00     0.251 C 
BRANCH  21  22
ATOM     22  C   UNL d   1       8.759   3.079 -14.825  0.00  0.00     0.038 A 
ATOM     23  C   UNL d   1       7.948   2.255 -15.804  0.00  0.00     0.025 A 
ATOM     24  C   UNL d   1       9.407   1.923 -15.550  0.00  0.00     0.007 A 
BRANCH  23  25
ATOM     25  C   UNL d   1       6.901   1.282 -15.360  0.00  0.00    -0.011 A 
ATOM     26  C   UNL d   1       6.507   0.231 -16.230  0.00  0.00     0.064 A 
ATOM     27  C   UNL d   1       5.553  -0.720 -15.793  0.00  0.00     0.068 A 
ATOM     28 CL   UNL d   1       7.218   0.093 -17.808  0.00  0.00    -0.082 Cl
ATOM     29  C   UNL d   1       5.013  -0.622 -14.497  0.00  0.00     0.012 A 
ATOM     30 CL   UNL d   1       5.057  -2.012 -16.825  0.00  0.00    -0.082 Cl
ATOM     31  C   UNL d   1       5.400   0.426 -13.634  0.00  0.00     0.001 A 
ATOM     32  C   UNL d   1       6.319   1.391 -14.079  0.00  0.00    -0.003 A 
ENDBRANCH  23  25
ENDBRANCH  21  22
ENDBRANCH   1  21
TORSDOF 11
