REMARK  8 active torsions:
REMARK  status: ('A' for Active; 'I' for Inactive)
REMARK    1  A    between atoms: O_2  and  C_3 
REMARK    2  A    between atoms: C_8  and  N_9 
REMARK    3  A    between atoms: N_12  and  C_13 
REMARK    4  A    between atoms: C_13  and  C_14 
REMARK    5  A    between atoms: C_14  and  C_15 
REMARK    6  A    between atoms: C_15  and  C_16 
REMARK    7  A    between atoms: C_16  and  N_17 
REMARK       I    between atoms: N_17  and  C_18 
REMARK    8  A    between atoms: C_18  and  C_20 
ROOT
ATOM      1  N   UNL d   1       6.994   2.830 -14.222  0.00  0.00    -0.343 N 
ATOM      2  C   UNL d   1       6.362   3.850 -13.381  0.00  0.00     0.137 C 
ATOM      3  C   UNL d   1       7.205   4.125 -12.132  0.00  0.00     0.274 C 
ATOM      4  N   UNL d   1       8.563   4.433 -12.551  0.00  0.00     0.141 N 
ATOM      5  C   UNL d   1       9.206   3.365 -13.336  0.00  0.00     0.274 C 
ATOM      6  C   UNL d   1       8.382   3.093 -14.588  0.00  0.00     0.137 C 
ENDROOT
BRANCH   4   7
ATOM      7  C   UNL d   1       9.372   4.720 -11.377  0.00  0.00     0.251 C 
BRANCH   7   8
ATOM      8  C   UNL d   1       9.194   6.162 -10.857  0.00  0.00     0.037 C 
BRANCH   8   9
ATOM      9  C   UNL d   1       9.989   6.443  -9.580  0.00  0.00     0.029 C 
BRANCH   9  10
ATOM     10  C   UNL d   1       9.727   7.858  -9.031  0.00  0.00     0.129 C 
BRANCH  10  11
ATOM     11  N   UNL d   1      10.440   8.096  -7.780  0.00  0.00    -0.234 NA
ATOM     12  C   UNL d   1      10.015   7.638  -6.598  0.00  0.00     0.275 C 
ATOM     13  O   UNL d   1       8.996   6.955  -6.462  0.00  0.00    -0.266 OA
BRANCH  12  14
ATOM     14  C   UNL d   1      10.947   7.838  -5.448  0.00  0.00     0.063 A 
ATOM     15  C   UNL d   1      11.628   9.061  -5.177  0.00  0.00     0.035 A 
ATOM     16  C   UNL d   1      12.494   9.110  -4.074  0.00  0.00     0.006 A 
ATOM     17  I   UNL d   1      11.472  10.790  -6.314  0.00  0.00    -0.043 I 
ATOM     18  C   UNL d   1      12.662   8.012  -3.212  0.00  0.00     0.000 A 
ATOM     19  C   UNL d   1      11.956   6.827  -3.444  0.00  0.00     0.000 A 
ATOM     20  C   UNL d   1      11.117   6.746  -4.573  0.00  0.00     0.005 A 
ENDBRANCH  12  14
ENDBRANCH  10  11
ENDBRANCH   9  10
ENDBRANCH   8   9
ENDBRANCH   7   8
ENDBRANCH   4   7
BRANCH   1  21
ATOM     21  C   UNL d   1       6.340   1.629 -14.575  0.00  0.00     0.079 A 
ATOM     22  C   UNL d   1       6.466   1.096 -15.874  0.00  0.00     0.110 A 
ATOM     23  C   UNL d   1       5.687  -0.048 -16.226  0.00  0.00     0.026 A 
ATOM     24  C   UNL d   1       4.804  -0.630 -15.300  0.00  0.00     0.002 A 
ATOM     25  C   UNL d   1       4.681  -0.087 -14.015  0.00  0.00     0.002 A 
ATOM     26  C   UNL d   1       5.478   1.032 -13.643  0.00  0.00     0.019 A 
BRANCH  22  27
ATOM     27  O   UNL d   1       7.219   1.764 -16.828  0.00  0.00    -0.327 OA
ATOM     28  C   UNL d   1       7.494   1.129 -18.069  0.00  0.00     0.181 C 
ENDBRANCH  22  27
ENDBRANCH   1  21
TORSDOF 8
