REMARK  11 active torsions:
REMARK  status: ('A' for Active; 'I' for Inactive)
REMARK    1  A    between atoms: C_2  and  N_3 
REMARK    2  A    between atoms: N_3  and  C_4 
REMARK    3  A    between atoms: N_3  and  C_20 
REMARK    4  A    between atoms: C_4  and  C_5 
REMARK    5  A    between atoms: C_5  and  C_6 
REMARK    6  A    between atoms: C_6  and  S_7 
REMARK    7  A    between atoms: S_7  and  C_8 
REMARK    8  A    between atoms: C_11  and  C_12 
REMARK    9  A    between atoms: C_20  and  C_21 
REMARK   10  A    between atoms: C_23  and  C_24 
REMARK   11  A    between atoms: C_30  and  O_31 
ROOT
ATOM      1  N   UNL d   1      11.162   2.677 -15.307  0.00  0.00     0.137 N 
ENDROOT
BRANCH   1   2
ATOM      2  C   UNL d   1      12.094   3.770 -15.607  0.00  0.00     0.250 C 
ATOM      3  C   UNL d   1      12.173   4.833 -14.511  0.00  0.00     0.037 C 
ENDBRANCH   1   2
BRANCH   1   4
ATOM      4  C   UNL d   1       9.785   3.185 -15.172  0.00  0.00     0.251 C 
BRANCH   4   5
ATOM      5  C   UNL d   1       9.429   3.677 -13.756  0.00  0.00     0.047 C 
BRANCH   5   6
ATOM      6  C   UNL d   1       8.038   4.316 -13.742  0.00  0.00     0.067 C 
BRANCH   6   7
ATOM      7  S   UNL d   1       7.424   4.451 -12.026  0.00  0.00    -0.075 SA
BRANCH   7   8
ATOM      8  C   UNL d   1       8.416   5.790 -11.472  0.00  0.00     0.193 A 
ATOM      9  N   UNL d   1       8.933   5.870 -10.227  0.00  0.00    -0.289 N 
ATOM     10  C   UNL d   1       9.581   7.064 -10.259  0.00  0.00     0.167 A 
ATOM     11  C   UNL d   1       8.814   4.913  -9.136  0.00  0.00     0.134 C 
ATOM     12  N   UNL d   1       9.458   7.676 -11.450  0.00  0.00    -0.128 NA
ATOM     13  N   UNL d   1       8.731   6.839 -12.250  0.00  0.00    -0.122 NA
BRANCH  10  14
ATOM     14  C   UNL d   1      10.318   7.657  -9.161  0.00  0.00     0.036 A 
ATOM     15  C   UNL d   1      11.651   8.088  -9.357  0.00  0.00     0.003 A 
ATOM     16  C   UNL d   1      12.370   8.651  -8.281  0.00  0.00     0.000 A 
ATOM     17  C   UNL d   1      11.765   8.796  -7.023  0.00  0.00     0.000 A 
ATOM     18  C   UNL d   1      10.439   8.378  -6.825  0.00  0.00     0.000 A 
ATOM     19  C   UNL d   1       9.717   7.822  -7.898  0.00  0.00     0.003 A 
ENDBRANCH  10  14
ENDBRANCH   7   8
ENDBRANCH   6   7
ENDBRANCH   5   6
ENDBRANCH   4   5
ENDBRANCH   1   4
BRANCH   1  20
ATOM     20  C   UNL d   1      11.270   1.691 -16.388  0.00  0.00     0.251 C 
BRANCH  20  21
ATOM     21  C   UNL d   1      10.582   0.353 -16.106  0.00  0.00     0.038 A 
ATOM     22  C   UNL d   1      10.056  -0.475 -17.256  0.00  0.00     0.026 A 
ATOM     23  C   UNL d   1       9.098   0.156 -16.288  0.00  0.00     0.007 A 
BRANCH  22  24
ATOM     24  C   UNL d   1      10.181   0.028 -18.659  0.00  0.00     0.002 A 
ATOM     25  C   UNL d   1      11.386  -0.141 -19.376  0.00  0.00     0.090 A 
ATOM     26  C   UNL d   1      11.500   0.420 -20.677  0.00  0.00     0.026 A 
ATOM     27  C   UNL d   1      10.446   1.127 -21.245  0.00  0.00     0.032 A 
ATOM     28  C   UNL d   1       9.232   1.296 -20.546  0.00  0.00     0.140 A 
ATOM     29  C   UNL d   1       9.103   0.734 -19.265  0.00  0.00     0.027 A 
ATOM     30  F   UNL d   1       8.211   1.986 -21.078  0.00  0.00    -0.204 F 
BRANCH  25  31
ATOM     31  O   UNL d   1      12.404  -0.818 -18.735  0.00  0.00    -0.328 OA
ATOM     32  C   UNL d   1      13.585  -1.096 -19.471  0.00  0.00     0.181 C 
ENDBRANCH  25  31
ENDBRANCH  22  24
ENDBRANCH  20  21
ENDBRANCH   1  20
TORSDOF 11
