REMARK  3 active torsions:
REMARK  status: ('A' for Active; 'I' for Inactive)
REMARK    1  A    between atoms: C_7  and  C_8 
REMARK    2  A    between atoms: N_10  and  S_11 
REMARK    3  A    between atoms: S_11  and  C_14 
ROOT
ATOM      1  C   UNL d   1       7.990   3.197 -14.036  0.00  0.00     0.039 A 
ATOM      2  C   UNL d   1       9.024   2.915 -14.930  0.00  0.00     0.093 A 
ATOM      3  N   UNL d   1       8.784   1.695 -15.558  0.00  0.00    -0.231 N 
ATOM      4  C   UNL d   1       7.585   1.164 -15.089  0.00  0.00     0.075 A 
ATOM      5  C   UNL d   1       6.906  -0.050 -15.382  0.00  0.00     0.018 A 
ATOM      6  C   UNL d   1       5.670  -0.363 -14.778  0.00  0.00     0.002 A 
ATOM      7  C   UNL d   1       5.152   0.507 -13.835  0.00  0.00     0.000 A 
ATOM      8  C   UNL d   1       5.841   1.657 -13.535  0.00  0.00     0.002 A 
ATOM      9  C   UNL d   1       7.053   2.086 -14.145  0.00  0.00     0.020 A 
ENDROOT
BRANCH   3  10
ATOM     10  S   UNL d   1       9.815   0.992 -16.742  0.00  0.00     0.271 S 
ATOM     11  O   UNL d   1      11.029   1.805 -16.746  0.00  0.00    -0.200 OA
ATOM     12  O   UNL d   1       9.860  -0.451 -16.408  0.00  0.00    -0.200 OA
BRANCH  10  13
ATOM     13  C   UNL d   1       8.901   1.232 -18.272  0.00  0.00     0.104 A 
ATOM     14  C   UNL d   1       9.336   2.202 -19.201  0.00  0.00     0.013 A 
ATOM     15  C   UNL d   1       8.613   2.378 -20.400  0.00  0.00     0.001 A 
ATOM     16  C   UNL d   1       7.461   1.606 -20.663  0.00  0.00     0.000 A 
ATOM     17  C   UNL d   1       7.029   0.649 -19.730  0.00  0.00     0.001 A 
ATOM     18  C   UNL d   1       7.763   0.453 -18.555  0.00  0.00     0.013 A 
ENDBRANCH  10  13
ENDBRANCH   3  10
BRANCH   1  19
ATOM     19  C   UNL d   1       7.872   4.383 -13.154  0.00  0.00     0.116 A 
ATOM     20  C   UNL d   1       6.860   4.823 -12.306  0.00  0.00     0.096 A 
ATOM     21  C   UNL d   1       5.524   4.295 -11.964  0.00  0.00     0.054 C 
ATOM     22  N   UNL d   1       7.289   5.982 -11.707  0.00  0.00    -0.061 NA
ATOM     23  C   UNL d   1       8.492   6.233 -12.190  0.00  0.00     0.768 A 
ATOM     24  N   UNL d   1       8.915   5.319 -13.063  0.00  0.00    -0.057 NA
ATOM     25  N   UNL d   1       9.148   7.369 -11.772  0.00  0.00     0.062 N 
ENDBRANCH   1  19
TORSDOF 3
