REMARK  8 active torsions:
REMARK  status: ('A' for Active; 'I' for Inactive)
REMARK    1  A    between atoms: O_2  and  C_3 
REMARK    2  A    between atoms: C_9  and  C_10 
REMARK    3  A    between atoms: C_12  and  C_13 
REMARK    4  A    between atoms: C_13  and  N_14 
REMARK    5  A    between atoms: N_14  and  C_15 
REMARK    6  A    between atoms: C_15  and  C_16 
REMARK    7  A    between atoms: N_19  and  C_20 
REMARK    8  A    between atoms: C_20  and  C_21 
ROOT
ATOM      1  C   UNL d   1       8.922   5.765 -11.224  0.00  0.00     0.336 C 
ENDROOT
BRANCH   1   2
ATOM      2  C   UNL d   1       7.872   5.080 -12.028  0.00  0.00     0.102 A 
ATOM      3  N   UNL d   1       8.248   4.062 -12.905  0.00  0.00    -0.241 NA
ATOM      4  C   UNL d   1       7.209   3.517 -13.536  0.00  0.00     0.112 A 
ATOM      5  S   UNL d   1       5.672   4.264 -13.095  0.00  0.00    -0.066 SA
ATOM      6  C   UNL d   1       6.532   5.352 -12.041  0.00  0.00     0.054 A 
BRANCH   4   7
ATOM      7  C   UNL d   1       7.273   2.389 -14.468  0.00  0.00     0.047 A 
ATOM      8  C   UNL d   1       8.326   2.272 -15.415  0.00  0.00     0.096 A 
ATOM      9  C   UNL d   1       8.321   1.170 -16.311  0.00  0.00     0.025 A 
ATOM     10  C   UNL d   1       7.294   0.208 -16.260  0.00  0.00     0.009 A 
ATOM     11  C   UNL d   1       6.270   0.322 -15.306  0.00  0.00     0.035 A 
ATOM     12 BR   UNL d   1       4.877  -0.969 -15.220  0.00  0.00    -0.049 Br
ATOM     13  C   UNL d   1       6.267   1.403 -14.411  0.00  0.00     0.011 A 
BRANCH   8  14
ATOM     14  O   UNL d   1       9.298   3.253 -15.441  0.00  0.00    -0.328 OA
ATOM     15  C   UNL d   1      10.376   3.127 -16.352  0.00  0.00     0.181 C 
ENDBRANCH   8  14
ENDBRANCH   4   7
ENDBRANCH   1   2
BRANCH   1  16
ATOM     16  N   UNL d   1       9.055   7.200 -11.373  0.00  0.00     0.346 N 
BRANCH  16  17
ATOM     17  C   UNL d   1      10.305   7.691 -10.832  0.00  0.00     0.293 C 
BRANCH  17  18
ATOM     18  C   UNL d   1      10.165   8.339  -9.463  0.00  0.00     0.071 C 
ATOM     19  C   UNL d   1       9.936   7.324  -8.347  0.00  0.00     0.253 C 
ATOM     20  N   UNL d   1      10.594   7.936  -7.210  0.00  0.00     0.141 N 
ATOM     21  C   UNL d   1      11.862   8.416  -7.749  0.00  0.00     0.251 C 
ATOM     22  C   UNL d   1      11.456   9.047  -9.069  0.00  0.00     0.039 C 
BRANCH  20  23
ATOM     23  C   UNL d   1      10.778   6.998  -6.115  0.00  0.00     0.277 C 
BRANCH  23  24
ATOM     24  C   UNL d   1      11.321   7.636  -4.846  0.00  0.00     0.011 A 
ATOM     25  C   UNL d   1      11.860   6.807  -3.842  0.00  0.00    -0.002 A 
ATOM     26  C   UNL d   1      12.332   7.365  -2.635  0.00  0.00    -0.000 A 
ATOM     27  C   UNL d   1      12.279   8.755  -2.433  0.00  0.00    -0.000 A 
ATOM     28  C   UNL d   1      11.730   9.587  -3.423  0.00  0.00    -0.000 A 
ATOM     29  C   UNL d   1      11.246   9.036  -4.618  0.00  0.00    -0.002 A 
ENDBRANCH  23  24
ENDBRANCH  20  23
ENDBRANCH  17  18
ENDBRANCH  16  17
ENDBRANCH   1  16
TORSDOF 8
