REMARK  5 active torsions:
REMARK  status: ('A' for Active; 'I' for Inactive)
REMARK    1  A    between atoms: C_7  and  C_8 
REMARK    2  A    between atoms: C_8  and  C_9 
REMARK    3  A    between atoms: C_9  and  C_10 
REMARK    4  A    between atoms: C_10  and  C_11 
REMARK    5  A    between atoms: C_11  and  N_12 
ROOT
ATOM      1  C   UNL d   1       9.268   5.538 -12.432  0.00  0.00     0.009 C 
ENDROOT
BRANCH   1   2
ATOM      2  C   UNL d   1       9.420   4.015 -12.297  0.00  0.00     0.053 C 
BRANCH   2   3
ATOM      3  C   UNL d   1       9.879   3.361 -13.560  0.00  0.00     0.088 A 
ATOM      4  S   UNL d   1      11.389   3.819 -14.363  0.00  0.00    -0.071 SA
ATOM      5  C   UNL d   1      11.081   2.567 -15.561  0.00  0.00     0.048 A 
ATOM      6  C   UNL d   1      11.859   2.209 -16.672  0.00  0.00     0.009 A 
ATOM      7  C   UNL d   1       9.859   1.898 -15.255  0.00  0.00     0.088 A 
ATOM      8  C   UNL d   1      11.441   1.151 -17.501  0.00  0.00     0.012 A 
ATOM      9  C   UNL d   1      10.253   0.459 -17.208  0.00  0.00     0.059 A 
ATOM     10 CL   UNL d   1       9.747  -0.840 -18.223  0.00  0.00    -0.082 Cl
ATOM     11  C   UNL d   1       9.469   0.829 -16.093  0.00  0.00     0.031 A 
ATOM     12  N   UNL d   1       9.172   2.389 -14.151  0.00  0.00    -0.243 NA
ENDBRANCH   2   3
ENDBRANCH   1   2
BRANCH   1  13
ATOM     13  C   UNL d   1       8.704   6.221 -11.174  0.00  0.00     0.024 C 
BRANCH  13  14
ATOM     14  C   UNL d   1       9.771   6.328 -10.057  0.00  0.00     0.097 C 
BRANCH  14  15
ATOM     15  N   UNL d   1       9.457   7.357  -9.110  0.00  0.00    -0.368 N 
ATOM     16  C   UNL d   1       9.604   7.026  -7.679  0.00  0.00     0.097 C 
ATOM     17  C   UNL d   1      11.093   7.006  -7.358  0.00  0.00     0.022 C 
ATOM     18  C   UNL d   1      11.795   8.351  -7.692  0.00  0.00     0.004 C 
ATOM     19  C   UNL d   1      11.408   6.548  -5.920  0.00  0.00     0.002 C 
ATOM     20  C   UNL d   1      11.455   8.775  -9.139  0.00  0.00     0.024 C 
ATOM     21  C   UNL d   1      11.418   9.426  -6.644  0.00  0.00     0.000 C 
ATOM     22  C   UNL d   1       9.945   8.698  -9.407  0.00  0.00     0.097 C 
ATOM     23  C   UNL d   1      11.769   8.969  -5.222  0.00  0.00     0.000 C 
ATOM     24  C   UNL d   1      11.096   7.631  -4.893  0.00  0.00     0.000 C 
ENDBRANCH  14  15
ENDBRANCH  13  14
ENDBRANCH   1  13
TORSDOF 5
