REMARK  3 active torsions:
REMARK  status: ('A' for Active; 'I' for Inactive)
REMARK    1  A    between atoms: C_6  and  N_7 
REMARK    2  A    between atoms: N_10  and  C_11 
REMARK    3  A    between atoms: C_11  and  C_12 
ROOT
ATOM      1  N   UNL d   1      11.189   7.759  -7.671  0.00  0.00    -0.344 N 
ATOM      2  C   UNL d   1      10.388   6.559  -7.874  0.00  0.00     0.137 C 
ATOM      3  C   UNL d   1       9.452   6.733  -9.069  0.00  0.00     0.275 C 
ATOM      4  N   UNL d   1      10.229   7.065 -10.271  0.00  0.00     0.145 N 
ATOM      5  C   UNL d   1      10.915   8.350 -10.042  0.00  0.00     0.275 C 
ATOM      6  C   UNL d   1      11.886   8.257  -8.849  0.00  0.00     0.137 C 
ENDROOT
BRANCH   4   7
ATOM      7  C   UNL d   1       9.336   7.191 -11.422  0.00  0.00     0.279 C 
BRANCH   7   8
ATOM      8  C   UNL d   1       8.542   6.008 -11.898  0.00  0.00     0.032 A 
ATOM      9  C   UNL d   1       8.827   5.103 -12.976  0.00  0.00     0.017 A 
ATOM     10  C   UNL d   1       7.772   4.144 -13.053  0.00  0.00     0.081 A 
ATOM     11  C   UNL d   1       9.870   4.989 -13.919  0.00  0.00     0.001 A 
ATOM     12  N   UNL d   1       6.898   4.478 -12.040  0.00  0.00    -0.244 NA
ATOM     13  C   UNL d   1       7.763   3.120 -14.019  0.00  0.00     0.019 A 
ATOM     14  C   UNL d   1       7.357   5.590 -11.361  0.00  0.00     0.097 A 
ATOM     15  C   UNL d   1       8.834   3.019 -14.924  0.00  0.00     0.002 A 
ATOM     16  C   UNL d   1       9.879   3.963 -14.880  0.00  0.00     0.000 A 
ENDBRANCH   7   8
ENDBRANCH   4   7
BRANCH   1  17
ATOM     17  C   UNL d   1      11.203   8.418  -6.424  0.00  0.00     0.068 A 
ATOM     18  C   UNL d   1      11.027   9.811  -6.350  0.00  0.00     0.018 A 
ATOM     19  C   UNL d   1      11.054  10.460  -5.107  0.00  0.00     0.002 A 
ATOM     20  C   UNL d   1      11.333   9.780  -3.913  0.00  0.00     0.012 A 
ATOM     21  C   UNL d   1      11.547   8.407  -3.974  0.00  0.00     0.070 A 
ATOM     22 CL   UNL d   1      11.960   7.541  -2.531  0.00  0.00    -0.081 Cl
ATOM     23  C   UNL d   1      11.454   7.750  -5.203  0.00  0.00     0.084 A 
ATOM     24 CL   UNL d   1      11.854   6.124  -5.199  0.00  0.00    -0.080 Cl
ENDBRANCH   1  17
TORSDOF 3
