REMARK  8 active torsions:
REMARK  status: ('A' for Active; 'I' for Inactive)
REMARK    1  A    between atoms: C_8  and  N_9 
REMARK    2  A    between atoms: N_9  and  C_10 
REMARK    3  A    between atoms: C_10  and  C_11 
REMARK    4  A    between atoms: C_11  and  C_12 
REMARK    5  A    between atoms: C_12  and  C_13 
REMARK    6  A    between atoms: C_13  and  C_14 
REMARK    7  A    between atoms: C_14  and  N_15 
REMARK    8  A    between atoms: N_18  and  C_19 
ROOT
ATOM      1  N   UNL d   1       7.253   4.645 -12.933  0.00  0.00     0.141 N 
ATOM      2  C   UNL d   1       8.291   4.156 -12.011  0.00  0.00     0.274 C 
ATOM      3  C   UNL d   1       9.462   5.136 -11.917  0.00  0.00     0.138 C 
ATOM      4  N   UNL d   1       8.983   6.461 -11.569  0.00  0.00    -0.330 N 
ATOM      5  C   UNL d   1       7.881   6.966 -12.382  0.00  0.00     0.138 C 
ATOM      6  C   UNL d   1       6.742   5.922 -12.417  0.00  0.00     0.274 C 
ENDROOT
BRANCH   1   7
ATOM      7  C   UNL d   1       6.166   3.671 -12.981  0.00  0.00     0.250 C 
BRANCH   7   8
ATOM      8  C   UNL d   1       6.487   2.517 -13.943  0.00  0.00     0.035 C 
BRANCH   8   9
ATOM      9  C   UNL d   1       5.686   1.248 -13.574  0.00  0.00     0.004 C 
BRANCH   9  10
ATOM     10  C   UNL d   1       5.624   0.314 -14.756  0.00  0.00     0.026 C 
BRANCH  10  11
ATOM     11  C   UNL d   1       4.683  -0.907 -14.638  0.00  0.00     0.127 C 
BRANCH  11  12
ATOM     12  N   UNL d   1       4.389  -1.614 -15.896  0.00  0.00    -0.255 NA
BRANCH  12  13
ATOM     13  C   UNL d   1       4.822  -1.276 -17.170  0.00  0.00     0.165 C 
ATOM     14  N   UNL d   1       5.750  -0.417 -17.443  0.00  0.00    -0.227 NA
ATOM     15  C   UNL d   1       5.985  -0.068 -18.763  0.00  0.00     0.105 A 
ATOM     16  C   UNL d   1       5.173  -0.529 -19.824  0.00  0.00     0.112 A 
ATOM     17  C   UNL d   1       7.042   0.828 -19.025  0.00  0.00     0.021 A 
ATOM     18  C   UNL d   1       5.452  -0.117 -21.145  0.00  0.00     0.026 A 
ATOM     19  O   UNL d   1       4.098  -1.360 -19.558  0.00  0.00    -0.321 OA
ATOM     20  C   UNL d   1       6.540   0.751 -21.406  0.00  0.00     0.002 A 
ATOM     21  C   UNL d   1       7.332   1.235 -20.342  0.00  0.00     0.002 A 
ATOM     22  C   UNL d   1       4.130  -2.050 -18.305  0.00  0.00     0.214 C 
ENDBRANCH  12  13
ENDBRANCH  11  12
ENDBRANCH  10  11
ENDBRANCH   9  10
ENDBRANCH   8   9
ENDBRANCH   7   8
ENDBRANCH   1   7
BRANCH   4  23
ATOM     23  C   UNL d   1       9.509   7.165 -10.480  0.00  0.00     0.140 A 
ATOM     24  N   UNL d   1       9.623   6.529  -9.290  0.00  0.00    -0.229 NA
ATOM     25  C   UNL d   1      10.116   7.208  -8.228  0.00  0.00     0.083 A 
ATOM     26  C   UNL d   1      10.603   8.537  -8.332  0.00  0.00     0.018 A 
ATOM     27  C   UNL d   1      10.180   6.598  -6.963  0.00  0.00     0.019 A 
ATOM     28  C   UNL d   1      10.533   9.183  -9.578  0.00  0.00     0.005 A 
ATOM     29  C   UNL d   1      11.148   9.206  -7.217  0.00  0.00     0.002 A 
ATOM     30  C   UNL d   1       9.947   8.489 -10.664  0.00  0.00     0.037 A 
ATOM     31  C   UNL d   1      11.217   8.563  -5.969  0.00  0.00     0.000 A 
ATOM     32  C   UNL d   1      10.723   7.252  -5.842  0.00  0.00     0.002 A 
ENDBRANCH   4  23
TORSDOF 8
