REMARK  8 active torsions:
REMARK  status: ('A' for Active; 'I' for Inactive)
REMARK    1  A    between atoms: C_2  and  C_3 
REMARK    2  A    between atoms: C_2  and  C_22 
REMARK    3  A    between atoms: C_3  and  C_4 
REMARK    4  A    between atoms: C_4  and  N_5 
REMARK    5  A    between atoms: C_7  and  C_8 
REMARK    6  A    between atoms: C_11  and  C_12 
REMARK    7  A    between atoms: C_22  and  N_23 
REMARK    8  A    between atoms: N_26  and  C_27 
ROOT
ATOM      1  C   UNL d   1       9.403   2.251 -14.406  0.00  0.00     0.061 C 
ENDROOT
BRANCH   1   2
ATOM      2  C   UNL d   1       9.581   1.493 -15.744  0.00  0.00     0.188 C 
ATOM      3  O   UNL d   1      10.589   0.507 -15.616  0.00  0.00    -0.221 OA
BRANCH   2   4
ATOM      4  C   UNL d   1       9.864   2.419 -16.945  0.00  0.00     0.283 C 
BRANCH   4   5
ATOM      5  N   UNL d   1      10.863   3.461 -16.696  0.00  0.00     0.144 N 
ATOM      6  C   UNL d   1      12.225   2.958 -16.900  0.00  0.00     0.274 C 
ATOM      7  C   UNL d   1      13.298   4.018 -16.612  0.00  0.00     0.137 C 
ATOM      8  N   UNL d   1      13.012   5.243 -17.346  0.00  0.00    -0.344 N 
ATOM      9  C   UNL d   1      11.654   5.758 -17.238  0.00  0.00     0.137 C 
ATOM     10  C   UNL d   1      10.641   4.642 -17.534  0.00  0.00     0.274 C 
BRANCH   8  11
ATOM     11  C   UNL d   1      13.975   5.871 -18.155  0.00  0.00     0.068 A 
ATOM     12  C   UNL d   1      14.249   7.257 -18.035  0.00  0.00     0.084 A 
ATOM     13  C   UNL d   1      15.203   7.858 -18.887  0.00  0.00     0.070 A 
ATOM     14 CL   UNL d   1      13.453   8.228 -16.833  0.00  0.00    -0.080 Cl
ATOM     15  C   UNL d   1      15.883   7.088 -19.846  0.00  0.00     0.012 A 
ATOM     16 CL   UNL d   1      15.550   9.545 -18.772  0.00  0.00    -0.081 Cl
ATOM     17  C   UNL d   1      15.622   5.712 -19.962  0.00  0.00     0.002 A 
ATOM     18  C   UNL d   1      14.673   5.104 -19.116  0.00  0.00     0.018 A 
ENDBRANCH   8  11
ENDBRANCH   4   5
ENDBRANCH   2   4
ENDBRANCH   1   2
BRANCH   1  19
ATOM     19  C   UNL d   1       8.430   3.451 -14.474  0.00  0.00     0.132 C 
BRANCH  19  20
ATOM     20  N   UNL d   1       8.313   4.129 -13.201  0.00  0.00    -0.230 N 
ATOM     21  N   UNL d   1       7.093   4.409 -12.695  0.00  0.00    -0.064 NA
ATOM     22  N   UNL d   1       7.287   5.036 -11.581  0.00  0.00    -0.129 NA
ATOM     23  C   UNL d   1       8.656   5.190 -11.346  0.00  0.00     0.123 A 
ATOM     24  C   UNL d   1       9.318   4.632 -12.403  0.00  0.00     0.118 A 
BRANCH  23  25
ATOM     25  C   UNL d   1       9.166   5.866 -10.151  0.00  0.00     0.021 A 
ATOM     26  C   UNL d   1      10.184   6.832 -10.265  0.00  0.00     0.002 A 
ATOM     27  C   UNL d   1      10.680   7.496  -9.127  0.00  0.00     0.000 A 
ATOM     28  C   UNL d   1      10.177   7.204  -7.842  0.00  0.00     0.000 A 
ATOM     29  C   UNL d   1       9.156   6.233  -7.731  0.00  0.00     0.000 A 
ATOM     30  C   UNL d   1       8.660   5.564  -8.871  0.00  0.00     0.002 A 
BRANCH  28  31
ATOM     31  C   UNL d   1      10.699   7.898  -6.650  0.00  0.00     0.000 A 
ATOM     32  C   UNL d   1      11.048   7.183  -5.484  0.00  0.00     0.000 A 
ATOM     33  C   UNL d   1      11.545   7.849  -4.348  0.00  0.00     0.000 A 
ATOM     34  C   UNL d   1      11.691   9.249  -4.357  0.00  0.00     0.000 A 
ATOM     35  C   UNL d   1      11.350   9.976  -5.513  0.00  0.00     0.000 A 
ATOM     36  C   UNL d   1      10.865   9.302  -6.649  0.00  0.00     0.000 A 
ENDBRANCH  28  31
ENDBRANCH  23  25
ENDBRANCH  19  20
ENDBRANCH   1  19
TORSDOF 8
