REMARK  2 active torsions:
REMARK  status: ('A' for Active; 'I' for Inactive)
REMARK    1  A    between atoms: C_2  and  C_4 
REMARK    2  A    between atoms: C_4  and  C_6 
REMARK       I    between atoms: C_6  and  N_8 
REMARK       I    between atoms: N_8  and  C_9 
ROOT
ATOM      1  C   UNL d   1      11.323   8.719  -7.774  0.00  0.00     0.270 C 
ATOM      2  O   UNL d   1      12.536   8.499  -7.817  0.00  0.00    -0.269 OA
ATOM      3  N   UNL d   1      10.439   8.494  -8.758  0.00  0.00    -0.154 NA
ATOM      4  C   UNL d   1      10.699   8.228 -10.039  0.00  0.00     0.389 C 
ATOM      5  N   UNL d   1      11.958   8.408 -10.426  0.00  0.00    -0.084 N 
ATOM      6  O   UNL d   1       9.831   7.888 -10.831  0.00  0.00    -0.241 OA
ENDROOT
BRANCH   1   7
ATOM      7  C   UNL d   1      10.782   9.339  -6.529  0.00  0.00     0.138 C 
ATOM      8 BR   UNL d   1      11.939  10.835  -6.033  0.00  0.00    -0.072 Br
BRANCH   7   9
ATOM      9  C   UNL d   1      10.604   8.344  -5.381  0.00  0.00     0.020 C 
ATOM     10  C   UNL d   1      11.854   7.578  -4.927  0.00  0.00     0.001 C 
ATOM     11  C   UNL d   1       9.529   7.313  -5.764  0.00  0.00     0.001 C 
ENDBRANCH   7   9
ENDBRANCH   1   7
TORSDOF 2
