REMARK  7 active torsions:
REMARK  status: ('A' for Active; 'I' for Inactive)
REMARK       I    between atoms: C_2  and  N_3 
REMARK    1  A    between atoms: C_2  and  C_23 
REMARK    2  A    between atoms: N_3  and  C_4 
REMARK    3  A    between atoms: C_4  and  C_5 
REMARK    4  A    between atoms: C_5  and  C_6 
REMARK    5  A    between atoms: C_6  and  C_8 
REMARK    6  A    between atoms: C_8  and  N_9 
REMARK    7  A    between atoms: N_12  and  C_13 
ROOT
ATOM      1  C   UNL d   1       7.463   1.685 -15.034  0.00  0.00     0.196 C 
ATOM      2  F   UNL d   1       8.581   1.302 -14.427  0.00  0.00    -0.235 F 
ENDROOT
BRANCH   1   3
ATOM      3  C   UNL d   1       6.859   0.428 -15.706  0.00  0.00     0.064 C 
BRANCH   3   4
ATOM      4  C   UNL d   1       6.955   0.500 -17.231  0.00  0.00     0.132 C 
BRANCH   4   5
ATOM      5  N   UNL d   1       8.347   0.440 -17.682  0.00  0.00    -0.234 NA
ATOM      6  C   UNL d   1       8.966   1.328 -18.480  0.00  0.00     0.275 C 
ATOM      7  O   UNL d   1       8.419   2.360 -18.875  0.00  0.00    -0.266 OA
BRANCH   6   8
ATOM      8  C   UNL d   1      10.400   1.015 -18.833  0.00  0.00     0.058 A 
ATOM      9  C   UNL d   1      11.277   2.064 -19.204  0.00  0.00     0.005 A 
ATOM     10  C   UNL d   1      12.616   1.791 -19.560  0.00  0.00     0.000 A 
ATOM     11  C   UNL d   1      13.092   0.458 -19.555  0.00  0.00     0.000 A 
ATOM     12  C   UNL d   1      13.484   2.842 -19.926  0.00  0.00     0.000 A 
ATOM     13  C   UNL d   1      12.224  -0.589 -19.199  0.00  0.00     0.000 A 
ATOM     14  C   UNL d   1      14.429   0.183 -19.912  0.00  0.00     0.000 A 
ATOM     15  C   UNL d   1      10.889  -0.315 -18.845  0.00  0.00     0.005 A 
ATOM     16  C   UNL d   1      15.292   1.236 -20.271  0.00  0.00     0.000 A 
ATOM     17  C   UNL d   1      14.819   2.564 -20.280  0.00  0.00     0.000 A 
ENDBRANCH   6   8
ENDBRANCH   4   5
ENDBRANCH   3   4
ENDBRANCH   1   3
BRANCH   1  18
ATOM     18  C   UNL d   1       6.505   2.375 -14.029  0.00  0.00     0.285 C 
BRANCH  18  19
ATOM     19  N   UNL d   1       6.922   3.732 -13.621  0.00  0.00     0.144 N 
ATOM     20  C   UNL d   1       6.257   4.052 -12.346  0.00  0.00     0.274 C 
ATOM     21  C   UNL d   1       6.664   5.459 -11.836  0.00  0.00     0.137 C 
ATOM     22  N   UNL d   1       8.106   5.583 -11.831  0.00  0.00    -0.344 N 
ATOM     23  C   UNL d   1       8.782   5.261 -13.061  0.00  0.00     0.137 C 
ATOM     24  C   UNL d   1       8.377   3.854 -13.512  0.00  0.00     0.274 C 
BRANCH  22  25
ATOM     25  C   UNL d   1       8.819   6.005 -10.707  0.00  0.00     0.068 A 
ATOM     26  C   UNL d   1       9.479   7.251 -10.711  0.00  0.00     0.084 A 
ATOM     27  C   UNL d   1      10.235   7.662  -9.583  0.00  0.00     0.070 A 
ATOM     28 CL   UNL d   1       9.284   8.338 -12.040  0.00  0.00    -0.080 Cl
ATOM     29  C   UNL d   1      10.286   6.844  -8.447  0.00  0.00     0.012 A 
ATOM     30 CL   UNL d   1      11.064   9.175  -9.577  0.00  0.00    -0.081 Cl
ATOM     31  C   UNL d   1       9.604   5.614  -8.440  0.00  0.00     0.002 A 
ATOM     32  C   UNL d   1       8.868   5.191  -9.572  0.00  0.00     0.018 A 
ENDBRANCH  22  25
ENDBRANCH  18  19
ENDBRANCH   1  18
TORSDOF 7
