REMARK  7 active torsions:
REMARK  status: ('A' for Active; 'I' for Inactive)
REMARK    1  A    between atoms: C_6  and  C_7 
REMARK    2  A    between atoms: C_10  and  S_11 
REMARK    3  A    between atoms: S_11  and  C_12 
REMARK    4  A    between atoms: C_12  and  C_13 
REMARK    5  A    between atoms: C_13  and  N_14 
REMARK    6  A    between atoms: C_19  and  C_20 
REMARK    7  A    between atoms: C_23  and  C_24 
ROOT
ATOM      1  N   UNL d   1      12.365   5.409 -18.575  0.00  0.00     0.138 N 
ATOM      2  C   UNL d   1      10.931   5.362 -18.704  0.00  0.00     0.250 C 
ATOM      3  C   UNL d   1      10.491   5.472 -17.277  0.00  0.00     0.038 C 
ATOM      4  C   UNL d   1      11.608   4.934 -16.431  0.00  0.00     0.037 A 
ATOM      5  C   UNL d   1      12.001   5.588 -15.122  0.00  0.00     0.007 A 
ATOM      6  C   UNL d   1      11.387   4.215 -15.099  0.00  0.00     0.024 A 
ATOM      7  C   UNL d   1      12.657   4.555 -17.431  0.00  0.00     0.251 C 
ENDROOT
BRANCH   1   8
ATOM      8  C   UNL d   1      13.083   4.937 -19.754  0.00  0.00     0.262 C 
BRANCH   8   9
ATOM      9  C   UNL d   1      13.039   5.963 -20.905  0.00  0.00     0.101 C 
BRANCH   9  10
ATOM     10  S   UNL d   1      14.436   5.769 -22.058  0.00  0.00    -0.073 SA
BRANCH  10  11
ATOM     11  C   UNL d   1      15.770   6.212 -20.983  0.00  0.00     0.193 A 
ATOM     12  N   UNL d   1      16.554   5.292 -20.424  0.00  0.00    -0.122 NA
ATOM     13  N   UNL d   1      17.427   5.990 -19.623  0.00  0.00    -0.126 NA
ATOM     14  C   UNL d   1      17.147   7.281 -19.801  0.00  0.00     0.191 A 
ATOM     15  N   UNL d   1      16.100   7.477 -20.649  0.00  0.00    -0.287 N 
ATOM     16  C   UNL d   1      15.483   8.721 -21.069  0.00  0.00     0.134 C 
BRANCH  14  17
ATOM     17  C   UNL d   1      17.892   8.332 -19.105  0.00  0.00     0.151 A 
ATOM     18  C   UNL d   1      18.620   8.330 -17.938  0.00  0.00     0.087 A 
ATOM     19  C   UNL d   1      18.872   7.235 -16.955  0.00  0.00     0.054 C 
ATOM     20  N   UNL d   1      19.126   9.605 -17.728  0.00  0.00    -0.221 NA
ATOM     21  C   UNL d   1      18.703  10.300 -18.776  0.00  0.00     0.225 A 
ATOM     22  O   UNL d   1      17.922   9.594 -19.635  0.00  0.00    -0.282 OA
ENDBRANCH  14  17
ENDBRANCH  10  11
ENDBRANCH   9  10
ENDBRANCH   8   9
ENDBRANCH   1   8
BRANCH   6  23
ATOM     23  C   UNL d   1      10.022   3.954 -14.554  0.00  0.00    -0.022 A 
ATOM     24  C   UNL d   1       9.475   4.810 -13.564  0.00  0.00    -0.004 A 
ATOM     25  C   UNL d   1       8.167   4.635 -13.113  0.00  0.00     0.004 A 
ATOM     26  C   UNL d   1       7.370   3.588 -13.611  0.00  0.00     0.071 A 
ATOM     27  C   UNL d   1       7.916   2.717 -14.590  0.00  0.00     0.004 A 
ATOM     28  C   UNL d   1       9.230   2.907 -15.056  0.00  0.00    -0.004 A 
BRANCH  26  29
ATOM     29  C   UNL d   1       5.968   3.393 -13.066  0.00  0.00     0.419 C 
ATOM     30  F   UNL d   1       5.521   2.157 -13.291  0.00  0.00    -0.166 F 
ATOM     31  F   UNL d   1       5.951   3.592 -11.749  0.00  0.00    -0.166 F 
ATOM     32  F   UNL d   1       5.149   4.281 -13.628  0.00  0.00    -0.166 F 
ENDBRANCH  26  29
ENDBRANCH   6  23
TORSDOF 7
