REMARK  2 active torsions:
REMARK  status: ('A' for Active; 'I' for Inactive)
REMARK    1  A    between atoms: C_7  and  C_8 
REMARK    2  A    between atoms: C_16  and  N_17 
ROOT
ATOM      1  C   UNL d   1       8.939   1.796 -18.977  0.00  0.00     0.134 C 
ATOM      2  N   UNL d   1       9.287   1.764 -17.546  0.00  0.00    -0.296 N 
ATOM      3  C   UNL d   1      10.568   2.083 -17.211  0.00  0.00     0.262 C 
ATOM      4  O   UNL d   1      11.401   2.472 -18.032  0.00  0.00    -0.270 OA
ATOM      5  C   UNL d   1      11.015   1.909 -15.755  0.00  0.00     0.213 C 
ATOM      6  N   UNL d   1      10.348   2.833 -14.875  0.00  0.00    -0.261 NA
ATOM      7  C   UNL d   1       9.102   2.723 -14.615  0.00  0.00     0.078 C 
ATOM      8  C   UNL d   1       8.197   1.708 -15.266  0.00  0.00     0.035 A 
ATOM      9  C   UNL d   1       7.134   1.205 -14.481  0.00  0.00     0.026 A 
ATOM     10  C   UNL d   1       6.139   0.352 -14.983  0.00  0.00     0.127 A 
ATOM     11  C   UNL d   1       6.232  -0.059 -16.325  0.00  0.00     0.025 A 
ATOM     12  C   UNL d   1       7.306   0.378 -17.113  0.00  0.00     0.019 A 
ATOM     13  C   UNL d   1       8.289   1.275 -16.623  0.00  0.00     0.064 A 
ENDROOT
BRANCH   7  14
ATOM     14  C   UNL d   1       8.529   3.651 -13.595  0.00  0.00     0.017 A 
ATOM     15  C   UNL d   1       9.292   4.056 -12.480  0.00  0.00     0.002 A 
ATOM     16  C   UNL d   1       8.719   4.874 -11.482  0.00  0.00     0.000 A 
ATOM     17  C   UNL d   1       7.380   5.299 -11.598  0.00  0.00     0.000 A 
ATOM     18  C   UNL d   1       6.611   4.895 -12.702  0.00  0.00     0.000 A 
ATOM     19  C   UNL d   1       7.190   4.086 -13.692  0.00  0.00     0.002 A 
ENDBRANCH   7  14
BRANCH  10  20
ATOM     20  N   UNL d   1       5.016  -0.061 -14.122  0.00  0.00    -0.114 N 
ATOM     21  O   UNL d   1       5.024   0.352 -12.965  0.00  0.00    -0.532 OA
ATOM     22  O   UNL d   1       4.135  -0.770 -14.594  0.00  0.00    -0.532 OA
ENDBRANCH  10  20
TORSDOF 2
