REMARK  7 active torsions:
REMARK  status: ('A' for Active; 'I' for Inactive)
REMARK    1  A    between atoms: C_2  and  N_3 
REMARK    2  A    between atoms: N_3  and  C_4 
REMARK    3  A    between atoms: N_3  and  C_6 
REMARK    4  A    between atoms: C_6  and  C_7 
REMARK    5  A    between atoms: C_7  and  C_8 
REMARK    6  A    between atoms: C_8  and  C_9 
REMARK    7  A    between atoms: C_13  and  C_14 
ROOT
ATOM      1  C   UNL d   1       8.158   5.692 -12.019  0.00  0.00     0.153 A 
ATOM      2  C   UNL d   1       6.780   6.267 -12.409  0.00  0.00     0.038 C 
ATOM      3  O   UNL d   1       7.989   4.767 -10.947  0.00  0.00    -0.326 OA
ATOM      4  C   UNL d   1       8.700   5.223  -9.866  0.00  0.00     0.119 A 
ATOM      5  C   UNL d   1       9.386   6.359 -10.049  0.00  0.00     0.061 A 
ATOM      6  C   UNL d   1       9.065   6.755 -11.417  0.00  0.00     0.200 A 
ATOM      7  O   UNL d   1       9.433   7.755 -12.026  0.00  0.00    -0.289 OA
ENDROOT
BRANCH   1   8
ATOM      8  C   UNL d   1       8.854   4.989 -13.204  0.00  0.00     0.037 C 
BRANCH   8   9
ATOM      9  C   UNL d   1       8.025   3.837 -13.793  0.00  0.00     0.038 C 
BRANCH   9  10
ATOM     10  C   UNL d   1       8.872   2.881 -14.650  0.00  0.00     0.250 C 
BRANCH  10  11
ATOM     11  N   UNL d   1       8.096   1.821 -15.296  0.00  0.00     0.137 N 
BRANCH  11  12
ATOM     12  C   UNL d   1       8.955   1.025 -16.189  0.00  0.00     0.250 C 
ATOM     13  C   UNL d   1      10.090   0.273 -15.461  0.00  0.00     0.037 C 
ENDBRANCH  11  12
BRANCH  11  14
ATOM     14  C   UNL d   1       7.353   1.010 -14.329  0.00  0.00     0.250 C 
ATOM     15  C   UNL d   1       6.344   0.059 -14.990  0.00  0.00     0.037 C 
ENDBRANCH  11  14
ENDBRANCH  10  11
ENDBRANCH   9  10
ENDBRANCH   8   9
ENDBRANCH   1   8
BRANCH   5  16
ATOM     16  C   UNL d   1      10.181   7.083  -9.037  0.00  0.00     0.005 A 
ATOM     17  C   UNL d   1      11.234   7.920  -9.452  0.00  0.00     0.000 A 
ATOM     18  C   UNL d   1      12.046   8.566  -8.506  0.00  0.00     0.000 A 
ATOM     19  C   UNL d   1      11.795   8.402  -7.130  0.00  0.00     0.000 A 
ATOM     20  C   UNL d   1      10.742   7.571  -6.702  0.00  0.00     0.000 A 
ATOM     21  C   UNL d   1       9.931   6.914  -7.651  0.00  0.00     0.000 A 
ENDBRANCH   5  16
TORSDOF 7
