REMARK  0 active torsions:
REMARK  status: ('A' for Active; 'I' for Inactive)
ROOT
ATOM      1  C   UNL d   1      11.646   6.276 -15.804  0.00  0.00     0.286 C 
ATOM      2  N   UNL d   1      11.542   4.826 -15.662  0.00  0.00     0.142 N 
ATOM      3  C   UNL d   1      11.944   4.246 -16.940  0.00  0.00     0.255 C 
ATOM      4  C   UNL d   1      12.099   2.731 -16.773  0.00  0.00     0.061 C 
ATOM      5  C   UNL d   1      10.858   2.042 -16.236  0.00  0.00    -0.022 A 
ATOM      6  C   UNL d   1      10.492   0.695 -16.394  0.00  0.00    -0.002 A 
ATOM      7  C   UNL d   1       9.284   0.224 -15.839  0.00  0.00     0.025 A 
ATOM      8  C   UNL d   1       8.404   1.044 -15.091  0.00  0.00     0.103 A 
ATOM      9  O   UNL d   1       7.216   0.515 -14.645  0.00  0.00    -0.273 OA
ATOM     10  C   UNL d   1       6.259   1.261 -14.036  0.00  0.00     0.300 C 
ATOM     11  O   UNL d   1       5.184   0.763 -13.701  0.00  0.00    -0.259 OA
ATOM     12  C   UNL d   1       6.641   2.668 -13.717  0.00  0.00     0.063 A 
ATOM     13  C   UNL d   1       5.779   3.489 -12.944  0.00  0.00     0.005 A 
ATOM     14  C   UNL d   1       6.163   4.769 -12.504  0.00  0.00    -0.000 A 
ATOM     15  C   UNL d   1       7.437   5.265 -12.818  0.00  0.00    -0.004 A 
ATOM     16  C   UNL d   1       8.319   4.492 -13.591  0.00  0.00    -0.020 A 
ATOM     17  C   UNL d   1       7.902   3.221 -14.047  0.00  0.00     0.003 A 
ATOM     18  C   UNL d   1       8.801   2.388 -14.888  0.00  0.00     0.020 A 
ATOM     19  C   UNL d   1       9.993   2.860 -15.484  0.00  0.00     0.007 A 
ATOM     20  C   UNL d   1      10.173   4.379 -15.343  0.00  0.00     0.246 C 
ATOM     21  C   UNL d   1       9.746   4.863 -13.944  0.00  0.00     0.064 C 
ENDROOT
TORSDOF 0
