REMARK  6 active torsions:
REMARK  status: ('A' for Active; 'I' for Inactive)
REMARK    1  A    between atoms: C_5  and  O_6 
REMARK    2  A    between atoms: O_6  and  C_7 
REMARK    3  A    between atoms: C_7  and  C_8 
REMARK    4  A    between atoms: C_8  and  C_9 
REMARK    5  A    between atoms: C_9  and  N_10 
REMARK    6  A    between atoms: N_13  and  C_14 
ROOT
ATOM      1  N   UNL d   1       9.875   7.429  -8.905  0.00  0.00     0.141 N 
ATOM      2  C   UNL d   1      11.052   8.243  -8.584  0.00  0.00     0.274 C 
ATOM      3  C   UNL d   1      10.799   9.055  -7.298  0.00  0.00     0.137 C 
ATOM      4  N   UNL d   1      10.439   8.153  -6.217  0.00  0.00    -0.344 N 
ATOM      5  C   UNL d   1       9.349   7.232  -6.506  0.00  0.00     0.137 C 
ATOM      6  C   UNL d   1       9.638   6.477  -7.809  0.00  0.00     0.274 C 
ENDROOT
BRANCH   1   7
ATOM      7  C   UNL d   1      10.127   6.735 -10.159  0.00  0.00     0.253 C 
BRANCH   7   8
ATOM      8  C   UNL d   1       8.863   6.096 -10.758  0.00  0.00     0.068 C 
BRANCH   8   9
ATOM      9  C   UNL d   1       9.211   4.971 -11.726  0.00  0.00     0.151 C 
BRANCH   9  10
ATOM     10  O   UNL d   1       9.871   5.446 -12.895  0.00  0.00    -0.331 OA
BRANCH  10  11
ATOM     11  C   UNL d   1      10.266   4.491 -13.811  0.00  0.00     0.094 A 
ATOM     12  C   UNL d   1      10.000   3.099 -13.678  0.00  0.00     0.026 A 
ATOM     13  C   UNL d   1      10.448   2.191 -14.656  0.00  0.00     0.032 A 
ATOM     14  C   UNL d   1      11.153   2.649 -15.777  0.00  0.00     0.140 A 
ATOM     15  F   UNL d   1      11.569   1.768 -16.714  0.00  0.00    -0.204 F 
ATOM     16  C   UNL d   1      11.420   4.025 -15.921  0.00  0.00     0.032 A 
ATOM     17  C   UNL d   1      10.980   4.936 -14.939  0.00  0.00     0.026 A 
ENDBRANCH  10  11
ENDBRANCH   9  10
ENDBRANCH   8   9
ENDBRANCH   7   8
ENDBRANCH   1   7
BRANCH   4  18
ATOM     18  C   UNL d   1      11.114   8.169  -5.000  0.00  0.00     0.056 A 
ATOM     19  C   UNL d   1      11.416   9.404  -4.383  0.00  0.00     0.017 A 
ATOM     20  C   UNL d   1      12.050   9.437  -3.134  0.00  0.00     0.002 A 
ATOM     21  C   UNL d   1      12.413   8.242  -2.488  0.00  0.00     0.000 A 
ATOM     22  C   UNL d   1      12.124   7.004  -3.095  0.00  0.00     0.002 A 
ATOM     23  C   UNL d   1      11.478   6.967  -4.344  0.00  0.00     0.017 A 
ENDBRANCH   4  18
TORSDOF 6
