REMARK  6 active torsions:
REMARK  status: ('A' for Active; 'I' for Inactive)
REMARK    1  A    between atoms: C_2  and  C_3 
REMARK       I    between atoms: C_3  and  N_5 
REMARK    2  A    between atoms: N_5  and  C_6 
REMARK    3  A    between atoms: C_10  and  C_11 
REMARK    4  A    between atoms: N_13  and  S_14 
REMARK    5  A    between atoms: S_14  and  C_17 
REMARK    6  A    between atoms: C_26  and  O_27 
ROOT
ATOM      1  C   UNL d   1       9.207   4.253 -13.960  0.00  0.00     0.039 A 
ATOM      2  C   UNL d   1      10.287   4.777 -14.627  0.00  0.00     0.093 A 
ATOM      3  N   UNL d   1      10.477   4.107 -15.824  0.00  0.00    -0.231 N 
ATOM      4  C   UNL d   1       9.512   3.125 -15.967  0.00  0.00     0.075 A 
ATOM      5  C   UNL d   1       9.254   2.194 -16.990  0.00  0.00     0.020 A 
ATOM      6  C   UNL d   1       8.178   1.321 -16.917  0.00  0.00     0.026 A 
ATOM      7  C   UNL d   1       7.349   1.339 -15.746  0.00  0.00     0.094 A 
ATOM      8  C   UNL d   1       7.623   2.226 -14.679  0.00  0.00     0.026 A 
ATOM      9  C   UNL d   1       8.688   3.183 -14.777  0.00  0.00     0.022 A 
ENDROOT
BRANCH   1  10
ATOM     10  C   UNL d   1       8.645   4.691 -12.661  0.00  0.00     0.115 A 
ATOM     11  C   UNL d   1       7.381   4.581 -12.098  0.00  0.00     0.096 A 
ATOM     12  N   UNL d   1       7.473   5.147 -10.845  0.00  0.00    -0.062 NA
ATOM     13  C   UNL d   1       6.077   4.008 -12.557  0.00  0.00     0.054 C 
ATOM     14  C   UNL d   1       8.711   5.597 -10.679  0.00  0.00     0.752 A 
ATOM     15  N   UNL d   1       9.474   5.374 -11.751  0.00  0.00    -0.058 NA
BRANCH  14  16
ATOM     16  N   UNL d   1       9.101   6.211  -9.457  0.00  0.00    -0.023 NA
ATOM     17  C   UNL d   1      10.176   6.959  -9.207  0.00  0.00     0.272 C 
ATOM     18  O   UNL d   1      11.062   7.197 -10.013  0.00  0.00    -0.270 OA
BRANCH  17  19
ATOM     19  C   UNL d   1      10.265   7.550  -7.789  0.00  0.00     0.091 C 
ATOM     20  C   UNL d   1      11.704   7.562  -7.254  0.00  0.00     0.010 C 
ENDBRANCH  17  19
ENDBRANCH  14  16
ENDBRANCH   1  10
BRANCH   3  21
ATOM     21  S   UNL d   1      11.715   4.464 -16.970  0.00  0.00     0.271 S 
ATOM     22  O   UNL d   1      12.732   5.225 -16.220  0.00  0.00    -0.200 OA
ATOM     23  O   UNL d   1      12.045   3.181 -17.609  0.00  0.00    -0.200 OA
BRANCH  21  24
ATOM     24  C   UNL d   1      10.889   5.524 -18.153  0.00  0.00     0.104 A 
ATOM     25  C   UNL d   1       9.674   5.117 -18.747  0.00  0.00     0.013 A 
ATOM     26  C   UNL d   1       9.025   5.950 -19.673  0.00  0.00     0.001 A 
ATOM     27  C   UNL d   1       9.597   7.189 -20.015  0.00  0.00     0.000 A 
ATOM     28  C   UNL d   1      10.813   7.590 -19.429  0.00  0.00     0.001 A 
ATOM     29  C   UNL d   1      11.463   6.761 -18.495  0.00  0.00     0.013 A 
ENDBRANCH  21  24
ENDBRANCH   3  21
BRANCH   7  30
ATOM     30  O   UNL d   1       6.285   0.484 -15.601  0.00  0.00    -0.328 OA
ATOM     31  C   UNL d   1       5.994  -0.434 -16.642  0.00  0.00     0.181 C 
ENDBRANCH   7  30
TORSDOF 6
