REMARK  5 active torsions:
REMARK  status: ('A' for Active; 'I' for Inactive)
REMARK    1  A    between atoms: C_2  and  C_4 
REMARK    2  A    between atoms: C_4  and  C_5 
REMARK    3  A    between atoms: C_5  and  N_6 
REMARK    4  A    between atoms: C_5  and  C_9 
REMARK    5  A    between atoms: C_9  and  C_10 
ROOT
ATOM      1  C   UNL d   1       9.042   4.139 -13.496  0.00  0.00     0.048 C 
ATOM      2  C   UNL d   1       9.727   4.720 -14.758  0.00  0.00     0.006 C 
ATOM      3  C   UNL d   1      10.887   3.720 -14.700  0.00  0.00     0.001 C 
ATOM      4  C   UNL d   1      10.425   3.454 -13.267  0.00  0.00     0.006 C 
ENDROOT
BRANCH   1   5
ATOM      5  C   UNL d   1       8.565   5.205 -12.398  0.00  0.00     0.223 C 
BRANCH   5   6
ATOM      6  C   UNL d   1       7.709   6.405 -12.984  0.00  0.00     0.034 C 
BRANCH   6   7
ATOM      7  C   UNL d   1       6.182   6.486 -12.634  0.00  0.00     0.002 C 
ATOM      8  C   UNL d   1       5.718   7.945 -12.770  0.00  0.00     0.000 C 
ATOM      9  C   UNL d   1       5.870   5.966 -11.254  0.00  0.00     0.000 C 
ENDBRANCH   6   7
ENDBRANCH   5   6
BRANCH   5  10
ATOM     10  N   UNL d   1       9.708   5.660 -11.560  0.00  0.00     0.140 N 
ATOM     11  C   UNL d   1       9.686   4.930 -10.287  0.00  0.00     0.285 C 
ATOM     12  C   UNL d   1       9.862   7.081 -11.226  0.00  0.00     0.285 C 
ENDBRANCH   5  10
ENDBRANCH   1   5
BRANCH   1  13
ATOM     13  C   UNL d   1       7.931   3.092 -13.837  0.00  0.00    -0.021 A 
ATOM     14  C   UNL d   1       6.604   3.245 -13.369  0.00  0.00    -0.003 A 
ATOM     15  C   UNL d   1       5.643   2.238 -13.483  0.00  0.00     0.011 A 
ATOM     16  C   UNL d   1       5.919   1.063 -14.198  0.00  0.00     0.058 A 
ATOM     17  C   UNL d   1       7.214   0.906 -14.743  0.00  0.00     0.011 A 
ATOM     18 CL   UNL d   1       4.671  -0.124 -14.467  0.00  0.00    -0.082 Cl
ATOM     19  C   UNL d   1       8.219   1.882 -14.539  0.00  0.00    -0.003 A 
ENDBRANCH   1  13
TORSDOF 5
