REMARK  8 active torsions:
REMARK  status: ('A' for Active; 'I' for Inactive)
REMARK    1  A    between atoms: C_2  and  C_5 
REMARK    2  A    between atoms: C_7  and  N_8 
REMARK    3  A    between atoms: N_11  and  C_12 
REMARK    4  A    between atoms: C_12  and  C_13 
REMARK    5  A    between atoms: C_13  and  C_14 
REMARK    6  A    between atoms: C_14  and  C_15 
REMARK    7  A    between atoms: C_15  and  N_16 
REMARK    8  A    between atoms: C_28  and  C_29 
ROOT
ATOM      1  N   UNL d   1       8.814   5.173 -13.087  0.00  0.00    -0.330 N 
ATOM      2  C   UNL d   1       7.870   4.521 -12.198  0.00  0.00     0.138 C 
ATOM      3  C   UNL d   1       8.445   4.536 -10.771  0.00  0.00     0.274 C 
ATOM      4  N   UNL d   1       8.711   5.896 -10.296  0.00  0.00     0.141 N 
ATOM      5  C   UNL d   1       9.710   6.500 -11.204  0.00  0.00     0.274 C 
ATOM      6  C   UNL d   1       9.198   6.505 -12.649  0.00  0.00     0.138 C 
ENDROOT
BRANCH   1   7
ATOM      7  C   UNL d   1       9.351   4.547 -14.255  0.00  0.00     0.143 A 
ATOM      8  N   UNL d   1      10.464   5.084 -14.793  0.00  0.00    -0.214 NA
ATOM      9  C   UNL d   1      10.899   4.586 -15.964  0.00  0.00     0.140 A 
ATOM     10  N   UNL d   1      10.397   3.515 -16.565  0.00  0.00    -0.227 NA
ATOM     11  C   UNL d   1       9.303   2.941 -16.021  0.00  0.00     0.157 A 
ATOM     12  C   UNL d   1       8.716   3.446 -14.839  0.00  0.00     0.060 A 
BRANCH   9  13
ATOM     13  C   UNL d   1      12.227   5.143 -16.520  0.00  0.00     0.052 C 
ATOM     14  C   UNL d   1      12.355   4.874 -18.041  0.00  0.00     0.008 C 
ATOM     15  C   UNL d   1      13.389   4.462 -15.808  0.00  0.00     0.008 C 
ATOM     16  C   UNL d   1      12.307   6.677 -16.326  0.00  0.00     0.008 C 
ENDBRANCH   9  13
BRANCH  11  17
ATOM     17  C   UNL d   1       8.701   1.737 -16.738  0.00  0.00     0.435 C 
ATOM     18  F   UNL d   1       7.655   1.249 -16.076  0.00  0.00    -0.165 F 
ATOM     19  F   UNL d   1       8.295   2.097 -17.957  0.00  0.00    -0.165 F 
ATOM     20  F   UNL d   1       9.621   0.780 -16.842  0.00  0.00    -0.165 F 
ENDBRANCH  11  17
ENDBRANCH   1   7
BRANCH   4  21
ATOM     21  C   UNL d   1       9.200   5.818  -8.936  0.00  0.00     0.251 C 
BRANCH  21  22
ATOM     22  C   UNL d   1       9.535   7.219  -8.368  0.00  0.00     0.037 C 
BRANCH  22  23
ATOM     23  C   UNL d   1      10.150   7.109  -6.995  0.00  0.00     0.027 C 
BRANCH  23  24
ATOM     24  C   UNL d   1      10.451   8.479  -6.379  0.00  0.00     0.111 C 
BRANCH  24  25
ATOM     25  N   UNL d   1      11.096   8.420  -5.093  0.00  0.00    -0.277 N 
ATOM     26  C   UNL d   1      11.226   9.658  -4.420  0.00  0.00     0.353 A 
ATOM     27  N   UNL d   1      11.859   9.620  -3.180  0.00  0.00    -0.151 NA
ATOM     28  O   UNL d   1      10.784  10.715  -4.865  0.00  0.00    -0.244 OA
ATOM     29  C   UNL d   1      12.339   8.485  -2.528  0.00  0.00     0.312 A 
ATOM     30  C   UNL d   1      12.169   7.245  -3.283  0.00  0.00     0.215 A 
ATOM     31  O   UNL d   1      12.850   8.581  -1.419  0.00  0.00    -0.263 OA
ATOM     32  C   UNL d   1      11.577   7.246  -4.494  0.00  0.00     0.115 A 
ATOM     33  F   UNL d   1      12.637   6.099  -2.766  0.00  0.00    -0.198 F 
ENDBRANCH  24  25
ENDBRANCH  23  24
ENDBRANCH  22  23
ENDBRANCH  21  22
ENDBRANCH   4  21
TORSDOF 8
