REMARK  4 active torsions:
REMARK  status: ('A' for Active; 'I' for Inactive)
REMARK    1  A    between atoms: C_2  and  C_3 
REMARK       I    between atoms: C_2  and  N_18 
REMARK    2  A    between atoms: C_3  and  N_4 
REMARK    3  A    between atoms: N_7  and  C_8 
REMARK    4  A    between atoms: C_8  and  C_9 
ROOT
ATOM      1  N   UNL d   1       9.820   2.263 -14.912  0.00  0.00     0.151 N 
ATOM      2  C   UNL d   1      10.628   3.090 -14.020  0.00  0.00     0.286 C 
ATOM      3  C   UNL d   1       9.833   3.616 -12.812  0.00  0.00     0.286 C 
ATOM      4  N   UNL d   1       8.672   4.405 -13.213  0.00  0.00     0.146 N 
ATOM      5  C   UNL d   1       7.839   3.571 -14.074  0.00  0.00     0.286 C 
ATOM      6  C   UNL d   1       8.628   3.040 -15.293  0.00  0.00     0.286 C 
ENDROOT
BRANCH   1   7
ATOM      7  C   UNL d   1      10.637   1.790 -16.049  0.00  0.00     0.337 C 
BRANCH   7   8
ATOM      8  C   UNL d   1       9.914   0.767 -16.939  0.00  0.00     0.272 C 
ATOM      9  O   UNL d   1      10.061  -0.419 -16.680  0.00  0.00    -0.270 OA
ATOM     10  N   UNL d   1       9.173   1.214 -18.003  0.00  0.00    -0.298 N 
ATOM     11  C   UNL d   1       7.839   0.714 -18.251  0.00  0.00     0.058 A 
ATOM     12  C   UNL d   1       9.770   2.192 -18.940  0.00  0.00     0.109 C 
ATOM     13  C   UNL d   1       7.191   0.953 -19.496  0.00  0.00    -0.006 A 
ATOM     14  C   UNL d   1       7.115   0.003 -17.252  0.00  0.00     0.017 A 
ATOM     15  C   UNL d   1       7.876   1.770 -20.587  0.00  0.00     0.030 C 
ATOM     16  C   UNL d   1       5.896   0.428 -19.721  0.00  0.00    -0.003 A 
ATOM     17  C   UNL d   1       9.392   1.855 -20.393  0.00  0.00     0.029 C 
ATOM     18  C   UNL d   1       5.224  -0.325 -18.740  0.00  0.00    -0.000 A 
ATOM     19  C   UNL d   1       5.848  -0.532 -17.495  0.00  0.00     0.002 A 
ENDBRANCH   7   8
ENDBRANCH   1   7
BRANCH   4  20
ATOM     20  C   UNL d   1       7.916   4.902 -12.060  0.00  0.00     0.277 C 
BRANCH  20  21
ATOM     21  C   UNL d   1       8.714   5.839 -11.169  0.00  0.00     0.011 A 
ATOM     22  C   UNL d   1       9.065   5.449  -9.859  0.00  0.00    -0.002 A 
ATOM     23  C   UNL d   1       9.815   6.317  -9.037  0.00  0.00     0.011 A 
ATOM     24  C   UNL d   1      10.210   7.577  -9.524  0.00  0.00     0.058 A 
ATOM     25  C   UNL d   1       9.854   7.971 -10.826  0.00  0.00     0.011 A 
ATOM     26 CL   UNL d   1      11.127   8.643  -8.518  0.00  0.00    -0.082 Cl
ATOM     27  C   UNL d   1       9.110   7.100 -11.653  0.00  0.00    -0.002 A 
ENDBRANCH  20  21
ENDBRANCH   4  20
TORSDOF 4
