REMARK  6 active torsions:
REMARK  status: ('A' for Active; 'I' for Inactive)
REMARK    1  A    between atoms: C_2  and  C_5 
REMARK    2  A    between atoms: C_9  and  N_10 
REMARK    3  A    between atoms: N_13  and  C_14 
REMARK    4  A    between atoms: C_14  and  C_15 
REMARK    5  A    between atoms: C_15  and  C_16 
REMARK    6  A    between atoms: C_16  and  C_17 
ROOT
ATOM      1  N   UNL d   1      10.411   1.284 -16.722  0.00  0.00    -0.344 N 
ATOM      2  C   UNL d   1      11.443   2.312 -16.805  0.00  0.00     0.137 C 
ATOM      3  C   UNL d   1      10.884   3.657 -16.303  0.00  0.00     0.274 C 
ATOM      4  N   UNL d   1      10.376   3.524 -14.931  0.00  0.00     0.141 N 
ATOM      5  C   UNL d   1       9.286   2.538 -14.932  0.00  0.00     0.274 C 
ATOM      6  C   UNL d   1       9.790   1.166 -15.403  0.00  0.00     0.137 C 
ENDROOT
BRANCH   4   7
ATOM      7  C   UNL d   1       9.875   4.819 -14.474  0.00  0.00     0.251 C 
BRANCH   7   8
ATOM      8  C   UNL d   1       9.687   4.850 -12.947  0.00  0.00     0.040 C 
BRANCH   8   9
ATOM      9  C   UNL d   1       9.092   6.173 -12.447  0.00  0.00     0.029 C 
BRANCH   9  10
ATOM     10  C   UNL d   1       9.240   6.347 -10.947  0.00  0.00    -0.021 A 
ATOM     11  C   UNL d   1       9.943   7.468 -10.439  0.00  0.00     0.017 A 
ATOM     12  C   UNL d   1      10.044   7.585  -9.046  0.00  0.00     0.101 A 
ATOM     13  C   UNL d   1       9.489   6.662  -8.190  0.00  0.00     0.102 A 
ATOM     14  N   UNL d   1      10.659   8.551  -8.249  0.00  0.00    -0.216 NA
ATOM     15  C   UNL d   1       8.785   5.541  -8.659  0.00  0.00     0.020 A 
ATOM     16  N   UNL d   1       9.786   7.103  -6.896  0.00  0.00    -0.216 NA
ATOM     17  C   UNL d   1       8.665   5.395 -10.060  0.00  0.00    -0.003 A 
ATOM     18  C   UNL d   1      10.499   8.261  -6.932  0.00  0.00     0.221 A 
ATOM     19  S   UNL d   1      11.063   9.146  -5.646  0.00  0.00    -0.037 SA
ENDBRANCH   9  10
ENDBRANCH   8   9
ENDBRANCH   7   8
ENDBRANCH   4   7
BRANCH   1  20
ATOM     20  C   UNL d   1      10.034   0.474 -17.814  0.00  0.00     0.056 A 
ATOM     21  C   UNL d   1       9.461  -0.798 -17.596  0.00  0.00     0.017 A 
ATOM     22  C   UNL d   1       9.064  -1.609 -18.672  0.00  0.00     0.001 A 
ATOM     23  C   UNL d   1       9.269  -1.182 -19.992  0.00  0.00     0.004 A 
ATOM     24  C   UNL d   1       9.868   0.070 -20.240  0.00  0.00     0.073 A 
ATOM     25  C   UNL d   1      10.224   0.901 -19.152  0.00  0.00     0.021 A 
BRANCH  24  26
ATOM     26  C   UNL d   1      10.110   0.530 -21.669  0.00  0.00     0.419 C 
ATOM     27  F   UNL d   1      11.032   1.492 -21.735  0.00  0.00    -0.166 F 
ATOM     28  F   UNL d   1       8.969   0.995 -22.171  0.00  0.00    -0.166 F 
ATOM     29  F   UNL d   1      10.527  -0.495 -22.413  0.00  0.00    -0.166 F 
ENDBRANCH  24  26
ENDBRANCH   1  20
TORSDOF 6
