REMARK  5 active torsions:
REMARK  status: ('A' for Active; 'I' for Inactive)
REMARK    1  A    between atoms: C_2  and  O_3 
REMARK    2  A    between atoms: O_3  and  C_4 
REMARK    3  A    between atoms: C_9  and  N_10 
REMARK    4  A    between atoms: N_13  and  C_14 
REMARK    5  A    between atoms: C_14  and  C_15 
ROOT
ATOM      1  N   UNL d   1       8.842   5.202 -11.858  0.00  0.00    -0.343 N 
ATOM      2  C   UNL d   1       8.097   6.444 -12.012  0.00  0.00     0.137 C 
ATOM      3  C   UNL d   1       8.987   7.648 -11.621  0.00  0.00     0.275 C 
ATOM      4  N   UNL d   1       9.482   7.473 -10.251  0.00  0.00     0.146 N 
ATOM      5  C   UNL d   1      10.283   6.261 -10.152  0.00  0.00     0.275 C 
ATOM      6  C   UNL d   1       9.459   5.013 -10.552  0.00  0.00     0.137 C 
ENDROOT
BRANCH   1   7
ATOM      7  C   UNL d   1       9.053   4.336 -12.934  0.00  0.00     0.079 A 
ATOM      8  C   UNL d   1       7.964   3.703 -13.595  0.00  0.00     0.109 A 
ATOM      9  C   UNL d   1       8.221   2.809 -14.649  0.00  0.00     0.026 A 
ATOM     10  C   UNL d   1       9.545   2.484 -15.015  0.00  0.00     0.002 A 
ATOM     11  C   UNL d   1      10.626   3.108 -14.355  0.00  0.00     0.002 A 
ATOM     12  C   UNL d   1      10.374   4.032 -13.335  0.00  0.00     0.019 A 
BRANCH   8  13
ATOM     13  O   UNL d   1       6.697   3.954 -13.093  0.00  0.00    -0.329 OA
BRANCH  13  14
ATOM     14  C   UNL d   1       5.612   3.184 -13.574  0.00  0.00     0.149 C 
ATOM     15  C   UNL d   1       5.617   1.696 -13.112  0.00  0.00     0.035 C 
ENDBRANCH  13  14
ENDBRANCH   8  13
ENDBRANCH   1   7
BRANCH   4  16
ATOM     16  C   UNL d   1      10.260   8.646  -9.845  0.00  0.00     0.283 C 
BRANCH  16  17
ATOM     17  C   UNL d   1      10.619   8.646  -8.394  0.00  0.00     0.041 A 
ATOM     18  S   UNL d   1       9.383   8.425  -7.177  0.00  0.00    -0.089 SA
ATOM     19  C   UNL d   1      10.547   8.654  -5.905  0.00  0.00     0.035 A 
ATOM     20  C   UNL d   1      11.807   8.839  -6.397  0.00  0.00     0.007 A 
ATOM     21  C   UNL d   1      11.859   8.790  -7.824  0.00  0.00     0.005 A 
ENDBRANCH  16  17
ENDBRANCH   4  16
TORSDOF 5
