REMARK  3 active torsions:
REMARK  status: ('A' for Active; 'I' for Inactive)
REMARK    1  A    between atoms: C_16  and  C_17 
REMARK       I    between atoms: C_17  and  N_19 
REMARK    2  A    between atoms: N_19  and  C_20 
REMARK    3  A    between atoms: C_20  and  C_21 
ROOT
ATOM      1  C   UNL d   1      10.076   6.855 -19.619  0.00  0.00     0.134 C 
ATOM      2  N   UNL d   1      11.539   6.780 -19.437  0.00  0.00    -0.293 N 
ATOM      3  C   UNL d   1      12.290   7.702 -20.105  0.00  0.00     0.261 C 
ATOM      4  O   UNL d   1      11.793   8.500 -20.906  0.00  0.00    -0.267 OA
ATOM      5  C   UNL d   1      13.768   7.856 -19.827  0.00  0.00     0.065 A 
ATOM      6  C   UNL d   1      14.272   9.163 -19.622  0.00  0.00     0.005 A 
ATOM      7  C   UNL d   1      15.644   9.380 -19.413  0.00  0.00     0.000 A 
ATOM      8  C   UNL d   1      16.535   8.294 -19.434  0.00  0.00     0.001 A 
ATOM      9  C   UNL d   1      16.056   6.991 -19.666  0.00  0.00     0.009 A 
ATOM     10  C   UNL d   1      14.677   6.776 -19.870  0.00  0.00     0.065 A 
ATOM     11  S   UNL d   1      14.089   5.092 -20.179  0.00  0.00     0.090 S 
ATOM     12  O   UNL d   1      15.298   4.189 -19.971  0.00  0.00    -0.247 OA
ATOM     13  C   UNL d   1      13.150   5.019 -18.636  0.00  0.00     0.076 A 
ATOM     14  C   UNL d   1      13.541   4.092 -17.639  0.00  0.00     0.011 A 
ATOM     15  C   UNL d   1      12.806   4.004 -16.442  0.00  0.00     0.005 A 
ATOM     16  C   UNL d   1      11.687   4.832 -16.235  0.00  0.00     0.059 A 
ATOM     17  C   UNL d   1      11.326   5.766 -17.222  0.00  0.00     0.023 A 
ATOM     18  C   UNL d   1      12.039   5.871 -18.439  0.00  0.00     0.071 A 
ENDROOT
BRANCH  16  19
ATOM     19  C   UNL d   1      10.897   4.750 -14.966  0.00  0.00     0.275 C 
ATOM     20  O   UNL d   1      11.460   4.666 -13.879  0.00  0.00    -0.266 OA
ATOM     21  N   UNL d   1       9.562   4.733 -15.120  0.00  0.00    -0.229 NA
BRANCH  21  22
ATOM     22  C   UNL d   1       8.605   4.534 -14.035  0.00  0.00     0.157 C 
BRANCH  22  23
ATOM     23  C   UNL d   1       7.891   3.189 -14.082  0.00  0.00     0.021 A 
ATOM     24  C   UNL d   1       6.552   3.089 -13.641  0.00  0.00     0.097 A 
ATOM     25  N   UNL d   1       5.862   1.930 -13.627  0.00  0.00    -0.243 NA
ATOM     26  C   UNL d   1       6.481   0.812 -14.049  0.00  0.00     0.099 A 
ATOM     27  C   UNL d   1       7.811   0.797 -14.508  0.00  0.00     0.020 A 
ATOM     28  C   UNL d   1       8.531   2.009 -14.522  0.00  0.00     0.001 A 
ENDBRANCH  22  23
ENDBRANCH  21  22
ENDBRANCH  16  19
TORSDOF 3
