REMARK  6 active torsions:
REMARK  status: ('A' for Active; 'I' for Inactive)
REMARK       I    between atoms: C_2  and  N_3 
REMARK    1  A    between atoms: C_2  and  C_27 
REMARK    2  A    between atoms: N_3  and  C_4 
REMARK    3  A    between atoms: C_4  and  C_5 
REMARK    4  A    between atoms: C_8  and  C_9 
REMARK    5  A    between atoms: C_9  and  N_10 
REMARK    6  A    between atoms: N_13  and  C_14 
ROOT
ATOM      1  C   UNL d   1       9.819   4.760 -12.037  0.00  0.00     0.250 C 
ENDROOT
BRANCH   1   2
ATOM      2  C   UNL d   1       9.408   5.816 -10.962  0.00  0.00     0.033 C 
ATOM      3  C   UNL d   1       9.400   5.147  -9.557  0.00  0.00     0.002 C 
ATOM      4  C   UNL d   1       8.989   6.140  -8.494  0.00  0.00     0.002 C 
ATOM      5  C   UNL d   1       9.822   7.437  -8.524  0.00  0.00     0.025 C 
ATOM      6  C   UNL d   1       9.922   8.073  -9.930  0.00  0.00     0.002 C 
ATOM      7  C   UNL d   1      10.337   7.037 -10.927  0.00  0.00     0.002 C 
BRANCH   5   8
ATOM      8  C   UNL d   1       9.267   8.479  -7.519  0.00  0.00     0.129 C 
BRANCH   8   9
ATOM      9  N   UNL d   1       9.905   8.275  -6.227  0.00  0.00    -0.233 NA
ATOM     10  C   UNL d   1      10.877   9.051  -5.729  0.00  0.00     0.298 C 
ATOM     11  O   UNL d   1      11.247  10.101  -6.242  0.00  0.00    -0.263 OA
BRANCH  10  12
ATOM     12  C   UNL d   1      11.463   8.582  -4.468  0.00  0.00     0.157 A 
ATOM     13  O   UNL d   1      11.641   7.247  -4.261  0.00  0.00    -0.300 OA
ATOM     14  C   UNL d   1      12.220   7.116  -3.034  0.00  0.00     0.123 A 
ATOM     15  C   UNL d   1      12.397   8.340  -2.452  0.00  0.00     0.029 A 
ATOM     16  C   UNL d   1      11.907   9.293  -3.390  0.00  0.00     0.032 A 
ENDBRANCH  10  12
ENDBRANCH   8   9
ENDBRANCH   5   8
ENDBRANCH   1   2
BRANCH   1  17
ATOM     17  N   UNL d   1       8.815   4.457 -13.026  0.00  0.00     0.141 N 
ATOM     18  C   UNL d   1       9.313   3.250 -13.705  0.00  0.00     0.274 C 
ATOM     19  C   UNL d   1       8.336   2.825 -14.797  0.00  0.00     0.138 C 
ATOM     20  N   UNL d   1       6.992   2.663 -14.254  0.00  0.00    -0.329 N 
ATOM     21  C   UNL d   1       6.495   3.786 -13.458  0.00  0.00     0.138 C 
ATOM     22  C   UNL d   1       7.527   4.175 -12.378  0.00  0.00     0.274 C 
BRANCH  20  23
ATOM     23  C   UNL d   1       6.261   1.496 -14.447  0.00  0.00     0.148 A 
ATOM     24  C   UNL d   1       6.266   0.736 -15.680  0.00  0.00     0.042 A 
ATOM     25  C   UNL d   1       5.308  -0.327 -15.604  0.00  0.00     0.050 A 
ATOM     26  C   UNL d   1       6.959   0.838 -16.919  0.00  0.00     0.004 A 
ATOM     27  S   UNL d   1       4.468  -0.182 -14.061  0.00  0.00     0.015 SA
ATOM     28  C   UNL d   1       5.085  -1.243 -16.639  0.00  0.00     0.008 A 
ATOM     29  N   UNL d   1       5.418   1.089 -13.506  0.00  0.00    -0.192 NA
ATOM     30  C   UNL d   1       5.849  -1.141 -17.826  0.00  0.00     0.001 A 
ATOM     31  C   UNL d   1       6.772  -0.095 -17.951  0.00  0.00     0.000 A 
ENDBRANCH  20  23
ENDBRANCH   1  17
TORSDOF 6
