REMARK  5 active torsions:
REMARK  status: ('A' for Active; 'I' for Inactive)
REMARK    1  A    between atoms: C_9  and  N_10 
REMARK    2  A    between atoms: N_13  and  C_14 
REMARK    3  A    between atoms: C_14  and  C_15 
REMARK    4  A    between atoms: C_15  and  C_16 
REMARK    5  A    between atoms: C_16  and  C_17 
ROOT
ATOM      1  N   UNL d   1       8.909   5.155 -11.588  0.00  0.00    -0.343 N 
ATOM      2  C   UNL d   1       9.697   6.111 -12.297  0.00  0.00     0.137 C 
ATOM      3  C   UNL d   1       9.661   7.447 -11.515  0.00  0.00     0.274 C 
ATOM      4  N   UNL d   1      10.152   7.254 -10.141  0.00  0.00     0.141 N 
ATOM      5  C   UNL d   1       9.264   6.299  -9.472  0.00  0.00     0.274 C 
ATOM      6  C   UNL d   1       9.231   4.951 -10.184  0.00  0.00     0.137 C 
ENDROOT
BRANCH   4   7
ATOM      7  C   UNL d   1      10.099   8.546  -9.459  0.00  0.00     0.251 C 
BRANCH   7   8
ATOM      8  C   UNL d   1      10.911   8.538  -8.150  0.00  0.00     0.040 C 
BRANCH   8   9
ATOM      9  C   UNL d   1      10.065   8.270  -6.892  0.00  0.00     0.030 C 
BRANCH   9  10
ATOM     10  C   UNL d   1      10.679   8.841  -5.668  0.00  0.00    -0.002 A 
ATOM     11  C   UNL d   1      11.342   8.134  -4.616  0.00  0.00     0.017 A 
ATOM     12  C   UNL d   1      11.658   9.055  -3.584  0.00  0.00     0.108 A 
ATOM     13  C   UNL d   1      11.609   6.772  -4.357  0.00  0.00     0.001 A 
ATOM     14  N   UNL d   1      11.195  10.266  -4.029  0.00  0.00    -0.242 NA
ATOM     15  C   UNL d   1      12.233   8.670  -2.366  0.00  0.00     0.158 A 
ATOM     16  C   UNL d   1      10.674  10.160  -5.301  0.00  0.00     0.095 A 
ATOM     17  F   UNL d   1      12.386   9.529  -1.348  0.00  0.00    -0.203 F 
ATOM     18  C   UNL d   1      12.552   7.328  -2.169  0.00  0.00     0.031 A 
ATOM     19  C   UNL d   1      12.242   6.385  -3.157  0.00  0.00     0.002 A 
ENDBRANCH   9  10
ENDBRANCH   8   9
ENDBRANCH   7   8
ENDBRANCH   4   7
BRANCH   1  20
ATOM     20  C   UNL d   1       7.990   4.397 -12.304  0.00  0.00     0.080 A 
ATOM     21  C   UNL d   1       8.359   3.618 -13.420  0.00  0.00     0.128 A 
ATOM     22  O   UNL d   1       9.674   3.521 -13.828  0.00  0.00    -0.321 OA
ATOM     23  C   UNL d   1       7.367   2.833 -14.066  0.00  0.00     0.108 A 
ATOM     24  C   UNL d   1       9.895   3.163 -15.194  0.00  0.00     0.202 C 
ATOM     25  C   UNL d   1      11.375   2.809 -15.331  0.00  0.00     0.043 C 
ATOM     26  C   UNL d   1       8.960   2.026 -15.675  0.00  0.00     0.283 C 
ATOM     27  N   UNL d   1       7.740   1.985 -15.120  0.00  0.00    -0.208 NA
ATOM     28  O   UNL d   1       9.299   1.233 -16.549  0.00  0.00    -0.268 OA
ATOM     29  C   UNL d   1       6.046   2.847 -13.600  0.00  0.00     0.021 A 
ATOM     30  C   UNL d   1       5.686   3.672 -12.539  0.00  0.00     0.003 A 
ATOM     31  C   UNL d   1       6.662   4.447 -11.886  0.00  0.00     0.019 A 
ENDBRANCH   1  20
TORSDOF 5
