REMARK  6 active torsions:
REMARK  status: ('A' for Active; 'I' for Inactive)
REMARK    1  A    between atoms: O_2  and  C_3 
REMARK    2  A    between atoms: C_7  and  C_8 
REMARK       I    between atoms: C_8  and  N_10 
REMARK    3  A    between atoms: N_10  and  C_11 
REMARK    4  A    between atoms: C_11  and  C_12 
REMARK    5  A    between atoms: C_12  and  N_13 
REMARK    6  A    between atoms: N_16  and  C_17 
ROOT
ATOM      1  N   UNL d   1       9.540   7.066  -9.616  0.00  0.00     0.143 N 
ATOM      2  C   UNL d   1       8.889   6.564  -8.404  0.00  0.00     0.274 C 
ATOM      3  C   UNL d   1       8.877   7.654  -7.321  0.00  0.00     0.137 C 
ATOM      4  N   UNL d   1      10.230   8.132  -7.090  0.00  0.00    -0.344 N 
ATOM      5  C   UNL d   1      10.976   8.550  -8.261  0.00  0.00     0.137 C 
ATOM      6  C   UNL d   1      10.926   7.436  -9.325  0.00  0.00     0.274 C 
ENDROOT
BRANCH   1   7
ATOM      7  C   UNL d   1       9.519   6.035 -10.641  0.00  0.00     0.277 C 
BRANCH   7   8
ATOM      8  C   UNL d   1       8.170   5.964 -11.392  0.00  0.00     0.164 C 
BRANCH   8   9
ATOM      9  N   UNL d   1       8.120   4.864 -12.348  0.00  0.00    -0.232 NA
ATOM     10  C   UNL d   1       9.030   4.581 -13.286  0.00  0.00     0.275 C 
ATOM     11  O   UNL d   1      10.061   5.230 -13.458  0.00  0.00    -0.266 OA
BRANCH  10  12
ATOM     12  C   UNL d   1       8.743   3.366 -14.119  0.00  0.00     0.059 A 
ATOM     13  C   UNL d   1       7.455   2.772 -14.186  0.00  0.00     0.005 A 
ATOM     14  C   UNL d   1       7.260   1.642 -15.009  0.00  0.00     0.002 A 
ATOM     15  C   UNL d   1       8.323   1.122 -15.777  0.00  0.00     0.024 A 
ATOM     16  C   UNL d   1       9.605   1.712 -15.724  0.00  0.00     0.094 A 
ATOM     17  C   UNL d   1       9.798   2.831 -14.886  0.00  0.00     0.029 A 
BRANCH  16  18
ATOM     18  O   UNL d   1      10.606   1.181 -16.511  0.00  0.00    -0.328 OA
ATOM     19  C   UNL d   1      11.862   1.857 -16.512  0.00  0.00     0.181 C 
ENDBRANCH  16  18
ENDBRANCH  10  12
ENDBRANCH   8   9
ENDBRANCH   7   8
ENDBRANCH   1   7
BRANCH   4  20
ATOM     20  C   UNL d   1      10.800   8.176  -5.820  0.00  0.00     0.056 A 
ATOM     21  C   UNL d   1      11.076   9.424  -5.224  0.00  0.00     0.018 A 
ATOM     22  C   UNL d   1      11.645   9.474  -3.938  0.00  0.00     0.013 A 
ATOM     23  C   UNL d   1      11.960   8.290  -3.256  0.00  0.00     0.058 A 
ATOM     24  C   UNL d   1      11.691   7.042  -3.842  0.00  0.00     0.013 A 
ATOM     25 CL   UNL d   1      12.650   8.385  -1.684  0.00  0.00    -0.082 Cl
ATOM     26  C   UNL d   1      11.101   6.984  -5.121  0.00  0.00     0.018 A 
ENDBRANCH   4  20
TORSDOF 6
