REMARK  7 active torsions:
REMARK  status: ('A' for Active; 'I' for Inactive)
REMARK    1  A    between atoms: S_2  and  N_4 
REMARK    2  A    between atoms: S_2  and  C_28 
REMARK    3  A    between atoms: N_4  and  C_5 
REMARK    4  A    between atoms: C_8  and  C_9 
REMARK    5  A    between atoms: C_9  and  C_10 
REMARK    6  A    between atoms: C_10  and  N_11 
REMARK    7  A    between atoms: C_14  and  C_15 
ROOT
ATOM      1  C   UNL d   1       8.914   4.778 -11.081  0.00  0.00     0.035 C 
ENDROOT
BRANCH   1   2
ATOM      2  C   UNL d   1       8.894   5.909 -10.044  0.00  0.00     0.002 C 
ATOM      3  C   UNL d   1       9.023   5.322  -8.618  0.00  0.00     0.002 C 
ATOM      4  C   UNL d   1       8.996   6.418  -7.551  0.00  0.00     0.025 C 
ATOM      5  C   UNL d   1      10.088   7.467  -7.812  0.00  0.00     0.116 C 
ATOM      6  C   UNL d   1       9.983   8.055  -9.225  0.00  0.00     0.025 C 
ATOM      7  C   UNL d   1      10.008   6.950 -10.281  0.00  0.00     0.002 C 
BRANCH   5   8
ATOM      8  N   UNL d   1       9.989   8.554  -6.837  0.00  0.00    -0.187 NA
BRANCH   8   9
ATOM      9  S   UNL d   1      11.406   9.380  -6.319  0.00  0.00     0.281 S 
ATOM     10  O   UNL d   1      12.487   9.016  -7.246  0.00  0.00    -0.199 OA
ATOM     11  O   UNL d   1      11.053  10.785  -6.083  0.00  0.00    -0.199 OA
BRANCH   9  12
ATOM     12  C   UNL d   1      11.738   8.626  -4.736  0.00  0.00     0.105 A 
ATOM     13  C   UNL d   1      11.856   9.444  -3.596  0.00  0.00     0.013 A 
ATOM     14  C   UNL d   1      12.147   8.876  -2.346  0.00  0.00     0.001 A 
ATOM     15  C   UNL d   1      12.264   7.482  -2.223  0.00  0.00     0.000 A 
ATOM     16  C   UNL d   1      12.119   6.662  -3.355  0.00  0.00     0.001 A 
ATOM     17  C   UNL d   1      11.852   7.226  -4.617  0.00  0.00     0.013 A 
ENDBRANCH   9  12
ENDBRANCH   8   9
ENDBRANCH   5   8
ENDBRANCH   1   2
BRANCH   1  18
ATOM     18  C   UNL d   1       8.994   5.247 -12.554  0.00  0.00     0.250 C 
BRANCH  18  19
ATOM     19  N   UNL d   1       9.086   4.149 -13.514  0.00  0.00     0.137 N 
ATOM     20  C   UNL d   1       9.161   4.717 -14.865  0.00  0.00     0.251 C 
ATOM     21  C   UNL d   1       9.190   3.589 -15.909  0.00  0.00     0.040 C 
ATOM     22  C   UNL d   1      10.377   2.642 -15.679  0.00  0.00     0.028 C 
ATOM     23  C   UNL d   1      10.375   2.173 -14.224  0.00  0.00     0.040 C 
ATOM     24  C   UNL d   1      10.291   3.354 -13.267  0.00  0.00     0.251 C 
BRANCH  22  25
ATOM     25  C   UNL d   1      10.344   1.458 -16.631  0.00  0.00     0.002 A 
ATOM     26  C   UNL d   1      11.382   1.230 -17.552  0.00  0.00     0.115 A 
ATOM     27  C   UNL d   1      11.363   0.158 -18.419  0.00  0.00     0.119 A 
ATOM     28  O   UNL d   1      12.504   1.965 -17.763  0.00  0.00    -0.300 OA
ATOM     29  C   UNL d   1      10.301  -0.763 -18.428  0.00  0.00     0.026 A 
ATOM     30  O   UNL d   1      12.472   0.183 -19.198  0.00  0.00    -0.300 OA
ATOM     31  C   UNL d   1       9.242  -0.556 -17.517  0.00  0.00     0.002 A 
ATOM     32  C   UNL d   1       9.267   0.535 -16.619  0.00  0.00    -0.002 A 
ATOM     33  C   UNL d   1      13.194   1.320 -18.800  0.00  0.00     0.304 A 
ENDBRANCH  22  25
ENDBRANCH  18  19
ENDBRANCH   1  18
TORSDOF 7
