REMARK  6 active torsions:
REMARK  status: ('A' for Active; 'I' for Inactive)
REMARK    1  A    between atoms: C_6  and  C_7 
REMARK    2  A    between atoms: C_10  and  S_11 
REMARK    3  A    between atoms: S_11  and  C_12 
REMARK    4  A    between atoms: C_12  and  C_13 
REMARK    5  A    between atoms: C_13  and  C_14 
REMARK    6  A    between atoms: C_14  and  N_15 
ROOT
ATOM      1  C   UNL d   1      11.332   2.584 -17.524  0.00  0.00     0.047 C 
ENDROOT
BRANCH   1   2
ATOM      2  C   UNL d   1      12.054   2.838 -18.852  0.00  0.00     0.067 C 
BRANCH   2   3
ATOM      3  S   UNL d   1      13.848   2.818 -18.626  0.00  0.00    -0.075 SA
BRANCH   3   4
ATOM      4  C   UNL d   1      14.029   4.467 -18.045  0.00  0.00     0.193 A 
ATOM      5  N   UNL d   1      13.704   4.888 -16.817  0.00  0.00    -0.122 NA
ATOM      6  N   UNL d   1      13.995   6.231 -16.812  0.00  0.00    -0.126 NA
ATOM      7  C   UNL d   1      14.512   6.509 -18.024  0.00  0.00     0.191 A 
ATOM      8  N   UNL d   1      14.526   5.429 -18.836  0.00  0.00    -0.287 N 
ATOM      9  C   UNL d   1      14.980   5.302 -20.222  0.00  0.00     0.134 C 
BRANCH   7  10
ATOM     10  C   UNL d   1      14.957   7.852 -18.361  0.00  0.00     0.151 A 
ATOM     11  C   UNL d   1      16.079   8.370 -18.995  0.00  0.00     0.087 A 
ATOM     12  C   UNL d   1      17.285   7.696 -19.571  0.00  0.00     0.054 C 
ATOM     13  N   UNL d   1      15.945   9.749 -19.036  0.00  0.00    -0.221 NA
ATOM     14  C   UNL d   1      14.784  10.000 -18.440  0.00  0.00     0.225 A 
ATOM     15  O   UNL d   1      14.143   8.890 -17.999  0.00  0.00    -0.282 OA
ENDBRANCH   7  10
ENDBRANCH   3   4
ENDBRANCH   2   3
ENDBRANCH   1   2
BRANCH   1  16
ATOM     16  C   UNL d   1       9.802   2.512 -17.699  0.00  0.00     0.251 C 
BRANCH  16  17
ATOM     17  N   UNL d   1       9.139   2.054 -16.480  0.00  0.00     0.137 N 
ATOM     18  C   UNL d   1       7.711   1.865 -16.717  0.00  0.00     0.254 C 
ATOM     19  C   UNL d   1       7.247   1.016 -15.504  0.00  0.00     0.057 C 
ATOM     20  C   UNL d   1       8.512   0.252 -15.090  0.00  0.00     0.042 C 
ATOM     21  C   UNL d   1       6.116   0.048 -15.871  0.00  0.00     0.002 A 
ATOM     22  C   UNL d   1       6.781   1.959 -14.381  0.00  0.00     0.039 C 
ATOM     23  C   UNL d   1       9.574   0.722 -16.070  0.00  0.00     0.251 C 
ATOM     24  C   UNL d   1       5.018  -0.132 -14.998  0.00  0.00     0.090 A 
ATOM     25  C   UNL d   1       6.188  -0.705 -17.067  0.00  0.00    -0.002 A 
ATOM     26  O   UNL d   1       4.894   0.509 -13.788  0.00  0.00    -0.331 OA
ATOM     27  C   UNL d   1       3.959  -1.005 -15.374  0.00  0.00     0.024 A 
ATOM     28  C   UNL d   1       6.048   1.153 -13.292  0.00  0.00     0.149 C 
ATOM     29  C   UNL d   1       4.029  -1.710 -16.587  0.00  0.00     0.002 A 
ATOM     30  C   UNL d   1       5.141  -1.579 -17.430  0.00  0.00    -0.000 A 
ENDBRANCH  16  17
ENDBRANCH   1  16
TORSDOF 6
