REMARK  7 active torsions:
REMARK  status: ('A' for Active; 'I' for Inactive)
REMARK    1  A    between atoms: C_3  and  N_4 
REMARK       I    between atoms: N_4  and  C_5 
REMARK    2  A    between atoms: C_5  and  C_7 
REMARK    3  A    between atoms: C_7  and  C_16 
REMARK    4  A    between atoms: N_8  and  O_9 
REMARK    5  A    between atoms: O_9  and  C_10 
REMARK    6  A    between atoms: C_10  and  C_13 
REMARK    7  A    between atoms: N_24  and  S_25 
ROOT
ATOM      1  C   UNL d   1       9.635   3.783 -14.886  0.00  0.00     0.183 C 
ATOM      2  N   UNL d   1      10.644   4.481 -15.197  0.00  0.00    -0.124 NA
ENDROOT
BRANCH   1   3
ATOM      3  C   UNL d   1       9.208   2.489 -15.604  0.00  0.00     0.297 C 
ATOM      4  N   UNL d   1       8.112   1.943 -15.062  0.00  0.00    -0.223 NA
ATOM      5  O   UNL d   1       9.858   1.954 -16.516  0.00  0.00    -0.264 OA
BRANCH   4   6
ATOM      6  C   UNL d   1       7.818   0.542 -15.110  0.00  0.00     0.207 A 
ATOM      7  C   UNL d   1       6.415   0.208 -14.562  0.00  0.00     0.134 A 
ATOM      8  C   UNL d   1       6.326  -0.831 -13.459  0.00  0.00     0.028 C 
ATOM      9  N   UNL d   1       6.130  -0.364 -15.898  0.00  0.00    -0.207 N 
ATOM     10  C   UNL d   1       7.330   0.010 -16.461  0.00  0.00     0.273 A 
ATOM     11  O   UNL d   1       7.753  -0.105 -17.593  0.00  0.00    -0.269 OA
BRANCH   9  12
ATOM     12  S   UNL d   1       4.688  -0.964 -16.470  0.00  0.00     0.214 S 
ATOM     13  O   UNL d   1       3.646  -0.732 -15.434  0.00  0.00    -0.578 OA
ATOM     14  O   UNL d   1       4.490  -0.441 -17.812  0.00  0.00    -0.578 OA
ATOM     15  O   UNL d   1       4.849  -2.640 -16.636  0.00  0.00    -0.578 OA
ENDBRANCH   9  12
ENDBRANCH   4   6
ENDBRANCH   1   3
BRANCH   1  16
ATOM     16  C   UNL d   1       8.807   4.223 -13.697  0.00  0.00     0.115 A 
ATOM     17  N   UNL d   1       9.358   4.775 -12.518  0.00  0.00    -0.217 NA
ATOM     18  C   UNL d   1       8.449   5.046 -11.572  0.00  0.00     0.215 A 
ATOM     19  S   UNL d   1       6.814   4.695 -12.063  0.00  0.00    -0.045 SA
ATOM     20  N   UNL d   1       8.711   5.518 -10.303  0.00  0.00    -0.120 N 
ATOM     21  C   UNL d   1       7.420   4.186 -13.612  0.00  0.00     0.059 A 
ENDBRANCH   1  16
BRANCH   2  22
ATOM     22  O   UNL d   1      11.382   4.037 -16.323  0.00  0.00    -0.231 OA
BRANCH  22  23
ATOM     23  C   UNL d   1      11.807   5.124 -17.169  0.00  0.00     0.199 C 
ATOM     24  C   UNL d   1      12.485   6.259 -16.369  0.00  0.00     0.044 C 
ATOM     25  C   UNL d   1      12.864   4.478 -18.090  0.00  0.00     0.044 C 
BRANCH  23  26
ATOM     26  C   UNL d   1      10.648   5.670 -18.054  0.00  0.00     0.213 C 
ATOM     27  O   UNL d   1      10.829   6.106 -19.192  0.00  0.00    -0.646 OA
ATOM     28  O   UNL d   1       9.428   5.633 -17.449  0.00  0.00    -0.646 OA
ENDBRANCH  23  26
ENDBRANCH  22  23
ENDBRANCH   2  22
TORSDOF 7
