REMARK  6 active torsions:
REMARK  status: ('A' for Active; 'I' for Inactive)
REMARK    1  A    between atoms: C_4  and  C_5 
REMARK       I    between atoms: C_5  and  N_7 
REMARK    2  A    between atoms: N_7  and  C_8 
REMARK    3  A    between atoms: C_11  and  C_12 
REMARK    4  A    between atoms: C_12  and  C_13 
REMARK    5  A    between atoms: C_13  and  N_14 
REMARK    6  A    between atoms: C_17  and  C_18 
ROOT
ATOM      1  N   UNL d   1       9.700   6.874  -9.883  0.00  0.00     0.137 N 
ATOM      2  C   UNL d   1      11.015   7.508  -9.961  0.00  0.00     0.251 C 
ATOM      3  C   UNL d   1      11.239   8.332  -8.697  0.00  0.00     0.040 C 
ATOM      4  C   UNL d   1      11.122   7.486  -7.409  0.00  0.00     0.026 C 
ATOM      5  C   UNL d   1       9.807   6.708  -7.439  0.00  0.00     0.040 C 
ATOM      6  C   UNL d   1       9.644   5.946  -8.752  0.00  0.00     0.251 C 
ENDROOT
BRANCH   1   7
ATOM      7  C   UNL d   1       9.420   6.236 -11.158  0.00  0.00     0.250 C 
BRANCH   7   8
ATOM      8  C   UNL d   1       8.099   5.450 -11.185  0.00  0.00     0.035 C 
BRANCH   8   9
ATOM      9  C   UNL d   1       7.780   4.844 -12.557  0.00  0.00     0.002 C 
ATOM     10  C   UNL d   1       8.968   4.022 -13.103  0.00  0.00     0.002 C 
ATOM     11  C   UNL d   1       8.650   3.365 -14.441  0.00  0.00     0.024 C 
ATOM     12  C   UNL d   1       7.393   2.478 -14.348  0.00  0.00     0.107 C 
ATOM     13  C   UNL d   1       6.193   3.267 -13.775  0.00  0.00     0.024 C 
ATOM     14  C   UNL d   1       6.518   3.963 -12.445  0.00  0.00     0.002 C 
BRANCH  12  15
ATOM     15  N   UNL d   1       7.052   1.940 -15.647  0.00  0.00    -0.236 NA
ATOM     16  C   UNL d   1       7.726   0.971 -16.275  0.00  0.00     0.274 C 
ATOM     17  O   UNL d   1       8.756   0.478 -15.812  0.00  0.00    -0.266 OA
BRANCH  16  18
ATOM     18  C   UNL d   1       7.065   0.638 -17.526  0.00  0.00     0.054 C 
ATOM     19  C   UNL d   1       7.509  -0.235 -18.458  0.00  0.00    -0.039 C 
ATOM     20  C   UNL d   1       8.774  -1.078 -18.390  0.00  0.00     0.026 C 
ATOM     21  C   UNL d   1       6.732  -0.417 -19.748  0.00  0.00     0.026 C 
ENDBRANCH  16  18
ENDBRANCH  12  15
ENDBRANCH   8   9
ENDBRANCH   7   8
ENDBRANCH   1   7
BRANCH   4  22
ATOM     22  C   UNL d   1      11.225   8.321  -6.131  0.00  0.00    -0.024 A 
ATOM     23  C   UNL d   1      11.521   7.746  -4.879  0.00  0.00    -0.001 A 
ATOM     24  C   UNL d   1      11.633   8.499  -3.715  0.00  0.00     0.090 A 
ATOM     25  C   UNL d   1      11.799   6.326  -4.547  0.00  0.00     0.061 A 
ATOM     26  C   UNL d   1      11.396   9.872  -3.736  0.00  0.00     0.024 A 
ATOM     27  O   UNL d   1      11.940   7.757  -2.615  0.00  0.00    -0.331 OA
ATOM     28  C   UNL d   1      11.058  10.464  -4.965  0.00  0.00     0.002 A 
ATOM     29  C   UNL d   1      10.998   9.710  -6.155  0.00  0.00    -0.004 A 
ATOM     30  C   UNL d   1      12.120   6.401  -3.037  0.00  0.00     0.154 A 
ENDBRANCH   4  22
TORSDOF 6
