REMARK  5 active torsions:
REMARK  status: ('A' for Active; 'I' for Inactive)
REMARK    1  A    between atoms: N_3  and  C_4 
REMARK    2  A    between atoms: C_4  and  C_5 
REMARK    3  A    between atoms: C_5  and  C_6 
REMARK    4  A    between atoms: C_6  and  N_7 
REMARK    5  A    between atoms: N_16  and  C_17 
ROOT
ATOM      1  O   UNL d   1      10.391   8.245 -10.112  0.00  0.00    -0.246 OA
ATOM      2  C   UNL d   1       9.861   7.337  -9.471  0.00  0.00     0.335 A 
ATOM      3  N   UNL d   1       9.107   6.347  -9.999  0.00  0.00    -0.278 N 
ATOM      4  C   UNL d   1       8.669   5.511  -8.997  0.00  0.00     0.099 A 
ATOM      5  C   UNL d   1       9.152   5.993  -7.857  0.00  0.00     0.103 A 
ATOM      6  N   UNL d   1       9.911   7.126  -8.128  0.00  0.00    -0.258 N 
ENDROOT
BRANCH   3   7
ATOM      7  C   UNL d   1       8.699   6.186 -11.386  0.00  0.00     0.113 C 
BRANCH   7   8
ATOM      8  C   UNL d   1       9.619   5.183 -12.096  0.00  0.00     0.060 C 
BRANCH   8   9
ATOM      9  C   UNL d   1       9.234   4.992 -13.568  0.00  0.00     0.252 C 
BRANCH   9  10
ATOM     10  N   UNL d   1      10.114   4.020 -14.220  0.00  0.00     0.137 N 
ATOM     11  C   UNL d   1       9.566   2.678 -13.991  0.00  0.00     0.250 C 
ATOM     12  C   UNL d   1      10.425   1.515 -14.526  0.00  0.00     0.035 C 
ATOM     13  C   UNL d   1      10.289   1.308 -16.043  0.00  0.00     0.002 C 
ATOM     14  C   UNL d   1      11.160   2.241 -16.897  0.00  0.00     0.002 C 
ATOM     15  C   UNL d   1      11.436   3.628 -16.291  0.00  0.00     0.035 C 
ATOM     16  C   UNL d   1      10.218   4.319 -15.650  0.00  0.00     0.250 C 
ENDBRANCH   9  10
ENDBRANCH   8   9
ENDBRANCH   7   8
ENDBRANCH   3   7
BRANCH   6  17
ATOM     17  C   UNL d   1      10.598   7.880  -7.113  0.00  0.00     0.069 A 
ATOM     18  C   UNL d   1      10.839   7.331  -5.823  0.00  0.00     0.029 A 
ATOM     19  C   UNL d   1      11.533   8.062  -4.838  0.00  0.00     0.059 A 
ATOM     20  C   UNL d   1      11.997   9.361  -5.112  0.00  0.00     0.011 A 
ATOM     21 CL   UNL d   1      11.864   7.351  -3.298  0.00  0.00    -0.082 Cl
ATOM     22  C   UNL d   1      11.754   9.926  -6.377  0.00  0.00     0.002 A 
ATOM     23  C   UNL d   1      11.061   9.194  -7.361  0.00  0.00     0.018 A 
ENDBRANCH   6  17
TORSDOF 5
