REMARK  2 active torsions:
REMARK  status: ('A' for Active; 'I' for Inactive)
REMARK    1  A    between atoms: C_3  and  N_4 
REMARK    2  A    between atoms: N_4  and  C_5 
ROOT
ATOM      1 BR   UNL d   1      11.425   8.857 -10.256  0.00  0.00    -0.046 Br
ATOM      2  C   UNL d   1      10.534   7.910  -8.894  0.00  0.00     0.072 A 
ATOM      3  C   UNL d   1       9.538   6.970  -9.220  0.00  0.00     0.108 A 
ATOM      4  C   UNL d   1       8.878   6.283  -8.188  0.00  0.00     0.022 A 
ATOM      5  C   UNL d   1       9.261   6.527  -6.858  0.00  0.00     0.022 A 
ATOM      6  C   UNL d   1      10.286   7.431  -6.521  0.00  0.00     0.100 A 
ATOM      7  N   UNL d   1      10.670   7.614  -5.243  0.00  0.00    -0.241 NA
ATOM      8  C   UNL d   1      11.621   8.529  -4.974  0.00  0.00     0.120 A 
ATOM      9  C   UNL d   1      12.206   9.289  -6.000  0.00  0.00     0.120 A 
ATOM     10  N   UNL d   1      11.843   9.108  -7.281  0.00  0.00    -0.240 NA
ATOM     11  C   UNL d   1      10.907   8.169  -7.563  0.00  0.00     0.107 A 
ENDROOT
BRANCH   3  12
ATOM     12  N   UNL d   1       9.067   6.848 -10.529  0.00  0.00    -0.059 NA
BRANCH  12  13
ATOM     13  C   UNL d   1       9.161   5.861 -11.486  0.00  0.00     0.742 A 
ATOM     14  N   UNL d   1       8.955   6.222 -12.793  0.00  0.00    -0.084 NA
ATOM     15  C   UNL d   1       9.057   5.031 -13.595  0.00  0.00     0.172 A 
ATOM     16  C   UNL d   1       9.509   3.987 -12.575  0.00  0.00     0.172 A 
ATOM     17  N   UNL d   1       9.454   4.636 -11.282  0.00  0.00    -0.084 NA
ENDBRANCH  12  13
ENDBRANCH   3  12
TORSDOF 2
