REMARK  7 active torsions:
REMARK  status: ('A' for Active; 'I' for Inactive)
REMARK       I    between atoms: C_2  and  N_3 
REMARK    1  A    between atoms: C_2  and  C_21 
REMARK    2  A    between atoms: N_3  and  C_4 
REMARK    3  A    between atoms: C_4  and  C_5 
REMARK    4  A    between atoms: C_5  and  C_6 
REMARK    5  A    between atoms: C_6  and  C_7 
REMARK    6  A    between atoms: C_7  and  N_8 
REMARK    7  A    between atoms: N_8  and  C_9 
ROOT
ATOM      1  C   UNL d   1       8.906   7.151 -12.040  0.00  0.00     0.028 C 
ENDROOT
BRANCH   1   2
ATOM      2  C   UNL d   1       9.465   7.164 -10.624  0.00  0.00     0.029 C 
BRANCH   2   3
ATOM      3  C   UNL d   1       9.860   8.550 -10.117  0.00  0.00     0.129 C 
BRANCH   3   4
ATOM      4  N   UNL d   1      10.152   8.588  -8.685  0.00  0.00    -0.233 NA
ATOM      5  C   UNL d   1      10.407   7.557  -7.865  0.00  0.00     0.293 C 
ATOM      6  O   UNL d   1      10.352   6.370  -8.197  0.00  0.00    -0.264 OA
BRANCH   5   7
ATOM      7  C   UNL d   1      10.819   7.929  -6.503  0.00  0.00     0.139 A 
ATOM      8  N   UNL d   1      11.139   6.901  -5.639  0.00  0.00    -0.241 NA
ATOM      9  C   UNL d   1      11.549   7.382  -4.425  0.00  0.00     0.082 A 
ATOM     10  C   UNL d   1      11.466   8.802  -4.530  0.00  0.00     0.019 A 
ATOM     11  C   UNL d   1      11.976   6.737  -3.251  0.00  0.00     0.019 A 
ATOM     12  C   UNL d   1      10.997   9.127  -5.851  0.00  0.00     0.025 A 
ATOM     13  C   UNL d   1      11.828   9.549  -3.390  0.00  0.00     0.002 A 
ATOM     14  C   UNL d   1      12.263   8.914  -2.211  0.00  0.00     0.000 A 
ATOM     15  C   UNL d   1      12.327   7.511  -2.137  0.00  0.00     0.002 A 
ENDBRANCH   5   7
ENDBRANCH   3   4
ENDBRANCH   2   3
ENDBRANCH   1   2
BRANCH   1  16
ATOM     16  C   UNL d   1       8.505   5.728 -12.422  0.00  0.00     0.120 C 
BRANCH  16  17
ATOM     17  N   UNL d   1       9.691   4.987 -12.831  0.00  0.00    -0.287 NA
BRANCH  17  18
ATOM     18  C   UNL d   1       9.453   3.605 -13.305  0.00  0.00     0.189 C 
ATOM     19  C   UNL d   1      10.578   3.159 -14.262  0.00  0.00     0.199 C 
ATOM     20  C   UNL d   1      10.212   2.102 -15.233  0.00  0.00     0.061 A 
ATOM     21  O   UNL d   1      11.707   3.652 -14.213  0.00  0.00    -0.289 OA
ATOM     22  C   UNL d   1       8.872   1.634 -15.300  0.00  0.00     0.097 A 
ATOM     23  C   UNL d   1      11.182   1.554 -16.098  0.00  0.00     0.032 A 
ATOM     24  O   UNL d   1       7.878   2.142 -14.507  0.00  0.00    -0.328 OA
ATOM     25  C   UNL d   1       8.530   0.607 -16.198  0.00  0.00     0.026 A 
ATOM     26  C   UNL d   1       8.096   3.459 -14.018  0.00  0.00     0.180 C 
ATOM     27  C   UNL d   1       9.504   0.057 -17.049  0.00  0.00     0.029 A 
ATOM     28  C   UNL d   1      10.826   0.535 -17.003  0.00  0.00     0.131 A 
ATOM     29  O   UNL d   1      11.769   0.005 -17.834  0.00  0.00    -0.190 OA
ENDBRANCH  17  18
ENDBRANCH  16  17
ENDBRANCH   1  16
TORSDOF 7
