REMARK  7 active torsions:
REMARK  status: ('A' for Active; 'I' for Inactive)
REMARK    1  A    between atoms: C_4  and  C_5 
REMARK    2  A    between atoms: N_13  and  C_14 
REMARK    3  A    between atoms: C_14  and  C_15 
REMARK    4  A    between atoms: C_15  and  C_16 
REMARK    5  A    between atoms: C_16  and  S_17 
REMARK    6  A    between atoms: S_17  and  C_18 
REMARK    7  A    between atoms: C_21  and  C_22 
ROOT
ATOM      1  C   UNL d   1      11.335   8.247  -6.294  0.00  0.00     0.020 A 
ATOM      2  C   UNL d   1      11.801   9.122  -7.290  0.00  0.00     0.001 A 
ATOM      3  C   UNL d   1      11.590   8.825  -8.644  0.00  0.00    -0.004 A 
ATOM      4  C   UNL d   1      10.897   7.656  -9.010  0.00  0.00    -0.024 A 
ATOM      5  C   UNL d   1      10.467   6.753  -8.025  0.00  0.00    -0.024 A 
ATOM      6  C   UNL d   1      10.692   7.050  -6.666  0.00  0.00    -0.003 A 
ATOM      7  C   UNL d   1       9.781   5.468  -8.442  0.00  0.00     0.061 C 
ATOM      8  C   UNL d   1       8.484   5.668  -9.214  0.00  0.00     0.255 C 
ATOM      9  N   UNL d   1       8.675   5.895 -10.644  0.00  0.00     0.138 N 
ATOM     10  C   UNL d   1       9.230   7.220 -10.924  0.00  0.00     0.255 C 
ATOM     11  C   UNL d   1      10.669   7.381 -10.473  0.00  0.00     0.061 C 
ENDROOT
BRANCH   9  12
ATOM     12  C   UNL d   1       7.366   5.798 -11.286  0.00  0.00     0.251 C 
BRANCH  12  13
ATOM     13  C   UNL d   1       7.029   4.334 -11.560  0.00  0.00     0.047 C 
BRANCH  13  14
ATOM     14  C   UNL d   1       5.686   4.192 -12.290  0.00  0.00     0.067 C 
BRANCH  14  15
ATOM     15  S   UNL d   1       5.294   2.473 -12.723  0.00  0.00    -0.075 SA
BRANCH  15  16
ATOM     16  C   UNL d   1       6.519   2.173 -13.949  0.00  0.00     0.193 A 
ATOM     17  N   UNL d   1       6.811   0.945 -14.415  0.00  0.00    -0.292 N 
ATOM     18  C   UNL d   1       7.860   1.235 -15.213  0.00  0.00     0.143 A 
ATOM     19  C   UNL d   1       6.180  -0.333 -14.124  0.00  0.00     0.134 C 
ATOM     20  N   UNL d   1       8.185   2.514 -15.273  0.00  0.00    -0.133 NA
ATOM     21  N   UNL d   1       7.298   3.133 -14.438  0.00  0.00    -0.122 NA
BRANCH  18  22
ATOM     22  C   UNL d   1       8.554   0.214 -16.061  0.00  0.00     0.059 C 
ATOM     23  C   UNL d   1       8.234   0.382 -17.547  0.00  0.00     0.007 C 
ATOM     24  C   UNL d   1       9.451  -0.217 -18.252  0.00  0.00     0.001 C 
ATOM     25  C   UNL d   1      10.633   0.184 -17.368  0.00  0.00     0.001 C 
ATOM     26  C   UNL d   1      10.087   0.253 -15.931  0.00  0.00     0.007 C 
ENDBRANCH  18  22
ENDBRANCH  15  16
ENDBRANCH  14  15
ENDBRANCH  13  14
ENDBRANCH  12  13
ENDBRANCH   9  12
BRANCH   1  27
ATOM     27  C   UNL d   1      11.561   8.573  -4.898  0.00  0.00     0.110 A 
ATOM     28  C   UNL d   1      12.143   7.765  -3.882  0.00  0.00     0.044 A 
ATOM     29  C   UNL d   1      12.156   8.583  -2.798  0.00  0.00     0.105 A 
ATOM     30  C   UNL d   1      12.593   8.386  -1.400  0.00  0.00     0.061 C 
ATOM     31  O   UNL d   1      11.597   9.781  -3.100  0.00  0.00    -0.215 OA
ATOM     32  N   UNL d   1      11.224   9.769  -4.444  0.00  0.00    -0.127 NA
ENDBRANCH   1  27
TORSDOF 7
