REMARK  6 active torsions:
REMARK  status: ('A' for Active; 'I' for Inactive)
REMARK       I    between atoms: C_2  and  N_3 
REMARK    1  A    between atoms: C_2  and  C_27 
REMARK    2  A    between atoms: N_3  and  C_4 
REMARK    3  A    between atoms: C_7  and  C_8 
REMARK    4  A    between atoms: C_8  and  C_9 
REMARK    5  A    between atoms: C_9  and  N_10 
REMARK    6  A    between atoms: N_13  and  C_14 
ROOT
ATOM      1  C   UNL d   1       9.069   4.920 -14.694  0.00  0.00     0.250 C 
ENDROOT
BRANCH   1   2
ATOM      2  C   UNL d   1       8.537   4.385 -13.344  0.00  0.00     0.035 C 
BRANCH   2   3
ATOM      3  C   UNL d   1       8.505   5.421 -12.183  0.00  0.00     0.002 C 
ATOM      4  C   UNL d   1       8.549   4.668 -10.835  0.00  0.00     0.002 C 
ATOM      5  C   UNL d   1       8.639   5.595  -9.618  0.00  0.00     0.024 C 
ATOM      6  C   UNL d   1       9.835   6.544  -9.732  0.00  0.00     0.106 C 
ATOM      7  C   UNL d   1       9.774   7.341 -11.039  0.00  0.00     0.024 C 
ATOM      8  C   UNL d   1       9.698   6.384 -12.236  0.00  0.00     0.002 C 
BRANCH   6   9
ATOM      9  N   UNL d   1       9.898   7.423  -8.582  0.00  0.00    -0.240 NA
ATOM     10  C   UNL d   1      11.002   8.077  -8.206  0.00  0.00     0.251 C 
ATOM     11  O   UNL d   1      12.031   8.106  -8.886  0.00  0.00    -0.271 OA
BRANCH  10  12
ATOM     12  C   UNL d   1      10.932   8.773  -6.849  0.00  0.00     0.083 C 
ATOM     13  C   UNL d   1      11.229   7.829  -5.674  0.00  0.00     0.026 C 
ATOM     14  C   UNL d   1      11.992   8.988  -5.013  0.00  0.00     0.081 C 
ATOM     15  C   UNL d   1      12.170   9.575  -6.418  0.00  0.00     0.026 C 
ATOM     16 CL   UNL d   1      11.085   9.980  -3.796  0.00  0.00    -0.115 Cl
ENDBRANCH  10  12
ENDBRANCH   6   9
ENDBRANCH   2   3
ENDBRANCH   1   2
BRANCH   1  17
ATOM     17  N   UNL d   1       9.438   3.882 -15.648  0.00  0.00     0.141 N 
ATOM     18  C   UNL d   1      10.674   3.200 -15.225  0.00  0.00     0.274 C 
ATOM     19  C   UNL d   1      11.016   2.080 -16.214  0.00  0.00     0.137 C 
ATOM     20  N   UNL d   1      11.112   2.624 -17.560  0.00  0.00    -0.343 N 
ATOM     21  C   UNL d   1      10.020   3.483 -17.997  0.00  0.00     0.137 C 
ATOM     22  C   UNL d   1       9.713   4.541 -16.936  0.00  0.00     0.274 C 
BRANCH  20  23
ATOM     23  C   UNL d   1      12.265   2.451 -18.328  0.00  0.00     0.081 A 
ATOM     24  C   UNL d   1      12.721   1.173 -18.668  0.00  0.00     0.135 A 
ATOM     25  C   UNL d   1      13.851   0.988 -19.448  0.00  0.00     0.121 A 
ATOM     26  O   UNL d   1      12.194  -0.043 -18.359  0.00  0.00    -0.298 OA
ATOM     27  C   UNL d   1      14.601   2.070 -19.928  0.00  0.00     0.026 A 
ATOM     28  O   UNL d   1      14.068  -0.334 -19.641  0.00  0.00    -0.299 OA
ATOM     29  C   UNL d   1      14.171   3.371 -19.592  0.00  0.00     0.004 A 
ATOM     30  C   UNL d   1      13.004   3.562 -18.800  0.00  0.00     0.019 A 
ATOM     31  C   UNL d   1      13.035  -0.993 -18.958  0.00  0.00     0.304 A 
ENDBRANCH  20  23
ENDBRANCH   1  17
TORSDOF 6
