REMARK  6 active torsions:
REMARK  status: ('A' for Active; 'I' for Inactive)
REMARK    1  A    between atoms: N_12  and  C_13 
REMARK    2  A    between atoms: C_13  and  C_14 
REMARK    3  A    between atoms: C_14  and  C_15 
REMARK    4  A    between atoms: C_15  and  C_16 
REMARK    5  A    between atoms: C_16  and  N_17 
REMARK    6  A    between atoms: N_20  and  C_21 
ROOT
ATOM      1  C   UNL d   1       8.892  -1.076 -18.807  0.00  0.00     0.037 C 
ENDROOT
BRANCH   1   2
ATOM      2  C   UNL d   1      10.083  -0.292 -19.365  0.00  0.00     0.026 C 
BRANCH   2   3
ATOM      3  C   UNL d   1      11.112   0.098 -18.261  0.00  0.00     0.104 C 
BRANCH   3   4
ATOM      4  N   UNL d   1      12.280   0.741 -18.856  0.00  0.00    -0.317 N 
ATOM      5  C   UNL d   1      13.216  -0.034 -19.447  0.00  0.00     0.257 C 
ATOM      6  O   UNL d   1      13.179  -1.263 -19.455  0.00  0.00    -0.267 OA
ATOM      7  C   UNL d   1      14.401   0.639 -20.076  0.00  0.00     0.052 A 
ATOM      8  C   UNL d   1      14.266   1.779 -20.908  0.00  0.00    -0.018 A 
ATOM      9  C   UNL d   1      15.671   0.063 -19.862  0.00  0.00     0.004 A 
ATOM     10  C   UNL d   1      15.414   2.342 -21.485  0.00  0.00    -0.004 A 
ATOM     11  C   UNL d   1      12.895   2.379 -21.214  0.00  0.00     0.029 C 
ATOM     12  C   UNL d   1      16.683   1.773 -21.259  0.00  0.00    -0.000 A 
ATOM     13  C   UNL d   1      16.806   0.636 -20.441  0.00  0.00     0.000 A 
ATOM     14  C   UNL d   1      12.197   2.990 -19.989  0.00  0.00     0.029 C 
ATOM     15  C   UNL d   1      12.393   2.200 -18.683  0.00  0.00     0.105 C 
ENDBRANCH   3   4
ENDBRANCH   2   3
ENDBRANCH   1   2
BRANCH   1  16
ATOM     16  C   UNL d   1       7.792  -0.203 -18.177  0.00  0.00     0.251 C 
BRANCH  16  17
ATOM     17  N   UNL d   1       8.260   0.436 -16.951  0.00  0.00     0.141 N 
ATOM     18  C   UNL d   1       8.470   1.878 -17.161  0.00  0.00     0.274 C 
ATOM     19  C   UNL d   1       9.077   2.492 -15.889  0.00  0.00     0.137 C 
ATOM     20  N   UNL d   1       8.203   2.248 -14.755  0.00  0.00    -0.344 N 
ATOM     21  C   UNL d   1       7.805   0.865 -14.552  0.00  0.00     0.137 C 
ATOM     22  C   UNL d   1       7.282   0.259 -15.872  0.00  0.00     0.274 C 
BRANCH  20  23
ATOM     23  C   UNL d   1       7.716   3.298 -13.951  0.00  0.00     0.068 A 
ATOM     24  C   UNL d   1       8.565   4.313 -13.428  0.00  0.00     0.084 A 
ATOM     25  C   UNL d   1       8.021   5.343 -12.635  0.00  0.00     0.070 A 
ATOM     26 CL   UNL d   1      10.283   4.296 -13.678  0.00  0.00    -0.080 Cl
ATOM     27  C   UNL d   1       6.648   5.364 -12.338  0.00  0.00     0.012 A 
ATOM     28 CL   UNL d   1       9.032   6.585 -11.999  0.00  0.00    -0.081 Cl
ATOM     29  C   UNL d   1       5.808   4.355 -12.837  0.00  0.00     0.002 A 
ATOM     30  C   UNL d   1       6.336   3.333 -13.637  0.00  0.00     0.018 A 
ENDBRANCH  20  23
ENDBRANCH  16  17
ENDBRANCH   1  16
TORSDOF 6
