REMARK  3 active torsions:
REMARK  status: ('A' for Active; 'I' for Inactive)
REMARK    1  A    between atoms: N_5  and  C_6 
REMARK    2  A    between atoms: C_16  and  S_17 
REMARK    3  A    between atoms: S_17  and  C_18 
ROOT
ATOM      1  C   UNL d   1       9.452   2.362 -15.106  0.00  0.00     0.147 A 
ATOM      2  N   UNL d   1       8.180   1.967 -14.905  0.00  0.00    -0.228 NA
ATOM      3  C   UNL d   1       7.395   2.664 -14.051  0.00  0.00     0.084 A 
ATOM      4  C   UNL d   1       6.066   2.255 -13.811  0.00  0.00     0.019 A 
ATOM      5  C   UNL d   1       5.236   2.941 -12.903  0.00  0.00     0.002 A 
ATOM      6  C   UNL d   1       5.710   4.078 -12.231  0.00  0.00     0.000 A 
ATOM      7  C   UNL d   1       7.030   4.502 -12.442  0.00  0.00     0.002 A 
ATOM      8  C   UNL d   1       7.872   3.798 -13.337  0.00  0.00     0.029 A 
ATOM      9  C   UNL d   1       9.204   4.197 -13.538  0.00  0.00     0.068 A 
ATOM     10 CL   UNL d   1       9.825   5.564 -12.685  0.00  0.00    -0.082 Cl
ATOM     11  C   UNL d   1      10.016   3.473 -14.445  0.00  0.00     0.074 A 
ENDROOT
BRANCH   1  12
ATOM     12  N   UNL d   1      10.181   1.566 -16.021  0.00  0.00    -0.329 N 
ATOM     13  C   UNL d   1      10.379   0.151 -15.771  0.00  0.00     0.138 C 
ATOM     14  C   UNL d   1       9.990  -0.664 -17.030  0.00  0.00     0.274 C 
ATOM     15  N   UNL d   1      10.707  -0.165 -18.212  0.00  0.00     0.143 N 
ATOM     16  C   UNL d   1      10.317  -0.925 -19.375  0.00  0.00     0.286 C 
ATOM     17  C   UNL d   1      10.347   1.229 -18.443  0.00  0.00     0.274 C 
ATOM     18  C   UNL d   1      10.747   2.089 -17.254  0.00  0.00     0.138 C 
ENDBRANCH   1  12
BRANCH  11  19
ATOM     19  S   UNL d   1      11.673   4.040 -14.760  0.00  0.00    -0.083 SA
BRANCH  19  20
ATOM     20  C   UNL d   1      11.449   4.962 -16.261  0.00  0.00     0.030 A 
ATOM     21  C   UNL d   1      10.157   5.339 -16.716  0.00  0.00     0.006 A 
ATOM     22  C   UNL d   1      10.008   5.960 -17.965  0.00  0.00     0.001 A 
ATOM     23  C   UNL d   1      11.132   6.278 -18.744  0.00  0.00     0.000 A 
ATOM     24  C   UNL d   1      12.415   5.929 -18.286  0.00  0.00     0.001 A 
ATOM     25  C   UNL d   1      12.575   5.269 -17.051  0.00  0.00     0.006 A 
ENDBRANCH  19  20
ENDBRANCH  11  19
TORSDOF 3
