REMARK  5 active torsions:
REMARK  status: ('A' for Active; 'I' for Inactive)
REMARK    1  A    between atoms: C_10  and  C_11 
REMARK    2  A    between atoms: C_11  and  C_12 
REMARK    3  A    between atoms: C_12  and  N_13 
REMARK    4  A    between atoms: C_16  and  C_17 
REMARK    5  A    between atoms: C_17  and  C_19 
ROOT
ATOM      1  N   UNL d   1       9.123   6.247 -11.419  0.00  0.00     0.137 N 
ATOM      2  C   UNL d   1       8.566   5.089 -10.710  0.00  0.00     0.251 C 
ATOM      3  C   UNL d   1       7.484   4.423 -11.566  0.00  0.00     0.043 C 
ATOM      4  C   UNL d   1       8.051   3.962 -12.921  0.00  0.00     0.066 C 
ATOM      5  C   UNL d   1       8.754   5.152 -13.591  0.00  0.00     0.043 C 
ATOM      6  C   UNL d   1       9.768   5.786 -12.648  0.00  0.00     0.251 C 
ENDROOT
BRANCH   1   7
ATOM      7  C   UNL d   1      10.117   6.945 -10.601  0.00  0.00     0.250 C 
BRANCH   7   8
ATOM      8  C   UNL d   1       9.504   7.666  -9.393  0.00  0.00     0.038 C 
BRANCH   8   9
ATOM      9  C   UNL d   1      10.521   7.913  -8.257  0.00  0.00     0.037 C 
ATOM     10  C   UNL d   1      10.139   7.234  -6.922  0.00  0.00     0.174 C 
ATOM     11  C   UNL d   1      11.048   7.641  -5.771  0.00  0.00     0.005 A 
ATOM     12  O   UNL d   1       8.797   7.546  -6.591  0.00  0.00    -0.219 OA
ATOM     13  C   UNL d   1      11.831   8.820  -5.826  0.00  0.00    -0.024 A 
ATOM     14  C   UNL d   1      11.092   6.858  -4.606  0.00  0.00     0.012 A 
ATOM     15  C   UNL d   1      12.634   9.186  -4.730  0.00  0.00    -0.003 A 
ATOM     16  C   UNL d   1      11.870   9.676  -7.071  0.00  0.00     0.026 C 
ATOM     17  C   UNL d   1      12.645   8.412  -3.559  0.00  0.00     0.014 A 
ATOM     18  C   UNL d   1      11.871   7.239  -3.501  0.00  0.00     0.070 A 
ATOM     19  N   UNL d   1      11.880   6.474  -2.342  0.00  0.00    -0.101 NA
ATOM     20  C   UNL d   1      10.728   9.406  -8.046  0.00  0.00     0.008 C 
ENDBRANCH   8   9
ENDBRANCH   7   8
ENDBRANCH   1   7
BRANCH   4  21
ATOM     21  C   UNL d   1       6.960   3.338 -13.800  0.00  0.00     0.175 C 
ATOM     22  O   UNL d   1       5.788   3.692 -13.670  0.00  0.00    -0.291 OA
BRANCH  21  23
ATOM     23  C   UNL d   1       7.385   2.277 -14.759  0.00  0.00     0.060 A 
ATOM     24  C   UNL d   1       6.691   1.041 -14.849  0.00  0.00     0.136 A 
ATOM     25  C   UNL d   1       7.092   0.071 -15.796  0.00  0.00     0.057 A 
ATOM     26  O   UNL d   1       5.637   0.739 -14.029  0.00  0.00    -0.190 OA
ATOM     27  C   UNL d   1       8.183   0.322 -16.654  0.00  0.00     0.142 A 
ATOM     28  C   UNL d   1       8.868   1.544 -16.572  0.00  0.00     0.030 A 
ATOM     29  F   UNL d   1       8.575  -0.616 -17.553  0.00  0.00    -0.204 F 
ATOM     30  C   UNL d   1       8.467   2.513 -15.639  0.00  0.00     0.007 A 
ENDBRANCH  21  23
ENDBRANCH   4  21
TORSDOF 5
