REMARK  10 active torsions:
REMARK  status: ('A' for Active; 'I' for Inactive)
REMARK    1  A    between atoms: C_2  and  C_3 
REMARK    2  A    between atoms: C_3  and  N_4 
REMARK    3  A    between atoms: N_4  and  C_5 
REMARK    4  A    between atoms: N_4  and  C_24 
REMARK    5  A    between atoms: C_5  and  C_6 
REMARK    6  A    between atoms: C_6  and  C_7 
REMARK    7  A    between atoms: C_7  and  C_8 
REMARK    8  A    between atoms: C_8  and  N_9 
REMARK       I    between atoms: N_9  and  C_10 
REMARK    9  A    between atoms: C_10  and  C_12 
REMARK   10  A    between atoms: C_15  and  C_16 
ROOT
ATOM      1  C   UNL d   1       6.113   3.555 -13.638  0.00  0.00     0.037 C 
ENDROOT
BRANCH   1   2
ATOM      2  C   UNL d   1       6.104   2.041 -13.753  0.00  0.00     0.250 C 
BRANCH   2   3
ATOM      3  N   UNL d   1       7.298   1.317 -14.104  0.00  0.00     0.135 N 
BRANCH   3   4
ATOM      4  C   UNL d   1       6.979  -0.094 -14.517  0.00  0.00     0.250 C 
BRANCH   4   5
ATOM      5  C   UNL d   1       5.960  -0.824 -13.629  0.00  0.00     0.035 C 
ATOM      6  C   UNL d   1       4.467  -0.415 -13.866  0.00  0.00     0.002 C 
ENDBRANCH   4   5
ENDBRANCH   3   4
BRANCH   3   7
ATOM      7  C   UNL d   1       8.165   2.044 -15.015  0.00  0.00     0.224 C 
ATOM      8  C   UNL d   1       9.468   2.434 -14.267  0.00  0.00     0.059 C 
ATOM      9  C   UNL d   1      10.476   3.077 -15.194  0.00  0.00    -0.024 A 
ATOM     10  C   UNL d   1      10.372   2.994 -16.608  0.00  0.00    -0.020 A 
ATOM     11  C   UNL d   1      11.534   3.798 -14.606  0.00  0.00    -0.004 A 
ATOM     12  C   UNL d   1       9.196   2.274 -17.271  0.00  0.00     0.029 C 
ATOM     13  C   UNL d   1      11.353   3.606 -17.414  0.00  0.00     0.030 A 
ATOM     14  C   UNL d   1       8.446   1.343 -16.344  0.00  0.00     0.038 C 
ATOM     15 BR   UNL d   1      11.255   3.490 -19.318  0.00  0.00    -0.050 Br
ATOM     16  C   UNL d   1      12.424   4.285 -16.818  0.00  0.00     0.006 A 
ATOM     17  C   UNL d   1      12.517   4.394 -15.423  0.00  0.00     0.000 A 
ENDBRANCH   3   7
ENDBRANCH   2   3
ENDBRANCH   1   2
BRANCH   1  18
ATOM     18  C   UNL d   1       6.861   4.008 -12.375  0.00  0.00     0.029 C 
BRANCH  18  19
ATOM     19  C   UNL d   1       6.986   5.543 -12.394  0.00  0.00     0.129 C 
BRANCH  19  20
ATOM     20  N   UNL d   1       7.720   5.973 -11.255  0.00  0.00    -0.234 NA
ATOM     21  C   UNL d   1       9.054   5.947 -11.059  0.00  0.00     0.275 C 
ATOM     22  O   UNL d   1       9.830   5.587 -11.934  0.00  0.00    -0.266 OA
BRANCH  21  23
ATOM     23  C   UNL d   1       9.525   6.418  -9.710  0.00  0.00     0.058 A 
ATOM     24  C   UNL d   1      10.623   7.298  -9.637  0.00  0.00     0.005 A 
ATOM     25  C   UNL d   1      11.092   7.748  -8.380  0.00  0.00     0.000 A 
ATOM     26  C   UNL d   1      10.483   7.322  -7.182  0.00  0.00     0.000 A 
ATOM     27  C   UNL d   1       9.383   6.439  -7.270  0.00  0.00     0.000 A 
ATOM     28  C   UNL d   1       8.908   5.988  -8.526  0.00  0.00     0.005 A 
BRANCH  26  29
ATOM     29  C   UNL d   1      10.980   7.786  -5.877  0.00  0.00     0.000 A 
ATOM     30  C   UNL d   1      11.000   9.159  -5.557  0.00  0.00     0.000 A 
ATOM     31  C   UNL d   1      11.479   9.595  -4.299  0.00  0.00     0.000 A 
ATOM     32  C   UNL d   1      11.941   8.675  -3.354  0.00  0.00     0.000 A 
ATOM     33  C   UNL d   1      11.931   7.301  -3.660  0.00  0.00     0.000 A 
ATOM     34  C   UNL d   1      11.458   6.864  -4.907  0.00  0.00     0.000 A 
ENDBRANCH  26  29
ENDBRANCH  21  23
ENDBRANCH  19  20
ENDBRANCH  18  19
ENDBRANCH   1  18
TORSDOF 10
