REMARK  10 active torsions:
REMARK  status: ('A' for Active; 'I' for Inactive)
REMARK    1  A    between atoms: C_2  and  C_3 
REMARK    2  A    between atoms: C_3  and  N_4 
REMARK    3  A    between atoms: N_4  and  C_5 
REMARK    4  A    between atoms: N_4  and  C_24 
REMARK    5  A    between atoms: C_5  and  C_6 
REMARK    6  A    between atoms: C_6  and  C_7 
REMARK    7  A    between atoms: C_7  and  C_8 
REMARK    8  A    between atoms: C_8  and  N_9 
REMARK       I    between atoms: N_9  and  C_10 
REMARK    9  A    between atoms: C_10  and  C_12 
REMARK   10  A    between atoms: C_15  and  C_16 
ROOT
ATOM      1  C   UNL d   1       5.765   3.966 -12.313  0.00  0.00     0.029 C 
ENDROOT
BRANCH   1   2
ATOM      2  C   UNL d   1       5.483   2.498 -12.665  0.00  0.00     0.037 C 
BRANCH   2   3
ATOM      3  C   UNL d   1       6.143   2.040 -13.979  0.00  0.00     0.250 C 
BRANCH   3   4
ATOM      4  N   UNL d   1       6.548   0.635 -13.972  0.00  0.00     0.135 N 
BRANCH   4   5
ATOM      5  C   UNL d   1       5.388  -0.243 -13.855  0.00  0.00     0.250 C 
BRANCH   5   6
ATOM      6  C   UNL d   1       4.590  -0.318 -15.166  0.00  0.00     0.035 C 
ATOM      7  C   UNL d   1       3.190  -0.866 -15.101  0.00  0.00     0.002 C 
ENDBRANCH   5   6
ENDBRANCH   4   5
BRANCH   4   8
ATOM      8  C   UNL d   1       7.467   0.311 -15.093  0.00  0.00     0.224 C 
ATOM      9  C   UNL d   1       8.880   0.911 -14.867  0.00  0.00     0.062 C 
ATOM     10  C   UNL d   1       9.749   0.893 -16.140  0.00  0.00     0.013 A 
ATOM     11  C   UNL d   1       9.214   0.615 -17.407  0.00  0.00     0.058 A 
ATOM     12  C   UNL d   1      11.128   1.207 -16.119  0.00  0.00     0.098 A 
ATOM     13  C   UNL d   1       7.761   0.333 -17.627  0.00  0.00     0.048 C 
ATOM     14  N   UNL d   1       9.959   0.599 -18.537  0.00  0.00    -0.229 NA
ATOM     15  C   UNL d   1       6.906   0.786 -16.472  0.00  0.00     0.040 C 
ATOM     16  C   UNL d   1      11.253   0.892 -18.382  0.00  0.00     0.199 A 
ATOM     17  N   UNL d   1      11.864   1.195 -17.253  0.00  0.00    -0.223 NA
ENDBRANCH   4   8
ENDBRANCH   3   4
ENDBRANCH   2   3
ENDBRANCH   1   2
BRANCH   1  18
ATOM     18  C   UNL d   1       7.204   4.423 -12.621  0.00  0.00     0.129 C 
BRANCH  18  19
ATOM     19  N   UNL d   1       7.752   5.196 -11.527  0.00  0.00    -0.234 NA
ATOM     20  C   UNL d   1       9.021   5.632 -11.509  0.00  0.00     0.275 C 
ATOM     21  O   UNL d   1       9.781   5.575 -12.476  0.00  0.00    -0.266 OA
BRANCH  20  22
ATOM     22  C   UNL d   1       9.450   6.236 -10.206  0.00  0.00     0.058 A 
ATOM     23  C   UNL d   1       9.070   5.666  -8.980  0.00  0.00     0.005 A 
ATOM     24  C   UNL d   1       9.494   6.256  -7.778  0.00  0.00     0.000 A 
ATOM     25  C   UNL d   1      10.308   7.401  -7.761  0.00  0.00     0.000 A 
ATOM     26  C   UNL d   1      10.688   7.962  -8.993  0.00  0.00     0.000 A 
ATOM     27  C   UNL d   1      10.265   7.389 -10.210  0.00  0.00     0.005 A 
BRANCH  25  28
ATOM     28  C   UNL d   1      10.751   8.011  -6.481  0.00  0.00     0.000 A 
ATOM     29  C   UNL d   1      10.695   9.399  -6.285  0.00  0.00     0.000 A 
ATOM     30  C   UNL d   1      11.112   9.976  -5.080  0.00  0.00     0.000 A 
ATOM     31  C   UNL d   1      11.607   9.178  -4.044  0.00  0.00     0.000 A 
ATOM     32  C   UNL d   1      11.678   7.792  -4.220  0.00  0.00     0.000 A 
ATOM     33  C   UNL d   1      11.245   7.195  -5.429  0.00  0.00     0.000 A 
ENDBRANCH  25  28
ENDBRANCH  20  22
ENDBRANCH  18  19
ENDBRANCH   1  18
TORSDOF 10
