REMARK  7 active torsions:
REMARK  status: ('A' for Active; 'I' for Inactive)
REMARK    1  A    between atoms: C_2  and  C_3 
REMARK    2  A    between atoms: C_7  and  N_8 
REMARK    3  A    between atoms: N_11  and  C_12 
REMARK    4  A    between atoms: C_12  and  C_13 
REMARK    5  A    between atoms: C_14  and  C_15 
REMARK    6  A    between atoms: C_15  and  N_16 
REMARK       I    between atoms: N_16  and  C_17 
REMARK    7  A    between atoms: C_17  and  C_19 
ROOT
ATOM      1  N   UNL d   1       8.722   6.262 -11.640  0.00  0.00    -0.344 N 
ATOM      2  C   UNL d   1       9.251   6.307 -12.976  0.00  0.00     0.137 C 
ATOM      3  C   UNL d   1       9.411   4.868 -13.501  0.00  0.00     0.275 C 
ATOM      4  N   UNL d   1       8.107   4.193 -13.491  0.00  0.00     0.145 N 
ATOM      5  C   UNL d   1       7.590   4.200 -12.110  0.00  0.00     0.275 C 
ATOM      6  C   UNL d   1       7.410   5.644 -11.587  0.00  0.00     0.137 C 
ENDROOT
BRANCH   4   7
ATOM      7  C   UNL d   1       8.291   2.831 -13.998  0.00  0.00     0.276 C 
BRANCH   7   8
ATOM      8  C   UNL d   1       6.980   2.070 -14.069  0.00  0.00     0.006 C 
ATOM      9  C   UNL d   1       6.875   0.731 -14.055  0.00  0.00    -0.003 C 
BRANCH   9  10
ATOM     10  C   UNL d   1       5.567  -0.028 -14.124  0.00  0.00     0.155 C 
BRANCH  10  11
ATOM     11  N   UNL d   1       5.555  -0.906 -15.283  0.00  0.00    -0.227 NA
ATOM     12  C   UNL d   1       4.450  -1.269 -15.962  0.00  0.00     0.311 C 
ATOM     13  O   UNL d   1       3.315  -0.948 -15.621  0.00  0.00    -0.262 OA
BRANCH  12  14
ATOM     14  C   UNL d   1       4.717  -2.022 -17.226  0.00  0.00     0.221 A 
ATOM     15  N   UNL d   1       5.847  -2.727 -17.401  0.00  0.00    -0.226 NA
ATOM     16  C   UNL d   1       5.821  -3.308 -18.653  0.00  0.00     0.080 A 
ATOM     17  C   UNL d   1       4.622  -2.914 -19.206  0.00  0.00     0.116 A 
ATOM     18  C   UNL d   1       6.913  -4.182 -19.165  0.00  0.00     0.054 C 
ATOM     19  N   UNL d   1       3.936  -2.101 -18.303  0.00  0.00    -0.220 NA
ENDBRANCH  12  14
ENDBRANCH  10  11
ENDBRANCH   9  10
ENDBRANCH   7   8
ENDBRANCH   4   7
BRANCH   1  20
ATOM     20  C   UNL d   1       9.378   6.910 -10.545  0.00  0.00     0.067 A 
ATOM     21  C   UNL d   1       9.882   8.211 -10.740  0.00  0.00     0.018 A 
ATOM     22  C   UNL d   1      10.499   8.928  -9.695  0.00  0.00     0.001 A 
ATOM     23  C   UNL d   1      10.561   8.372  -8.416  0.00  0.00    -0.003 A 
ATOM     24  C   UNL d   1      10.076   7.069  -8.189  0.00  0.00    -0.010 A 
ATOM     25  C   UNL d   1       9.507   6.321  -9.271  0.00  0.00     0.069 A 
ATOM     26 CL   UNL d   1       8.979   4.683  -9.048  0.00  0.00    -0.081 Cl
BRANCH  24  27
ATOM     27  C   UNL d   1      10.164   6.514  -6.792  0.00  0.00     0.027 C 
ATOM     28  C   UNL d   1      11.576   6.527  -6.209  0.00  0.00     0.005 C 
ENDBRANCH  24  27
ENDBRANCH   1  20
TORSDOF 7
