REMARK  1 active torsions:
REMARK  status: ('A' for Active; 'I' for Inactive)
REMARK    1  A    between atoms: C_6  and  C_7 
ROOT
ATOM      1  C   UNL d   1      11.040   7.867  -6.956  0.00  0.00     0.051 C 
ATOM      2  C   UNL d   1      10.725   6.366  -7.198  0.00  0.00     0.007 C 
ATOM      3  C   UNL d   1      10.225   5.979  -8.598  0.00  0.00     0.003 C 
ATOM      4  C   UNL d   1       9.257   6.981  -9.207  0.00  0.00     0.039 C 
ATOM      5  C   UNL d   1       9.552   8.468  -8.891  0.00  0.00     0.287 C 
ATOM      6  N   UNL d   1      10.666   9.012  -9.669  0.00  0.00     0.340 N 
ATOM      7  C   UNL d   1      11.962   8.423  -9.361  0.00  0.00     0.291 C 
ATOM      8  C   UNL d   1      12.228   8.337  -7.842  0.00  0.00     0.045 C 
ATOM      9  C   UNL d   1       9.807   8.685  -7.399  0.00  0.00     0.190 C 
ATOM     10  O   UNL d   1       8.658   8.322  -6.667  0.00  0.00    -0.221 OA
ENDROOT
BRANCH   1  11
ATOM     11  C   UNL d   1      11.395   8.137  -5.469  0.00  0.00    -0.018 A 
ATOM     12  C   UNL d   1      11.356   9.459  -4.961  0.00  0.00    -0.004 A 
ATOM     13  C   UNL d   1      11.652   9.723  -3.614  0.00  0.00     0.002 A 
ATOM     14  C   UNL d   1      12.065   8.697  -2.759  0.00  0.00     0.027 A 
ATOM     15  C   UNL d   1      12.127   7.381  -3.242  0.00  0.00     0.131 A 
ATOM     16  O   UNL d   1      12.501   6.387  -2.396  0.00  0.00    -0.190 OA
ATOM     17  C   UNL d   1      11.789   7.100  -4.581  0.00  0.00     0.023 A 
ENDBRANCH   1  11
TORSDOF 1
