REMARK  6 active torsions:
REMARK  status: ('A' for Active; 'I' for Inactive)
REMARK    1  A    between atoms: S_2  and  C_4 
REMARK    2  A    between atoms: S_2  and  N_14 
REMARK    3  A    between atoms: C_18  and  C_19 
REMARK    4  A    between atoms: C_19  and  C_20 
REMARK    5  A    between atoms: C_20  and  N_21 
REMARK    6  A    between atoms: N_24  and  C_25 
ROOT
ATOM      1  N   UNL d   1       6.258  -0.102 -16.216  0.00  0.00    -0.276 N 
ATOM      2  C   UNL d   1       5.541  -0.992 -15.286  0.00  0.00     0.113 C 
ATOM      3  C   UNL d   1       5.004  -0.096 -14.215  0.00  0.00     0.027 C 
ATOM      4  C   UNL d   1       6.096   0.925 -14.033  0.00  0.00     0.025 C 
ATOM      5  C   UNL d   1       6.789   1.022 -15.412  0.00  0.00     0.094 C 
ENDROOT
BRANCH   5   6
ATOM      6  C   UNL d   1       8.328   0.973 -15.276  0.00  0.00     0.058 C 
BRANCH   6   7
ATOM      7  C   UNL d   1       8.962   2.369 -15.224  0.00  0.00     0.252 C 
BRANCH   7   8
ATOM      8  N   UNL d   1       8.619   3.054 -13.982  0.00  0.00     0.141 N 
ATOM      9  C   UNL d   1       9.828   3.545 -13.332  0.00  0.00     0.274 C 
ATOM     10  C   UNL d   1       9.434   4.253 -12.040  0.00  0.00     0.138 C 
ATOM     11  N   UNL d   1       8.509   5.338 -12.257  0.00  0.00    -0.328 N 
ATOM     12  C   UNL d   1       7.332   4.953 -12.983  0.00  0.00     0.138 C 
ATOM     13  C   UNL d   1       7.757   4.206 -14.253  0.00  0.00     0.274 C 
BRANCH  11  14
ATOM     14  C   UNL d   1       8.737   6.652 -11.815  0.00  0.00     0.169 A 
ATOM     15  C   UNL d   1       9.512   7.068 -10.703  0.00  0.00     0.061 A 
ATOM     16  C   UNL d   1       9.498   8.457 -10.662  0.00  0.00     0.128 A 
ATOM     17  C   UNL d   1      10.207   6.373  -9.681  0.00  0.00     0.005 A 
ATOM     18  O   UNL d   1       8.727   8.851 -11.744  0.00  0.00    -0.210 OA
ATOM     19  C   UNL d   1      10.136   9.190  -9.642  0.00  0.00     0.027 A 
ATOM     20  N   UNL d   1       8.244   7.711 -12.453  0.00  0.00    -0.109 NA
ATOM     21  C   UNL d   1      10.840   8.495  -8.642  0.00  0.00     0.002 A 
ATOM     22  C   UNL d   1      10.871   7.094  -8.666  0.00  0.00     0.000 A 
ENDBRANCH  11  14
ENDBRANCH   7   8
ENDBRANCH   6   7
ENDBRANCH   5   6
BRANCH   1  23
ATOM     23  S   UNL d   1       5.726   0.188 -17.884  0.00  0.00     0.264 S 
ATOM     24  O   UNL d   1       6.204   1.523 -18.271  0.00  0.00    -0.200 OA
ATOM     25  O   UNL d   1       4.295  -0.132 -18.009  0.00  0.00    -0.200 OA
BRANCH  23  26
ATOM     26  C   UNL d   1       6.584  -1.015 -18.916  0.00  0.00     0.105 A 
ATOM     27  C   UNL d   1       6.373  -2.417 -18.794  0.00  0.00     0.030 A 
ATOM     28  C   UNL d   1       7.053  -3.339 -19.625  0.00  0.00     0.082 A 
ATOM     29  C   UNL d   1       5.445  -2.956 -17.887  0.00  0.00     0.004 C 
ATOM     30  C   UNL d   1       7.872  -2.809 -20.634  0.00  0.00     0.019 A 
ATOM     31  N   UNL d   1       6.918  -4.686 -19.504  0.00  0.00    -0.244 NA
ATOM     32  C   UNL d   1       8.077  -1.425 -20.788  0.00  0.00     0.002 A 
ATOM     33  C   UNL d   1       7.430  -0.519 -19.932  0.00  0.00     0.013 A 
ATOM     34  C   UNL d   1       6.102  -5.170 -18.535  0.00  0.00     0.099 C 
ATOM     35  C   UNL d   1       5.357  -4.338 -17.686  0.00  0.00     0.021 C 
ENDBRANCH  23  26
ENDBRANCH   1  23
TORSDOF 6
