REMARK  4 active torsions:
REMARK  status: ('A' for Active; 'I' for Inactive)
REMARK    1  A    between atoms: S_2  and  C_4 
REMARK    2  A    between atoms: S_2  and  C_20 
REMARK    3  A    between atoms: C_7  and  C_8 
REMARK    4  A    between atoms: C_9  and  C_10 
ROOT
ATOM      1  C   UNL d   1       9.113   6.005 -11.105  0.00  0.00     0.107 A 
ATOM      2  C   UNL d   1       8.742   5.040 -10.161  0.00  0.00     0.015 A 
ATOM      3  C   UNL d   1       9.123   5.279  -8.834  0.00  0.00     0.020 A 
ATOM      4  C   UNL d   1       9.891   6.426  -8.517  0.00  0.00     0.082 A 
ATOM      5  N   UNL d   1      10.275   7.333  -9.442  0.00  0.00    -0.243 NA
ATOM      6  C   UNL d   1       9.861   7.138 -10.713  0.00  0.00     0.110 A 
ENDROOT
BRANCH   1   7
ATOM      7  S   UNL d   1       8.630   5.859 -12.805  0.00  0.00     0.214 S 
ATOM      8  O   UNL d   1       7.832   7.075 -13.081  0.00  0.00    -0.217 OA
ATOM      9  O   UNL d   1       9.842   5.568 -13.575  0.00  0.00    -0.217 OA
BRANCH   7  10
ATOM     10  C   UNL d   1       7.496   4.487 -12.969  0.00  0.00     0.115 C 
ATOM     11  C   UNL d   1       7.639   3.480 -13.974  0.00  0.00     0.151 C 
ATOM     12  C   UNL d   1       6.730   2.401 -14.006  0.00  0.00     0.030 C 
ATOM     13  F   UNL d   1       8.670   3.509 -14.853  0.00  0.00    -0.203 F 
ATOM     14  C   UNL d   1       5.742   2.298 -13.026  0.00  0.00     0.002 C 
ATOM     15  C   UNL d   1       5.612   3.329 -12.048  0.00  0.00     0.001 C 
ATOM     16  C   UNL d   1       6.419   4.469 -12.067  0.00  0.00     0.014 C 
ENDBRANCH   7  10
ENDBRANCH   1   7
BRANCH   4  17
ATOM     17  C   UNL d   1      10.273   6.624  -7.118  0.00  0.00     0.019 C 
ATOM     18  C   UNL d   1      10.918   7.688  -6.635  0.00  0.00     0.004 C 
BRANCH  18  19
ATOM     19  C   UNL d   1      11.323   7.871  -5.242  0.00  0.00     0.026 A 
ATOM     20  C   UNL d   1      11.491   9.175  -4.726  0.00  0.00     0.133 A 
ATOM     21  C   UNL d   1      11.870   9.362  -3.379  0.00  0.00     0.057 A 
ATOM     22  O   UNL d   1      11.288  10.260  -5.537  0.00  0.00    -0.190 OA
ATOM     23  C   UNL d   1      12.069   8.253  -2.547  0.00  0.00     0.142 A 
ATOM     24  C   UNL d   1      11.870   6.958  -3.030  0.00  0.00     0.030 A 
ATOM     25  F   UNL d   1      12.446   8.440  -1.259  0.00  0.00    -0.204 F 
ATOM     26  C   UNL d   1      11.491   6.769  -4.373  0.00  0.00     0.004 A 
ENDBRANCH  18  19
ENDBRANCH   4  17
TORSDOF 4
