REMARK  4 active torsions:
REMARK  status: ('A' for Active; 'I' for Inactive)
REMARK    1  A    between atoms: CA_3  and  C_4 
REMARK    2  A    between atoms: CA_10  and  N_11 
REMARK       I    between atoms: N_11  and  C_12 
REMARK    3  A    between atoms: C_12  and  CA_14 
REMARK    4  A    between atoms: CA_14  and  C_16 
ROOT
ATOM      1  C   UNL d   1       7.204   4.585 -11.333  0.00  0.00     0.029 C 
ATOM      2  C   UNL d   1       8.280   5.241 -10.468  0.00  0.00    -0.011 C 
ATOM      3  CA  UNL d   1       8.966   6.343 -10.845  0.00  0.00     0.121 C 
ATOM      4  N   UNL d   1       9.872   7.017 -10.029  0.00  0.00    -0.283 N 
ATOM      5  C   UNL d   1      10.455   8.205  -9.866  0.00  0.00     0.263 A 
ATOM      6  O   UNL d   1      10.379   9.191 -10.542  0.00  0.00    -0.270 OA
ATOM      7  CA  UNL d   1      11.132   7.826  -8.605  0.00  0.00     0.216 A 
ATOM      8  C   UNL d   1      10.424   6.479  -8.822  0.00  0.00     0.168 A 
ATOM      9  S   UNL d   1       9.078   5.831  -7.848  0.00  0.00    -0.111 SA
ATOM     10  C   UNL d   1       8.477   4.640  -9.075  0.00  0.00     0.083 C 
ENDROOT
BRANCH   7  11
ATOM     11  N   UNL d   1      10.574   8.502  -7.453  0.00  0.00    -0.225 NA
ATOM     12  C   UNL d   1      11.314   9.221  -6.612  0.00  0.00     0.293 C 
ATOM     13  O   UNL d   1      12.460   9.586  -6.843  0.00  0.00    -0.268 OA
BRANCH  12  14
ATOM     14  CA  UNL d   1      10.664   9.539  -5.284  0.00  0.00     0.403 C 
ATOM     15  N   UNL d   1      10.669  10.922  -4.974  0.00  0.00     0.631 N 
BRANCH  14  16
ATOM     16  C   UNL d   1      11.395   8.746  -4.266  0.00  0.00     0.023 A 
ATOM     17  C   UNL d   1      11.468   7.346  -4.395  0.00  0.00    -0.002 A 
ATOM     18  C   UNL d   1      12.076   6.580  -3.409  0.00  0.00    -0.000 A 
ATOM     19  C   UNL d   1      12.610   7.151  -2.259  0.00  0.00    -0.000 A 
ATOM     20  C   UNL d   1      12.582   8.540  -2.107  0.00  0.00    -0.000 A 
ATOM     21  C   UNL d   1      11.963   9.320  -3.096  0.00  0.00    -0.002 A 
ENDBRANCH  14  16
ENDBRANCH  12  14
ENDBRANCH   7  11
BRANCH   3  22
ATOM     22  C   UNL d   1       8.701   6.925 -12.141  0.00  0.00     0.227 C 
ATOM     23  O   UNL d   1       8.878   6.333 -13.202  0.00  0.00    -0.643 OA
ATOM     24  OXT UNL d   1       8.223   8.201 -12.031  0.00  0.00    -0.643 OA
ENDBRANCH   3  22
TORSDOF 4
