REMARK  2 active torsions:
REMARK  status: ('A' for Active; 'I' for Inactive)
REMARK    1  A    between atoms: N_2  and  C_4 
REMARK    2  A    between atoms: C_4  and  C_5 
ROOT
ATOM      1  C   UNL d   1      10.608   1.827 -16.042  0.00  0.00     0.180 C 
ATOM      2  C   UNL d   1       9.868   0.811 -16.941  0.00  0.00     0.064 C 
ATOM      3  C   UNL d   1       8.574   0.647 -16.147  0.00  0.00     0.134 C 
ATOM      4  C   UNL d   1       7.355   0.083 -16.877  0.00  0.00    -0.003 A 
ATOM      5  C   UNL d   1       7.328  -0.124 -18.278  0.00  0.00    -0.003 A 
ATOM      6  C   UNL d   1       6.157  -0.600 -18.898  0.00  0.00    -0.000 A 
ATOM      7  C   UNL d   1       5.013  -0.868 -18.122  0.00  0.00    -0.000 A 
ATOM      8  C   UNL d   1       5.031  -0.654 -16.732  0.00  0.00    -0.004 A 
ATOM      9  C   UNL d   1       6.201  -0.180 -16.107  0.00  0.00    -0.020 A 
ATOM     10  C   UNL d   1       6.233   0.004 -14.597  0.00  0.00     0.054 C 
ATOM     11  C   UNL d   1       6.414   1.441 -14.115  0.00  0.00    -0.000 A 
ATOM     12  C   UNL d   1       5.556   1.892 -13.087  0.00  0.00    -0.002 A 
ATOM     13  C   UNL d   1       5.694   3.185 -12.533  0.00  0.00     0.011 A 
ATOM     14  C   UNL d   1       6.696   4.035 -13.017  0.00  0.00     0.059 A 
ATOM     15 CL   UNL d   1       6.864   5.627 -12.371  0.00  0.00    -0.082 Cl
ATOM     16  C   UNL d   1       7.554   3.597 -14.023  0.00  0.00     0.030 A 
ATOM     17  C   UNL d   1       7.443   2.308 -14.605  0.00  0.00     0.080 A 
ATOM     18  N   UNL d   1       8.343   1.988 -15.640  0.00  0.00    -0.237 N 
ATOM     19  O   UNL d   1       9.570   2.713 -15.662  0.00  0.00    -0.258 OA
ENDROOT
BRANCH   1  20
ATOM     20  C   UNL d   1      11.744   2.597 -16.750  0.00  0.00     0.282 C 
BRANCH  20  21
ATOM     21  N   UNL d   1      12.217   3.802 -16.044  0.00  0.00     0.144 N 
ATOM     22  C   UNL d   1      11.252   4.912 -15.974  0.00  0.00     0.286 C 
ATOM     23  C   UNL d   1      13.372   4.322 -16.772  0.00  0.00     0.286 C 
ENDBRANCH  20  21
ENDBRANCH   1  20
TORSDOF 2
