REMARK  5 active torsions:
REMARK  status: ('A' for Active; 'I' for Inactive)
REMARK    1  A    between atoms: C_2  and  C_3 
REMARK    2  A    between atoms: C_2  and  O_21 
REMARK    3  A    between atoms: C_3  and  N_4 
REMARK       I    between atoms: N_7  and  C_8 
REMARK    4  A    between atoms: C_8  and  C_10 
REMARK    5  A    between atoms: O_21  and  C_22 
ROOT
ATOM      1  N   UNL d   1       9.788   5.832 -11.211  0.00  0.00     0.144 N 
ATOM      2  C   UNL d   1       9.978   5.487  -9.796  0.00  0.00     0.274 C 
ATOM      3  C   UNL d   1      10.771   6.601  -9.092  0.00  0.00     0.140 C 
ATOM      4  N   UNL d   1       9.923   7.801  -9.084  0.00  0.00    -0.311 N 
ATOM      5  C   UNL d   1       9.549   8.504  -7.996  0.00  0.00     0.275 C 
ATOM      6  O   UNL d   1       8.748   9.418  -8.044  0.00  0.00    -0.266 OA
ATOM      7  C   UNL d   1       9.590   8.216 -10.471  0.00  0.00     0.140 C 
ATOM      8  C   UNL d   1       8.944   7.033 -11.216  0.00  0.00     0.274 C 
ENDROOT
BRANCH   1   9
ATOM      9  C   UNL d   1       9.154   4.697 -11.893  0.00  0.00     0.280 C 
BRANCH   9  10
ATOM     10  C   UNL d   1       9.268   4.815 -13.440  0.00  0.00     0.155 C 
ATOM     11  C   UNL d   1       8.202   5.673 -14.145  0.00  0.00     0.035 C 
BRANCH  10  12
ATOM     12  O   UNL d   1       9.316   3.499 -14.004  0.00  0.00    -0.331 OA
BRANCH  12  13
ATOM     13  C   UNL d   1       8.195   2.674 -14.040  0.00  0.00     0.094 A 
ATOM     14  C   UNL d   1       6.905   2.990 -13.554  0.00  0.00     0.025 A 
ATOM     15  C   UNL d   1       5.873   2.088 -13.627  0.00  0.00     0.013 A 
ATOM     16  C   UNL d   1       6.071   0.779 -14.108  0.00  0.00     0.058 A 
ATOM     17  C   UNL d   1       7.363   0.404 -14.534  0.00  0.00     0.013 A 
ATOM     18 CL   UNL d   1       4.739  -0.345 -14.119  0.00  0.00    -0.082 Cl
ATOM     19  C   UNL d   1       8.424   1.363 -14.517  0.00  0.00     0.025 A 
ENDBRANCH  12  13
ENDBRANCH  10  12
ENDBRANCH   9  10
ENDBRANCH   1   9
BRANCH   5  20
ATOM     20  C   UNL d   1      10.208   8.249  -6.684  0.00  0.00     0.137 A 
ATOM     21  N   UNL d   1      10.519   9.364  -5.893  0.00  0.00    -0.241 NA
ATOM     22  C   UNL d   1      11.134   8.971  -4.737  0.00  0.00     0.082 A 
ATOM     23  C   UNL d   1      11.246   7.552  -4.830  0.00  0.00     0.019 A 
ATOM     24  C   UNL d   1      11.592   9.659  -3.585  0.00  0.00     0.019 A 
ATOM     25  C   UNL d   1      10.608   7.139  -6.015  0.00  0.00     0.025 A 
ATOM     26  C   UNL d   1      11.862   6.860  -3.780  0.00  0.00     0.002 A 
ATOM     27  C   UNL d   1      12.341   7.537  -2.630  0.00  0.00     0.000 A 
ATOM     28  C   UNL d   1      12.200   8.930  -2.551  0.00  0.00     0.002 A 
ENDBRANCH   5  20
TORSDOF 5
