REMARK  6 active torsions:
REMARK  status: ('A' for Active; 'I' for Inactive)
REMARK    1  A    between atoms: C_7  and  C_8 
REMARK    2  A    between atoms: C_8  and  C_10 
REMARK    3  A    between atoms: C_10  and  C_11 
REMARK    4  A    between atoms: C_11  and  C_12 
REMARK    5  A    between atoms: C_12  and  N_13 
REMARK    6  A    between atoms: C_16  and  C_17 
ROOT
ATOM      1  N   UNL d   1      10.249   6.587  -9.199  0.00  0.00     0.137 N 
ATOM      2  C   UNL d   1       9.147   7.169  -8.437  0.00  0.00     0.251 C 
ATOM      3  C   UNL d   1       9.571   7.382  -6.996  0.00  0.00     0.040 C 
ATOM      4  C   UNL d   1      10.812   8.279  -6.918  0.00  0.00     0.026 C 
ATOM      5  C   UNL d   1      11.914   7.752  -7.842  0.00  0.00     0.040 C 
ATOM      6  C   UNL d   1      11.372   7.530  -9.259  0.00  0.00     0.251 C 
ENDROOT
BRANCH   1   7
ATOM      7  C   UNL d   1       9.778   6.365 -10.558  0.00  0.00     0.251 C 
BRANCH   7   8
ATOM      8  C   UNL d   1       8.939   5.079 -10.684  0.00  0.00     0.043 C 
BRANCH   8   9
ATOM      9  C   UNL d   1       8.393   4.856 -12.101  0.00  0.00     0.071 C 
BRANCH   9  10
ATOM     10  C   UNL d   1       9.466   4.456 -13.148  0.00  0.00     0.173 C 
ATOM     11  O   UNL d   1      10.638   4.773 -12.974  0.00  0.00    -0.291 OA
BRANCH  10  12
ATOM     12  C   UNL d   1       9.046   3.718 -14.367  0.00  0.00     0.030 A 
ATOM     13  C   UNL d   1       9.752   3.825 -15.605  0.00  0.00    -0.019 A 
ATOM     14  C   UNL d   1       9.321   3.043 -16.697  0.00  0.00    -0.004 A 
ATOM     15  C   UNL d   1      10.959   4.744 -15.836  0.00  0.00     0.031 C 
ATOM     16  C   UNL d   1       8.242   2.147 -16.571  0.00  0.00    -0.005 A 
ATOM     17  C   UNL d   1       7.572   2.023 -15.342  0.00  0.00    -0.022 A 
ATOM     18  C   UNL d   1       6.424   1.063 -15.142  0.00  0.00     0.031 C 
ATOM     19  C   UNL d   1       7.973   2.805 -14.257  0.00  0.00    -0.002 A 
ENDBRANCH  10  12
ENDBRANCH   9  10
ENDBRANCH   8   9
ENDBRANCH   7   8
ENDBRANCH   1   7
BRANCH   4  20
ATOM     20  C   UNL d   1      11.305   8.395  -5.477  0.00  0.00    -0.027 A 
ATOM     21  C   UNL d   1      11.524   9.647  -4.863  0.00  0.00    -0.026 A 
ATOM     22  C   UNL d   1      11.937   9.695  -3.511  0.00  0.00    -0.005 A 
ATOM     23  C   UNL d   1      11.299  10.931  -5.644  0.00  0.00     0.031 C 
ATOM     24  C   UNL d   1      12.227   8.534  -2.793  0.00  0.00    -0.005 A 
ATOM     25  C   UNL d   1      12.035   7.293  -3.408  0.00  0.00    -0.022 A 
ATOM     26  C   UNL d   1      11.558   7.221  -4.731  0.00  0.00    -0.009 A 
ATOM     27  C   UNL d   1      12.313   6.043  -2.636  0.00  0.00     0.031 C 
ENDBRANCH   4  20
TORSDOF 6
