REMARK  12 active torsions:
REMARK  status: ('A' for Active; 'I' for Inactive)
REMARK    1  A    between atoms: C_2  and  O_3 
REMARK    2  A    between atoms: O_3  and  C_4 
REMARK    3  A    between atoms: C_4  and  C_6 
REMARK    4  A    between atoms: C_6  and  C_7 
REMARK    5  A    between atoms: C_6  and  C_17 
REMARK    6  A    between atoms: C_6  and  N_22 
REMARK    7  A    between atoms: C_7  and  C_8 
REMARK    8  A    between atoms: C_13  and  N_14 
REMARK    9  A    between atoms: C_17  and  O_19 
REMARK   10  A    between atoms: O_19  and  C_20 
REMARK   11  A    between atoms: N_25  and  C_26 
REMARK   12  A    between atoms: C_26  and  C_27 
ROOT
ATOM      1  C   UNL d   1       8.348   0.460 -17.808  0.00  0.00     0.347 C 
ENDROOT
BRANCH   1   2
ATOM      2  C   UNL d   1       8.249   1.251 -19.169  0.00  0.00     0.311 C 
ATOM      3  O   UNL d   1       7.728   0.763 -20.170  0.00  0.00    -0.262 OA
BRANCH   2   4
ATOM      4  O   UNL d   1       8.740   2.497 -19.143  0.00  0.00    -0.300 OA
BRANCH   4   5
ATOM      5  C   UNL d   1       8.682   3.282 -20.290  0.00  0.00     0.152 C 
ATOM      6  C   UNL d   1       9.061   4.706 -19.895  0.00  0.00     0.035 C 
ENDBRANCH   4   5
ENDBRANCH   2   4
ENDBRANCH   1   2
BRANCH   1   7
ATOM      7  C   UNL d   1       7.793  -0.977 -18.083  0.00  0.00     0.079 C 
BRANCH   7   8
ATOM      8  C   UNL d   1       6.280  -1.147 -18.375  0.00  0.00     0.003 A 
ATOM      9  C   UNL d   1       5.707  -2.437 -18.566  0.00  0.00     0.123 A 
ATOM     10  C   UNL d   1       4.325  -2.539 -18.879  0.00  0.00     0.023 A 
ATOM     11  C   UNL d   1       3.539  -1.383 -18.998  0.00  0.00     0.002 A 
ATOM     12  C   UNL d   1       4.087  -0.123 -18.792  0.00  0.00    -0.000 A 
ATOM     13  C   UNL d   1       5.435   0.003 -18.448  0.00  0.00    -0.003 A 
BRANCH   9  14
ATOM     14  N   UNL d   1       6.469  -3.705 -18.459  0.00  0.00    -0.114 N 
ATOM     15  O   UNL d   1       7.641  -3.729 -18.843  0.00  0.00    -0.532 OA
ATOM     16  O   UNL d   1       5.884  -4.688 -18.036  0.00  0.00    -0.532 OA
ENDBRANCH   9  14
ENDBRANCH   7   8
ENDBRANCH   1   7
BRANCH   1  17
ATOM     17  C   UNL d   1       9.884   0.330 -17.509  0.00  0.00     0.311 C 
ATOM     18  O   UNL d   1      10.466  -0.739 -17.483  0.00  0.00    -0.262 OA
BRANCH  17  19
ATOM     19  O   UNL d   1      10.519   1.507 -17.287  0.00  0.00    -0.300 OA
BRANCH  19  20
ATOM     20  C   UNL d   1      11.811   1.661 -16.942  0.00  0.00     0.152 C 
ATOM     21  C   UNL d   1      12.588   2.011 -18.226  0.00  0.00     0.035 C 
ENDBRANCH  19  20
ENDBRANCH  17  19
ENDBRANCH   1  17
BRANCH   1  22
ATOM     22  N   UNL d   1       7.651   1.142 -16.663  0.00  0.00     0.156 N 
ATOM     23  C   UNL d   1       7.603   0.342 -15.408  0.00  0.00     0.287 C 
ATOM     24  C   UNL d   1       6.806   1.039 -14.271  0.00  0.00     0.286 C 
ATOM     25  N   UNL d   1       7.351   2.341 -13.945  0.00  0.00     0.146 N 
ATOM     26  C   UNL d   1       7.374   3.077 -15.130  0.00  0.00     0.286 C 
ATOM     27  C   UNL d   1       8.161   2.484 -16.294  0.00  0.00     0.287 C 
BRANCH  25  28
ATOM     28  C   UNL d   1       6.585   3.092 -12.928  0.00  0.00     0.277 C 
BRANCH  28  29
ATOM     29  C   UNL d   1       7.349   4.336 -12.434  0.00  0.00     0.011 A 
ATOM     30  C   UNL d   1       6.754   5.598 -12.555  0.00  0.00    -0.002 A 
ATOM     31  C   UNL d   1       7.434   6.748 -12.104  0.00  0.00     0.011 A 
ATOM     32  C   UNL d   1       8.698   6.639 -11.492  0.00  0.00     0.058 A 
ATOM     33  C   UNL d   1       9.287   5.383 -11.332  0.00  0.00     0.011 A 
ATOM     34 CL   UNL d   1       9.531   8.043 -10.921  0.00  0.00    -0.082 Cl
ATOM     35  C   UNL d   1       8.640   4.247 -11.854  0.00  0.00    -0.002 A 
ENDBRANCH  28  29
ENDBRANCH  25  28
ENDBRANCH   1  22
TORSDOF 12
