REMARK  13 active torsions:
REMARK  status: ('A' for Active; 'I' for Inactive)
REMARK    1  A    between atoms: C_2  and  C_3 
REMARK    2  A    between atoms: C_3  and  N_4 
REMARK    3  A    between atoms: N_4  and  C_5 
REMARK    4  A    between atoms: N_4  and  C_24 
REMARK    5  A    between atoms: C_5  and  C_6 
REMARK    6  A    between atoms: C_6  and  C_7 
REMARK    7  A    between atoms: C_7  and  C_8 
REMARK    8  A    between atoms: C_8  and  N_9 
REMARK       I    between atoms: N_9  and  C_10 
REMARK    9  A    between atoms: C_10  and  C_12 
REMARK   10  A    between atoms: C_15  and  C_16 
REMARK   11  A    between atoms: C_24  and  C_25 
REMARK   12  A    between atoms: C_27  and  C_28 
REMARK   13  A    between atoms: C_31  and  C_32 
ROOT
ATOM      1  C   UNL d   1      10.806   3.684 -14.608  0.00  0.00     0.250 C 
ENDROOT
BRANCH   1   2
ATOM      2  N   UNL d   1      10.712   3.554 -16.061  0.00  0.00     0.137 N 
BRANCH   2   3
ATOM      3  C   UNL d   1      11.994   3.381 -16.748  0.00  0.00     0.250 C 
BRANCH   3   4
ATOM      4  C   UNL d   1      12.927   4.590 -16.572  0.00  0.00     0.035 C 
ATOM      5  C   UNL d   1      14.169   4.511 -17.457  0.00  0.00     0.002 C 
ENDBRANCH   3   4
ENDBRANCH   2   3
BRANCH   2   6
ATOM      6  C   UNL d   1       9.777   2.507 -16.472  0.00  0.00     0.251 C 
BRANCH   6   7
ATOM      7  C   UNL d   1      10.068   1.142 -15.835  0.00  0.00     0.038 A 
ATOM      8  C   UNL d   1       9.346  -0.095 -16.311  0.00  0.00     0.024 A 
ATOM      9  C   UNL d   1       9.024   0.488 -14.952  0.00  0.00     0.007 A 
BRANCH   8  10
ATOM     10  C   UNL d   1       8.377   0.019 -17.446  0.00  0.00    -0.022 A 
ATOM     11  C   UNL d   1       6.998  -0.130 -17.204  0.00  0.00    -0.004 A 
ATOM     12  C   UNL d   1       6.067   0.040 -18.244  0.00  0.00     0.004 A 
ATOM     13  C   UNL d   1       6.511   0.367 -19.544  0.00  0.00     0.071 A 
ATOM     14  C   UNL d   1       7.895   0.504 -19.792  0.00  0.00     0.004 A 
ATOM     15  C   UNL d   1       8.825   0.322 -18.746  0.00  0.00    -0.004 A 
BRANCH  13  16
ATOM     16  C   UNL d   1       5.512   0.559 -20.671  0.00  0.00     0.419 C 
ATOM     17  F   UNL d   1       5.499  -0.553 -21.403  0.00  0.00    -0.166 F 
ATOM     18  F   UNL d   1       4.282   0.787 -20.210  0.00  0.00    -0.166 F 
ATOM     19  F   UNL d   1       5.874   1.586 -21.443  0.00  0.00    -0.166 F 
ENDBRANCH  13  16
ENDBRANCH   8  10
ENDBRANCH   6   7
ENDBRANCH   2   6
ENDBRANCH   1   2
BRANCH   1  20
ATOM     20  C   UNL d   1       9.521   4.303 -14.045  0.00  0.00     0.037 C 
BRANCH  20  21
ATOM     21  C   UNL d   1       9.713   4.660 -12.575  0.00  0.00     0.029 C 
BRANCH  21  22
ATOM     22  C   UNL d   1       8.544   5.472 -12.006  0.00  0.00     0.129 C 
BRANCH  22  23
ATOM     23  N   UNL d   1       8.887   5.973 -10.687  0.00  0.00    -0.234 NA
ATOM     24  C   UNL d   1       9.564   7.113 -10.449  0.00  0.00     0.275 C 
ATOM     25  O   UNL d   1       9.851   7.922 -11.332  0.00  0.00    -0.266 OA
BRANCH  24  26
ATOM     26  C   UNL d   1      10.041   7.322  -9.039  0.00  0.00     0.058 A 
ATOM     27  C   UNL d   1      11.125   8.186  -8.784  0.00  0.00     0.005 A 
ATOM     28  C   UNL d   1      11.577   8.404  -7.466  0.00  0.00     0.002 A 
ATOM     29  C   UNL d   1      10.959   7.753  -6.377  0.00  0.00     0.018 A 
ATOM     30  C   UNL d   1       9.868   6.898  -6.634  0.00  0.00     0.002 A 
ATOM     31  C   UNL d   1       9.400   6.688  -7.945  0.00  0.00     0.005 A 
BRANCH  29  32
ATOM     32  C   UNL d   1      11.441   7.966  -5.002  0.00  0.00     0.081 A 
ATOM     33  N   UNL d   1      11.468   9.250  -4.577  0.00  0.00    -0.244 NA
ATOM     34  C   UNL d   1      11.860   9.495  -3.311  0.00  0.00     0.099 A 
ATOM     35  C   UNL d   1      12.264   8.488  -2.417  0.00  0.00     0.021 A 
ATOM     36  C   UNL d   1      12.240   7.152  -2.859  0.00  0.00     0.003 A 
ATOM     37  C   UNL d   1      11.812   6.888  -4.172  0.00  0.00     0.019 A 
ENDBRANCH  29  32
ENDBRANCH  24  26
ENDBRANCH  22  23
ENDBRANCH  21  22
ENDBRANCH  20  21
ENDBRANCH   1  20
TORSDOF 13
