REMARK  3 active torsions:
REMARK  status: ('A' for Active; 'I' for Inactive)
REMARK    1  A    between atoms: C_5  and  C_6 
REMARK    2  A    between atoms: C_6  and  N_7 
REMARK    3  A    between atoms: N_10  and  C_11 
ROOT
ATOM      1  N   UNL d   1       9.217   5.227 -11.088  0.00  0.00     0.144 N 
ATOM      2  C   UNL d   1       8.352   5.080  -9.918  0.00  0.00     0.268 C 
ATOM      3  C   UNL d   1       9.086   5.557  -8.663  0.00  0.00     0.112 C 
ATOM      4  N   UNL d   1       9.471   6.961  -8.780  0.00  0.00    -0.248 NA
ATOM      5  C   UNL d   1      10.200   7.233 -10.001  0.00  0.00     0.112 C 
ATOM      6  C   UNL d   1       9.461   6.673 -11.225  0.00  0.00     0.268 C 
ENDROOT
BRANCH   4   7
ATOM      7  C   UNL d   1      10.065   7.543  -7.631  0.00  0.00     0.039 A 
ATOM      8  C   UNL d   1      10.622   6.739  -6.626  0.00  0.00     0.037 A 
ATOM      9  C   UNL d   1      11.184   7.298  -5.479  0.00  0.00     0.117 A 
ATOM     10  C   UNL d   1      11.249   8.705  -5.338  0.00  0.00     0.116 A 
ATOM     11  O   UNL d   1      11.669   6.430  -4.528  0.00  0.00    -0.326 OA
ATOM     12  C   UNL d   1      10.720   9.528  -6.356  0.00  0.00     0.027 A 
ATOM     13  O   UNL d   1      11.815   9.256  -4.217  0.00  0.00    -0.326 OA
ATOM     14  C   UNL d   1      10.123   8.944  -7.500  0.00  0.00     0.013 A 
ATOM     15  C   UNL d   1      12.621   8.346  -3.479  0.00  0.00     0.181 C 
ATOM     16  C   UNL d   1      11.930   7.005  -3.263  0.00  0.00     0.181 C 
ENDBRANCH   4   7
BRANCH   1  17
ATOM     17  C   UNL d   1       8.527   4.684 -12.256  0.00  0.00     0.278 C 
BRANCH  17  18
ATOM     18  C   UNL d   1       9.463   4.248 -13.378  0.00  0.00     0.030 A 
ATOM     19  C   UNL d   1       9.564   2.892 -13.756  0.00  0.00     0.003 A 
ATOM     20  C   UNL d   1      10.454   2.524 -14.786  0.00  0.00     0.049 A 
ATOM     21  C   UNL d   1      11.236   3.530 -15.392  0.00  0.00     0.222 A 
ATOM     22  F   UNL d   1      12.095   3.190 -16.383  0.00  0.00    -0.183 F 
ATOM     23  N   UNL d   1      11.153   4.826 -15.035  0.00  0.00    -0.217 NA
ATOM     24  C   UNL d   1      10.264   5.169 -14.079  0.00  0.00     0.099 A 
ENDBRANCH  17  18
ENDBRANCH   1  17
TORSDOF 3
