REMARK  8 active torsions:
REMARK  status: ('A' for Active; 'I' for Inactive)
REMARK    1  A    between atoms: O_2  and  C_3 
REMARK    2  A    between atoms: C_8  and  N_9 
REMARK    3  A    between atoms: N_12  and  C_13 
REMARK    4  A    between atoms: C_13  and  C_14 
REMARK    5  A    between atoms: C_14  and  C_15 
REMARK    6  A    between atoms: C_15  and  C_16 
REMARK    7  A    between atoms: C_16  and  N_17 
REMARK    8  A    between atoms: C_21  and  C_22 
ROOT
ATOM      1  C   UNL d   1       9.241   5.547 -11.785  0.00  0.00     0.037 C 
ENDROOT
BRANCH   1   2
ATOM      2  C   UNL d   1      10.083   5.323 -13.069  0.00  0.00     0.251 C 
BRANCH   2   3
ATOM      3  N   UNL d   1       9.409   4.634 -14.152  0.00  0.00     0.141 N 
ATOM      4  C   UNL d   1       9.158   3.237 -13.789  0.00  0.00     0.274 C 
ATOM      5  C   UNL d   1       8.378   2.534 -14.899  0.00  0.00     0.137 C 
ATOM      6  N   UNL d   1       9.093   2.642 -16.165  0.00  0.00    -0.343 N 
ATOM      7  C   UNL d   1       9.558   3.976 -16.526  0.00  0.00     0.137 C 
ATOM      8  C   UNL d   1      10.270   4.652 -15.345  0.00  0.00     0.274 C 
BRANCH   6   9
ATOM      9  C   UNL d   1       9.477   1.491 -16.854  0.00  0.00     0.079 A 
ATOM     10  C   UNL d   1      10.803   1.300 -17.351  0.00  0.00     0.110 A 
ATOM     11  C   UNL d   1      11.104   0.135 -18.092  0.00  0.00     0.026 A 
ATOM     12  C   UNL d   1      10.121  -0.843 -18.326  0.00  0.00     0.002 A 
ATOM     13  C   UNL d   1       8.821  -0.670 -17.823  0.00  0.00     0.002 A 
ATOM     14  C   UNL d   1       8.507   0.482 -17.086  0.00  0.00     0.019 A 
BRANCH  10  15
ATOM     15  O   UNL d   1      11.744   2.255 -17.036  0.00  0.00    -0.327 OA
ATOM     16  C   UNL d   1      12.906   2.329 -17.832  0.00  0.00     0.181 C 
ENDBRANCH  10  15
ENDBRANCH   6   9
ENDBRANCH   2   3
ENDBRANCH   1   2
BRANCH   1  17
ATOM     17  C   UNL d   1      10.064   6.030 -10.571  0.00  0.00     0.027 C 
BRANCH  17  18
ATOM     18  C   UNL d   1       9.337   7.104  -9.770  0.00  0.00     0.112 C 
BRANCH  18  19
ATOM     19  N   UNL d   1      10.176   7.645  -8.703  0.00  0.00    -0.264 N 
ATOM     20  C   UNL d   1      10.113   7.253  -7.419  0.00  0.00     0.263 A 
ATOM     21  C   UNL d   1      11.119   8.028  -6.723  0.00  0.00     0.061 A 
ATOM     22  O   UNL d   1       9.363   6.395  -6.960  0.00  0.00    -0.267 OA
ATOM     23  C   UNL d   1      11.687   8.838  -7.619  0.00  0.00     0.066 A 
ATOM     24  C   UNL d   1      11.091   8.605  -8.905  0.00  0.00     0.263 A 
ATOM     25  O   UNL d   1      11.342   9.170  -9.969  0.00  0.00    -0.267 OA
BRANCH  21  26
ATOM     26  C   UNL d   1      11.393   8.026  -5.279  0.00  0.00     0.005 A 
ATOM     27  C   UNL d   1      11.645   9.238  -4.604  0.00  0.00     0.000 A 
ATOM     28  C   UNL d   1      11.915   9.225  -3.221  0.00  0.00     0.000 A 
ATOM     29  C   UNL d   1      11.971   8.005  -2.520  0.00  0.00     0.000 A 
ATOM     30  C   UNL d   1      11.756   6.794  -3.200  0.00  0.00     0.000 A 
ATOM     31  C   UNL d   1      11.463   6.806  -4.578  0.00  0.00     0.000 A 
ENDBRANCH  21  26
ENDBRANCH  18  19
ENDBRANCH  17  18
ENDBRANCH   1  17
TORSDOF 8
