REMARK  5 active torsions:
REMARK  status: ('A' for Active; 'I' for Inactive)
REMARK    1  A    between atoms: C_8  and  C_9 
REMARK    2  A    between atoms: C_9  and  C_11 
REMARK    3  A    between atoms: C_11  and  C_12 
REMARK    4  A    between atoms: C_12  and  C_13 
REMARK    5  A    between atoms: C_13  and  N_14 
ROOT
ATOM      1  N   UNL d   1       9.036   4.386 -13.763  0.00  0.00     0.137 N 
ATOM      2  C   UNL d   1       7.799   3.612 -13.986  0.00  0.00     0.252 C 
ATOM      3  C   UNL d   1       8.063   2.597 -15.097  0.00  0.00     0.058 C 
ATOM      4  C   UNL d   1       9.212   1.623 -14.741  0.00  0.00     0.089 C 
ATOM      5  C   UNL d   1      10.441   2.373 -14.182  0.00  0.00     0.078 C 
ATOM      6  C   UNL d   1      10.103   3.535 -13.242  0.00  0.00     0.256 C 
ATOM      7  C   UNL d   1      11.210   2.717 -15.432  0.00  0.00    -0.001 A 
ATOM      8  C   UNL d   1      12.214   3.642 -15.767  0.00  0.00    -0.003 A 
ATOM      9  C   UNL d   1      12.697   3.639 -17.098  0.00  0.00     0.002 A 
ATOM     10  C   UNL d   1      12.187   2.731 -18.069  0.00  0.00     0.026 A 
ATOM     11  C   UNL d   1      11.185   1.779 -17.755  0.00  0.00     0.109 A 
ATOM     12  C   UNL d   1      10.766   1.842 -16.422  0.00  0.00     0.075 A 
ATOM     13  N   UNL d   1       9.743   0.998 -15.939  0.00  0.00    -0.346 N 
ATOM     14  C   UNL d   1       8.926   0.406 -16.995  0.00  0.00     0.134 C 
ATOM     15  C   UNL d   1       9.837  -0.130 -18.113  0.00  0.00     0.173 C 
ATOM     16  O   UNL d   1      10.645   0.905 -18.677  0.00  0.00    -0.327 OA
ENDROOT
BRANCH   1  17
ATOM     17  C   UNL d   1       8.818   5.506 -12.892  0.00  0.00     0.251 C 
BRANCH  17  18
ATOM     18  C   UNL d   1       8.165   5.149 -11.518  0.00  0.00     0.043 C 
BRANCH  18  19
ATOM     19  C   UNL d   1       9.032   5.440 -10.288  0.00  0.00     0.071 C 
BRANCH  19  20
ATOM     20  C   UNL d   1       9.540   6.885 -10.165  0.00  0.00     0.175 C 
ATOM     21  O   UNL d   1       9.522   7.641 -11.134  0.00  0.00    -0.291 OA
BRANCH  20  22
ATOM     22  C   UNL d   1      10.102   7.282  -8.843  0.00  0.00     0.054 A 
ATOM     23  C   UNL d   1      11.184   8.213  -8.724  0.00  0.00     0.108 A 
ATOM     24  N   UNL d   1      11.823   8.741  -9.823  0.00  0.00    -0.148 N 
ATOM     25  C   UNL d   1      11.614   8.615  -7.432  0.00  0.00     0.051 A 
ATOM     26  C   UNL d   1      10.975   8.123  -6.276  0.00  0.00     0.142 A 
ATOM     27  F   UNL d   1      11.382   8.538  -5.053  0.00  0.00    -0.204 F 
ATOM     28  C   UNL d   1       9.912   7.209  -6.396  0.00  0.00     0.030 A 
ATOM     29  C   UNL d   1       9.470   6.799  -7.662  0.00  0.00     0.007 A 
ENDBRANCH  20  22
ENDBRANCH  19  20
ENDBRANCH  18  19
ENDBRANCH  17  18
ENDBRANCH   1  17
TORSDOF 5
