REMARK  6 active torsions:
REMARK  status: ('A' for Active; 'I' for Inactive)
REMARK    1  A    between atoms: C_7  and  C_8 
REMARK    2  A    between atoms: C_8  and  C_9 
REMARK    3  A    between atoms: C_9  and  C_10 
REMARK    4  A    between atoms: C_10  and  N_11 
REMARK       I    between atoms: N_11  and  C_12 
REMARK       I    between atoms: N_14  and  C_15 
REMARK       I    between atoms: C_15  and  N_17 
REMARK    5  A    between atoms: N_17  and  C_18 
REMARK    6  A    between atoms: C_18  and  C_20 
ROOT
ATOM      1  N   UNL d   1       9.002   6.004  -9.728  0.00  0.00    -0.084 NA
ATOM      2  C   UNL d   1       8.763   5.612 -11.022  0.00  0.00     0.768 C 
ATOM      3  N   UNL d   1       7.761   6.359 -11.588  0.00  0.00     0.062 N 
ATOM      4  N   UNL d   1       9.445   4.671 -11.599  0.00  0.00     0.001 NA
ATOM      5  C   UNL d   1       9.236   4.379 -12.946  0.00  0.00     0.380 C 
ATOM      6  O   UNL d   1       8.568   5.005 -13.768  0.00  0.00    -0.242 OA
ATOM      7  N   UNL d   1       9.881   3.256 -13.293  0.00  0.00    -0.214 NA
ENDROOT
BRANCH   1   8
ATOM      8  C   UNL d   1       9.809   5.261  -8.771  0.00  0.00     0.145 C 
BRANCH   8   9
ATOM      9  C   UNL d   1      10.662   6.196  -7.910  0.00  0.00     0.032 C 
BRANCH   9  10
ATOM     10  C   UNL d   1       9.845   7.000  -6.908  0.00  0.00     0.036 C 
BRANCH  10  11
ATOM     11  C   UNL d   1      10.715   7.664  -5.875  0.00  0.00     0.023 C 
ATOM     12  C   UNL d   1      11.137   8.966  -5.833  0.00  0.00     0.063 C 
ATOM     13  C   UNL d   1      10.892   9.988  -6.872  0.00  0.00     0.052 C 
ATOM     14  N   UNL d   1      11.846   9.310  -4.678  0.00  0.00    -0.230 NA
ATOM     15  C   UNL d   1      12.006   8.260  -3.877  0.00  0.00     0.180 C 
ATOM     16  N   UNL d   1      12.613   8.299  -2.639  0.00  0.00    -0.072 NA
ATOM     17  S   UNL d   1      11.387   6.772  -4.538  0.00  0.00    -0.057 SA
ENDBRANCH  10  11
ENDBRANCH   9  10
ENDBRANCH   8   9
ENDBRANCH   1   8
BRANCH   7  18
ATOM     18  C   UNL d   1       9.975   2.682 -14.640  0.00  0.00     0.130 C 
ATOM     19  C   UNL d   1      10.381   3.706 -15.743  0.00  0.00     0.031 C 
BRANCH  18  20
ATOM     20  C   UNL d   1       8.772   1.838 -15.052  0.00  0.00    -0.000 A 
ATOM     21  C   UNL d   1       7.502   1.988 -14.446  0.00  0.00    -0.002 A 
ATOM     22  C   UNL d   1       6.406   1.214 -14.860  0.00  0.00    -0.000 A 
ATOM     23  C   UNL d   1       6.553   0.283 -15.899  0.00  0.00    -0.000 A 
ATOM     24  C   UNL d   1       7.809   0.111 -16.509  0.00  0.00    -0.000 A 
ATOM     25  C   UNL d   1       8.917   0.877 -16.080  0.00  0.00    -0.002 A 
ENDBRANCH  18  20
ENDBRANCH   7  18
TORSDOF 6
