REMARK  2 active torsions:
REMARK  status: ('A' for Active; 'I' for Inactive)
REMARK    1  A    between atoms: N_10  and  C_11 
REMARK    2  A    between atoms: C_11  and  C_12 
ROOT
ATOM      1 BR   UNL d   1      10.622   2.618 -18.951  0.00  0.00    -0.049 Br
ATOM      2  C   UNL d   1       8.983   1.791 -18.458  0.00  0.00     0.035 A 
ATOM      3  C   UNL d   1       7.900   1.785 -19.356  0.00  0.00     0.009 A 
ATOM      4  C   UNL d   1       6.684   1.182 -18.991  0.00  0.00     0.024 A 
ATOM      5  C   UNL d   1       6.541   0.566 -17.731  0.00  0.00     0.090 A 
ATOM      6  C   UNL d   1       7.625   0.590 -16.812  0.00  0.00     0.002 A 
ATOM      7  C   UNL d   1       8.847   1.195 -17.190  0.00  0.00     0.004 A 
ATOM      8  C   UNL d   1       7.477  -0.001 -15.412  0.00  0.00     0.062 C 
ATOM      9  C   UNL d   1       7.558   0.980 -14.273  0.00  0.00     0.255 C 
ATOM     10  N   UNL d   1       6.219   1.565 -14.336  0.00  0.00     0.142 N 
ATOM     11  C   UNL d   1       5.331   0.392 -14.359  0.00  0.00     0.254 C 
ATOM     12  C   UNL d   1       6.104  -0.652 -15.179  0.00  0.00     0.070 C 
ATOM     13  C   UNL d   1       5.407  -1.090 -16.479  0.00  0.00     0.151 C 
ATOM     14  O   UNL d   1       5.340  -0.028 -17.426  0.00  0.00    -0.331 OA
ENDROOT
BRANCH  10  15
ATOM     15  C   UNL d   1       5.876   2.487 -13.254  0.00  0.00     0.277 C 
BRANCH  15  16
ATOM     16  C   UNL d   1       6.811   3.700 -13.148  0.00  0.00     0.011 A 
ATOM     17  C   UNL d   1       6.687   4.561 -12.052  0.00  0.00    -0.002 A 
ATOM     18  C   UNL d   1       7.605   5.646 -11.883  0.00  0.00    -0.000 A 
ATOM     19  C   UNL d   1       8.673   5.809 -12.797  0.00  0.00    -0.000 A 
ATOM     20  C   UNL d   1       8.783   4.929 -13.893  0.00  0.00    -0.000 A 
ATOM     21  C   UNL d   1       7.837   3.938 -14.097  0.00  0.00    -0.002 A 
ENDBRANCH  15  16
ENDBRANCH  10  15
TORSDOF 2
