REMARK  3 active torsions:
REMARK  status: ('A' for Active; 'I' for Inactive)
REMARK    1  A    between atoms: C_7  and  C_8 
REMARK    2  A    between atoms: C_8  and  C_9 
REMARK    3  A    between atoms: C_9  and  N_10 
ROOT
ATOM      1  N   UNL d   1       8.652   1.673 -16.823  0.00  0.00    -0.327 N 
ATOM      2  C   UNL d   1       8.729   2.397 -15.607  0.00  0.00     0.066 A 
ATOM      3  C   UNL d   1       7.585   2.649 -14.790  0.00  0.00     0.018 A 
ATOM      4  C   UNL d   1       7.653   3.456 -13.639  0.00  0.00     0.008 A 
ATOM      5  C   UNL d   1       8.889   3.991 -13.236  0.00  0.00     0.035 A 
ATOM      6 BR   UNL d   1       9.010   5.053 -11.666  0.00  0.00    -0.049 Br
ATOM      7  C   UNL d   1      10.037   3.722 -13.995  0.00  0.00     0.015 A 
ATOM      8  C   UNL d   1       9.965   2.936 -15.161  0.00  0.00     0.046 A 
ATOM      9  S   UNL d   1      11.468   2.701 -16.045  0.00  0.00    -0.084 SA
ATOM     10  C   UNL d   1      11.073   1.472 -17.247  0.00  0.00     0.046 A 
ATOM     11  C   UNL d   1      12.145   0.921 -17.974  0.00  0.00     0.015 A 
ATOM     12  C   UNL d   1      11.926  -0.067 -18.944  0.00  0.00     0.035 A 
ATOM     13 BR   UNL d   1      13.397  -0.813 -19.895  0.00  0.00    -0.049 Br
ATOM     14  C   UNL d   1      10.616  -0.494 -19.210  0.00  0.00     0.008 A 
ATOM     15  C   UNL d   1       9.542   0.072 -18.504  0.00  0.00     0.018 A 
ATOM     16  C   UNL d   1       9.734   1.074 -17.508  0.00  0.00     0.066 A 
ENDROOT
BRANCH   1  17
ATOM     17  C   UNL d   1       7.319   1.470 -17.395  0.00  0.00     0.108 C 
BRANCH  17  18
ATOM     18  C   UNL d   1       6.703   0.180 -16.857  0.00  0.00     0.058 C 
BRANCH  18  19
ATOM     19  C   UNL d   1       5.266  -0.081 -17.387  0.00  0.00     0.221 C 
ATOM     20  N   UNL d   1       4.567  -1.148 -16.644  0.00  0.00     0.137 N 
ATOM     21  C   UNL d   1       4.396  -0.873 -15.229  0.00  0.00     0.285 C 
ATOM     22  C   UNL d   1       5.193  -2.455 -16.844  0.00  0.00     0.250 C 
ATOM     23  C   UNL d   1       5.217  -2.844 -18.340  0.00  0.00     0.035 C 
ATOM     24  C   UNL d   1       5.849  -1.759 -19.226  0.00  0.00     0.004 C 
ATOM     25  C   UNL d   1       5.203  -0.400 -18.906  0.00  0.00     0.033 C 
ENDBRANCH  18  19
ENDBRANCH  17  18
ENDBRANCH   1  17
TORSDOF 3
