REMARK  7 active torsions:
REMARK  status: ('A' for Active; 'I' for Inactive)
REMARK    1  A    between atoms: C_3  and  S_4 
REMARK    2  A    between atoms: S_4  and  N_7 
REMARK    3  A    between atoms: N_7  and  C_8 
REMARK    4  A    between atoms: N_11  and  C_12 
REMARK    5  A    between atoms: C_12  and  C_13 
REMARK    6  A    between atoms: C_13  and  C_14 
REMARK    7  A    between atoms: C_14  and  C_15 
ROOT
ATOM      1  C   UNL d   1       9.553   4.286 -13.638  0.00  0.00     0.151 C 
ATOM      2  C   UNL d   1       8.134   3.736 -13.553  0.00  0.00     0.063 C 
ATOM      3  C   UNL d   1       7.535   4.431 -12.330  0.00  0.00     0.252 C 
ATOM      4  N   UNL d   1       8.704   4.784 -11.533  0.00  0.00     0.139 N 
ATOM      5  C   UNL d   1       9.642   5.310 -12.511  0.00  0.00     0.275 C 
ENDROOT
BRANCH   1   6
ATOM      6  N   UNL d   1       9.807   4.918 -14.928  0.00  0.00    -0.184 NA
BRANCH   6   7
ATOM      7  S   UNL d   1      11.385   4.935 -15.609  0.00  0.00     0.287 S 
ATOM      8  O   UNL d   1      12.361   4.849 -14.510  0.00  0.00    -0.198 OA
ATOM      9  O   UNL d   1      11.436   6.014 -16.607  0.00  0.00    -0.198 OA
BRANCH   7  10
ATOM     10  C   UNL d   1      11.481   3.416 -16.510  0.00  0.00     0.130 A 
ATOM     11  C   UNL d   1      12.514   3.032 -17.333  0.00  0.00    -0.003 A 
ATOM     12  C   UNL d   1      13.761   3.833 -17.582  0.00  0.00     0.032 C 
ATOM     13  C   UNL d   1      12.232   1.744 -17.929  0.00  0.00     0.004 A 
ATOM     14  C   UNL d   1      10.968   1.212 -17.508  0.00  0.00     0.030 A 
ATOM     15  C   UNL d   1      12.981   0.957 -18.839  0.00  0.00     0.012 A 
ATOM     16  S   UNL d   1      10.161   2.292 -16.405  0.00  0.00    -0.074 SA
ATOM     17  C   UNL d   1      10.489  -0.022 -17.972  0.00  0.00     0.007 A 
ATOM     18  C   UNL d   1      11.257  -0.766 -18.875  0.00  0.00     0.012 A 
ATOM     19  C   UNL d   1      12.509  -0.285 -19.300  0.00  0.00     0.058 A 
ATOM     20 CL   UNL d   1      13.472  -1.212 -20.390  0.00  0.00    -0.082 Cl
ENDBRANCH   7  10
ENDBRANCH   6   7
ENDBRANCH   1   6
BRANCH   4  21
ATOM     21  C   UNL d   1       8.368   5.734 -10.492  0.00  0.00     0.251 C 
BRANCH  21  22
ATOM     22  C   UNL d   1       9.580   6.014  -9.585  0.00  0.00     0.042 C 
BRANCH  22  23
ATOM     23  C   UNL d   1       9.163   6.550  -8.199  0.00  0.00     0.050 C 
BRANCH  23  24
ATOM     24  C   UNL d   1      10.049   7.646  -7.675  0.00  0.00     0.088 A 
ATOM     25  C   UNL d   1      10.734   7.782  -6.448  0.00  0.00     0.041 A 
ATOM     26  C   UNL d   1      11.397   9.004  -6.428  0.00  0.00     0.126 A 
ATOM     27  C   UNL d   1      10.822   6.931  -5.326  0.00  0.00     0.003 A 
ATOM     28  O   UNL d   1      11.095   9.588  -7.641  0.00  0.00    -0.211 OA
ATOM     29  C   UNL d   1      12.175   9.447  -5.353  0.00  0.00     0.027 A 
ATOM     30  N   UNL d   1      10.226   8.752  -8.388  0.00  0.00    -0.131 NA
ATOM     31  C   UNL d   1      12.261   8.601  -4.221  0.00  0.00     0.002 A 
ATOM     32  C   UNL d   1      11.590   7.348  -4.213  0.00  0.00     0.000 A 
ENDBRANCH  23  24
ENDBRANCH  22  23
ENDBRANCH  21  22
ENDBRANCH   4  21
TORSDOF 7
