REMARK  5 active torsions:
REMARK  status: ('A' for Active; 'I' for Inactive)
REMARK    1  A    between atoms: N_3  and  C_4 
REMARK    2  A    between atoms: C_4  and  C_5 
REMARK    3  A    between atoms: C_5  and  N_6 
REMARK    4  A    between atoms: N_17  and  C_18 
REMARK    5  A    between atoms: C_18  and  C_19 
ROOT
ATOM      1  O   UNL d   1      13.440   5.017 -15.638  0.00  0.00    -0.247 OA
ATOM      2  C   UNL d   1      12.532   5.140 -16.452  0.00  0.00     0.324 A 
ATOM      3  N   UNL d   1      11.613   4.208 -16.727  0.00  0.00    -0.299 N 
ATOM      4  C   UNL d   1      10.672   4.631 -17.748  0.00  0.00     0.130 A 
ATOM      5  C   UNL d   1      11.155   6.046 -18.081  0.00  0.00     0.130 A 
ATOM      6  N   UNL d   1      12.299   6.226 -17.199  0.00  0.00    -0.297 N 
ENDROOT
BRANCH   3   7
ATOM      7  C   UNL d   1      11.524   2.900 -16.074  0.00  0.00     0.141 C 
BRANCH   7   8
ATOM      8  C   UNL d   1      11.225   3.033 -14.566  0.00  0.00     0.275 C 
BRANCH   8   9
ATOM      9  N   UNL d   1       9.933   3.675 -14.358  0.00  0.00     0.148 N 
ATOM     10  C   UNL d   1       9.788   4.315 -13.046  0.00  0.00     0.277 C 
ATOM     11  C   UNL d   1       8.297   4.399 -12.885  0.00  0.00     0.009 A 
ATOM     12  C   UNL d   1       7.709   3.477 -13.729  0.00  0.00     0.009 A 
ATOM     13  C   UNL d   1       7.534   5.210 -12.030  0.00  0.00    -0.003 A 
ATOM     14  C   UNL d   1       8.791   2.760 -14.486  0.00  0.00     0.277 C 
ATOM     15  C   UNL d   1       6.319   3.286 -13.764  0.00  0.00    -0.003 A 
ATOM     16  C   UNL d   1       5.527   4.093 -12.916  0.00  0.00    -0.000 A 
ATOM     17  C   UNL d   1       6.130   5.050 -12.060  0.00  0.00    -0.000 A 
ENDBRANCH   8   9
ENDBRANCH   7   8
ENDBRANCH   3   7
BRANCH   6  18
ATOM     18  C   UNL d   1      13.108   7.447 -17.188  0.00  0.00     0.134 C 
BRANCH  18  19
ATOM     19  C   UNL d   1      14.122   7.509 -18.322  0.00  0.00     0.011 A 
ATOM     20  C   UNL d   1      15.398   6.888 -18.251  0.00  0.00     0.056 A 
ATOM     21  C   UNL d   1      16.288   6.990 -19.335  0.00  0.00     0.011 A 
ATOM     22 CL   UNL d   1      15.939   5.992 -16.875  0.00  0.00    -0.083 Cl
ATOM     23  C   UNL d   1      15.928   7.702 -20.496  0.00  0.00     0.001 A 
ATOM     24  C   UNL d   1      14.667   8.323 -20.573  0.00  0.00    -0.000 A 
ATOM     25  C   UNL d   1      13.770   8.222 -19.493  0.00  0.00    -0.002 A 
ENDBRANCH  18  19
ENDBRANCH   6  18
TORSDOF 5
