REMARK  3 active torsions:
REMARK  status: ('A' for Active; 'I' for Inactive)
REMARK    1  A    between atoms: C_8  and  C_9 
REMARK    2  A    between atoms: C_9  and  N_10 
REMARK    3  A    between atoms: C_13  and  C_14 
ROOT
ATOM      1  N   UNL d   1       8.458   2.906 -14.220  0.00  0.00     0.137 N 
ATOM      2  C   UNL d   1       7.593   4.076 -14.018  0.00  0.00     0.251 C 
ATOM      3  C   UNL d   1       7.648   4.574 -12.563  0.00  0.00     0.041 C 
ATOM      4  C   UNL d   1       9.086   4.914 -12.127  0.00  0.00     0.047 C 
ATOM      5  C   UNL d   1      10.007   3.742 -12.522  0.00  0.00     0.041 C 
ATOM      6  C   UNL d   1       9.838   3.272 -13.962  0.00  0.00     0.251 C 
ENDROOT
BRANCH   1   7
ATOM      7  C   UNL d   1       8.405   2.361 -15.573  0.00  0.00     0.251 C 
BRANCH   7   8
ATOM      8  C   UNL d   1       7.108   1.573 -15.829  0.00  0.00     0.048 C 
ATOM      9  C   UNL d   1       7.063   0.970 -17.269  0.00  0.00     0.056 C 
ATOM     10  C   UNL d   1       5.982  -0.018 -17.336  0.00  0.00     0.100 A 
ATOM     11  C   UNL d   1       5.285  -0.617 -16.329  0.00  0.00     0.136 A 
ATOM     12  O   UNL d   1       5.551  -0.502 -18.545  0.00  0.00    -0.296 OA
ATOM     13  N   UNL d   1       4.345  -1.463 -16.891  0.00  0.00    -0.221 NA
ATOM     14  C   UNL d   1       5.511  -0.330 -14.937  0.00  0.00     0.192 C 
ATOM     15  C   UNL d   1       4.557  -1.378 -18.204  0.00  0.00     0.159 A 
ATOM     16  C   UNL d   1       3.820  -2.113 -19.270  0.00  0.00     0.080 C 
ATOM     17  C   UNL d   1       6.790   0.512 -14.714  0.00  0.00     0.073 C 
ATOM     18  O   UNL d   1       4.829  -0.679 -13.976  0.00  0.00    -0.290 OA
ENDBRANCH   7   8
ENDBRANCH   1   7
BRANCH   4  19
ATOM     19  C   UNL d   1       9.174   5.296 -10.669  0.00  0.00     0.087 A 
ATOM     20  C   UNL d   1       9.609   6.474 -10.029  0.00  0.00     0.041 A 
ATOM     21  C   UNL d   1       9.482   6.325  -8.645  0.00  0.00     0.129 A 
ATOM     22  C   UNL d   1      10.106   7.694 -10.537  0.00  0.00     0.006 A 
ATOM     23  O   UNL d   1       8.992   5.052  -8.450  0.00  0.00    -0.211 OA
ATOM     24  C   UNL d   1       9.832   7.310  -7.723  0.00  0.00     0.057 A 
ATOM     25  N   UNL d   1       8.826   4.438  -9.710  0.00  0.00    -0.131 NA
ATOM     26  C   UNL d   1      10.345   8.523  -8.229  0.00  0.00     0.142 A 
ATOM     27  F   UNL d   1      10.714   9.502  -7.367  0.00  0.00    -0.204 F 
ATOM     28  C   UNL d   1      10.487   8.708  -9.629  0.00  0.00     0.030 A 
ENDBRANCH   4  19
TORSDOF 3
