REMARK  1 active torsions:
REMARK  status: ('A' for Active; 'I' for Inactive)
REMARK    1  A    between atoms: C_6  and  C_7 
ROOT
ATOM      1  C   UNL d   1      10.240   7.582  -8.838  0.00  0.00     0.038 A 
ATOM      2  C   UNL d   1      10.614   8.648  -9.615  0.00  0.00     0.100 A 
ATOM      3  N   UNL d   1      11.282   9.559  -8.854  0.00  0.00    -0.244 NA
ATOM      4  C   UNL d   1      11.401   9.150  -7.546  0.00  0.00     0.082 A 
ATOM      5  C   UNL d   1      12.032   9.733  -6.419  0.00  0.00     0.020 A 
ATOM      6  C   UNL d   1      12.053   9.042  -5.194  0.00  0.00     0.008 A 
ATOM      7  C   UNL d   1      11.454   7.774  -5.103  0.00  0.00     0.035 A 
ATOM      8 BR   UNL d   1      11.641   6.788  -3.488  0.00  0.00    -0.049 Br
ATOM      9  C   UNL d   1      10.794   7.214  -6.224  0.00  0.00     0.008 A 
ATOM     10  C   UNL d   1      10.758   7.877  -7.496  0.00  0.00     0.021 A 
ENDROOT
BRANCH   1  11
ATOM     11  C   UNL d   1       9.490   6.403  -9.256  0.00  0.00     0.082 A 
ATOM     12  N   UNL d   1       8.913   6.199 -10.512  0.00  0.00    -0.307 N 
ATOM     13  C   UNL d   1       8.866   7.058 -11.687  0.00  0.00     0.132 C 
ATOM     14  C   UNL d   1       8.329   4.999 -10.435  0.00  0.00     0.179 A 
ATOM     15  N   UNL d   1       8.478   4.389  -9.265  0.00  0.00    -0.223 NA
ATOM     16  C   UNL d   1       9.199   5.292  -8.515  0.00  0.00     0.118 A 
ENDBRANCH   1  11
TORSDOF 1
