REMARK  6 active torsions:
REMARK  status: ('A' for Active; 'I' for Inactive)
REMARK    1  A    between atoms: C_2  and  C_3 
REMARK    2  A    between atoms: C_2  and  C_20 
REMARK    3  A    between atoms: C_3  and  C_4 
REMARK    4  A    between atoms: C_4  and  C_5 
REMARK    5  A    between atoms: C_5  and  N_6 
REMARK    6  A    between atoms: C_9  and  C_11 
ROOT
ATOM      1  O   UNL d   1      11.500   3.910 -19.655  0.00  0.00    -0.291 OA
ATOM      2  C   UNL d   1      10.953   4.909 -19.182  0.00  0.00     0.173 C 
ENDROOT
BRANCH   2   3
ATOM      3  C   UNL d   1      11.362   5.387 -17.777  0.00  0.00     0.071 C 
BRANCH   3   4
ATOM      4  C   UNL d   1      10.166   5.316 -16.806  0.00  0.00     0.043 C 
BRANCH   4   5
ATOM      5  C   UNL d   1      10.684   5.283 -15.360  0.00  0.00     0.251 C 
BRANCH   5   6
ATOM      6  N   UNL d   1       9.674   4.637 -14.514  0.00  0.00     0.137 N 
ATOM      7  C   UNL d   1       8.720   5.639 -14.097  0.00  0.00     0.253 C 
ATOM      8  C   UNL d   1       7.602   5.235 -13.138  0.00  0.00     0.070 C 
ATOM      9  C   UNL d   1       8.214   4.652 -11.871  0.00  0.00     0.149 C 
ATOM     10  C   UNL d   1       9.292   3.619 -12.346  0.00  0.00     0.070 C 
ATOM     11  O   UNL d   1       7.129   3.998 -11.300  0.00  0.00    -0.221 OA
ATOM     12  C   UNL d   1      10.333   4.188 -13.304  0.00  0.00     0.253 C 
BRANCH   9  13
ATOM     13  C   UNL d   1       8.873   5.706 -10.937  0.00  0.00     0.005 A 
ATOM     14  C   UNL d   1       9.405   5.306  -9.677  0.00  0.00    -0.001 A 
ATOM     15  C   UNL d   1      10.043   6.232  -8.807  0.00  0.00     0.011 A 
ATOM     16  C   UNL d   1      10.236   7.580  -9.223  0.00  0.00     0.058 A 
ATOM     17  C   UNL d   1       9.758   7.988 -10.490  0.00  0.00     0.011 A 
ATOM     18 CL   UNL d   1      10.938   8.762  -8.160  0.00  0.00    -0.082 Cl
ATOM     19  C   UNL d   1       9.043   7.084 -11.293  0.00  0.00    -0.001 A 
ENDBRANCH   9  13
ENDBRANCH   5   6
ENDBRANCH   4   5
ENDBRANCH   3   4
ENDBRANCH   2   3
BRANCH   2  20
ATOM     20  C   UNL d   1       9.822   5.597 -19.874  0.00  0.00     0.030 C 
ATOM     21  C   UNL d   1       9.643   7.002 -20.003  0.00  0.00    -0.019 C 
ATOM     22  C   UNL d   1       8.465   7.615 -20.509  0.00  0.00    -0.004 C 
ATOM     23  C   UNL d   1      10.964   7.824 -20.000  0.00  0.00     0.031 C 
ATOM     24  C   UNL d   1       7.518   6.791 -21.182  0.00  0.00    -0.005 C 
ATOM     25  C   UNL d   1       7.864   5.430 -21.285  0.00  0.00    -0.022 C 
ATOM     26  C   UNL d   1       8.903   4.794 -20.578  0.00  0.00    -0.002 C 
ATOM     27  C   UNL d   1       7.343   4.539 -22.419  0.00  0.00     0.031 C 
ATOM     28  C   UNL d   1       7.933   4.908 -23.822  0.00  0.00     0.031 C 
ATOM     29  C   UNL d   1       9.277   5.625 -23.731  0.00  0.00    -0.022 C 
ATOM     30  C   UNL d   1      10.379   4.840 -23.335  0.00  0.00    -0.005 C 
ATOM     31  C   UNL d   1       9.244   7.035 -23.797  0.00  0.00    -0.005 C 
ATOM     32  C   UNL d   1      11.414   5.522 -22.658  0.00  0.00    -0.005 C 
ATOM     33  C   UNL d   1      11.216   6.906 -22.451  0.00  0.00    -0.022 C 
ATOM     34  C   UNL d   1      11.910   7.536 -21.235  0.00  0.00     0.031 C 
ATOM     35  C   UNL d   1      10.277   7.715 -23.117  0.00  0.00    -0.005 C 
ENDBRANCH   2  20
TORSDOF 6
