REMARK  6 active torsions:
REMARK  status: ('A' for Active; 'I' for Inactive)
REMARK    1  A    between atoms: N_12  and  C_13 
REMARK    2  A    between atoms: C_13  and  C_14 
REMARK    3  A    between atoms: C_14  and  C_15 
REMARK    4  A    between atoms: C_15  and  C_16 
REMARK    5  A    between atoms: C_16  and  N_17 
REMARK    6  A    between atoms: N_20  and  C_21 
ROOT
ATOM      1  C   UNL d   1       7.861   5.778 -11.393  0.00  0.00     0.026 C 
ENDROOT
BRANCH   1   2
ATOM      2  C   UNL d   1       9.031   6.789 -11.350  0.00  0.00     0.104 C 
BRANCH   2   3
ATOM      3  N   UNL d   1       9.620   6.884 -10.012  0.00  0.00    -0.317 N 
ATOM      4  C   UNL d   1       9.879   8.099  -9.431  0.00  0.00     0.257 C 
ATOM      5  O   UNL d   1       9.780   9.187 -10.012  0.00  0.00    -0.267 OA
ATOM      6  C   UNL d   1      10.377   8.110  -8.007  0.00  0.00     0.052 A 
ATOM      7  C   UNL d   1       9.847   7.298  -6.975  0.00  0.00    -0.018 A 
ATOM      8  C   UNL d   1      11.411   9.016  -7.702  0.00  0.00     0.004 A 
ATOM      9  C   UNL d   1      10.391   7.378  -5.672  0.00  0.00    -0.004 A 
ATOM     10  C   UNL d   1       8.670   6.374  -7.253  0.00  0.00     0.029 C 
ATOM     11  C   UNL d   1      11.432   8.290  -5.384  0.00  0.00    -0.000 A 
ATOM     12  C   UNL d   1      11.923   9.131  -6.398  0.00  0.00     0.000 A 
ATOM     13  C   UNL d   1       8.974   5.245  -8.268  0.00  0.00     0.029 C 
ATOM     14  C   UNL d   1       9.979   5.622  -9.373  0.00  0.00     0.105 C 
ENDBRANCH   2   3
ENDBRANCH   1   2
BRANCH   1  15
ATOM     15  C   UNL d   1       7.035   5.895 -12.665  0.00  0.00     0.037 C 
BRANCH  15  16
ATOM     16  C   UNL d   1       5.839   4.918 -12.638  0.00  0.00     0.251 C 
BRANCH  16  17
ATOM     17  N   UNL d   1       6.240   3.527 -12.866  0.00  0.00     0.141 N 
ATOM     18  C   UNL d   1       6.644   3.327 -14.259  0.00  0.00     0.275 C 
ATOM     19  C   UNL d   1       7.087   1.888 -14.515  0.00  0.00     0.155 C 
ATOM     20  N   UNL d   1       6.013   0.952 -14.172  0.00  0.00    -0.179 N 
ATOM     21  C   UNL d   1       5.487   1.155 -12.823  0.00  0.00     0.155 C 
ATOM     22  C   UNL d   1       5.108   2.634 -12.604  0.00  0.00     0.275 C 
BRANCH  20  23
ATOM     23  C   UNL d   1       5.537  -0.023 -15.042  0.00  0.00     0.727 A 
ATOM     24  N   UNL d   1       4.431  -0.680 -14.677  0.00  0.00    -0.060 NA
ATOM     25  C   UNL d   1       3.958  -1.601 -15.531  0.00  0.00     0.120 A 
ATOM     26  C   UNL d   1       4.610  -1.907 -16.736  0.00  0.00     0.043 A 
ATOM     27  C   UNL d   1       5.769  -1.167 -17.014  0.00  0.00     0.120 A 
ATOM     28  N   UNL d   1       6.213  -0.216 -16.178  0.00  0.00    -0.060 NA
ENDBRANCH  20  23
ENDBRANCH  16  17
ENDBRANCH  15  16
ENDBRANCH   1  15
TORSDOF 6
