REMARK  3 active torsions:
REMARK  status: ('A' for Active; 'I' for Inactive)
REMARK    1  A    between atoms: C_5  and  C_6 
REMARK    2  A    between atoms: N_8  and  C_9 
REMARK    3  A    between atoms: C_19  and  C_20 
ROOT
ATOM      1  C   UNL d   1       8.670   1.174 -17.611  0.00  0.00    -0.003 A 
ATOM      2  C   UNL d   1       9.699   0.732 -18.403  0.00  0.00     0.076 A 
ATOM      3  N   UNL d   1      10.909   1.262 -17.979  0.00  0.00    -0.305 N 
ATOM      4  C   UNL d   1      10.683   2.055 -16.859  0.00  0.00     0.064 A 
ATOM      5  C   UNL d   1      11.548   2.800 -16.035  0.00  0.00     0.018 A 
ATOM      6  C   UNL d   1      11.024   3.533 -14.956  0.00  0.00     0.003 A 
ATOM      7  C   UNL d   1       9.637   3.520 -14.684  0.00  0.00     0.019 A 
ATOM      8  C   UNL d   1       8.787   2.749 -15.511  0.00  0.00     0.003 A 
ATOM      9  C   UNL d   1       9.279   2.011 -16.614  0.00  0.00     0.014 A 
ENDROOT
BRANCH   1  10
ATOM     10  C   UNL d   1       7.210   0.829 -17.758  0.00  0.00     0.028 C 
ATOM     11  C   UNL d   1       6.864  -0.453 -16.987  0.00  0.00     0.040 C 
ATOM     12  C   UNL d   1       5.404  -0.882 -17.218  0.00  0.00     0.251 C 
ATOM     13  N   UNL d   1       5.153  -1.073 -18.646  0.00  0.00     0.139 N 
ATOM     14  C   UNL d   1       3.786  -1.537 -18.839  0.00  0.00     0.285 C 
ATOM     15  C   UNL d   1       5.339   0.185 -19.364  0.00  0.00     0.251 C 
ATOM     16  C   UNL d   1       6.795   0.653 -19.234  0.00  0.00     0.040 C 
ENDBRANCH   1  10
BRANCH   3  17
ATOM     17  C   UNL d   1      12.153   1.022 -18.606  0.00  0.00     0.064 A 
ATOM     18  C   UNL d   1      12.498  -0.284 -19.022  0.00  0.00     0.020 A 
ATOM     19  C   UNL d   1      13.740  -0.523 -19.644  0.00  0.00     0.031 A 
ATOM     20  C   UNL d   1      14.638   0.542 -19.858  0.00  0.00     0.140 A 
ATOM     21  C   UNL d   1      14.290   1.846 -19.459  0.00  0.00     0.031 A 
ATOM     22  F   UNL d   1      15.840   0.310 -20.433  0.00  0.00    -0.204 F 
ATOM     23  C   UNL d   1      13.049   2.087 -18.843  0.00  0.00     0.020 A 
ENDBRANCH   3  17
BRANCH   7  24
ATOM     24  C   UNL d   1       9.078   4.290 -13.562  0.00  0.00     0.102 A 
ATOM     25  N   UNL d   1       9.859   5.091 -12.842  0.00  0.00    -0.169 NA
ATOM     26  N   UNL d   1       9.048   5.630 -11.910  0.00  0.00    -0.248 N 
ATOM     27  C   UNL d   1       7.753   5.185 -12.036  0.00  0.00     0.097 A 
ATOM     28  C   UNL d   1       9.589   6.556 -10.941  0.00  0.00     0.154 C 
ATOM     29  C   UNL d   1       7.728   4.322 -13.095  0.00  0.00     0.041 A 
ENDBRANCH   7  24
TORSDOF 3
