REMARK  4 active torsions:
REMARK  status: ('A' for Active; 'I' for Inactive)
REMARK       I    between atoms: N_10  and  C_11 
REMARK    1  A    between atoms: C_11  and  C_13 
REMARK    2  A    between atoms: C_13  and  N_14 
REMARK    3  A    between atoms: N_17  and  C_18 
REMARK    4  A    between atoms: C_18  and  C_19 
ROOT
ATOM      1  N   UNL d   1      13.090   5.584 -17.137  0.00  0.00     0.151 N 
ATOM      2  C   UNL d   1      11.695   5.906 -16.824  0.00  0.00     0.286 C 
ATOM      3  C   UNL d   1      11.206   5.171 -15.573  0.00  0.00     0.286 C 
ATOM      4  N   UNL d   1      11.317   3.719 -15.717  0.00  0.00     0.146 N 
ATOM      5  C   UNL d   1      12.707   3.398 -16.025  0.00  0.00     0.286 C 
ATOM      6  C   UNL d   1      13.210   4.127 -17.276  0.00  0.00     0.286 C 
ENDROOT
BRANCH   1   7
ATOM      7  C   UNL d   1      13.531   6.304 -18.331  0.00  0.00     0.337 C 
BRANCH   7   8
ATOM      8  C   UNL d   1      15.059   6.439 -18.464  0.00  0.00     0.271 C 
ATOM      9  N   UNL d   1      15.606   7.678 -18.625  0.00  0.00    -0.299 N 
ATOM     10  C   UNL d   1      14.840   8.943 -18.720  0.00  0.00     0.093 C 
ATOM     11  C   UNL d   1      17.000   7.958 -18.655  0.00  0.00     0.058 A 
ATOM     12  C   UNL d   1      14.095   9.031 -20.072  0.00  0.00     0.025 C 
ATOM     13  C   UNL d   1      15.889  10.070 -18.590  0.00  0.00     0.051 C 
ATOM     14  C   UNL d   1      17.203   9.335 -18.617  0.00  0.00    -0.004 A 
ATOM     15  C   UNL d   1      18.493   9.896 -18.610  0.00  0.00    -0.003 A 
ATOM     16  C   UNL d   1      19.606   9.031 -18.665  0.00  0.00    -0.000 A 
ATOM     17  C   UNL d   1      19.413   7.634 -18.728  0.00  0.00     0.002 A 
ATOM     18  C   UNL d   1      18.116   7.088 -18.725  0.00  0.00     0.017 A 
ATOM     19  O   UNL d   1      15.736   5.410 -18.459  0.00  0.00    -0.270 OA
ENDBRANCH   7   8
ENDBRANCH   1   7
BRANCH   4  20
ATOM     20  C   UNL d   1      10.876   3.001 -14.526  0.00  0.00     0.277 C 
BRANCH  20  21
ATOM     21  C   UNL d   1       9.404   3.188 -14.207  0.00  0.00     0.013 A 
ATOM     22  C   UNL d   1       8.991   4.269 -13.393  0.00  0.00     0.024 A 
ATOM     23  C   UNL d   1       7.620   4.414 -13.135  0.00  0.00     0.119 A 
ATOM     24  C   UNL d   1       6.690   3.527 -13.641  0.00  0.00     0.119 A 
ATOM     25  O   UNL d   1       6.995   5.372 -12.412  0.00  0.00    -0.300 OA
ATOM     26  C   UNL d   1       7.067   2.441 -14.441  0.00  0.00     0.026 A 
ATOM     27  O   UNL d   1       5.449   3.902 -13.237  0.00  0.00    -0.300 OA
ATOM     28  C   UNL d   1       8.444   2.279 -14.727  0.00  0.00    -0.000 A 
ATOM     29  C   UNL d   1       5.631   5.055 -12.456  0.00  0.00     0.304 A 
ENDBRANCH  20  21
ENDBRANCH   4  20
TORSDOF 4
