REMARK  2 active torsions:
REMARK  status: ('A' for Active; 'I' for Inactive)
REMARK    1  A    between atoms: N_10  and  C_11 
REMARK    2  A    between atoms: C_11  and  C_12 
ROOT
ATOM      1 BR   UNL d   1       6.500   5.644 -12.428  0.00  0.00    -0.049 Br
ATOM      2  C   UNL d   1       6.913   4.012 -13.307  0.00  0.00     0.035 A 
ATOM      3  C   UNL d   1       5.961   2.974 -13.346  0.00  0.00     0.009 A 
ATOM      4  C   UNL d   1       6.261   1.764 -14.003  0.00  0.00     0.024 A 
ATOM      5  C   UNL d   1       7.516   1.577 -14.618  0.00  0.00     0.090 A 
ATOM      6  C   UNL d   1       8.464   2.633 -14.585  0.00  0.00     0.002 A 
ATOM      7  C   UNL d   1       8.166   3.844 -13.927  0.00  0.00     0.004 A 
ATOM      8  C   UNL d   1       9.803   2.399 -15.245  0.00  0.00     0.062 C 
ATOM      9  C   UNL d   1      10.510   3.533 -15.973  0.00  0.00     0.255 C 
ATOM     10  N   UNL d   1      11.548   2.799 -16.709  0.00  0.00     0.142 N 
ATOM     11  C   UNL d   1      11.022   1.460 -17.023  0.00  0.00     0.254 C 
ATOM     12  C   UNL d   1       9.640   1.427 -16.375  0.00  0.00     0.070 C 
ATOM     13  C   UNL d   1       9.065   0.130 -15.808  0.00  0.00     0.151 C 
ATOM     14  O   UNL d   1       7.759   0.374 -15.263  0.00  0.00    -0.331 OA
ENDROOT
BRANCH  10  15
ATOM     15  C   UNL d   1      11.994   3.508 -17.904  0.00  0.00     0.277 C 
BRANCH  15  16
ATOM     16  C   UNL d   1      12.737   4.798 -17.604  0.00  0.00     0.011 A 
ATOM     17  C   UNL d   1      12.074   6.039 -17.692  0.00  0.00    -0.002 A 
ATOM     18  C   UNL d   1      12.771   7.231 -17.415  0.00  0.00    -0.000 A 
ATOM     19  C   UNL d   1      14.127   7.187 -17.050  0.00  0.00    -0.000 A 
ATOM     20  C   UNL d   1      14.794   5.952 -16.960  0.00  0.00    -0.000 A 
ATOM     21  C   UNL d   1      14.099   4.759 -17.238  0.00  0.00    -0.002 A 
ENDBRANCH  15  16
ENDBRANCH  10  15
TORSDOF 2
