REMARK  2 active torsions:
REMARK  status: ('A' for Active; 'I' for Inactive)
REMARK    1  A    between atoms: C_5  and  N_6 
REMARK    2  A    between atoms: N_6  and  C_7 
ROOT
ATOM      1  C   UNL d   1       8.404   2.799 -14.948  0.00  0.00     0.160 C 
ATOM      2  N   UNL d   1       9.052   3.763 -14.379  0.00  0.00    -0.224 NA
ATOM      3  C   UNL d   1       8.741   4.385 -13.172  0.00  0.00     0.119 A 
ATOM      4  C   UNL d   1       9.825   4.923 -12.460  0.00  0.00     0.024 A 
ATOM      5  C   UNL d   1       9.587   5.652 -11.285  0.00  0.00     0.022 A 
ATOM      6  C   UNL d   1       8.267   5.836 -10.862  0.00  0.00     0.101 A 
ATOM      7  N   UNL d   1       7.210   5.357 -11.555  0.00  0.00    -0.224 NA
ATOM      8  C   UNL d   1       7.443   4.642 -12.665  0.00  0.00     0.180 A 
ATOM      9  N   UNL d   1       6.299   4.132 -13.252  0.00  0.00    -0.225 NA
ATOM     10  C   UNL d   1       6.218   2.788 -13.603  0.00  0.00     0.086 A 
ATOM     11  C   UNL d   1       5.102   2.086 -13.118  0.00  0.00     0.020 A 
ATOM     12  C   UNL d   1       4.947   0.725 -13.439  0.00  0.00     0.013 A 
ATOM     13  C   UNL d   1       5.923   0.039 -14.164  0.00  0.00     0.058 A 
ATOM     14 CL   UNL d   1       5.638  -1.613 -14.522  0.00  0.00    -0.082 Cl
ATOM     15  C   UNL d   1       7.062   0.725 -14.617  0.00  0.00     0.016 A 
ATOM     16  C   UNL d   1       7.209   2.113 -14.364  0.00  0.00     0.054 A 
ENDROOT
BRANCH   1  17
ATOM     17  N   UNL d   1       8.742   2.358 -16.222  0.00  0.00    -0.255 NA
BRANCH  17  18
ATOM     18  C   UNL d   1       9.886   2.839 -16.997  0.00  0.00     0.109 C 
ATOM     19  C   UNL d   1      11.222   2.562 -16.270  0.00  0.00     0.060 C 
ATOM     20  C   UNL d   1      12.401   3.159 -17.037  0.00  0.00     0.252 C 
ATOM     21  N   UNL d   1      12.184   4.591 -17.242  0.00  0.00     0.139 N 
ATOM     22  C   UNL d   1      13.366   5.159 -17.873  0.00  0.00     0.285 C 
ATOM     23  C   UNL d   1      11.020   4.822 -18.098  0.00  0.00     0.252 C 
ATOM     24  C   UNL d   1       9.750   4.328 -17.399  0.00  0.00     0.060 C 
ENDBRANCH  17  18
ENDBRANCH   1  17
TORSDOF 2
