REMARK  3 active torsions:
REMARK  status: ('A' for Active; 'I' for Inactive)
REMARK    1  A    between atoms: C_5  and  N_6 
REMARK    2  A    between atoms: N_9  and  C_10 
REMARK    3  A    between atoms: C_10  and  C_11 
ROOT
ATOM      1  N   UNL d   1       9.990   8.060  -6.832  0.00  0.00    -0.344 N 
ATOM      2  C   UNL d   1       9.184   6.896  -7.178  0.00  0.00     0.137 C 
ATOM      3  C   UNL d   1       9.639   6.333  -8.530  0.00  0.00     0.275 C 
ATOM      4  N   UNL d   1       9.586   7.391  -9.543  0.00  0.00     0.147 N 
ATOM      5  C   UNL d   1      10.496   8.482  -9.185  0.00  0.00     0.275 C 
ATOM      6  C   UNL d   1      10.054   9.093  -7.853  0.00  0.00     0.137 C 
ENDROOT
BRANCH   4   7
ATOM      7  C   UNL d   1       9.958   6.859 -10.843  0.00  0.00     0.297 C 
BRANCH   7   8
ATOM      8  C   UNL d   1       9.072   5.882 -11.557  0.00  0.00     0.112 A 
ATOM      9  N   UNL d   1       9.533   5.155 -12.649  0.00  0.00    -0.229 NA
ATOM     10  C   UNL d   1       8.508   4.400 -13.039  0.00  0.00     0.148 A 
ATOM     11  N   UNL d   1       7.377   4.642 -12.219  0.00  0.00    -0.288 N 
ATOM     12  C   UNL d   1       8.364   3.438 -14.077  0.00  0.00     0.037 A 
ATOM     13  C   UNL d   1       7.767   5.588 -11.294  0.00  0.00     0.098 A 
ATOM     14  C   UNL d   1       6.192   3.999 -12.389  0.00  0.00     0.082 A 
ATOM     15  C   UNL d   1       6.065   3.072 -13.396  0.00  0.00     0.019 A 
ATOM     16  C   UNL d   1       7.160   2.789 -14.249  0.00  0.00     0.005 A 
ENDBRANCH   7   8
ENDBRANCH   4   7
BRANCH   1  17
ATOM     17  C   UNL d   1      10.695   8.181  -5.630  0.00  0.00     0.056 A 
ATOM     18  C   UNL d   1      11.205   7.040  -4.963  0.00  0.00     0.018 A 
ATOM     19  C   UNL d   1      11.864   7.179  -3.730  0.00  0.00     0.013 A 
ATOM     20  C   UNL d   1      11.983   8.455  -3.167  0.00  0.00     0.058 A 
ATOM     21 CL   UNL d   1      12.674   8.650  -1.636  0.00  0.00    -0.082 Cl
ATOM     22  C   UNL d   1      11.501   9.589  -3.817  0.00  0.00     0.013 A 
ATOM     23  C   UNL d   1      10.861   9.463  -5.050  0.00  0.00     0.018 A 
ENDBRANCH   1  17
TORSDOF 3
