REMARK  4 active torsions:
REMARK  status: ('A' for Active; 'I' for Inactive)
REMARK    1  A    between atoms: N_11  and  C_12 
REMARK    2  A    between atoms: N_15  and  C_16 
REMARK    3  A    between atoms: N_19  and  S_20 
REMARK    4  A    between atoms: S_20  and  C_23 
ROOT
ATOM      1  C   UNL d   1      10.855   7.407  -6.677  0.00  0.00     0.094 C 
ATOM      2  C   UNL d   1      11.080   8.095  -8.018  0.00  0.00     0.058 C 
ATOM      3  C   UNL d   1      10.694   7.221  -9.175  0.00  0.00     0.252 C 
ATOM      4  N   UNL d   1       9.288   6.802  -9.063  0.00  0.00     0.135 N 
ATOM      5  C   UNL d   1       9.039   6.049  -7.820  0.00  0.00     0.252 C 
ATOM      6  C   UNL d   1       9.402   6.906  -6.588  0.00  0.00     0.058 C 
ENDROOT
BRANCH   4   7
ATOM      7  C   UNL d   1       8.767   6.104 -10.248  0.00  0.00     0.223 C 
ATOM      8  C   UNL d   1       9.057   6.905 -11.547  0.00  0.00     0.058 C 
ATOM      9  C   UNL d   1       8.598   6.183 -12.782  0.00  0.00     0.115 C 
ATOM     10  N   UNL d   1       9.310   4.894 -12.848  0.00  0.00    -0.274 N 
ATOM     11  C   UNL d   1       9.085   4.025 -11.703  0.00  0.00     0.115 C 
ATOM     12  C   UNL d   1       9.370   4.708 -10.372  0.00  0.00     0.058 C 
BRANCH  10  13
ATOM     13  S   UNL d   1      10.319   4.377 -14.189  0.00  0.00     0.264 S 
ATOM     14  O   UNL d   1      10.732   5.549 -14.967  0.00  0.00    -0.200 OA
ATOM     15  O   UNL d   1      11.346   3.473 -13.645  0.00  0.00    -0.200 OA
BRANCH  13  16
ATOM     16  C   UNL d   1       9.203   3.369 -15.194  0.00  0.00     0.103 A 
ATOM     17  C   UNL d   1       8.101   2.698 -14.612  0.00  0.00     0.013 A 
ATOM     18  C   UNL d   1       7.240   1.917 -15.401  0.00  0.00     0.001 A 
ATOM     19  C   UNL d   1       7.483   1.796 -16.781  0.00  0.00     0.000 A 
ATOM     20  C   UNL d   1       8.585   2.453 -17.366  0.00  0.00     0.001 A 
ATOM     21  C   UNL d   1       9.448   3.242 -16.577  0.00  0.00     0.013 A 
ENDBRANCH  13  16
ENDBRANCH  10  13
ENDBRANCH   4   7
BRANCH   1  22
ATOM     22  N   UNL d   1      11.171   8.283  -5.563  0.00  0.00    -0.281 N 
ATOM     23  C   UNL d   1      11.050   9.624  -5.457  0.00  0.00     0.350 A 
ATOM     24  O   UNL d   1      10.765  10.432  -6.340  0.00  0.00    -0.244 OA
ATOM     25  N   UNL d   1      11.368  10.016  -4.234  0.00  0.00    -0.189 NA
ATOM     26  C   UNL d   1      11.757   8.928  -3.519  0.00  0.00     0.129 A 
ATOM     27  C   UNL d   1      11.614   7.824  -4.326  0.00  0.00     0.084 A 
ATOM     28  C   UNL d   1      12.201   8.844  -2.212  0.00  0.00     0.159 A 
ATOM     29  C   UNL d   1      11.859   6.533  -3.842  0.00  0.00     0.019 A 
ATOM     30  C   UNL d   1      12.315   6.441  -2.504  0.00  0.00     0.004 A 
ATOM     31  C   UNL d   1      12.520   7.590  -1.718  0.00  0.00     0.031 A 
ATOM     32  F   UNL d   1      12.264   9.909  -1.388  0.00  0.00    -0.203 F 
ENDBRANCH   1  22
TORSDOF 4
