REMARK  7 active torsions:
REMARK  status: ('A' for Active; 'I' for Inactive)
REMARK    1  A    between atoms: O_2  and  C_3 
REMARK    2  A    between atoms: C_7  and  N_8 
REMARK    3  A    between atoms: N_11  and  C_12 
REMARK    4  A    between atoms: C_12  and  C_13 
REMARK    5  A    between atoms: C_13  and  C_14 
REMARK    6  A    between atoms: C_14  and  C_15 
REMARK    7  A    between atoms: C_15  and  N_16 
ROOT
ATOM      1  N   UNL d   1       9.896   7.630  -7.541  0.00  0.00    -0.344 N 
ATOM      2  C   UNL d   1       8.881   6.608  -7.284  0.00  0.00     0.137 C 
ATOM      3  C   UNL d   1       9.061   5.433  -8.270  0.00  0.00     0.274 C 
ATOM      4  N   UNL d   1       9.049   5.900  -9.667  0.00  0.00     0.141 N 
ATOM      5  C   UNL d   1      10.139   6.858  -9.856  0.00  0.00     0.274 C 
ATOM      6  C   UNL d   1       9.961   8.059  -8.937  0.00  0.00     0.137 C 
ENDROOT
BRANCH   4   7
ATOM      7  C   UNL d   1       9.194   4.762 -10.563  0.00  0.00     0.251 C 
BRANCH   7   8
ATOM      8  C   UNL d   1       9.024   5.128 -12.055  0.00  0.00     0.037 C 
BRANCH   8   9
ATOM      9  C   UNL d   1       9.535   4.018 -12.985  0.00  0.00     0.029 C 
BRANCH   9  10
ATOM     10  C   UNL d   1       8.688   3.873 -14.261  0.00  0.00     0.132 C 
BRANCH  10  11
ATOM     11  N   UNL d   1       9.062   2.676 -15.020  0.00  0.00    -0.202 N 
ATOM     12  C   UNL d   1      10.187   2.643 -15.800  0.00  0.00     0.349 A 
ATOM     13  N   UNL d   1      10.445   1.446 -16.414  0.00  0.00    -0.244 N 
ATOM     14  O   UNL d   1      10.909   3.634 -15.928  0.00  0.00    -0.245 OA
ATOM     15  C   UNL d   1       9.645   0.345 -16.292  0.00  0.00     0.285 A 
ATOM     16  C   UNL d   1      11.642   1.303 -17.261  0.00  0.00     0.139 C 
ATOM     17  C   UNL d   1       8.434   0.492 -15.448  0.00  0.00     0.181 A 
ATOM     18  O   UNL d   1       9.878  -0.736 -16.835  0.00  0.00    -0.265 OA
ATOM     19  N   UNL d   1       8.198   1.613 -14.856  0.00  0.00    -0.159 NA
ENDBRANCH  10  11
ENDBRANCH   9  10
ENDBRANCH   8   9
ENDBRANCH   7   8
ENDBRANCH   4   7
BRANCH   1  20
ATOM     20  C   UNL d   1      10.733   8.166  -6.555  0.00  0.00     0.058 A 
ATOM     21  C   UNL d   1      11.329   9.431  -6.749  0.00  0.00     0.017 A 
ATOM     22  C   UNL d   1      12.188   9.987  -5.792  0.00  0.00     0.004 A 
ATOM     23  C   UNL d   1      12.436   9.303  -4.584  0.00  0.00     0.024 A 
ATOM     24  C   UNL d   1      11.849   8.037  -4.357  0.00  0.00     0.096 A 
ATOM     25  C   UNL d   1      11.027   7.473  -5.351  0.00  0.00     0.041 A 
BRANCH  24  26
ATOM     26  O   UNL d   1      12.039   7.290  -3.218  0.00  0.00    -0.328 OA
ATOM     27  C   UNL d   1      12.492   7.967  -2.061  0.00  0.00     0.181 C 
ENDBRANCH  24  26
ENDBRANCH   1  20
TORSDOF 7
