REMARK  1 active torsions:
REMARK  status: ('A' for Active; 'I' for Inactive)
REMARK    1  A    between atoms: C_4  and  C_5 
ROOT
ATOM      1  O   UNL d   1       8.950   9.251  -8.031  0.00  0.00    -0.289 OA
ATOM      2  C   UNL d   1       9.774   8.643  -7.375  0.00  0.00     0.202 A 
ATOM      3  C   UNL d   1      10.077   8.879  -6.027  0.00  0.00     0.064 A 
ATOM      4  C   UNL d   1      10.973   8.018  -5.620  0.00  0.00     0.097 A 
ATOM      5  O   UNL d   1      11.374   7.168  -6.611  0.00  0.00    -0.326 OA
ATOM      6  C   UNL d   1      10.710   7.537  -7.830  0.00  0.00     0.187 A 
ATOM      7  C   UNL d   1      11.740   8.095  -8.829  0.00  0.00     0.040 C 
ATOM      8  C   UNL d   1      11.059   8.419 -10.161  0.00  0.00     0.041 C 
ATOM      9  C   UNL d   1      10.254   7.205 -10.677  0.00  0.00     0.290 C 
ATOM     10  N   UNL d   1       9.318   6.669  -9.701  0.00  0.00     0.342 N 
ATOM     11  C   UNL d   1       9.956   6.323  -8.441  0.00  0.00     0.325 C 
ENDROOT
BRANCH   4  12
ATOM     12  C   UNL d   1      11.585   8.010  -4.308  0.00  0.00     0.022 A 
ATOM     13  C   UNL d   1      11.671   9.199  -3.531  0.00  0.00     0.002 A 
ATOM     14  C   UNL d   1      12.219   9.140  -2.243  0.00  0.00     0.000 A 
ATOM     15  C   UNL d   1      12.650   7.922  -1.717  0.00  0.00     0.000 A 
ATOM     16  C   UNL d   1      12.556   6.746  -2.476  0.00  0.00     0.000 A 
ATOM     17  C   UNL d   1      12.019   6.794  -3.770  0.00  0.00     0.002 A 
ENDBRANCH   4  12
TORSDOF 1
