REMARK  3 active torsions:
REMARK  status: ('A' for Active; 'I' for Inactive)
REMARK    1  A    between atoms: C_2  and  C_3 
REMARK    2  A    between atoms: C_3  and  N_4 
REMARK    3  A    between atoms: C_6  and  C_7 
ROOT
ATOM      1  N   UNL d   1       8.012   0.914 -16.697  0.00  0.00     0.141 N 
ATOM      2  C   UNL d   1       7.448   1.777 -15.670  0.00  0.00     0.284 C 
ATOM      3  C   UNL d   1       8.455   2.735 -15.015  0.00  0.00     0.171 C 
ATOM      4  O   UNL d   1       9.505   1.956 -14.453  0.00  0.00    -0.346 OA
ATOM      5  C   UNL d   1      10.156   1.087 -15.384  0.00  0.00     0.169 C 
ATOM      6  C   UNL d   1      11.088   1.827 -16.341  0.00  0.00     0.005 A 
ATOM      7  C   UNL d   1      11.769   2.985 -15.898  0.00  0.00     0.025 A 
ATOM      8  C   UNL d   1      12.657   3.664 -16.751  0.00  0.00     0.131 A 
ATOM      9  O   UNL d   1      13.299   4.788 -16.312  0.00  0.00    -0.190 OA
ATOM     10  C   UNL d   1      12.883   3.182 -18.054  0.00  0.00     0.027 A 
ATOM     11  C   UNL d   1      12.218   2.022 -18.498  0.00  0.00    -0.002 A 
ATOM     12  C   UNL d   1      11.325   1.337 -17.648  0.00  0.00    -0.024 A 
ATOM     13  C   UNL d   1      10.615   0.097 -18.172  0.00  0.00     0.028 C 
ATOM     14  C   UNL d   1       9.896  -0.723 -17.092  0.00  0.00     0.041 C 
ATOM     15  C   UNL d   1       9.125   0.163 -16.093  0.00  0.00     0.251 C 
ENDROOT
BRANCH   3  16
ATOM     16  C   UNL d   1       7.818   3.644 -13.963  0.00  0.00     0.007 A 
ATOM     17  C   UNL d   1       8.595   4.662 -13.368  0.00  0.00    -0.002 A 
ATOM     18  C   UNL d   1       8.024   5.532 -12.409  0.00  0.00    -0.000 A 
ATOM     19  C   UNL d   1       6.677   5.388 -12.041  0.00  0.00    -0.000 A 
ATOM     20  C   UNL d   1       5.893   4.380 -12.633  0.00  0.00    -0.000 A 
ATOM     21  C   UNL d   1       6.457   3.517 -13.588  0.00  0.00    -0.002 A 
ENDBRANCH   3  16
BRANCH   1  22
ATOM     22  C   UNL d   1       6.940   0.058 -17.229  0.00  0.00     0.250 C 
BRANCH  22  23
ATOM     23  C   UNL d   1       5.940   0.775 -18.158  0.00  0.00     0.035 C 
ATOM     24  C   UNL d   1       4.819  -0.151 -18.639  0.00  0.00     0.002 C 
ENDBRANCH  22  23
ENDBRANCH   1  22
TORSDOF 3
