REMARK  8 active torsions:
REMARK  status: ('A' for Active; 'I' for Inactive)
REMARK    1  A    between atoms: S_2  and  N_4 
REMARK    2  A    between atoms: S_2  and  C_24 
REMARK    3  A    between atoms: N_4  and  C_5 
REMARK    4  A    between atoms: C_5  and  C_6 
REMARK    5  A    between atoms: C_6  and  C_7 
REMARK    6  A    between atoms: C_7  and  C_8 
REMARK    7  A    between atoms: C_8  and  N_9 
REMARK    8  A    between atoms: N_12  and  C_13 
ROOT
ATOM      1  C   UNL d   1       9.142   4.778 -12.537  0.00  0.00     0.251 C 
ENDROOT
BRANCH   1   2
ATOM      2  C   UNL d   1       8.659   6.186 -12.143  0.00  0.00     0.037 C 
BRANCH   2   3
ATOM      3  C   UNL d   1       9.344   6.685 -10.893  0.00  0.00     0.029 C 
BRANCH   3   4
ATOM      4  C   UNL d   1       9.033   5.848  -9.621  0.00  0.00     0.139 C 
BRANCH   4   5
ATOM      5  N   UNL d   1       9.109   6.639  -8.392  0.00  0.00    -0.185 NA
BRANCH   5   6
ATOM      6  S   UNL d   1      10.232   7.939  -8.210  0.00  0.00     0.281 S 
ATOM      7  O   UNL d   1      11.413   7.720  -9.060  0.00  0.00    -0.199 OA
ATOM      8  O   UNL d   1       9.466   9.187  -8.263  0.00  0.00    -0.199 OA
BRANCH   6   9
ATOM      9  C   UNL d   1      10.830   7.746  -6.582  0.00  0.00     0.106 A 
ATOM     10  C   UNL d   1      10.904   8.851  -5.713  0.00  0.00     0.025 A 
ATOM     11  C   UNL d   1      11.457   8.688  -4.431  0.00  0.00     0.069 A 
ATOM     12  C   UNL d   1      11.903   7.426  -4.023  0.00  0.00     0.068 A 
ATOM     13 CL   UNL d   1      11.521   9.989  -3.329  0.00  0.00    -0.082 Cl
ATOM     14  C   UNL d   1      11.856   6.369  -4.922  0.00  0.00     0.013 A 
ATOM     15 CL   UNL d   1      12.484   7.126  -2.435  0.00  0.00    -0.082 Cl
ATOM     16  C   UNL d   1      11.332   6.493  -6.210  0.00  0.00     0.014 A 
ENDBRANCH   6   9
ENDBRANCH   5   6
ENDBRANCH   4   5
ENDBRANCH   3   4
ENDBRANCH   2   3
ENDBRANCH   1   2
BRANCH   1  17
ATOM     17  N   UNL d   1       8.286   4.192 -13.556  0.00  0.00     0.141 N 
ATOM     18  C   UNL d   1       6.958   3.895 -12.985  0.00  0.00     0.274 C 
ATOM     19  C   UNL d   1       6.057   3.237 -14.027  0.00  0.00     0.138 C 
ATOM     20  N   UNL d   1       6.712   2.092 -14.632  0.00  0.00    -0.328 N 
ATOM     21  C   UNL d   1       8.062   2.278 -15.131  0.00  0.00     0.138 C 
ATOM     22  C   UNL d   1       8.919   2.947 -14.041  0.00  0.00     0.274 C 
BRANCH  20  23
ATOM     23  C   UNL d   1       6.075   0.836 -14.694  0.00  0.00     0.169 A 
ATOM     24  C   UNL d   1       6.058  -0.039 -15.803  0.00  0.00     0.061 A 
ATOM     25  C   UNL d   1       5.276  -1.145 -15.471  0.00  0.00     0.128 A 
ATOM     26  C   UNL d   1       6.625   0.051 -17.096  0.00  0.00     0.005 A 
ATOM     27  O   UNL d   1       4.825  -0.899 -14.179  0.00  0.00    -0.210 OA
ATOM     28  C   UNL d   1       5.058  -2.208 -16.357  0.00  0.00     0.027 A 
ATOM     29  N   UNL d   1       5.321   0.351 -13.711  0.00  0.00    -0.109 NA
ATOM     30  C   UNL d   1       5.630  -2.131 -17.643  0.00  0.00     0.002 A 
ATOM     31  C   UNL d   1       6.408  -1.007 -18.011  0.00  0.00     0.000 A 
ENDBRANCH  20  23
ENDBRANCH   1  17
TORSDOF 8
