REMARK  2 active torsions:
REMARK  status: ('A' for Active; 'I' for Inactive)
REMARK    1  A    between atoms: N_13  and  C_14 
REMARK    2  A    between atoms: C_14  and  C_15 
ROOT
ATOM      1  N   UNL d   1      12.030   9.870  -3.200  0.00  0.00    -0.120 N 
ATOM      2  C   UNL d   1      11.869   9.175  -4.359  0.00  0.00     0.215 C 
ATOM      3  N   UNL d   1      11.869   9.774  -5.538  0.00  0.00    -0.219 NA
ATOM      4  C   UNL d   1      11.546   8.845  -6.513  0.00  0.00     0.089 A 
ATOM      5  C   UNL d   1      11.319   9.050  -7.875  0.00  0.00     0.015 A 
ATOM      6  C   UNL d   1      10.818   8.067  -8.731  0.00  0.00    -0.022 A 
ATOM      7  C   UNL d   1      10.433   6.815  -8.175  0.00  0.00    -0.024 A 
ATOM      8  C   UNL d   1      10.709   6.562  -6.831  0.00  0.00     0.004 A 
ATOM      9  C   UNL d   1      11.277   7.535  -6.009  0.00  0.00     0.050 A 
ATOM     10  S   UNL d   1      11.575   7.443  -4.303  0.00  0.00    -0.045 SA
ATOM     11  C   UNL d   1       9.973   5.662  -9.024  0.00  0.00     0.061 C 
ATOM     12  C   UNL d   1       8.754   5.932  -9.879  0.00  0.00     0.255 C 
ATOM     13  N   UNL d   1       9.085   6.684 -11.109  0.00  0.00     0.142 N 
ATOM     14  C   UNL d   1       9.464   8.097 -10.886  0.00  0.00     0.255 C 
ATOM     15  C   UNL d   1      10.838   8.280 -10.227  0.00  0.00     0.061 C 
ENDROOT
BRANCH  13  16
ATOM     16  C   UNL d   1       7.905   6.641 -11.981  0.00  0.00     0.277 C 
BRANCH  16  17
ATOM     17  C   UNL d   1       7.678   5.337 -12.699  0.00  0.00     0.013 A 
ATOM     18  C   UNL d   1       6.524   4.575 -12.433  0.00  0.00     0.027 A 
ATOM     19  C   UNL d   1       6.298   3.377 -13.133  0.00  0.00     0.140 A 
ATOM     20  C   UNL d   1       7.233   2.958 -14.104  0.00  0.00     0.030 A 
ATOM     21  F   UNL d   1       5.204   2.629 -12.846  0.00  0.00    -0.204 F 
ATOM     22  C   UNL d   1       8.391   3.724 -14.370  0.00  0.00     0.002 A 
ATOM     23  C   UNL d   1       8.612   4.923 -13.665  0.00  0.00    -0.002 A 
ENDBRANCH  16  17
ENDBRANCH  13  16
TORSDOF 2
