REMARK  1 active torsions:
REMARK  status: ('A' for Active; 'I' for Inactive)
REMARK    1  A    between atoms: C_6  and  C_7 
ROOT
ATOM      1  C   UNL d   1      10.756   9.110  -5.572  0.00  0.00     0.318 C 
ATOM      2  N   UNL d   1      11.680  10.094  -6.160  0.00  0.00     0.348 N 
ATOM      3  C   UNL d   1      12.613   9.453  -7.075  0.00  0.00     0.296 C 
ATOM      4  C   UNL d   1      11.995   8.778  -8.290  0.00  0.00     0.066 C 
ATOM      5  C   UNL d   1      10.841   7.976  -7.827  0.00  0.00    -0.003 A 
ATOM      6  C   UNL d   1      10.232   8.149  -6.625  0.00  0.00     0.093 A 
ATOM      7  N   UNL d   1       9.210   7.202  -6.515  0.00  0.00    -0.248 NA
ATOM      8  C   UNL d   1       9.128   6.417  -7.688  0.00  0.00     0.081 A 
ATOM      9  C   UNL d   1       8.329   5.354  -8.167  0.00  0.00     0.019 A 
ATOM     10  C   UNL d   1       8.540   4.822  -9.466  0.00  0.00     0.002 A 
ATOM     11  C   UNL d   1       9.538   5.354 -10.280  0.00  0.00     0.000 A 
ATOM     12  C   UNL d   1      10.338   6.390  -9.788  0.00  0.00     0.001 A 
ATOM     13  C   UNL d   1      10.168   6.940  -8.514  0.00  0.00     0.015 A 
ENDROOT
BRANCH   1  14
ATOM     14  C   UNL d   1      11.443   8.383  -4.427  0.00  0.00     0.019 A 
ATOM     15  C   UNL d   1      11.529   6.978  -4.434  0.00  0.00    -0.002 A 
ATOM     16  C   UNL d   1      12.147   6.311  -3.382  0.00  0.00     0.002 A 
ATOM     17  C   UNL d   1      12.660   6.983  -2.291  0.00  0.00     0.027 A 
ATOM     18  C   UNL d   1      12.562   8.377  -2.287  0.00  0.00     0.131 A 
ATOM     19  O   UNL d   1      13.122   9.045  -1.218  0.00  0.00    -0.190 OA
ATOM     20  C   UNL d   1      11.951   9.089  -3.327  0.00  0.00     0.025 A 
ENDBRANCH   1  14
TORSDOF 1
