REMARK  6 active torsions:
REMARK  status: ('A' for Active; 'I' for Inactive)
REMARK    1  A    between atoms: O_2  and  C_3 
REMARK    2  A    between atoms: C_6  and  O_7 
REMARK    3  A    between atoms: O_7  and  C_8 
REMARK    4  A    between atoms: C_8  and  C_9 
REMARK    5  A    between atoms: C_9  and  N_10 
REMARK       I    between atoms: N_13  and  C_14 
REMARK    6  A    between atoms: C_14  and  C_16 
ROOT
ATOM      1  N   UNL d   1       8.459   6.186 -11.932  0.00  0.00     0.144 N 
ATOM      2  C   UNL d   1       9.137   5.556 -10.792  0.00  0.00     0.274 C 
ATOM      3  C   UNL d   1       9.251   6.525  -9.607  0.00  0.00     0.140 C 
ATOM      4  N   UNL d   1       9.992   7.748 -10.041  0.00  0.00    -0.311 N 
ATOM      5  C   UNL d   1      11.046   8.295  -9.400  0.00  0.00     0.275 C 
ATOM      6  O   UNL d   1      11.838   9.089  -9.936  0.00  0.00    -0.266 OA
ATOM      7  C   UNL d   1       9.451   8.368 -11.279  0.00  0.00     0.140 C 
ATOM      8  C   UNL d   1       9.276   7.313 -12.363  0.00  0.00     0.274 C 
ENDROOT
BRANCH   1   9
ATOM      9  C   UNL d   1       8.380   5.282 -13.065  0.00  0.00     0.283 C 
BRANCH   9  10
ATOM     10  C   UNL d   1       7.270   4.253 -12.812  0.00  0.00     0.184 C 
BRANCH  10  11
ATOM     11  O   UNL d   1       6.986   3.482 -13.970  0.00  0.00    -0.329 OA
BRANCH  11  12
ATOM     12  C   UNL d   1       7.938   2.633 -14.487  0.00  0.00     0.094 A 
ATOM     13  C   UNL d   1       7.526   1.866 -15.604  0.00  0.00     0.026 A 
ATOM     14  C   UNL d   1       8.409   0.975 -16.233  0.00  0.00     0.026 A 
ATOM     15  C   UNL d   1       9.742   0.857 -15.780  0.00  0.00     0.094 A 
ATOM     16  C   UNL d   1      10.158   1.641 -14.661  0.00  0.00     0.026 A 
ATOM     17  C   UNL d   1       9.259   2.497 -14.014  0.00  0.00     0.026 A 
BRANCH  15  18
ATOM     18  O   UNL d   1      10.651  -0.009 -16.355  0.00  0.00    -0.328 OA
ATOM     19  C   UNL d   1      10.222  -0.748 -17.485  0.00  0.00     0.181 C 
ENDBRANCH  15  18
ENDBRANCH  11  12
ENDBRANCH  10  11
ENDBRANCH   9  10
ENDBRANCH   1   9
BRANCH   5  20
ATOM     20  C   UNL d   1      11.232   8.048  -7.949  0.00  0.00     0.137 A 
ATOM     21  N   UNL d   1      11.404   9.153  -7.126  0.00  0.00    -0.241 NA
ATOM     22  C   UNL d   1      11.537   8.768  -5.804  0.00  0.00     0.082 A 
ATOM     23  C   UNL d   1      11.450   7.351  -5.811  0.00  0.00     0.019 A 
ATOM     24  C   UNL d   1      11.738   9.483  -4.615  0.00  0.00     0.019 A 
ATOM     25  C   UNL d   1      11.277   6.920  -7.167  0.00  0.00     0.025 A 
ATOM     26  C   UNL d   1      11.574   6.690  -4.573  0.00  0.00     0.002 A 
ATOM     27  C   UNL d   1      11.813   7.386  -3.373  0.00  0.00     0.000 A 
ATOM     28  C   UNL d   1      11.887   8.793  -3.393  0.00  0.00     0.002 A 
ENDBRANCH   5  20
TORSDOF 6
