REMARK  2 active torsions:
REMARK  status: ('A' for Active; 'I' for Inactive)
REMARK    1  A    between atoms: C_2  and  C_3 
REMARK    2  A    between atoms: C_3  and  N_4 
ROOT
ATOM      1  N   UNL d   1       7.558   0.372 -16.220  0.00  0.00     0.140 N 
ATOM      2  C   UNL d   1       6.392   0.415 -17.105  0.00  0.00     0.282 C 
ATOM      3  C   UNL d   1       6.770   0.732 -18.554  0.00  0.00     0.178 C 
ATOM      4  O   UNL d   1       7.461   1.974 -18.578  0.00  0.00    -0.348 OA
ATOM      5  C   UNL d   1       8.652   2.002 -17.787  0.00  0.00     0.169 C 
ATOM      6  C   UNL d   1       9.776   1.206 -18.395  0.00  0.00     0.009 A 
ATOM      7  C   UNL d   1      10.033   1.054 -19.789  0.00  0.00     0.005 A 
ATOM      8  C   UNL d   1      11.153   0.312 -20.050  0.00  0.00     0.035 A 
ATOM      9  S   UNL d   1      11.926  -0.222 -18.581  0.00  0.00    -0.091 SA
ATOM     10  C   UNL d   1      10.713   0.580 -17.618  0.00  0.00     0.006 A 
ATOM     11  C   UNL d   1      10.720   0.560 -16.124  0.00  0.00     0.035 C 
ATOM     12  C   UNL d   1       9.694   1.543 -15.523  0.00  0.00     0.041 C 
ATOM     13  C   UNL d   1       8.357   1.603 -16.314  0.00  0.00     0.251 C 
ENDROOT
BRANCH   1  14
ATOM     14  C   UNL d   1       7.187  -0.022 -14.856  0.00  0.00     0.250 C 
BRANCH  14  15
ATOM     15  C   UNL d   1       6.384   1.025 -14.058  0.00  0.00     0.035 C 
ATOM     16  C   UNL d   1       5.620   0.422 -12.880  0.00  0.00     0.002 C 
ENDBRANCH  14  15
ENDBRANCH   1  14
TORSDOF 2
