REMARK  8 active torsions:
REMARK  status: ('A' for Active; 'I' for Inactive)
REMARK    1  A    between atoms: C_7  and  C_8 
REMARK    2  A    between atoms: C_11  and  S_12 
REMARK    3  A    between atoms: S_12  and  C_13 
REMARK    4  A    between atoms: C_13  and  C_14 
REMARK    5  A    between atoms: C_14  and  C_15 
REMARK    6  A    between atoms: C_15  and  N_16 
REMARK    7  A    between atoms: C_21  and  C_22 
REMARK    8  A    between atoms: C_25  and  C_26 
ROOT
ATOM      1  N   UNL d   1       9.423   4.742 -14.637  0.00  0.00     0.137 N 
ATOM      2  C   UNL d   1       8.635   3.526 -14.432  0.00  0.00     0.250 C 
ATOM      3  C   UNL d   1       7.500   3.971 -13.528  0.00  0.00     0.038 C 
ATOM      4  C   UNL d   1       8.035   5.187 -12.807  0.00  0.00     0.037 A 
ATOM      5  C   UNL d   1       7.106   6.345 -12.526  0.00  0.00     0.007 A 
ATOM      6  C   UNL d   1       7.650   5.506 -11.393  0.00  0.00     0.024 A 
ATOM      7  C   UNL d   1       9.456   5.359 -13.310  0.00  0.00     0.251 C 
ENDROOT
BRANCH   1   8
ATOM      8  C   UNL d   1      10.756   4.473 -15.193  0.00  0.00     0.251 C 
BRANCH   8   9
ATOM      9  C   UNL d   1      10.757   4.757 -16.704  0.00  0.00     0.047 C 
BRANCH   9  10
ATOM     10  C   UNL d   1      11.853   3.979 -17.463  0.00  0.00     0.067 C 
BRANCH  10  11
ATOM     11  S   UNL d   1      11.863   2.169 -17.185  0.00  0.00    -0.075 SA
BRANCH  11  12
ATOM     12  C   UNL d   1      10.137   1.861 -17.244  0.00  0.00     0.193 A 
ATOM     13  N   UNL d   1       9.311   2.461 -18.101  0.00  0.00    -0.122 NA
ATOM     14  N   UNL d   1       8.054   2.038 -17.749  0.00  0.00    -0.128 NA
ATOM     15  C   UNL d   1       8.209   1.202 -16.709  0.00  0.00     0.168 A 
ATOM     16  N   UNL d   1       9.512   1.041 -16.369  0.00  0.00    -0.289 N 
ATOM     17  C   UNL d   1      10.105   0.230 -15.314  0.00  0.00     0.134 C 
BRANCH  15  18
ATOM     18  C   UNL d   1       7.066   0.580 -16.043  0.00  0.00     0.050 A 
ATOM     19  C   UNL d   1       6.013  -0.017 -16.783  0.00  0.00     0.062 A 
ATOM     20  C   UNL d   1       6.002  -0.020 -18.304  0.00  0.00     0.052 C 
ATOM     21  N   UNL d   1       4.952  -0.623 -16.203  0.00  0.00    -0.248 NA
ATOM     22  C   UNL d   1       4.895  -0.672 -14.857  0.00  0.00     0.099 A 
ATOM     23  C   UNL d   1       5.884  -0.111 -14.027  0.00  0.00     0.021 A 
ATOM     24  C   UNL d   1       6.981   0.530 -14.633  0.00  0.00     0.006 A 
ENDBRANCH  15  18
ENDBRANCH  11  12
ENDBRANCH  10  11
ENDBRANCH   9  10
ENDBRANCH   8   9
ENDBRANCH   1   8
BRANCH   6  25
ATOM     25  C   UNL d   1       8.682   6.037 -10.443  0.00  0.00    -0.022 A 
ATOM     26  C   UNL d   1       8.841   5.469  -9.159  0.00  0.00    -0.004 A 
ATOM     27  C   UNL d   1       9.772   6.013  -8.256  0.00  0.00     0.004 A 
ATOM     28  C   UNL d   1      10.561   7.123  -8.633  0.00  0.00     0.071 A 
ATOM     29  C   UNL d   1      10.417   7.681  -9.911  0.00  0.00     0.004 A 
ATOM     30  C   UNL d   1       9.486   7.146 -10.807  0.00  0.00    -0.004 A 
BRANCH  28  31
ATOM     31  C   UNL d   1      11.567   7.711  -7.671  0.00  0.00     0.419 C 
ATOM     32  F   UNL d   1      11.106   8.838  -7.129  0.00  0.00    -0.166 F 
ATOM     33  F   UNL d   1      11.805   6.825  -6.706  0.00  0.00    -0.166 F 
ATOM     34  F   UNL d   1      12.704   7.990  -8.318  0.00  0.00    -0.166 F 
ENDBRANCH  28  31
ENDBRANCH   6  25
TORSDOF 8
