REMARK  7 active torsions:
REMARK  status: ('A' for Active; 'I' for Inactive)
REMARK    1  A    between atoms: S_2  and  N_4 
REMARK    2  A    between atoms: S_2  and  C_23 
REMARK    3  A    between atoms: N_4  and  C_5 
REMARK    4  A    between atoms: C_5  and  C_6 
REMARK    5  A    between atoms: C_6  and  C_7 
REMARK    6  A    between atoms: C_7  and  N_8 
REMARK    7  A    between atoms: N_11  and  C_12 
ROOT
ATOM      1  N   UNL d   1       8.248   4.442 -11.967  0.00  0.00     0.141 N 
ATOM      2  C   UNL d   1       7.257   4.689 -13.016  0.00  0.00     0.274 C 
ATOM      3  C   UNL d   1       7.072   3.419 -13.877  0.00  0.00     0.138 C 
ATOM      4  N   UNL d   1       8.353   3.012 -14.441  0.00  0.00    -0.329 N 
ATOM      5  C   UNL d   1       9.422   2.868 -13.479  0.00  0.00     0.138 C 
ATOM      6  C   UNL d   1       9.535   4.125 -12.600  0.00  0.00     0.274 C 
ENDROOT
BRANCH   1   7
ATOM      7  C   UNL d   1       8.396   5.612 -11.096  0.00  0.00     0.253 C 
BRANCH   7   8
ATOM      8  C   UNL d   1       8.749   5.171  -9.660  0.00  0.00     0.062 C 
BRANCH   8   9
ATOM      9  C   UNL d   1       9.121   6.346  -8.734  0.00  0.00     0.141 C 
BRANCH   9  10
ATOM     10  N   UNL d   1      10.565   6.561  -8.743  0.00  0.00    -0.185 NA
BRANCH  10  11
ATOM     11  S   UNL d   1      11.270   8.132  -8.673  0.00  0.00     0.281 S 
ATOM     12  O   UNL d   1      12.666   7.998  -9.110  0.00  0.00    -0.199 OA
ATOM     13  O   UNL d   1      10.375   9.092  -9.333  0.00  0.00    -0.199 OA
BRANCH  11  14
ATOM     14  C   UNL d   1      11.285   8.497  -6.923  0.00  0.00     0.106 A 
ATOM     15  C   UNL d   1      11.451   7.477  -5.962  0.00  0.00     0.027 A 
ATOM     16  C   UNL d   1      11.553   7.831  -4.598  0.00  0.00     0.086 A 
ATOM     17  C   UNL d   1      11.421   9.173  -4.197  0.00  0.00     0.151 A 
ATOM     18 CL   UNL d   1      11.879   6.647  -3.393  0.00  0.00    -0.080 Cl
ATOM     19  C   UNL d   1      11.200  10.173  -5.154  0.00  0.00     0.031 A 
ATOM     20  F   UNL d   1      11.507   9.500  -2.887  0.00  0.00    -0.203 F 
ATOM     21  C   UNL d   1      11.181   9.840  -6.517  0.00  0.00     0.015 A 
ENDBRANCH  11  14
ENDBRANCH  10  11
ENDBRANCH   9  10
ENDBRANCH   8   9
ENDBRANCH   7   8
ENDBRANCH   1   7
BRANCH   4  22
ATOM     22  C   UNL d   1       8.580   2.762 -15.803  0.00  0.00     0.148 A 
ATOM     23  C   UNL d   1       7.759   1.853 -16.583  0.00  0.00     0.042 A 
ATOM     24  C   UNL d   1       8.214   1.849 -17.935  0.00  0.00     0.050 A 
ATOM     25  C   UNL d   1       6.664   1.002 -16.277  0.00  0.00     0.004 A 
ATOM     26  S   UNL d   1       9.547   2.982 -18.048  0.00  0.00     0.015 SA
ATOM     27  C   UNL d   1       7.620   1.049 -18.924  0.00  0.00     0.008 A 
ATOM     28  N   UNL d   1       9.564   3.378 -16.424  0.00  0.00    -0.192 NA
ATOM     29  C   UNL d   1       6.540   0.210 -18.584  0.00  0.00     0.001 A 
ATOM     30  C   UNL d   1       6.059   0.197 -17.260  0.00  0.00     0.000 A 
ENDBRANCH   4  22
TORSDOF 7
