REMARK  8 active torsions:
REMARK  status: ('A' for Active; 'I' for Inactive)
REMARK    1  A    between atoms: O_2  and  C_3 
REMARK    2  A    between atoms: C_8  and  N_9 
REMARK    3  A    between atoms: N_12  and  C_13 
REMARK    4  A    between atoms: C_13  and  C_14 
REMARK    5  A    between atoms: C_14  and  C_15 
REMARK    6  A    between atoms: C_15  and  C_16 
REMARK    7  A    between atoms: C_16  and  N_17 
REMARK       I    between atoms: N_17  and  C_18 
REMARK    8  A    between atoms: C_18  and  C_20 
ROOT
ATOM      1  C   UNL d   1       6.947   5.713 -12.403  0.00  0.00     0.037 C 
ENDROOT
BRANCH   1   2
ATOM      2  C   UNL d   1       5.772   4.719 -12.416  0.00  0.00     0.251 C 
BRANCH   2   3
ATOM      3  N   UNL d   1       6.185   3.367 -12.781  0.00  0.00     0.141 N 
ATOM      4  C   UNL d   1       5.074   2.434 -12.573  0.00  0.00     0.274 C 
ATOM      5  C   UNL d   1       5.481   0.985 -12.933  0.00  0.00     0.137 C 
ATOM      6  N   UNL d   1       5.998   0.936 -14.300  0.00  0.00    -0.343 N 
ATOM      7  C   UNL d   1       7.028   1.934 -14.578  0.00  0.00     0.137 C 
ATOM      8  C   UNL d   1       6.560   3.324 -14.193  0.00  0.00     0.274 C 
BRANCH   6   9
ATOM      9  C   UNL d   1       5.537   0.037 -15.268  0.00  0.00     0.079 A 
ATOM     10  C   UNL d   1       6.385  -0.423 -16.323  0.00  0.00     0.110 A 
ATOM     11  C   UNL d   1       5.864  -1.297 -17.306  0.00  0.00     0.026 A 
ATOM     12  C   UNL d   1       4.526  -1.732 -17.254  0.00  0.00     0.002 A 
ATOM     13  C   UNL d   1       3.693  -1.291 -16.215  0.00  0.00     0.002 A 
ATOM     14  C   UNL d   1       4.192  -0.417 -15.236  0.00  0.00     0.019 A 
BRANCH  10  15
ATOM     15  O   UNL d   1       7.716  -0.053 -16.298  0.00  0.00    -0.327 OA
ATOM     16  C   UNL d   1       8.520  -0.282 -17.436  0.00  0.00     0.181 C 
ENDBRANCH  10  15
ENDBRANCH   6   9
ENDBRANCH   2   3
ENDBRANCH   1   2
BRANCH   1  17
ATOM     17  C   UNL d   1       7.858   5.526 -11.191  0.00  0.00     0.029 C 
BRANCH  17  18
ATOM     18  C   UNL d   1       9.147   6.353 -11.295  0.00  0.00     0.129 C 
BRANCH  18  19
ATOM     19  N   UNL d   1       9.495   6.962 -10.025  0.00  0.00    -0.233 NA
ATOM     20  C   UNL d   1       9.852   6.319  -8.906  0.00  0.00     0.293 C 
ATOM     21  O   UNL d   1       9.862   5.088  -8.825  0.00  0.00    -0.264 OA
BRANCH  20  22
ATOM     22  C   UNL d   1      10.267   7.204  -7.756  0.00  0.00     0.139 A 
ATOM     23  N   UNL d   1      10.685   6.590  -6.626  0.00  0.00    -0.241 NA
ATOM     24  C   UNL d   1      11.063   7.322  -5.559  0.00  0.00     0.082 A 
ATOM     25  C   UNL d   1      11.066   8.737  -5.587  0.00  0.00     0.020 A 
ATOM     26  C   UNL d   1      11.483   6.688  -4.373  0.00  0.00     0.021 A 
ATOM     27  C   UNL d   1      10.665   9.387  -6.764  0.00  0.00     0.003 A 
ATOM     28  C   UNL d   1      11.462   9.487  -4.461  0.00  0.00     0.031 A 
ATOM     29  C   UNL d   1      10.251   8.617  -7.862  0.00  0.00     0.024 A 
ATOM     30  C   UNL d   1      11.874   8.828  -3.289  0.00  0.00     0.140 A 
ATOM     31  F   UNL d   1      12.258   9.537  -2.205  0.00  0.00    -0.204 F 
ATOM     32  C   UNL d   1      11.886   7.425  -3.242  0.00  0.00     0.031 A 
ENDBRANCH  20  22
ENDBRANCH  18  19
ENDBRANCH  17  18
ENDBRANCH   1  17
TORSDOF 8
