REMARK  6 active torsions:
REMARK  status: ('A' for Active; 'I' for Inactive)
REMARK    1  A    between atoms: C_2  and  C_3 
REMARK    2  A    between atoms: C_2  and  C_20 
REMARK    3  A    between atoms: C_3  and  C_4 
REMARK    4  A    between atoms: C_4  and  C_5 
REMARK    5  A    between atoms: C_5  and  N_6 
REMARK    6  A    between atoms: C_9  and  C_11 
ROOT
ATOM      1  N   UNL d   1      10.187   6.875  -9.199  0.00  0.00     0.137 N 
ATOM      2  C   UNL d   1       9.118   7.378  -8.329  0.00  0.00     0.253 C 
ATOM      3  C   UNL d   1       9.546   7.381  -6.867  0.00  0.00     0.070 C 
ATOM      4  C   UNL d   1      10.795   8.246  -6.639  0.00  0.00     0.149 C 
ATOM      5  O   UNL d   1      10.414   9.557  -7.000  0.00  0.00    -0.221 OA
ATOM      6  C   UNL d   1      11.875   7.826  -7.657  0.00  0.00     0.070 C 
ATOM      7  C   UNL d   1      11.339   7.780  -9.106  0.00  0.00     0.253 C 
ENDROOT
BRANCH   1   8
ATOM      8  C   UNL d   1       9.725   6.839 -10.583  0.00  0.00     0.251 C 
BRANCH   8   9
ATOM      9  C   UNL d   1       8.660   5.755 -10.865  0.00  0.00     0.043 C 
BRANCH   9  10
ATOM     10  C   UNL d   1       7.920   6.027 -12.184  0.00  0.00     0.071 C 
BRANCH  10  11
ATOM     11  C   UNL d   1       7.149   4.801 -12.676  0.00  0.00     0.173 C 
ATOM     12  O   UNL d   1       5.941   4.719 -12.449  0.00  0.00    -0.291 OA
BRANCH  11  13
ATOM     13  C   UNL d   1       7.908   3.790 -13.466  0.00  0.00     0.035 A 
ATOM     14  C   UNL d   1       9.322   3.809 -13.539  0.00  0.00     0.005 A 
ATOM     15  C   UNL d   1      10.015   2.823 -14.266  0.00  0.00     0.030 A 
ATOM     16  C   UNL d   1       9.306   1.799 -14.916  0.00  0.00     0.140 A 
ATOM     17  C   UNL d   1       7.899   1.762 -14.840  0.00  0.00     0.030 A 
ATOM     18  F   UNL d   1       9.974   0.846 -15.607  0.00  0.00    -0.204 F 
ATOM     19  C   UNL d   1       7.204   2.748 -14.111  0.00  0.00     0.005 A 
ENDBRANCH  11  13
ENDBRANCH  10  11
ENDBRANCH   9  10
ENDBRANCH   8   9
ENDBRANCH   1   8
BRANCH   4  20
ATOM     20  C   UNL d   1      11.310   8.167  -5.198  0.00  0.00     0.005 A 
ATOM     21  C   UNL d   1      11.487   6.913  -4.565  0.00  0.00     0.000 A 
ATOM     22  C   UNL d   1      11.939   6.846  -3.231  0.00  0.00     0.029 A 
ATOM     23  C   UNL d   1      12.232   8.029  -2.530  0.00  0.00     0.140 A 
ATOM     24  C   UNL d   1      12.062   9.267  -3.154  0.00  0.00     0.029 A 
ATOM     25  F   UNL d   1      12.661   7.986  -1.248  0.00  0.00    -0.204 F 
ATOM     26  C   UNL d   1      11.614   9.343  -4.480  0.00  0.00     0.000 A 
ENDBRANCH   4  20
TORSDOF 6
