REMARK  3 active torsions:
REMARK  status: ('A' for Active; 'I' for Inactive)
REMARK    1  A    between atoms: C_10  and  N_11 
REMARK    2  A    between atoms: N_14  and  C_15 
REMARK    3  A    between atoms: C_15  and  C_16 
ROOT
ATOM      1  N   UNL d   1      10.366   6.756  -8.980  0.00  0.00    -0.344 N 
ATOM      2  C   UNL d   1      11.449   7.712  -9.190  0.00  0.00     0.137 C 
ATOM      3  C   UNL d   1      11.325   8.819  -8.113  0.00  0.00     0.275 C 
ATOM      4  N   UNL d   1      11.356   8.226  -6.768  0.00  0.00     0.145 N 
ATOM      5  C   UNL d   1      10.153   7.407  -6.605  0.00  0.00     0.275 C 
ATOM      6  C   UNL d   1      10.259   6.289  -7.597  0.00  0.00     0.137 C 
ENDROOT
BRANCH   1   7
ATOM      7  C   UNL d   1       9.523   6.296 -10.024  0.00  0.00     0.068 A 
ATOM      8  C   UNL d   1       8.970   4.995 -10.040  0.00  0.00     0.073 A 
ATOM      9 CL   UNL d   1       9.457   3.881  -8.854  0.00  0.00    -0.081 Cl
ATOM     10  C   UNL d   1       8.080   4.565 -11.062  0.00  0.00     0.014 A 
ATOM     11  C   UNL d   1       7.690   5.443 -12.059  0.00  0.00     0.020 A 
ATOM     12  C   UNL d   1       8.174   6.741 -12.008  0.00  0.00     0.083 A 
ATOM     13  C   UNL d   1       9.125   7.185 -11.036  0.00  0.00     0.035 A 
ATOM     14  N   UNL d   1       7.851   7.823 -12.760  0.00  0.00    -0.244 NA
ATOM     15  C   UNL d   1       9.364   8.568 -11.295  0.00  0.00     0.024 A 
ATOM     16  C   UNL d   1       8.630   8.905 -12.389  0.00  0.00     0.099 A 
ENDBRANCH   1   7
BRANCH   4  17
ATOM     17  C   UNL d   1      11.360   9.253  -5.745  0.00  0.00     0.277 C 
BRANCH  17  18
ATOM     18  C   UNL d   1      11.732   8.721  -4.368  0.00  0.00     0.011 A 
ATOM     19  C   UNL d   1      11.833   9.658  -3.318  0.00  0.00    -0.002 A 
ATOM     20  C   UNL d   1      12.239   9.231  -2.044  0.00  0.00    -0.000 A 
ATOM     21  C   UNL d   1      12.469   7.877  -1.786  0.00  0.00    -0.000 A 
ATOM     22  C   UNL d   1      12.294   6.926  -2.804  0.00  0.00    -0.000 A 
ATOM     23  C   UNL d   1      11.986   7.340  -4.115  0.00  0.00    -0.002 A 
ENDBRANCH  17  18
ENDBRANCH   4  17
TORSDOF 3
