REMARK  8 active torsions:
REMARK  status: ('A' for Active; 'I' for Inactive)
REMARK    1  A    between atoms: O_2  and  C_3 
REMARK    2  A    between atoms: C_8  and  N_9 
REMARK    3  A    between atoms: N_15  and  C_16 
REMARK    4  A    between atoms: C_16  and  C_17 
REMARK    5  A    between atoms: C_17  and  C_18 
REMARK    6  A    between atoms: C_18  and  S_19 
REMARK    7  A    between atoms: S_19  and  C_20 
REMARK    8  A    between atoms: C_23  and  C_24 
ROOT
ATOM      1  N   UNL d   1      10.455   7.008  -6.071  0.00  0.00    -0.347 N 
ATOM      2  C   UNL d   1      11.116   6.181  -7.051  0.00  0.00     0.102 C 
ATOM      3  C   UNL d   1      11.039   6.839  -8.431  0.00  0.00     0.024 C 
ATOM      4  C   UNL d   1       9.591   7.175  -8.852  0.00  0.00     0.008 C 
ATOM      5  C   UNL d   1       8.695   5.889  -8.973  0.00  0.00     0.035 C 
ATOM      6  C   UNL d   1       9.122   4.947 -10.097  0.00  0.00     0.250 C 
ATOM      7  N   UNL d   1       9.048   5.636 -11.384  0.00  0.00     0.137 N 
ATOM      8  C   UNL d   1       9.946   6.793 -11.357  0.00  0.00     0.250 C 
ATOM      9  C   UNL d   1       9.636   7.821 -10.264  0.00  0.00     0.035 C 
ATOM     10  C   UNL d   1       9.074   8.148  -7.773  0.00  0.00     0.024 C 
ATOM     11  C   UNL d   1       9.128   7.510  -6.383  0.00  0.00     0.102 C 
ENDROOT
BRANCH   7  12
ATOM     12  C   UNL d   1       9.496   4.733 -12.441  0.00  0.00     0.251 C 
BRANCH  12  13
ATOM     13  C   UNL d   1       8.728   4.980 -13.740  0.00  0.00     0.047 C 
BRANCH  13  14
ATOM     14  C   UNL d   1       9.581   4.716 -14.997  0.00  0.00     0.067 C 
BRANCH  14  15
ATOM     15  S   UNL d   1      10.594   3.203 -14.909  0.00  0.00    -0.074 SA
BRANCH  15  16
ATOM     16  C   UNL d   1       9.288   2.048 -15.042  0.00  0.00     0.212 A 
ATOM     17  N   UNL d   1       8.962   1.216 -14.051  0.00  0.00    -0.120 NA
ATOM     18  N   UNL d   1       7.915   0.449 -14.431  0.00  0.00    -0.127 NA
ATOM     19  C   UNL d   1       7.693   0.900 -15.664  0.00  0.00     0.186 A 
ATOM     20  N   UNL d   1       8.515   1.899 -16.105  0.00  0.00    -0.199 NA
BRANCH  19  21
ATOM     21  C   UNL d   1       6.598   0.374 -16.514  0.00  0.00     0.038 A 
ATOM     22  C   UNL d   1       6.432   0.819 -17.849  0.00  0.00     0.003 A 
ATOM     23  C   UNL d   1       5.389   0.327 -18.657  0.00  0.00     0.000 A 
ATOM     24  C   UNL d   1       4.490  -0.627 -18.144  0.00  0.00     0.000 A 
ATOM     25  C   UNL d   1       4.640  -1.081 -16.821  0.00  0.00     0.000 A 
ATOM     26  C   UNL d   1       5.680  -0.580 -16.017  0.00  0.00     0.003 A 
ENDBRANCH  19  21
ENDBRANCH  15  16
ENDBRANCH  14  15
ENDBRANCH  13  14
ENDBRANCH  12  13
ENDBRANCH   7  12
BRANCH   1  27
ATOM     27  C   UNL d   1      11.156   7.519  -4.971  0.00  0.00     0.079 A 
ATOM     28  C   UNL d   1      11.478   8.884  -4.875  0.00  0.00     0.110 A 
ATOM     29  C   UNL d   1      12.116   9.342  -3.687  0.00  0.00     0.026 A 
ATOM     30  C   UNL d   1      12.422   8.451  -2.642  0.00  0.00     0.002 A 
ATOM     31  C   UNL d   1      12.102   7.094  -2.749  0.00  0.00     0.002 A 
ATOM     32  C   UNL d   1      11.486   6.629  -3.932  0.00  0.00     0.019 A 
BRANCH  28  33
ATOM     33  O   UNL d   1      11.151   9.689  -5.944  0.00  0.00    -0.327 OA
ATOM     34  C   UNL d   1      11.763  10.947  -6.048  0.00  0.00     0.181 C 
ENDBRANCH  28  33
ENDBRANCH   1  27
TORSDOF 8
