REMARK  4 active torsions:
REMARK  status: ('A' for Active; 'I' for Inactive)
REMARK    1  A    between atoms: C_12  and  C_13 
REMARK    2  A    between atoms: C_13  and  N_14 
REMARK    3  A    between atoms: N_14  and  C_15 
REMARK    4  A    between atoms: C_15  and  C_16 
ROOT
ATOM      1  N   UNL d   1       9.957   6.043 -11.343  0.00  0.00    -0.293 NA
ENDROOT
BRANCH   1   2
ATOM      2  C   UNL d   1       8.819   5.200 -11.626  0.00  0.00     0.152 C 
BRANCH   2   3
ATOM      3  C   UNL d   1       9.030   4.456 -12.979  0.00  0.00     0.175 C 
ATOM      4  C   UNL d   1      10.265   3.539 -13.066  0.00  0.00     0.181 C 
ATOM      5  O   UNL d   1      10.362   2.874 -14.341  0.00  0.00    -0.326 OA
ATOM      6  C   UNL d   1       9.158   2.347 -14.770  0.00  0.00     0.114 A 
ATOM      7  C   UNL d   1       9.061   1.425 -15.833  0.00  0.00     0.029 A 
ATOM      8  C   UNL d   1       7.939   2.707 -14.142  0.00  0.00     0.116 A 
ATOM      9  C   UNL d   1      10.115   0.834 -16.757  0.00  0.00     0.120 A 
ATOM     10  C   UNL d   1       7.818   0.888 -16.182  0.00  0.00     0.083 A 
ATOM     11  C   UNL d   1       9.219  -0.069 -17.612  0.00  0.00     0.260 A 
ATOM     12  O   UNL d   1       9.667  -0.778 -18.510  0.00  0.00    -0.270 OA
ATOM     13  N   UNL d   1       7.938   0.013 -17.247  0.00  0.00    -0.212 NA
ATOM     14  C   UNL d   1       6.622   1.184 -15.533  0.00  0.00     0.021 A 
ATOM     15  C   UNL d   1       6.707   2.118 -14.489  0.00  0.00     0.028 A 
ATOM     16  O   UNL d   1       7.892   3.632 -13.134  0.00  0.00    -0.327 OA
ENDBRANCH   2   3
ENDBRANCH   1   2
BRANCH   1  17
ATOM     17  C   UNL d   1      10.269   6.203  -9.931  0.00  0.00     0.120 C 
BRANCH  17  18
ATOM     18  C   UNL d   1       9.247   7.127  -9.281  0.00  0.00     0.029 C 
ATOM     19  C   UNL d   1       9.214   6.929  -7.750  0.00  0.00     0.030 C 
ATOM     20  C   UNL d   1      10.302   7.702  -7.097  0.00  0.00    -0.007 A 
ATOM     21  C   UNL d   1      10.967   8.709  -7.747  0.00  0.00     0.055 A 
ATOM     22  C   UNL d   1      10.910   7.611  -5.771  0.00  0.00     0.017 A 
ATOM     23  C   UNL d   1      10.803   9.133  -9.160  0.00  0.00     0.046 C 
ATOM     24  N   UNL d   1      11.896   9.257  -6.912  0.00  0.00    -0.250 NA
ATOM     25  C   UNL d   1       9.505   8.594  -9.763  0.00  0.00     0.009 C 
ATOM     26  C   UNL d   1      11.849   8.685  -5.676  0.00  0.00     0.081 A 
ATOM     27  C   UNL d   1      12.635   8.938  -4.538  0.00  0.00     0.021 A 
ATOM     28  C   UNL d   1      12.530   8.105  -3.433  0.00  0.00     0.031 A 
ATOM     29  C   UNL d   1      11.578   7.033  -3.471  0.00  0.00     0.140 A 
ATOM     30  F   UNL d   1      11.332   6.363  -2.338  0.00  0.00    -0.204 F 
ATOM     31  C   UNL d   1      10.836   6.801  -4.621  0.00  0.00     0.031 A 
ENDBRANCH  17  18
ENDBRANCH   1  17
TORSDOF 4
