REMARK  4 active torsions:
REMARK  status: ('A' for Active; 'I' for Inactive)
REMARK    1  A    between atoms: C_7  and  C_8 
REMARK    2  A    between atoms: C_8  and  C_9 
REMARK    3  A    between atoms: C_9  and  N_10 
REMARK    4  A    between atoms: C_21  and  S_22 
ROOT
ATOM      1  N   UNL d   1       8.300   2.849 -14.835  0.00  0.00    -0.327 N 
ATOM      2  C   UNL d   1       8.220   3.876 -13.860  0.00  0.00     0.066 A 
ATOM      3  C   UNL d   1       6.967   4.360 -13.363  0.00  0.00     0.018 A 
ATOM      4  C   UNL d   1       6.904   5.380 -12.392  0.00  0.00     0.002 A 
ATOM      5  C   UNL d   1       8.079   5.958 -11.900  0.00  0.00     0.001 A 
ATOM      6  C   UNL d   1       9.321   5.508 -12.379  0.00  0.00     0.008 A 
ATOM      7  C   UNL d   1       9.396   4.490 -13.350  0.00  0.00     0.045 A 
ATOM      8  S   UNL d   1      11.020   4.062 -13.903  0.00  0.00    -0.084 SA
ATOM      9  C   UNL d   1      10.751   3.001 -15.273  0.00  0.00     0.045 A 
ATOM     10  C   UNL d   1      11.886   2.637 -16.043  0.00  0.00     0.009 A 
ATOM     11  C   UNL d   1      11.767   1.792 -17.163  0.00  0.00     0.009 A 
ATOM     12  C   UNL d   1      10.489   1.345 -17.522  0.00  0.00     0.058 A 
ATOM     13  C   UNL d   1       9.339   1.733 -16.790  0.00  0.00     0.026 A 
ATOM     14  C   UNL d   1       9.449   2.536 -15.616  0.00  0.00     0.067 A 
ENDROOT
BRANCH   1  15
ATOM     15  C   UNL d   1       7.107   2.006 -15.046  0.00  0.00     0.108 C 
BRANCH  15  16
ATOM     16  C   UNL d   1       7.321   0.510 -14.707  0.00  0.00     0.058 C 
BRANCH  16  17
ATOM     17  C   UNL d   1       6.027  -0.317 -14.855  0.00  0.00     0.221 C 
ATOM     18  N   UNL d   1       5.343  -0.090 -16.142  0.00  0.00     0.137 N 
ATOM     19  C   UNL d   1       6.199  -0.361 -17.294  0.00  0.00     0.285 C 
ATOM     20  C   UNL d   1       4.169  -0.944 -16.272  0.00  0.00     0.250 C 
ATOM     21  C   UNL d   1       3.165  -0.621 -15.154  0.00  0.00     0.035 C 
ATOM     22  C   UNL d   1       3.784  -0.833 -13.780  0.00  0.00     0.004 C 
ATOM     23  C   UNL d   1       5.075  -0.025 -13.665  0.00  0.00     0.033 C 
ENDBRANCH  16  17
ENDBRANCH  15  16
ENDBRANCH   1  15
BRANCH  12  24
ATOM     24  S   UNL d   1      10.251   0.245 -18.952  0.00  0.00     0.066 S 
ATOM     25  C   UNL d   1      10.797   1.477 -20.223  0.00  0.00     0.111 C 
ATOM     26  O   UNL d   1      11.338  -0.826 -18.860  0.00  0.00    -0.252 OA
ENDBRANCH  12  24
TORSDOF 4
