REMARK  4 active torsions:
REMARK  status: ('A' for Active; 'I' for Inactive)
REMARK    1  A    between atoms: C_5  and  N_6 
REMARK    2  A    between atoms: N_9  and  C_10 
REMARK    3  A    between atoms: C_10  and  C_11 
REMARK    4  A    between atoms: C_11  and  C_12 
ROOT
ATOM      1  N   UNL d   1       8.593   4.643 -12.536  0.00  0.00    -0.344 N 
ATOM      2  C   UNL d   1       8.371   6.068 -12.639  0.00  0.00     0.137 C 
ATOM      3  C   UNL d   1       8.439   6.714 -11.256  0.00  0.00     0.274 C 
ATOM      4  N   UNL d   1       9.654   6.371 -10.515  0.00  0.00     0.141 N 
ATOM      5  C   UNL d   1       9.644   4.921 -10.307  0.00  0.00     0.274 C 
ATOM      6  C   UNL d   1       9.721   4.243 -11.717  0.00  0.00     0.137 C 
ENDROOT
BRANCH   4   7
ATOM      7  C   UNL d   1       9.627   7.096  -9.237  0.00  0.00     0.255 C 
BRANCH   7   8
ATOM      8  C   UNL d   1      10.965   6.966  -8.490  0.00  0.00     0.062 C 
BRANCH   8   9
ATOM      9  C   UNL d   1      11.077   7.794  -7.236  0.00  0.00    -0.018 A 
ATOM     10  C   UNL d   1      11.349   7.181  -5.984  0.00  0.00     0.018 A 
ATOM     11  C   UNL d   1      11.499   8.020  -4.871  0.00  0.00     0.124 A 
ATOM     12  C   UNL d   1      11.317   9.381  -4.973  0.00  0.00     0.124 A 
ATOM     13  N   UNL d   1      11.855   7.675  -3.633  0.00  0.00    -0.127 NA
ATOM     14  C   UNL d   1      11.062  10.007  -6.203  0.00  0.00     0.022 A 
ATOM     15  N   UNL d   1      11.466   9.973  -3.794  0.00  0.00    -0.127 NA
ATOM     16  C   UNL d   1      10.970   9.193  -7.352  0.00  0.00    -0.003 A 
ATOM     17  N   UNL d   1      11.783   8.895  -3.010  0.00  0.00    -0.042 NA
ENDBRANCH   8   9
ENDBRANCH   7   8
ENDBRANCH   4   7
BRANCH   1  18
ATOM     18  C   UNL d   1       7.705   3.728 -13.099  0.00  0.00     0.056 A 
ATOM     19  C   UNL d   1       8.148   2.780 -14.067  0.00  0.00     0.015 A 
ATOM     20  C   UNL d   1       9.481   2.781 -14.562  0.00  0.00     0.001 A 
ATOM     21  C   UNL d   1       7.237   1.829 -14.569  0.00  0.00     0.001 A 
ATOM     22  C   UNL d   1       9.878   1.839 -15.525  0.00  0.00     0.000 A 
ATOM     23  C   UNL d   1       8.955   0.925 -16.054  0.00  0.00     0.000 A 
ATOM     24  C   UNL d   1       7.632   0.914 -15.570  0.00  0.00     0.000 A 
ATOM     25  C   UNL d   1       5.918   1.796 -14.066  0.00  0.00     0.000 A 
ATOM     26  C   UNL d   1       5.463   2.736 -13.132  0.00  0.00     0.002 A 
ATOM     27  C   UNL d   1       6.369   3.712 -12.647  0.00  0.00     0.017 A 
ENDBRANCH   1  18
TORSDOF 4
