REMARK  3 active torsions:
REMARK  status: ('A' for Active; 'I' for Inactive)
REMARK    1  A    between atoms: O_2  and  C_3 
REMARK    2  A    between atoms: C_10  and  C_11 
REMARK       I    between atoms: C_11  and  N_13 
REMARK    3  A    between atoms: N_13  and  C_14 
ROOT
ATOM      1  C   UNL d   1       8.684   5.178 -10.121  0.00  0.00     0.277 C 
ATOM      2  O   UNL d   1       8.328   4.399  -9.241  0.00  0.00    -0.266 OA
ATOM      3  N   UNL d   1       9.107   6.410  -9.820  0.00  0.00    -0.236 NA
ENDROOT
BRANCH   1   4
ATOM      4  C   UNL d   1       8.667   4.823 -11.588  0.00  0.00     0.081 A 
ATOM      5  C   UNL d   1       7.614   4.119 -12.237  0.00  0.00     0.100 A 
ATOM      6  C   UNL d   1       7.765   3.728 -13.601  0.00  0.00     0.039 A 
ATOM      7  C   UNL d   1       8.927   4.003 -14.314  0.00  0.00     0.083 A 
ATOM      8  N   UNL d   1       9.116   3.557 -15.613  0.00  0.00    -0.100 NA
ATOM      9  C   UNL d   1       9.958   4.737 -13.697  0.00  0.00     0.071 A 
ATOM     10 CL   UNL d   1      11.427   5.058 -14.574  0.00  0.00    -0.081 Cl
ATOM     11  C   UNL d   1       9.803   5.162 -12.352  0.00  0.00     0.019 A 
BRANCH   5  12
ATOM     12  O   UNL d   1       6.486   3.782 -11.526  0.00  0.00    -0.328 OA
ATOM     13  C   UNL d   1       5.497   2.960 -12.138  0.00  0.00     0.181 C 
ENDBRANCH   5  12
ENDBRANCH   1   4
BRANCH   3  14
ATOM     14  C   UNL d   1       9.169   6.934  -8.454  0.00  0.00     0.111 C 
ATOM     15  C   UNL d   1       9.249   8.468  -8.344  0.00  0.00     0.058 C 
ATOM     16  C   UNL d   1      10.001   8.719  -7.010  0.00  0.00     0.037 C 
ATOM     17  C   UNL d   1      10.216   8.972  -9.425  0.00  0.00     0.252 C 
ATOM     18  C   UNL d   1      10.339   7.335  -6.456  0.00  0.00     0.006 C 
ATOM     19  C   UNL d   1      11.325   9.325  -7.470  0.00  0.00     0.250 C 
ATOM     20  C   UNL d   1      10.517   6.614  -7.787  0.00  0.00     0.056 C 
ATOM     21  C   UNL d   1      11.694   7.285  -8.587  0.00  0.00     0.252 C 
ATOM     22  N   UNL d   1      11.501   8.735  -8.786  0.00  0.00     0.137 N 
ENDBRANCH   3  14
TORSDOF 3
