REMARK  4 active torsions:
REMARK  status: ('A' for Active; 'I' for Inactive)
REMARK    1  A    between atoms: O_2  and  C_3 
REMARK    2  A    between atoms: C_8  and  N_9 
REMARK    3  A    between atoms: N_12  and  C_13 
REMARK    4  A    between atoms: C_13  and  C_14 
ROOT
ATOM      1  N   UNL d   1      10.317   1.469 -15.524  0.00  0.00    -0.343 N 
ATOM      2  C   UNL d   1       8.889   1.286 -15.282  0.00  0.00     0.137 C 
ATOM      3  C   UNL d   1       8.252   2.641 -14.910  0.00  0.00     0.275 C 
ATOM      4  N   UNL d   1       8.929   3.261 -13.763  0.00  0.00     0.147 N 
ATOM      5  C   UNL d   1      10.339   3.486 -14.111  0.00  0.00     0.275 C 
ATOM      6  C   UNL d   1      11.033   2.152 -14.453  0.00  0.00     0.137 C 
ENDROOT
BRANCH   4   7
ATOM      7  C   UNL d   1       8.298   4.536 -13.418  0.00  0.00     0.298 C 
BRANCH   7   8
ATOM      8  C   UNL d   1       8.638   5.184 -12.107  0.00  0.00     0.114 A 
ATOM      9  N   UNL d   1       9.456   6.213 -12.043  0.00  0.00    -0.168 NA
ATOM     10  N   UNL d   1       9.524   6.517 -10.705  0.00  0.00    -0.229 N 
ATOM     11  C   UNL d   1       8.724   5.649  -9.943  0.00  0.00     0.084 A 
ATOM     12  C   UNL d   1      10.259   7.521 -10.154  0.00  0.00     0.100 A 
ATOM     13  C   UNL d   1       8.144   4.791 -10.836  0.00  0.00     0.038 A 
ATOM     14  C   UNL d   1       8.687   5.843  -8.537  0.00  0.00     0.019 A 
ATOM     15  C   UNL d   1       9.429   6.864  -7.976  0.00  0.00     0.003 A 
ATOM     16  C   UNL d   1      10.226   7.706  -8.791  0.00  0.00     0.021 A 
ENDBRANCH   7   8
ENDBRANCH   4   7
BRANCH   1  17
ATOM     17  C   UNL d   1      10.937   1.087 -16.723  0.00  0.00     0.079 A 
ATOM     18  C   UNL d   1      11.866   1.939 -17.384  0.00  0.00     0.110 A 
ATOM     19  C   UNL d   1      12.523   1.470 -18.552  0.00  0.00     0.026 A 
ATOM     20  C   UNL d   1      12.239   0.198 -19.078  0.00  0.00     0.002 A 
ATOM     21  C   UNL d   1      11.295  -0.625 -18.443  0.00  0.00     0.002 A 
ATOM     22  C   UNL d   1      10.649  -0.183 -17.274  0.00  0.00     0.019 A 
BRANCH  18  23
ATOM     23  O   UNL d   1      12.067   3.201 -16.866  0.00  0.00    -0.327 OA
ATOM     24  C   UNL d   1      13.102   4.007 -17.406  0.00  0.00     0.181 C 
ENDBRANCH  18  23
ENDBRANCH   1  17
TORSDOF 4
