REMARK  10 active torsions:
REMARK  status: ('A' for Active; 'I' for Inactive)
REMARK    1  A    between atoms: C_11  and  C_12 
REMARK    2  A    between atoms: C_12  and  N_13 
REMARK    3  A    between atoms: N_13  and  C_14 
REMARK    4  A    between atoms: C_17  and  C_18 
REMARK       I    between atoms: C_18  and  N_20 
REMARK    5  A    between atoms: N_20  and  CA_21 
REMARK    6  A    between atoms: CA_21  and  CB_22 
REMARK    7  A    between atoms: CA_21  and  C_27 
REMARK    8  A    between atoms: CB_22  and  CG_23 
REMARK    9  A    between atoms: CG_23  and  CD_24 
REMARK   10  A    between atoms: N_32  and  C_33 
ROOT
ATOM      1  C   UNK d   0       7.357   4.017 -13.306  0.00  0.00     0.076 C 
ATOM      2  C   UNK d   0       8.722   3.746 -13.064  0.00  0.00     0.019 C 
ATOM      3  C   UNK d   0       9.297   4.197 -11.870  0.00  0.00     0.006 C 
ATOM      4  C   UNK d   0       8.581   5.011 -10.983  0.00  0.00     0.058 C 
ATOM      5  C   UNK d   0       7.257   5.395 -11.297  0.00  0.00     0.006 C 
ATOM      6  C   UNK d   0       6.636   4.868 -12.437  0.00  0.00     0.019 C 
ENDROOT
BRANCH   1   7
ATOM      7  N   UNK d   0       6.655   3.404 -14.347  0.00  0.00    -0.269 NA
BRANCH   7   8
ATOM      8  C   UNK d   0       7.333   2.573 -15.325  0.00  0.00     0.150 C 
BRANCH   8   9
ATOM      9  C   UNK d   0       7.623   1.159 -14.793  0.00  0.00     0.138 C 
ATOM     10  C   UNK d   0       6.374   0.535 -14.113  0.00  0.00     0.152 C 
ATOM     11  N   UNK d   0       5.436  -0.002 -15.078  0.00  0.00    -0.249 NA
ATOM     12  C   UNK d   0       5.828  -0.319 -16.357  0.00  0.00     0.198 A 
ATOM     13  C   UNK d   0       7.106  -0.181 -16.812  0.00  0.00     0.158 A 
ATOM     14  N   UNK d   0       4.780  -0.812 -17.137  0.00  0.00    -0.037 NA
ATOM     15  C   UNK d   0       7.380  -0.547 -18.219  0.00  0.00     0.314 A 
ATOM     16  N   UNK d   0       8.093   0.341 -15.936  0.00  0.00    -0.283 N 
ATOM     17  N   UNK d   0       6.316  -1.038 -18.895  0.00  0.00    -0.016 NA
ATOM     18  O   UNK d   0       8.457  -0.429 -18.805  0.00  0.00    -0.263 OA
ATOM     19  C   UNK d   0       5.032  -1.162 -18.351  0.00  0.00     0.773 A 
ATOM     20  N   UNK d   0       4.105  -1.662 -19.236  0.00  0.00     0.062 N 
BRANCH  16  21
ATOM     21  C   UNK d   0       9.401  -0.014 -15.989  0.00  0.00     0.318 C 
ATOM     22  O   UNK d   0      10.280   0.435 -15.250  0.00  0.00    -0.262 OA
ENDBRANCH  16  21
ENDBRANCH   8   9
ENDBRANCH   7   8
ENDBRANCH   1   7
BRANCH   4  23
ATOM     23  C   UNK d   0       9.213   5.444  -9.711  0.00  0.00     0.275 C 
ATOM     24  O   UNK d   0       9.858   4.665  -9.005  0.00  0.00    -0.266 OA
ATOM     25  N   GLU d   1       9.114   6.753  -9.480  0.00  0.00    -0.225 NA
BRANCH  25  26
ATOM     26  CA  GLU d   1       9.857   7.468  -8.465  0.00  0.00     0.194 C 
BRANCH  26  27
ATOM     27  CB  GLU d   1      10.162   8.889  -9.006  0.00  0.00     0.047 C 
BRANCH  27  28
ATOM     28  CG  GLU d   1      11.354   8.934  -9.973  0.00  0.00     0.100 C 
BRANCH  28  29
ATOM     29  CD  GLU d   1      12.657   8.383  -9.364  0.00  0.00     0.185 C 
ATOM     30  OE1 GLU d   1      13.569   7.908 -10.026  0.00  0.00    -0.647 OA
ATOM     31  OE2 GLU d   1      12.703   8.487  -8.015  0.00  0.00    -0.647 OA
ENDBRANCH  28  29
ENDBRANCH  27  28
ENDBRANCH  26  27
BRANCH  26  32
ATOM     32  C   GLU d   1       9.025   7.539  -7.193  0.00  0.00     0.209 C 
ATOM     33  O   GLU d   1       9.079   8.507  -6.441  0.00  0.00    -0.646 OA
ATOM     34  OXT GLU d   1       8.267   6.465  -6.864  0.00  0.00    -0.646 OA
ENDBRANCH  26  32
ENDBRANCH  25  26
ENDBRANCH   4  23
TORSDOF 10
