REMARK  9 active torsions:
REMARK  status: ('A' for Active; 'I' for Inactive)
REMARK    1  A    between atoms: C_2  and  C_3 
REMARK    2  A    between atoms: C_7  and  O_8 
REMARK    3  A    between atoms: C_10  and  N_11 
REMARK    4  A    between atoms: N_14  and  C_15 
REMARK    5  A    between atoms: C_15  and  C_16 
REMARK    6  A    between atoms: C_16  and  C_18 
REMARK    7  A    between atoms: C_18  and  C_19 
REMARK    8  A    between atoms: C_19  and  N_20 
REMARK       I    between atoms: N_20  and  C_21 
REMARK    9  A    between atoms: C_21  and  C_23 
ROOT
ATOM      1  N   UNL d   1       7.772   1.997 -14.771  0.00  0.00    -0.343 N 
ATOM      2  C   UNL d   1       9.113   1.770 -14.259  0.00  0.00     0.137 C 
ATOM      3  C   UNL d   1       9.836   3.110 -14.045  0.00  0.00     0.274 C 
ATOM      4  N   UNL d   1       9.029   3.993 -13.185  0.00  0.00     0.144 N 
ATOM      5  C   UNL d   1       7.738   4.251 -13.844  0.00  0.00     0.274 C 
ATOM      6  C   UNL d   1       6.947   2.943 -14.041  0.00  0.00     0.137 C 
ENDROOT
BRANCH   4   7
ATOM      7  C   UNL d   1       9.753   5.248 -13.016  0.00  0.00     0.285 C 
BRANCH   7   8
ATOM      8  C   UNL d   1       9.132   6.193 -11.954  0.00  0.00     0.196 C 
ATOM      9  F   UNL d   1       9.202   7.436 -12.435  0.00  0.00    -0.235 F 
BRANCH   8  10
ATOM     10  C   UNL d   1       9.884   6.142 -10.618  0.00  0.00     0.064 C 
BRANCH  10  11
ATOM     11  C   UNL d   1       9.291   7.078  -9.569  0.00  0.00     0.132 C 
BRANCH  11  12
ATOM     12  N   UNL d   1      10.148   7.193  -8.396  0.00  0.00    -0.233 NA
ATOM     13  C   UNL d   1      10.783   8.322  -8.052  0.00  0.00     0.298 C 
ATOM     14  O   UNL d   1      10.971   9.263  -8.818  0.00  0.00    -0.263 OA
BRANCH  13  15
ATOM     15  C   UNL d   1      11.137   8.430  -6.631  0.00  0.00     0.157 A 
ATOM     16  O   UNL d   1      11.345   7.271  -5.926  0.00  0.00    -0.302 OA
ATOM     17  C   UNL d   1      11.653   7.639  -4.636  0.00  0.00     0.100 A 
ATOM     18  C   UNL d   1      11.614   9.045  -4.517  0.00  0.00     0.025 A 
ATOM     19  C   UNL d   1      11.973   6.786  -3.576  0.00  0.00     0.025 A 
ATOM     20  C   UNL d   1      11.285   9.536  -5.822  0.00  0.00     0.032 A 
ATOM     21  C   UNL d   1      11.888   9.589  -3.237  0.00  0.00     0.002 A 
ATOM     22  C   UNL d   1      12.262   8.747  -2.168  0.00  0.00     0.000 A 
ATOM     23  C   UNL d   1      12.279   7.348  -2.326  0.00  0.00     0.002 A 
ENDBRANCH  13  15
ENDBRANCH  11  12
ENDBRANCH  10  11
ENDBRANCH   8  10
ENDBRANCH   7   8
ENDBRANCH   4   7
BRANCH   1  24
ATOM     24  C   UNL d   1       7.292   1.277 -15.867  0.00  0.00     0.079 A 
ATOM     25  C   UNL d   1       6.134   0.471 -15.774  0.00  0.00     0.120 A 
ATOM     26  C   UNL d   1       5.666  -0.214 -16.918  0.00  0.00     0.081 A 
ATOM     27  C   UNL d   1       6.359  -0.105 -18.139  0.00  0.00     0.009 A 
ATOM     28 CL   UNL d   1       4.259  -1.217 -16.823  0.00  0.00    -0.080 Cl
ATOM     29  C   UNL d   1       7.519   0.689 -18.233  0.00  0.00    -0.020 A 
ATOM     30  C   UNL d   1       7.983   1.372 -17.094  0.00  0.00     0.015 A 
BRANCH  25  31
ATOM     31  O   UNL d   1       5.436   0.360 -14.595  0.00  0.00    -0.326 OA
ATOM     32  C   UNL d   1       6.084  -0.428 -13.611  0.00  0.00     0.181 C 
ENDBRANCH  25  31
BRANCH  29  33
ATOM     33  C   UNL d   1       8.260   0.808 -19.551  0.00  0.00     0.026 C 
ATOM     34  C   UNL d   1       7.782   1.998 -20.389  0.00  0.00     0.005 C 
ENDBRANCH  29  33
ENDBRANCH   1  24
TORSDOF 9
