REMARK  6 active torsions:
REMARK  status: ('A' for Active; 'I' for Inactive)
REMARK    1  A    between atoms: S_2  and  C_4 
REMARK    2  A    between atoms: S_2  and  N_14 
REMARK    3  A    between atoms: C_17  and  C_18 
REMARK    4  A    between atoms: C_18  and  C_19 
REMARK    5  A    between atoms: C_19  and  N_20 
REMARK    6  A    between atoms: N_23  and  C_24 
ROOT
ATOM      1  N   UNL d   1       7.937   2.481 -14.553  0.00  0.00    -0.275 N 
ATOM      2  C   UNL d   1       7.097   3.159 -13.530  0.00  0.00     0.113 C 
ATOM      3  C   UNL d   1       7.991   3.883 -12.508  0.00  0.00     0.025 C 
ATOM      4  C   UNL d   1       8.951   4.833 -13.196  0.00  0.00     0.006 C 
ATOM      5  C   UNL d   1       9.854   4.005 -14.139  0.00  0.00     0.025 C 
ATOM      6  C   UNL d   1       9.043   3.256 -15.161  0.00  0.00     0.113 C 
ENDROOT
BRANCH   4   7
ATOM      7  C   UNL d   1       9.839   5.461 -12.152  0.00  0.00     0.035 C 
BRANCH   7   8
ATOM      8  C   UNL d   1       9.168   6.414 -11.135  0.00  0.00     0.250 C 
BRANCH   8   9
ATOM      9  N   UNL d   1      10.094   7.338 -10.475  0.00  0.00     0.141 N 
ATOM     10  C   UNL d   1       9.344   8.338  -9.734  0.00  0.00     0.274 C 
ATOM     11  C   UNL d   1      10.230   9.352  -9.015  0.00  0.00     0.137 C 
ATOM     12  N   UNL d   1      11.189   8.683  -8.156  0.00  0.00    -0.344 N 
ATOM     13  C   UNL d   1      11.920   7.641  -8.819  0.00  0.00     0.137 C 
ATOM     14  C   UNL d   1      10.901   6.662  -9.464  0.00  0.00     0.274 C 
BRANCH  12  15
ATOM     15  C   UNL d   1      11.287   8.903  -6.802  0.00  0.00     0.068 C 
ATOM     16  C   UNL d   1      11.440   7.905  -5.774  0.00  0.00     0.084 C 
ATOM     17  C   UNL d   1      11.606   8.201  -4.424  0.00  0.00     0.070 C 
ATOM     18 CL   UNL d   1      11.412   6.292  -6.175  0.00  0.00    -0.080 Cl
ATOM     19  C   UNL d   1      11.546   9.519  -4.015  0.00  0.00     0.012 C 
ATOM     20 CL   UNL d   1      11.853   6.949  -3.237  0.00  0.00    -0.081 Cl
ATOM     21  C   UNL d   1      11.304  10.474  -5.011  0.00  0.00     0.002 C 
ATOM     22  C   UNL d   1      11.266  10.221  -6.353  0.00  0.00     0.018 C 
ENDBRANCH  12  15
ENDBRANCH   8   9
ENDBRANCH   7   8
ENDBRANCH   4   7
BRANCH   1  23
ATOM     23  S   UNL d   1       7.821   0.777 -14.850  0.00  0.00     0.266 S 
ATOM     24  O   UNL d   1       6.901   0.245 -13.821  0.00  0.00    -0.200 OA
ATOM     25  O   UNL d   1       9.187   0.263 -14.952  0.00  0.00    -0.200 OA
BRANCH  23  26
ATOM     26  C   UNL d   1       7.075   0.680 -16.509  0.00  0.00     0.122 A 
ATOM     27  C   UNL d   1       6.025  -0.206 -16.874  0.00  0.00     0.015 A 
ATOM     28  C   UNL d   1       5.573  -0.186 -18.223  0.00  0.00     0.020 A 
ATOM     29  C   UNL d   1       5.411  -1.113 -15.983  0.00  0.00     0.001 A 
ATOM     30  C   UNL d   1       6.175   0.697 -19.139  0.00  0.00     0.099 A 
ATOM     31  C   UNL d   1       4.538  -1.037 -18.656  0.00  0.00     0.002 A 
ATOM     32  N   UNL d   1       7.167   1.537 -18.803  0.00  0.00    -0.242 NA
ATOM     33  C   UNL d   1       7.604   1.506 -17.529  0.00  0.00     0.112 A 
ATOM     34  C   UNL d   1       3.935  -1.921 -17.744  0.00  0.00     0.000 A 
ATOM     35  C   UNL d   1       4.374  -1.948 -16.413  0.00  0.00     0.000 A 
ENDBRANCH  23  26
ENDBRANCH   1  23
TORSDOF 6
