REMARK  8 active torsions:
REMARK  status: ('A' for Active; 'I' for Inactive)
REMARK    1  A    between atoms: C_2  and  C_3 
REMARK    2  A    between atoms: C_7  and  N_8 
REMARK    3  A    between atoms: N_11  and  C_12 
REMARK    4  A    between atoms: C_12  and  C_13 
REMARK    5  A    between atoms: C_13  and  C_15 
REMARK    6  A    between atoms: C_15  and  C_16 
REMARK    7  A    between atoms: C_16  and  N_17 
REMARK       I    between atoms: N_17  and  C_18 
REMARK    8  A    between atoms: C_18  and  C_20 
ROOT
ATOM      1  C   UNL d   1       8.574   6.396 -12.503  0.00  0.00     0.283 C 
ENDROOT
BRANCH   1   2
ATOM      2  N   UNL d   1       9.466   5.266 -12.839  0.00  0.00     0.144 N 
ATOM      3  C   UNL d   1       8.717   4.014 -12.895  0.00  0.00     0.274 C 
ATOM      4  C   UNL d   1       9.625   2.825 -13.227  0.00  0.00     0.137 C 
ATOM      5  N   UNL d   1      10.341   3.037 -14.473  0.00  0.00    -0.344 N 
ATOM      6  C   UNL d   1      11.083   4.289 -14.546  0.00  0.00     0.137 C 
ATOM      7  C   UNL d   1      10.136   5.435 -14.141  0.00  0.00     0.274 C 
BRANCH   5   8
ATOM      8  C   UNL d   1      10.250   2.148 -15.552  0.00  0.00     0.067 A 
ATOM      9  C   UNL d   1      11.450   1.819 -16.233  0.00  0.00     0.018 A 
ATOM     10  C   UNL d   1      11.456   0.921 -17.316  0.00  0.00     0.001 A 
ATOM     11  C   UNL d   1      10.258   0.341 -17.749  0.00  0.00    -0.003 A 
ATOM     12  C   UNL d   1       9.048   0.655 -17.103  0.00  0.00    -0.010 A 
ATOM     13  C   UNL d   1       9.029   1.553 -16.009  0.00  0.00     0.069 A 
ATOM     14 CL   UNL d   1       7.475   1.957 -15.336  0.00  0.00    -0.081 Cl
BRANCH  12  15
ATOM     15  C   UNL d   1       7.753   0.050 -17.606  0.00  0.00     0.027 C 
ATOM     16  C   UNL d   1       6.921   1.050 -18.425  0.00  0.00     0.005 C 
ENDBRANCH  12  15
ENDBRANCH   5   8
ENDBRANCH   1   2
BRANCH   1  17
ATOM     17  C   UNL d   1       9.290   7.653 -11.958  0.00  0.00     0.188 C 
ATOM     18  O   UNL d   1       8.415   8.750 -12.038  0.00  0.00    -0.221 OA
BRANCH  17  19
ATOM     19  C   UNL d   1       9.646   7.503 -10.454  0.00  0.00     0.061 C 
BRANCH  19  20
ATOM     20  C   UNL d   1      11.116   7.744 -10.085  0.00  0.00     0.132 C 
BRANCH  20  21
ATOM     21  N   UNL d   1      11.302   7.990  -8.658  0.00  0.00    -0.233 NA
ATOM     22  C   UNL d   1      10.890   7.194  -7.659  0.00  0.00     0.298 C 
ATOM     23  O   UNL d   1      10.348   6.102  -7.814  0.00  0.00    -0.263 OA
BRANCH  22  24
ATOM     24  C   UNL d   1      11.208   7.668  -6.317  0.00  0.00     0.157 A 
ATOM     25  O   UNL d   1      11.501   6.711  -5.386  0.00  0.00    -0.302 OA
ATOM     26  C   UNL d   1      11.818   7.364  -4.227  0.00  0.00     0.100 A 
ATOM     27  C   UNL d   1      11.635   8.759  -4.408  0.00  0.00     0.025 A 
ATOM     28  C   UNL d   1      12.246   6.793  -3.024  0.00  0.00     0.025 A 
ATOM     29  C   UNL d   1      11.232   8.931  -5.771  0.00  0.00     0.032 A 
ATOM     30  C   UNL d   1      11.849   9.581  -3.282  0.00  0.00     0.002 A 
ATOM     31  C   UNL d   1      12.262   9.026  -2.064  0.00  0.00     0.000 A 
ATOM     32  C   UNL d   1      12.480   7.645  -1.944  0.00  0.00     0.002 A 
ENDBRANCH  22  24
ENDBRANCH  20  21
ENDBRANCH  19  20
ENDBRANCH  17  19
ENDBRANCH   1  17
TORSDOF 8
