REMARK  6 active torsions:
REMARK  status: ('A' for Active; 'I' for Inactive)
REMARK    1  A    between atoms: N_3  and  C_4 
REMARK    2  A    between atoms: C_4  and  C_5 
REMARK    3  A    between atoms: C_5  and  C_6 
REMARK    4  A    between atoms: C_6  and  C_7 
REMARK    5  A    between atoms: C_7  and  N_8 
REMARK    6  A    between atoms: N_11  and  C_12 
ROOT
ATOM      1  N   UNL d   1       7.857   5.235 -12.097  0.00  0.00     0.141 N 
ATOM      2  C   UNL d   1       8.220   4.700 -10.781  0.00  0.00     0.274 C 
ATOM      3  C   UNL d   1       8.438   5.788  -9.749  0.00  0.00     0.137 C 
ATOM      4  N   UNL d   1       9.387   6.777 -10.233  0.00  0.00    -0.344 N 
ATOM      5  C   UNL d   1       9.082   7.315 -11.588  0.00  0.00     0.137 C 
ATOM      6  C   UNL d   1       8.928   6.128 -12.555  0.00  0.00     0.274 C 
ENDROOT
BRANCH   1   7
ATOM      7  C   UNL d   1       7.752   4.111 -13.017  0.00  0.00     0.251 C 
BRANCH   7   8
ATOM      8  C   UNL d   1       6.378   3.422 -12.869  0.00  0.00     0.037 C 
BRANCH   8   9
ATOM      9  C   UNL d   1       6.080   2.574 -14.091  0.00  0.00     0.029 C 
BRANCH   9  10
ATOM     10  C   UNL d   1       7.085   1.461 -14.417  0.00  0.00     0.133 C 
BRANCH  10  11
ATOM     11  N   UNL d   1       6.586   0.600 -15.483  0.00  0.00    -0.201 N 
ATOM     12  C   UNL d   1       5.700  -0.402 -15.351  0.00  0.00     0.352 A 
ATOM     13  O   UNL d   1       5.143  -0.788 -14.322  0.00  0.00    -0.244 OA
ATOM     14  N   UNL d   1       5.566  -0.863 -16.586  0.00  0.00    -0.240 N 
ATOM     15  C   UNL d   1       6.387  -0.116 -17.416  0.00  0.00     0.171 A 
ATOM     16  C   UNL d   1       4.741  -1.905 -17.035  0.00  0.00     0.097 A 
ATOM     17  N   UNL d   1       7.028   0.789 -16.753  0.00  0.00    -0.147 NA
ATOM     18  C   UNL d   1       6.373  -0.465 -18.819  0.00  0.00     0.040 A 
ATOM     19  C   UNL d   1       5.571  -1.464 -19.256  0.00  0.00     0.016 A 
ATOM     20  C   UNL d   1       4.719  -2.216 -18.345  0.00  0.00     0.076 A 
ATOM     21 CL   UNL d   1       3.707  -3.479 -18.940  0.00  0.00    -0.081 Cl
ENDBRANCH  10  11
ENDBRANCH   9  10
ENDBRANCH   8   9
ENDBRANCH   7   8
ENDBRANCH   1   7
BRANCH   4  22
ATOM     22  C   UNL d   1      10.344   7.356  -9.354  0.00  0.00     0.057 C 
ATOM     23  C   UNL d   1      10.298   7.286  -7.929  0.00  0.00     0.022 C 
ATOM     24  C   UNL d   1      11.447   7.806  -7.206  0.00  0.00     0.031 C 
ATOM     25  C   UNL d   1       9.278   6.827  -6.994  0.00  0.00     0.009 C 
ATOM     26  C   UNL d   1      12.541   8.399  -7.869  0.00  0.00     0.007 C 
ATOM     27  S   UNL d   1      11.323   7.541  -5.489  0.00  0.00    -0.086 SA
ATOM     28  C   UNL d   1      12.556   8.405  -9.251  0.00  0.00     0.002 C 
ATOM     29  C   UNL d   1      11.437   8.012  -9.962  0.00  0.00     0.017 C 
ATOM     30  C   UNL d   1       9.783   6.788  -5.721  0.00  0.00     0.035 C 
ENDBRANCH   4  22
TORSDOF 6
