REMARK  6 active torsions:
REMARK  status: ('A' for Active; 'I' for Inactive)
REMARK    1  A    between atoms: C_2  and  C_3 
REMARK    2  A    between atoms: C_3  and  C_4 
REMARK    3  A    between atoms: C_4  and  C_5 
REMARK    4  A    between atoms: C_5  and  C_6 
REMARK    5  A    between atoms: C_6  and  C_7 
REMARK    6  A    between atoms: C_20  and  C_21 
ROOT
ATOM      1  C   UNL d   1       9.855   7.338  -9.912  0.00  0.00    -0.022 A 
ATOM      2  C   UNL d   1      10.837   8.310 -10.126  0.00  0.00    -0.005 A 
ATOM      3  C   UNL d   1      11.498   8.907  -9.049  0.00  0.00    -0.004 A 
ATOM      4  C   UNL d   1      11.102   8.634  -7.724  0.00  0.00    -0.020 A 
ATOM      5  C   UNL d   1      10.090   7.666  -7.510  0.00  0.00    -0.022 A 
ATOM      6  C   UNL d   1       9.468   7.013  -8.595  0.00  0.00    -0.009 A 
ATOM      7  C   UNL d   1       9.736   7.282  -6.096  0.00  0.00     0.052 C 
ATOM      8  C   UNL d   1      10.933   7.398  -5.176  0.00  0.00    -0.021 A 
ATOM      9  C   UNL d   1      11.061   6.598  -4.030  0.00  0.00    -0.004 A 
ATOM     10  C   UNL d   1      12.055   6.786  -3.080  0.00  0.00    -0.000 A 
ATOM     11  C   UNL d   1      12.939   7.859  -3.240  0.00  0.00    -0.000 A 
ATOM     12  C   UNL d   1      12.806   8.706  -4.357  0.00  0.00    -0.004 A 
ATOM     13  C   UNL d   1      11.858   8.433  -5.344  0.00  0.00    -0.020 A 
ATOM     14  C   UNL d   1      11.795   9.328  -6.554  0.00  0.00     0.083 C 
ENDROOT
BRANCH   1  15
ATOM     15  C   UNL d   1       9.174   6.708 -11.104  0.00  0.00     0.026 C 
BRANCH  15  16
ATOM     16  C   UNL d   1       9.505   5.233 -11.269  0.00  0.00     0.005 C 
BRANCH  16  17
ATOM     17  C   UNL d   1       8.452   4.421 -11.992  0.00  0.00     0.000 C 
BRANCH  17  18
ATOM     18  C   UNL d   1       7.075   4.357 -11.284  0.00  0.00     0.000 C 
BRANCH  18  19
ATOM     19  C   UNL d   1       5.974   3.709 -12.119  0.00  0.00     0.000 C 
ATOM     20  C   UNL d   1       5.696   4.471 -13.424  0.00  0.00     0.000 C 
ENDBRANCH  18  19
ENDBRANCH  17  18
ENDBRANCH  16  17
ENDBRANCH  15  16
ENDBRANCH   1  15
BRANCH  14  21
ATOM     21  C   UNL d   1      11.169  10.682  -6.218  0.00  0.00     0.347 C 
ATOM     22  N   UNL d   1      10.665  10.784  -4.869  0.00  0.00     0.619 N 
ENDBRANCH  14  21
TORSDOF 6
