REMARK  5 active torsions:
REMARK  status: ('A' for Active; 'I' for Inactive)
REMARK    1  A    between atoms: C_2  and  N_3 
REMARK    2  A    between atoms: C_7  and  C_8 
REMARK    3  A    between atoms: C_8  and  N_9 
REMARK       I    between atoms: N_9  and  C_10 
REMARK    4  A    between atoms: C_10  and  C_12 
REMARK    5  A    between atoms: C_20  and  O_21 
ROOT
ATOM      1  C   UNL d   1       9.290   3.212 -14.024  0.00  0.00     0.092 A 
ATOM      2  C   UNL d   1       7.952   2.712 -14.046  0.00  0.00     0.060 A 
ATOM      3 CL   UNL d   1       6.573   3.604 -13.468  0.00  0.00    -0.083 Cl
ATOM      4  C   UNL d   1       7.698   1.432 -14.589  0.00  0.00    -0.009 A 
ATOM      5  C   UNL d   1       6.294   0.869 -14.592  0.00  0.00     0.032 C 
ATOM      6  C   UNL d   1       8.738   0.666 -15.136  0.00  0.00     0.026 A 
ATOM      7  C   UNL d   1      10.047   1.167 -15.151  0.00  0.00     0.153 A 
ATOM      8  O   UNL d   1      11.044   0.397 -15.672  0.00  0.00    -0.188 OA
ATOM      9  C   UNL d   1      10.331   2.440 -14.618  0.00  0.00     0.125 A 
ENDROOT
BRANCH   1  10
ATOM     10  C   UNL d   1       9.622   4.573 -13.466  0.00  0.00     0.278 C 
ATOM     11  N   UNL d   1       9.023   4.892 -12.314  0.00  0.00    -0.232 NA
ATOM     12  O   UNL d   1      10.445   5.295 -14.021  0.00  0.00    -0.265 OA
BRANCH  11  13
ATOM     13  C   UNL d   1       9.039   6.212 -11.689  0.00  0.00     0.162 C 
BRANCH  13  14
ATOM     14  C   UNL d   1       9.685   6.119 -10.298  0.00  0.00     0.243 C 
ATOM     15  N   UNL d   1       9.877   7.411  -9.669  0.00  0.00     0.137 N 
ATOM     16  C   UNL d   1      10.174   7.085  -8.285  0.00  0.00     0.250 C 
ATOM     17  C   UNL d   1       9.167   5.994  -7.957  0.00  0.00     0.037 C 
ATOM     18  C   UNL d   1       8.848   5.337  -9.284  0.00  0.00     0.037 C 
BRANCH  15  19
ATOM     19  C   UNL d   1      10.955   8.178 -10.303  0.00  0.00     0.250 C 
ATOM     20  C   UNL d   1      11.135   9.527  -9.637  0.00  0.00     0.037 C 
ENDBRANCH  15  19
ENDBRANCH  13  14
ENDBRANCH  11  13
ENDBRANCH   1  10
BRANCH   9  21
ATOM     21  O   UNL d   1      11.631   2.897 -14.641  0.00  0.00    -0.326 OA
ATOM     22  C   UNL d   1      12.092   3.296 -15.926  0.00  0.00     0.181 C 
ENDBRANCH   9  21
TORSDOF 5
