REMARK  7 active torsions:
REMARK  status: ('A' for Active; 'I' for Inactive)
REMARK       I    between atoms: C_2  and  N_3 
REMARK    1  A    between atoms: C_2  and  C_23 
REMARK    2  A    between atoms: N_3  and  C_4 
REMARK    3  A    between atoms: C_4  and  C_5 
REMARK    4  A    between atoms: C_5  and  C_6 
REMARK    5  A    between atoms: C_6  and  C_8 
REMARK    6  A    between atoms: C_8  and  N_9 
REMARK    7  A    between atoms: N_12  and  C_13 
ROOT
ATOM      1  C   UNL d   1       7.596   5.520 -11.697  0.00  0.00     0.188 C 
ATOM      2  O   UNL d   1       7.099   6.789 -12.040  0.00  0.00    -0.221 OA
ENDROOT
BRANCH   1   3
ATOM      3  C   UNL d   1       8.398   5.599 -10.394  0.00  0.00     0.061 C 
BRANCH   3   4
ATOM      4  C   UNL d   1       9.519   6.653 -10.422  0.00  0.00     0.132 C 
BRANCH   4   5
ATOM      5  N   UNL d   1      10.010   6.924  -9.081  0.00  0.00    -0.233 NA
ATOM      6  C   UNL d   1      10.345   8.145  -8.637  0.00  0.00     0.293 C 
ATOM      7  O   UNL d   1      10.314   9.156  -9.337  0.00  0.00    -0.264 OA
BRANCH   6   8
ATOM      8  C   UNL d   1      10.737   8.247  -7.221  0.00  0.00     0.139 A 
ATOM      9  N   UNL d   1      11.080   7.111  -6.497  0.00  0.00    -0.241 NA
ATOM     10  C   UNL d   1      11.430   7.443  -5.206  0.00  0.00     0.082 A 
ATOM     11  C   UNL d   1      11.287   8.858  -5.117  0.00  0.00     0.022 A 
ATOM     12  C   UNL d   1      11.859   6.668  -4.119  0.00  0.00     0.021 A 
ATOM     13  C   UNL d   1      10.856   9.339  -6.398  0.00  0.00     0.026 A 
ATOM     14  C   UNL d   1      11.575   9.457  -3.871  0.00  0.00     0.031 A 
ATOM     15  C   UNL d   1      12.006   8.681  -2.776  0.00  0.00     0.140 A 
ATOM     16  F   UNL d   1      12.260   9.269  -1.591  0.00  0.00    -0.204 F 
ATOM     17  C   UNL d   1      12.147   7.288  -2.893  0.00  0.00     0.031 A 
ENDBRANCH   6   8
ENDBRANCH   4   5
ENDBRANCH   3   4
ENDBRANCH   1   3
BRANCH   1  18
ATOM     18  C   UNL d   1       8.405   5.008 -12.916  0.00  0.00     0.283 C 
BRANCH  18  19
ATOM     19  N   UNL d   1       8.166   3.621 -13.293  0.00  0.00     0.144 N 
ATOM     20  C   UNL d   1       9.048   3.243 -14.412  0.00  0.00     0.274 C 
ATOM     21  C   UNL d   1       8.851   1.777 -14.839  0.00  0.00     0.137 C 
ATOM     22  N   UNL d   1       7.440   1.530 -15.123  0.00  0.00    -0.344 N 
ATOM     23  C   UNL d   1       6.504   1.947 -14.093  0.00  0.00     0.137 C 
ATOM     24  C   UNL d   1       6.763   3.399 -13.688  0.00  0.00     0.274 C 
BRANCH  22  25
ATOM     25  C   UNL d   1       7.003   0.911 -16.301  0.00  0.00     0.068 A 
ATOM     26  C   UNL d   1       6.042  -0.140 -16.296  0.00  0.00     0.084 A 
ATOM     27  C   UNL d   1       5.632  -0.704 -17.522  0.00  0.00     0.070 A 
ATOM     28 CL   UNL d   1       5.384  -0.804 -14.831  0.00  0.00    -0.080 Cl
ATOM     29  C   UNL d   1       6.172  -0.247 -18.732  0.00  0.00     0.012 A 
ATOM     30 CL   UNL d   1       4.479  -1.986 -17.555  0.00  0.00    -0.081 Cl
ATOM     31  C   UNL d   1       7.122   0.782 -18.742  0.00  0.00     0.002 A 
ATOM     32  C   UNL d   1       7.536   1.362 -17.528  0.00  0.00     0.018 A 
ENDBRANCH  22  25
ENDBRANCH  18  19
ENDBRANCH   1  18
TORSDOF 7
