REMARK  5 active torsions:
REMARK  status: ('A' for Active; 'I' for Inactive)
REMARK    1  A    between atoms: C_2  and  C_3 
REMARK       I    between atoms: C_2  and  N_12 
REMARK    2  A    between atoms: N_15  and  C_16 
REMARK    3  A    between atoms: C_16  and  C_17 
REMARK    4  A    between atoms: C_17  and  O_18 
REMARK    5  A    between atoms: O_18  and  C_19 
ROOT
ATOM      1  O   UNL d   1       8.920   9.483  -8.375  0.00  0.00    -0.266 OA
ATOM      2  C   UNL d   1       9.607   8.472  -8.327  0.00  0.00     0.275 C 
ATOM      3  N   UNL d   1       9.881   7.724  -9.426  0.00  0.00    -0.311 N 
ATOM      4  C   UNL d   1      10.457   6.381  -9.424  0.00  0.00     0.140 C 
ATOM      5  C   UNL d   1       9.561   5.456 -10.228  0.00  0.00     0.274 C 
ATOM      6  N   UNL d   1       9.546   5.900 -11.617  0.00  0.00     0.144 N 
ATOM      7  C   UNL d   1       8.893   7.205 -11.656  0.00  0.00     0.274 C 
ATOM      8  C   UNL d   1       9.684   8.238 -10.815  0.00  0.00     0.140 C 
ENDROOT
BRANCH   2   9
ATOM      9  C   UNL d   1      10.268   8.179  -7.026  0.00  0.00     0.137 A 
ATOM     10  N   UNL d   1      10.546   9.260  -6.177  0.00  0.00    -0.241 NA
ATOM     11  C   UNL d   1      11.156   8.837  -5.013  0.00  0.00     0.082 A 
ATOM     12  C   UNL d   1      11.268   7.429  -5.160  0.00  0.00     0.019 A 
ATOM     13  C   UNL d   1      11.593   9.488  -3.835  0.00  0.00     0.019 A 
ATOM     14  C   UNL d   1      10.689   7.041  -6.384  0.00  0.00     0.025 A 
ATOM     15  C   UNL d   1      11.862   6.696  -4.123  0.00  0.00     0.002 A 
ATOM     16  C   UNL d   1      12.317   7.317  -2.951  0.00  0.00     0.000 A 
ATOM     17  C   UNL d   1      12.179   8.711  -2.811  0.00  0.00     0.002 A 
ENDBRANCH   2   9
BRANCH   6  18
ATOM     18  C   UNL d   1       8.750   4.939 -12.338  0.00  0.00     0.283 C 
BRANCH  18  19
ATOM     19  C   UNL d   1       9.102   4.917 -13.844  0.00  0.00     0.184 C 
BRANCH  19  20
ATOM     20  O   UNL d   1       9.245   3.581 -14.344  0.00  0.00    -0.329 OA
BRANCH  20  21
ATOM     21  C   UNL d   1       8.133   2.758 -14.307  0.00  0.00     0.094 A 
ATOM     22  C   UNL d   1       8.255   1.412 -14.772  0.00  0.00     0.025 A 
ATOM     23  C   UNL d   1       7.137   0.538 -14.703  0.00  0.00     0.009 A 
ATOM     24  C   UNL d   1       5.930   0.975 -14.119  0.00  0.00     0.035 A 
ATOM     25  C   UNL d   1       5.823   2.295 -13.639  0.00  0.00     0.009 A 
ATOM     26 BR   UNL d   1       4.380  -0.152 -14.027  0.00  0.00    -0.049 Br
ATOM     27  C   UNL d   1       6.889   3.189 -13.791  0.00  0.00     0.025 A 
ENDBRANCH  20  21
ENDBRANCH  19  20
ENDBRANCH  18  19
ENDBRANCH   6  18
TORSDOF 5
