REMARK  8 active torsions:
REMARK  status: ('A' for Active; 'I' for Inactive)
REMARK    1  A    between atoms: C_7  and  N_8 
REMARK    2  A    between atoms: N_11  and  C_12 
REMARK    3  A    between atoms: C_12  and  C_13 
REMARK    4  A    between atoms: C_13  and  C_14 
REMARK    5  A    between atoms: C_14  and  C_15 
REMARK    6  A    between atoms: C_15  and  C_16 
REMARK    7  A    between atoms: C_16  and  C_17 
REMARK       I    between atoms: C_17  and  N_19 
REMARK    8  A    between atoms: N_19  and  C_20 
ROOT
ATOM      1  C   UNL d   1       9.017   4.349 -12.503  0.00  0.00     0.003 C 
ENDROOT
BRANCH   1   2
ATOM      2  C   UNL d   1       8.951   5.581 -11.614  0.00  0.00     0.035 C 
BRANCH   2   3
ATOM      3  C   UNL d   1       8.842   5.209 -10.129  0.00  0.00     0.250 C 
BRANCH   3   4
ATOM      4  N   UNL d   1       9.142   6.356  -9.291  0.00  0.00     0.141 N 
ATOM      5  C   UNL d   1       8.601   6.115  -7.946  0.00  0.00     0.274 C 
ATOM      6  C   UNL d   1       8.866   7.323  -7.029  0.00  0.00     0.137 C 
ATOM      7  N   UNL d   1      10.290   7.621  -6.999  0.00  0.00    -0.344 N 
ATOM      8  C   UNL d   1      10.909   7.754  -8.309  0.00  0.00     0.137 C 
ATOM      9  C   UNL d   1      10.593   6.540  -9.181  0.00  0.00     0.274 C 
BRANCH   7  10
ATOM     10  C   UNL d   1      11.015   7.802  -5.806  0.00  0.00     0.052 A 
ATOM     11  C   UNL d   1      11.714   8.992  -5.512  0.00  0.00    -0.006 A 
ATOM     12  C   UNL d   1      11.710  10.186  -6.447  0.00  0.00     0.033 C 
ATOM     13  C   UNL d   1      12.437   9.087  -4.296  0.00  0.00    -0.003 A 
ATOM     14  C   UNL d   1      12.477   8.023  -3.379  0.00  0.00    -0.000 A 
ATOM     15  C   UNL d   1      11.795   6.844  -3.668  0.00  0.00     0.002 A 
ATOM     16  C   UNL d   1      11.064   6.747  -4.872  0.00  0.00     0.017 A 
ENDBRANCH   7  10
ENDBRANCH   3   4
ENDBRANCH   2   3
ENDBRANCH   1   2
BRANCH   1  17
ATOM     17  C   UNL d   1       8.893   4.752 -13.986  0.00  0.00     0.010 C 
BRANCH  17  18
ATOM     18  C   UNL d   1       9.422   3.685 -14.923  0.00  0.00     0.090 C 
BRANCH  18  19
ATOM     19  C   UNL d   1      10.942   3.356 -14.791  0.00  0.00     0.252 C 
ATOM     20  O   UNL d   1      11.700   4.039 -14.104  0.00  0.00    -0.271 OA
ATOM     21  N   UNL d   1      11.421   2.273 -15.429  0.00  0.00    -0.235 NA
BRANCH  21  22
ATOM     22  C   UNL d   1      10.801   1.499 -16.502  0.00  0.00     0.128 C 
ATOM     23  C   UNL d   1       9.376   1.047 -16.177  0.00  0.00    -0.004 A 
ATOM     24  C   UNL d   1       8.323   1.118 -17.116  0.00  0.00    -0.024 A 
ATOM     25  C   UNL d   1       9.085   0.569 -14.856  0.00  0.00    -0.003 A 
ATOM     26  C   UNL d   1       8.561   1.664 -18.522  0.00  0.00     0.026 C 
ATOM     27  C   UNL d   1       7.008   0.800 -16.732  0.00  0.00    -0.004 A 
ATOM     28  C   UNL d   1      10.036   1.684 -18.927  0.00  0.00     0.007 C 
ATOM     29  C   UNL d   1      10.900   2.293 -17.827  0.00  0.00     0.029 C 
ATOM     30  C   UNL d   1       6.724   0.394 -15.409  0.00  0.00    -0.000 A 
ATOM     31  C   UNL d   1       7.771   0.287 -14.477  0.00  0.00    -0.000 A 
ENDBRANCH  21  22
ENDBRANCH  18  19
ENDBRANCH  17  18
ENDBRANCH   1  17
TORSDOF 8
