REMARK  4 active torsions:
REMARK  status: ('A' for Active; 'I' for Inactive)
REMARK    1  A    between atoms: C_4  and  C_5 
REMARK    2  A    between atoms: C_9  and  C_10 
REMARK    3  A    between atoms: C_10  and  N_11 
REMARK    4  A    between atoms: N_14  and  C_15 
ROOT
ATOM      1  N   UNL d   1       9.762   6.580  -9.421  0.00  0.00     0.144 N 
ATOM      2  C   UNL d   1       8.775   6.980  -8.422  0.00  0.00     0.268 C 
ATOM      3  C   UNL d   1       9.095   6.399  -7.054  0.00  0.00     0.112 C 
ATOM      4  N   UNL d   1      10.442   6.671  -6.583  0.00  0.00    -0.247 NA
ATOM      5  C   UNL d   1      11.415   6.378  -7.580  0.00  0.00     0.112 C 
ATOM      6  C   UNL d   1      11.061   7.022  -8.963  0.00  0.00     0.268 C 
ENDROOT
BRANCH   1   7
ATOM      7  C   UNL d   1       9.485   7.218 -10.706  0.00  0.00     0.277 C 
BRANCH   7   8
ATOM      8  C   UNL d   1       8.875   6.268 -11.719  0.00  0.00     0.011 A 
ATOM      9  C   UNL d   1       7.484   6.163 -11.875  0.00  0.00    -0.002 A 
ATOM     10  C   UNL d   1       6.954   5.268 -12.815  0.00  0.00    -0.000 A 
ATOM     11  C   UNL d   1       7.806   4.486 -13.624  0.00  0.00    -0.000 A 
ATOM     12  C   UNL d   1       9.205   4.584 -13.481  0.00  0.00    -0.000 A 
ATOM     13  C   UNL d   1       9.713   5.465 -12.514  0.00  0.00    -0.002 A 
BRANCH  12  14
ATOM     14  C   UNL d   1      10.122   3.808 -14.325  0.00  0.00    -0.000 A 
ATOM     15  C   UNL d   1       9.919   2.423 -14.471  0.00  0.00    -0.000 A 
ATOM     16  C   UNL d   1      10.769   1.661 -15.289  0.00  0.00    -0.000 A 
ATOM     17  C   UNL d   1      11.835   2.281 -15.966  0.00  0.00     0.000 A 
ATOM     18  C   UNL d   1      12.061   3.660 -15.811  0.00  0.00    -0.000 A 
ATOM     19  C   UNL d   1      11.208   4.423 -14.992  0.00  0.00    -0.000 A 
ENDBRANCH  12  14
ENDBRANCH   7   8
ENDBRANCH   1   7
BRANCH   4  20
ATOM     20  C   UNL d   1      10.742   7.891  -6.015  0.00  0.00     0.061 C 
ATOM     21  C   UNL d   1      11.291   7.948  -4.702  0.00  0.00     0.121 C 
ATOM     22  C   UNL d   1      11.474   9.210  -4.125  0.00  0.00     0.099 C 
ATOM     23  O   UNL d   1      11.547   6.778  -4.008  0.00  0.00    -0.326 OA
ATOM     24  C   UNL d   1      11.134  10.347  -4.837  0.00  0.00     0.021 C 
ATOM     25  N   UNL d   1      11.986   9.374  -2.826  0.00  0.00    -0.266 NA
ATOM     26  C   UNL d   1      10.782  10.274  -6.176  0.00  0.00     0.003 C 
ATOM     27  C   UNL d   1      10.540   9.072  -6.777  0.00  0.00     0.013 C 
ATOM     28  C   UNL d   1      12.038   8.151  -2.049  0.00  0.00     0.158 C 
ATOM     29  C   UNL d   1      12.422   6.946  -2.900  0.00  0.00     0.175 C 
ENDBRANCH   4  20
TORSDOF 4
