REMARK  0 active torsions:
REMARK  status: ('A' for Active; 'I' for Inactive)
ROOT
ATOM      1  O   UNL d   1      11.478  10.785  -6.431  0.00  0.00    -0.189 OA
ATOM      2  C   UNL d   1      11.339   9.450  -6.291  0.00  0.00     0.148 A 
ATOM      3  C   UNL d   1      10.957   8.699  -7.415  0.00  0.00     0.029 A 
ATOM      4  C   UNL d   1      10.821   7.309  -7.306  0.00  0.00     0.002 A 
ATOM      5  C   UNL d   1      11.079   6.696  -6.073  0.00  0.00     0.002 A 
ATOM      6  C   UNL d   1      11.460   7.442  -4.944  0.00  0.00     0.020 A 
ATOM      7  C   UNL d   1      11.731   6.795  -3.723  0.00  0.00     0.003 A 
ATOM      8  C   UNL d   1      12.114   7.576  -2.620  0.00  0.00     0.021 A 
ATOM      9  C   UNL d   1      12.217   8.966  -2.796  0.00  0.00     0.099 A 
ATOM     10  N   UNL d   1      11.948   9.586  -3.966  0.00  0.00    -0.242 NA
ATOM     11  C   UNL d   1      11.588   8.847  -5.037  0.00  0.00     0.107 A 
ENDROOT
TORSDOF 0
