REMARK  7 active torsions:
REMARK  status: ('A' for Active; 'I' for Inactive)
REMARK       I    between atoms: C_2  and  N_3 
REMARK    1  A    between atoms: C_2  and  C_27 
REMARK    2  A    between atoms: N_3  and  C_4 
REMARK    3  A    between atoms: C_7  and  C_8 
REMARK    4  A    between atoms: C_8  and  C_9 
REMARK    5  A    between atoms: C_9  and  N_10 
REMARK    6  A    between atoms: N_13  and  C_14 
REMARK    7  A    between atoms: C_27  and  C_29 
ROOT
ATOM      1  C   UNL d   1       8.576   4.981 -11.898  0.00  0.00     0.035 C 
ENDROOT
BRANCH   1   2
ATOM      2  C   UNL d   1       9.080   3.940 -12.908  0.00  0.00     0.002 C 
ATOM      3  C   UNL d   1       7.988   3.633 -13.944  0.00  0.00     0.002 C 
ATOM      4  C   UNL d   1       8.468   2.631 -14.989  0.00  0.00     0.024 C 
ATOM      5  C   UNL d   1       9.778   3.097 -15.657  0.00  0.00     0.106 C 
ATOM      6  C   UNL d   1      10.875   3.439 -14.629  0.00  0.00     0.024 C 
ATOM      7  C   UNL d   1      10.370   4.433 -13.587  0.00  0.00     0.002 C 
BRANCH   5   8
ATOM      8  N   UNL d   1      10.252   2.107 -16.610  0.00  0.00    -0.238 NA
ATOM      9  C   UNL d   1      10.631   0.839 -16.369  0.00  0.00     0.291 C 
ATOM     10  O   UNL d   1      10.654   0.337 -15.242  0.00  0.00    -0.268 OA
BRANCH   9  11
ATOM     11  C   UNL d   1      11.045  -0.031 -17.550  0.00  0.00     0.325 C 
ATOM     12  O   UNL d   1      10.260  -1.211 -17.532  0.00  0.00    -0.204 OA
BRANCH  11  13
ATOM     13  C   UNL d   1      10.935   0.650 -18.931  0.00  0.00     0.434 C 
ATOM     14  F   UNL d   1      11.372  -0.179 -19.875  0.00  0.00    -0.167 F 
ATOM     15  F   UNL d   1       9.668   0.993 -19.176  0.00  0.00    -0.167 F 
ATOM     16  F   UNL d   1      11.684   1.755 -18.973  0.00  0.00    -0.167 F 
ENDBRANCH  11  13
ENDBRANCH   9  11
ENDBRANCH   5   8
ENDBRANCH   1   2
BRANCH   1  17
ATOM     17  C   UNL d   1       9.214   4.799 -10.511  0.00  0.00     0.250 C 
BRANCH  17  18
ATOM     18  N   UNL d   1       9.058   6.011  -9.718  0.00  0.00     0.141 N 
ATOM     19  C   UNL d   1      10.137   6.970 -10.000  0.00  0.00     0.274 C 
ATOM     20  C   UNL d   1       9.975   8.262  -9.159  0.00  0.00     0.138 C 
ATOM     21  N   UNL d   1       9.842   7.886  -7.758  0.00  0.00    -0.330 N 
ATOM     22  C   UNL d   1       8.816   6.897  -7.432  0.00  0.00     0.138 C 
ATOM     23  C   UNL d   1       9.090   5.644  -8.302  0.00  0.00     0.274 C 
BRANCH  21  24
ATOM     24  C   UNL d   1      10.641   8.477  -6.744  0.00  0.00     0.138 A 
ATOM     25  C   UNL d   1      11.021   7.790  -5.575  0.00  0.00     0.036 A 
ATOM     26  C   UNL d   1      11.837   8.407  -4.652  0.00  0.00     0.095 A 
ATOM     27  C   UNL d   1      10.819   6.398  -5.104  0.00  0.00     0.064 C 
ATOM     28  C   UNL d   1      12.286   9.674  -4.880  0.00  0.00     0.045 A 
ATOM     29  O   UNL d   1      12.200   7.669  -3.571  0.00  0.00    -0.331 OA
ATOM     30  C   UNL d   1      11.844  10.332  -6.027  0.00  0.00     0.103 A 
ATOM     31  N   UNL d   1      11.051   9.744  -6.957  0.00  0.00    -0.228 NA
ATOM     32  C   UNL d   1      11.517   6.434  -3.720  0.00  0.00     0.154 C 
ENDBRANCH  21  24
ENDBRANCH  17  18
ENDBRANCH   1  17
TORSDOF 7
