REMARK  5 active torsions:
REMARK  status: ('A' for Active; 'I' for Inactive)
REMARK       I    between atoms: N_10  and  C_11 
REMARK    1  A    between atoms: C_11  and  C_13 
REMARK    2  A    between atoms: C_13  and  N_14 
REMARK    3  A    between atoms: N_17  and  C_18 
REMARK    4  A    between atoms: C_18  and  C_19 
REMARK    5  A    between atoms: C_22  and  C_23 
ROOT
ATOM      1  N   UNL d   1      10.085   3.742 -15.123  0.00  0.00     0.151 N 
ATOM      2  C   UNL d   1       9.773   5.151 -14.858  0.00  0.00     0.286 C 
ATOM      3  C   UNL d   1       8.813   5.352 -13.673  0.00  0.00     0.286 C 
ATOM      4  N   UNL d   1       9.334   4.757 -12.451  0.00  0.00     0.146 N 
ATOM      5  C   UNL d   1       9.610   3.347 -12.710  0.00  0.00     0.286 C 
ATOM      6  C   UNL d   1      10.593   3.144 -13.884  0.00  0.00     0.286 C 
ENDROOT
BRANCH   1   7
ATOM      7  C   UNL d   1      11.021   3.590 -16.252  0.00  0.00     0.337 C 
BRANCH   7   8
ATOM      8  C   UNL d   1      10.378   3.860 -17.641  0.00  0.00     0.271 C 
ATOM      9  N   UNL d   1      10.181   2.826 -18.518  0.00  0.00    -0.299 N 
ATOM     10  C   UNL d   1       9.972   3.076 -19.967  0.00  0.00     0.093 A 
ATOM     11  C   UNL d   1      10.060   1.439 -18.243  0.00  0.00     0.058 A 
ATOM     12  C   UNL d   1      11.132   3.873 -20.607  0.00  0.00     0.025 C 
ATOM     13  C   UNL d   1       9.832   1.671 -20.610  0.00  0.00     0.051 A 
ATOM     14  C   UNL d   1       9.873   0.738 -19.424  0.00  0.00    -0.004 A 
ATOM     15  C   UNL d   1       9.708  -0.655 -19.438  0.00  0.00    -0.003 A 
ATOM     16  C   UNL d   1       9.745  -1.347 -18.204  0.00  0.00    -0.000 A 
ATOM     17  C   UNL d   1       9.925  -0.624 -16.996  0.00  0.00     0.002 A 
ATOM     18  C   UNL d   1      10.061   0.781 -17.004  0.00  0.00     0.017 A 
ATOM     19  O   UNL d   1      10.056   5.015 -17.930  0.00  0.00    -0.270 OA
ENDBRANCH   7   8
ENDBRANCH   1   7
BRANCH   4  20
ATOM     20  C   UNL d   1       8.422   4.958 -11.316  0.00  0.00     0.277 C 
BRANCH  20  21
ATOM     21  C   UNL d   1       9.029   5.801 -10.208  0.00  0.00     0.011 A 
ATOM     22  C   UNL d   1       9.891   6.874 -10.511  0.00  0.00    -0.002 A 
ATOM     23  C   UNL d   1      10.440   7.665  -9.487  0.00  0.00     0.004 A 
ATOM     24  C   UNL d   1      10.111   7.407  -8.140  0.00  0.00     0.071 A 
ATOM     25  C   UNL d   1       9.225   6.351  -7.837  0.00  0.00     0.004 A 
ATOM     26  C   UNL d   1       8.690   5.548  -8.864  0.00  0.00    -0.002 A 
BRANCH  24  27
ATOM     27  C   UNL d   1      10.695   8.248  -7.019  0.00  0.00     0.419 C 
ATOM     28  F   UNL d   1      11.460   9.236  -7.481  0.00  0.00    -0.166 F 
ATOM     29  F   UNL d   1       9.707   8.779  -6.305  0.00  0.00    -0.166 F 
ATOM     30  F   UNL d   1      11.433   7.477  -6.220  0.00  0.00    -0.166 F 
ENDBRANCH  24  27
ENDBRANCH  20  21
ENDBRANCH   4  20
TORSDOF 5
