REMARK  6 active torsions:
REMARK  status: ('A' for Active; 'I' for Inactive)
REMARK    1  A    between atoms: C_6  and  O_7 
REMARK    2  A    between atoms: O_7  and  C_8 
REMARK    3  A    between atoms: C_8  and  C_9 
REMARK    4  A    between atoms: C_9  and  N_10 
REMARK    5  A    between atoms: C_13  and  C_14 
REMARK    6  A    between atoms: C_14  and  C_15 
ROOT
ATOM      1  N   UNL d   1       6.747   4.777 -12.978  0.00  0.00     0.140 N 
ATOM      2  C   UNL d   1       6.584   3.696 -12.024  0.00  0.00     0.250 C 
ATOM      3  C   UNL d   1       5.852   2.494 -12.621  0.00  0.00     0.036 C 
ATOM      4  C   UNL d   1       6.569   1.983 -13.885  0.00  0.00     0.008 C 
ATOM      5  C   UNL d   1       6.785   3.164 -14.833  0.00  0.00     0.036 C 
ATOM      6  C   UNL d   1       7.521   4.282 -14.120  0.00  0.00     0.250 C 
ENDROOT
BRANCH   1   7
ATOM      7  C   UNL d   1       7.376   5.944 -12.349  0.00  0.00     0.283 C 
BRANCH   7   8
ATOM      8  C   UNL d   1       8.922   6.028 -12.543  0.00  0.00     0.184 C 
BRANCH   8   9
ATOM      9  O   UNL d   1       9.481   6.913 -11.625  0.00  0.00    -0.329 OA
BRANCH   9  10
ATOM     10  C   UNL d   1       9.573   6.441 -10.345  0.00  0.00     0.096 A 
ATOM     11  C   UNL d   1      10.108   7.339  -9.412  0.00  0.00     0.040 A 
ATOM     12  C   UNL d   1      10.558   8.600  -9.821  0.00  0.00     0.005 A 
ATOM     13  C   UNL d   1      10.172   7.005  -8.053  0.00  0.00     0.084 A 
ATOM     14  C   UNL d   1      11.076   9.442  -8.838  0.00  0.00     0.015 A 
ATOM     15  C   UNL d   1      11.131   9.028  -7.499  0.00  0.00     0.059 A 
ATOM     16  C   UNL d   1      11.697   9.911  -6.404  0.00  0.00     0.052 C 
ATOM     17  N   UNL d   1      10.692   7.824  -7.109  0.00  0.00    -0.250 NA
ATOM     18  C   UNL d   1       9.686   5.780  -7.645  0.00  0.00     0.031 A 
ATOM     19  C   UNL d   1       9.178   4.810  -8.545  0.00  0.00     0.061 A 
ATOM     20  C   UNL d   1       9.152   5.162  -9.899  0.00  0.00     0.036 A 
ATOM     21 CL   UNL d   1       8.649   3.186  -8.049  0.00  0.00    -0.082 Cl
ENDBRANCH   9  10
ENDBRANCH   8   9
ENDBRANCH   7   8
ENDBRANCH   1   7
BRANCH   4  22
ATOM     22  C   UNL d   1       5.835   0.795 -14.523  0.00  0.00     0.027 C 
BRANCH  22  23
ATOM     23  C   UNL d   1       6.398   0.369 -15.867  0.00  0.00    -0.018 A 
ATOM     24  C   UNL d   1       7.788   0.395 -16.115  0.00  0.00     0.017 A 
ATOM     25  C   UNL d   1       8.286   0.061 -17.378  0.00  0.00     0.108 A 
ATOM     26  C   UNL d   1       7.407  -0.347 -18.400  0.00  0.00     0.140 A 
ATOM     27  N   UNL d   1       9.667   0.187 -17.637  0.00  0.00    -0.208 NA
ATOM     28  C   UNL d   1       6.019  -0.384 -18.159  0.00  0.00     0.163 A 
ATOM     29  O   UNL d   1       7.907  -0.654 -19.645  0.00  0.00    -0.317 OA
ATOM     30  C   UNL d   1       5.515  -0.024 -16.893  0.00  0.00     0.028 A 
ATOM     31  F   UNL d   1       5.165  -0.766 -19.136  0.00  0.00    -0.202 F 
ATOM     32  C   UNL d   1       9.275  -1.073 -19.694  0.00  0.00     0.238 C 
ATOM     33  C   UNL d   1      10.209  -0.287 -18.760  0.00  0.00     0.286 C 
ATOM     34  O   UNL d   1      11.404  -0.159 -19.017  0.00  0.00    -0.267 OA
ENDBRANCH  22  23
ENDBRANCH   4  22
TORSDOF 6
