REMARK  9 active torsions:
REMARK  status: ('A' for Active; 'I' for Inactive)
REMARK    1  A    between atoms: C_3  and  S_4 
REMARK    2  A    between atoms: S_4  and  C_5 
REMARK    3  A    between atoms: C_5  and  C_6 
REMARK    4  A    between atoms: C_6  and  C_7 
REMARK    5  A    between atoms: C_7  and  N_8 
REMARK    6  A    between atoms: C_13  and  C_14 
REMARK    7  A    between atoms: C_17  and  C_18 
REMARK    8  A    between atoms: C_27  and  C_28 
REMARK    9  A    between atoms: C_33  and  C_34 
ROOT
ATOM      1  C   UNL d   1       8.812   2.509 -15.517  0.00  0.00     0.047 C 
ENDROOT
BRANCH   1   2
ATOM      2  C   UNL d   1       7.441   2.107 -14.896  0.00  0.00     0.067 C 
BRANCH   2   3
ATOM      3  S   UNL d   1       6.630   3.437 -13.912  0.00  0.00    -0.075 SA
BRANCH   3   4
ATOM      4  C   UNL d   1       7.910   3.983 -12.840  0.00  0.00     0.193 A 
ATOM      5  N   UNL d   1       7.688   4.928 -11.917  0.00  0.00    -0.289 N 
ATOM      6  C   UNL d   1       6.465   5.618 -11.588  0.00  0.00     0.134 C 
ATOM      7  C   UNL d   1       8.907   5.061 -11.360  0.00  0.00     0.167 A 
ATOM      8  N   UNL d   1       9.815   4.255 -11.959  0.00  0.00    -0.128 NA
ATOM      9  N   UNL d   1       9.150   3.570 -12.866  0.00  0.00    -0.122 NA
BRANCH   7  10
ATOM     10  C   UNL d   1       9.288   5.906 -10.269  0.00  0.00     0.041 A 
ATOM     11  C   UNL d   1       9.474   7.301 -10.418  0.00  0.00     0.062 A 
ATOM     12  C   UNL d   1       9.879   8.049  -9.306  0.00  0.00     0.005 A 
ATOM     13  C   UNL d   1      10.105   7.414  -8.068  0.00  0.00     0.000 A 
ATOM     14  C   UNL d   1       9.948   6.029  -7.938  0.00  0.00     0.000 A 
ATOM     15  C   UNL d   1       9.564   5.254  -9.039  0.00  0.00     0.003 A 
BRANCH  11  16
ATOM     16  C   UNL d   1       9.247   7.973 -11.743  0.00  0.00     0.297 C 
ATOM     17  N   UNL d   1       8.709   9.184 -11.672  0.00  0.00    -0.102 N 
ATOM     18  O   UNL d   1       9.441   7.423 -12.814  0.00  0.00    -0.264 OA
ENDBRANCH  11  16
ENDBRANCH   7  10
ENDBRANCH   3   4
ENDBRANCH   2   3
ENDBRANCH   1   2
BRANCH   1  19
ATOM     19  C   UNL d   1       9.449   1.438 -16.402  0.00  0.00     0.251 C 
BRANCH  19  20
ATOM     20  N   UNL d   1      10.800   1.904 -16.755  0.00  0.00     0.137 N 
ATOM     21  C   UNL d   1      10.740   3.119 -17.557  0.00  0.00     0.251 C 
ATOM     22  C   UNL d   1      12.060   3.210 -18.244  0.00  0.00     0.037 A 
ATOM     23  C   UNL d   1      12.582   1.802 -18.279  0.00  0.00     0.038 C 
ATOM     24  C   UNL d   1      12.277   4.181 -19.379  0.00  0.00     0.024 A 
ATOM     25  C   UNL d   1      12.986   4.392 -18.058  0.00  0.00     0.007 A 
ATOM     26  C   UNL d   1      11.466   0.949 -17.613  0.00  0.00     0.250 C 
BRANCH  24  27
ATOM     27  C   UNL d   1      11.147   5.072 -19.802  0.00  0.00    -0.022 A 
ATOM     28  C   UNL d   1      11.226   6.456 -19.562  0.00  0.00    -0.004 A 
ATOM     29  C   UNL d   1      10.151   7.295 -19.894  0.00  0.00     0.004 A 
ATOM     30  C   UNL d   1       8.982   6.763 -20.477  0.00  0.00     0.071 A 
ATOM     31  C   UNL d   1       8.901   5.374 -20.710  0.00  0.00     0.004 A 
ATOM     32  C   UNL d   1       9.982   4.534 -20.387  0.00  0.00    -0.004 A 
BRANCH  30  33
ATOM     33  C   UNL d   1       7.832   7.681 -20.860  0.00  0.00     0.419 C 
ATOM     34  F   UNL d   1       7.105   7.158 -21.849  0.00  0.00    -0.166 F 
ATOM     35  F   UNL d   1       7.045   7.865 -19.805  0.00  0.00    -0.166 F 
ATOM     36  F   UNL d   1       8.295   8.866 -21.259  0.00  0.00    -0.166 F 
ENDBRANCH  30  33
ENDBRANCH  24  27
ENDBRANCH  19  20
ENDBRANCH   1  19
TORSDOF 9
