REMARK  8 active torsions:
REMARK  status: ('A' for Active; 'I' for Inactive)
REMARK    1  A    between atoms: C_8  and  O_9 
REMARK    2  A    between atoms: O_9  and  C_10 
REMARK    3  A    between atoms: C_10  and  C_11 
REMARK    4  A    between atoms: C_11  and  C_12 
REMARK    5  A    between atoms: C_12  and  N_13 
REMARK    6  A    between atoms: N_16  and  C_17 
REMARK    7  A    between atoms: N_25  and  S_26 
REMARK    8  A    between atoms: S_26  and  C_29 
ROOT
ATOM      1  N   UNL d   1       8.718   4.088 -12.832  0.00  0.00     0.141 N 
ATOM      2  C   UNL d   1       8.653   2.868 -13.636  0.00  0.00     0.274 C 
ATOM      3  C   UNL d   1       9.799   2.727 -14.611  0.00  0.00     0.137 C 
ATOM      4  N   UNL d   1       9.807   3.871 -15.485  0.00  0.00    -0.344 N 
ATOM      5  C   UNL d   1       9.778   5.139 -14.787  0.00  0.00     0.137 C 
ATOM      6  C   UNL d   1       8.631   5.215 -13.761  0.00  0.00     0.274 C 
ENDROOT
BRANCH   4   7
ATOM      7  C   UNL d   1       9.744   3.762 -16.879  0.00  0.00     0.058 A 
ATOM      8  C   UNL d   1      10.306   4.757 -17.732  0.00  0.00     0.034 A 
ATOM      9  C   UNL d   1      10.205   4.554 -19.140  0.00  0.00     0.076 A 
ATOM     10  C   UNL d   1      11.012   5.998 -17.531  0.00  0.00     0.023 A 
ATOM     11  C   UNL d   1       9.576   3.413 -19.677  0.00  0.00     0.018 A 
ATOM     12  N   UNL d   1      10.821   5.646 -19.735  0.00  0.00    -0.231 N 
ATOM     13  C   UNL d   1       9.035   2.446 -18.824  0.00  0.00     0.003 A 
ATOM     14  C   UNL d   1       9.109   2.625 -17.440  0.00  0.00     0.017 A 
ATOM     15  C   UNL d   1      11.281   6.516 -18.763  0.00  0.00     0.092 A 
BRANCH  12  16
ATOM     16  S   UNL d   1      10.997   5.938 -21.420  0.00  0.00     0.271 S 
ATOM     17  O   UNL d   1      12.080   6.923 -21.540  0.00  0.00    -0.200 OA
ATOM     18  O   UNL d   1      11.103   4.613 -22.058  0.00  0.00    -0.200 OA
BRANCH  16  19
ATOM     19  C   UNL d   1       9.442   6.700 -21.860  0.00  0.00     0.104 A 
ATOM     20  C   UNL d   1       8.350   5.900 -22.250  0.00  0.00     0.013 A 
ATOM     21  C   UNL d   1       7.126   6.512 -22.585  0.00  0.00     0.001 A 
ATOM     22  C   UNL d   1       7.000   7.915 -22.529  0.00  0.00     0.000 A 
ATOM     23  C   UNL d   1       8.096   8.710 -22.137  0.00  0.00     0.001 A 
ATOM     24  C   UNL d   1       9.321   8.103 -21.799  0.00  0.00     0.013 A 
ENDBRANCH  16  19
ENDBRANCH  12  16
ENDBRANCH   4   7
BRANCH   1  25
ATOM     25  C   UNL d   1       7.604   4.164 -11.865  0.00  0.00     0.253 C 
BRANCH  25  26
ATOM     26  C   UNL d   1       7.977   5.112 -10.724  0.00  0.00     0.068 C 
BRANCH  26  27
ATOM     27  C   UNL d   1       8.256   4.446  -9.341  0.00  0.00     0.151 C 
BRANCH  27  28
ATOM     28  O   UNL d   1       8.157   5.378  -8.269  0.00  0.00    -0.331 OA
BRANCH  28  29
ATOM     29  C   UNL d   1       9.076   6.386  -8.158  0.00  0.00     0.096 A 
ATOM     30  C   UNL d   1      10.076   6.655  -9.122  0.00  0.00     0.024 A 
ATOM     31  C   UNL d   1      10.957   7.718  -8.983  0.00  0.00    -0.001 A 
ATOM     32  C   UNL d   1      10.928   8.447  -7.798  0.00  0.00    -0.004 A 
ATOM     33  C   UNL d   1      11.922   9.532  -7.567  0.00  0.00     0.038 C 
ATOM     34  C   UNL d   1       9.971   8.181  -6.816  0.00  0.00     0.082 A 
ATOM     35  C   UNL d   1      12.215   9.800  -6.085  0.00  0.00     0.095 C 
ATOM     36  C   UNL d   1      10.980   9.734  -5.237  0.00  0.00     0.256 C 
ATOM     37  O   UNL d   1      10.892  10.408  -4.189  0.00  0.00    -0.270 OA
ATOM     38  N   UNL d   1       9.994   8.934  -5.628  0.00  0.00    -0.212 NA
ATOM     39  C   UNL d   1       9.008   7.177  -6.997  0.00  0.00     0.043 A 
ENDBRANCH  28  29
ENDBRANCH  27  28
ENDBRANCH  26  27
ENDBRANCH  25  26
ENDBRANCH   1  25
TORSDOF 8
