REMARK  0 active torsions:
REMARK  status: ('A' for Active; 'I' for Inactive)
ROOT
ATOM      1  C   UNL d   1       4.427  -0.762 -14.486  0.00  0.00     0.285 C 
ATOM      2  N   UNL d   1       5.394   0.190 -15.012  0.00  0.00     0.140 N 
ATOM      3  C   UNL d   1       6.553  -0.548 -15.535  0.00  0.00     0.252 C 
ATOM      4  C   UNL d   1       7.632   0.387 -16.131  0.00  0.00     0.058 C 
ATOM      5  C   UNL d   1       7.986   1.397 -15.035  0.00  0.00     0.093 C 
ATOM      6  C   UNL d   1       6.750   2.142 -14.598  0.00  0.00     0.078 C 
ATOM      7  C   UNL d   1       5.779   1.142 -13.959  0.00  0.00     0.257 C 
ATOM      8  C   UNL d   1       7.358   3.241 -13.775  0.00  0.00    -0.002 A 
ATOM      9  C   UNL d   1       6.863   4.105 -12.786  0.00  0.00    -0.003 A 
ATOM     10  C   UNL d   1       7.752   5.049 -12.224  0.00  0.00     0.000 A 
ATOM     11  C   UNL d   1       9.104   5.125 -12.647  0.00  0.00     0.008 A 
ATOM     12  C   UNL d   1       9.638   4.277 -13.650  0.00  0.00     0.041 A 
ATOM     13  C   UNL d   1       8.698   3.364 -14.173  0.00  0.00     0.062 A 
ATOM     14  N   UNL d   1       9.024   2.416 -15.178  0.00  0.00    -0.329 N 
ATOM     15  C   UNL d   1       9.598   2.768 -16.413  0.00  0.00     0.057 A 
ATOM     16  C   UNL d   1       8.834   2.919 -17.591  0.00  0.00     0.017 A 
ATOM     17  C   UNL d   1       9.441   3.321 -18.797  0.00  0.00     0.002 A 
ATOM     18  C   UNL d   1      10.827   3.560 -18.842  0.00  0.00    -0.000 A 
ATOM     19  C   UNL d   1      11.594   3.430 -17.671  0.00  0.00    -0.002 A 
ATOM     20  C   UNL d   1      10.979   3.051 -16.457  0.00  0.00     0.005 A 
ATOM     21  C   UNL d   1      11.795   2.997 -15.185  0.00  0.00     0.090 C 
ATOM     22  S   UNL d   1      11.352   4.387 -14.109  0.00  0.00    -0.107 SA
ENDROOT
TORSDOF 0
