REMARK  4 active torsions:
REMARK  status: ('A' for Active; 'I' for Inactive)
REMARK    1  A    between atoms: C_8  and  C_9 
REMARK    2  A    between atoms: C_9  and  N_10 
REMARK    3  A    between atoms: N_13  and  C_14 
REMARK    4  A    between atoms: C_14  and  C_15 
ROOT
ATOM      1  N   UNL d   1       7.271   2.386 -14.357  0.00  0.00     0.146 N 
ATOM      2  C   UNL d   1       6.315   2.993 -13.405  0.00  0.00     0.286 C 
ATOM      3  C   UNL d   1       6.289   4.505 -13.477  0.00  0.00     0.285 C 
ATOM      4  N   UNL d   1       7.610   5.071 -13.216  0.00  0.00     0.141 N 
ATOM      5  C   UNL d   1       8.570   4.518 -14.178  0.00  0.00     0.285 C 
ATOM      6  C   UNL d   1       8.608   2.970 -14.156  0.00  0.00     0.286 C 
ENDROOT
BRANCH   4   7
ATOM      7  C   UNL d   1       8.008   4.916 -11.813  0.00  0.00     0.251 C 
BRANCH   7   8
ATOM      8  C   UNL d   1       9.049   5.925 -11.317  0.00  0.00     0.038 C 
ATOM      9  C   UNL d   1       9.102   5.923  -9.742  0.00  0.00     0.030 C 
ATOM     10  C   UNL d   1       9.808   7.126  -9.177  0.00  0.00    -0.007 A 
ATOM     11  C   UNL d   1      10.024   8.218  -9.971  0.00  0.00     0.055 A 
ATOM     12  C   UNL d   1      10.331   7.482  -7.867  0.00  0.00     0.017 A 
ATOM     13  C   UNL d   1       9.681   8.390 -11.389  0.00  0.00     0.046 C 
ATOM     14  N   UNL d   1      10.697   9.180  -9.270  0.00  0.00    -0.250 NA
ATOM     15  C   UNL d   1       8.776   7.314 -11.937  0.00  0.00     0.009 C 
ATOM     16  C   UNL d   1      10.894   8.798  -7.968  0.00  0.00     0.081 A 
ATOM     17  C   UNL d   1      11.495   9.456  -6.888  0.00  0.00     0.021 A 
ATOM     18  C   UNL d   1      11.580   8.809  -5.640  0.00  0.00     0.031 A 
ATOM     19  C   UNL d   1      11.044   7.510  -5.516  0.00  0.00     0.140 A 
ATOM     20  F   UNL d   1      11.144   6.863  -4.334  0.00  0.00    -0.204 F 
ATOM     21  C   UNL d   1      10.419   6.885  -6.606  0.00  0.00     0.031 A 
ENDBRANCH   7   8
ENDBRANCH   4   7
BRANCH   1  22
ATOM     22  C   UNL d   1       7.331   0.922 -14.265  0.00  0.00     0.279 C 
BRANCH  22  23
ATOM     23  C   UNL d   1       6.029   0.228 -14.613  0.00  0.00     0.035 A 
ATOM     24  C   UNL d   1       4.960   0.135 -13.683  0.00  0.00    -0.000 A 
ATOM     25  C   UNL d   1       3.732  -0.478 -14.041  0.00  0.00     0.001 A 
ATOM     26  C   UNL d   1       3.574  -1.070 -15.314  0.00  0.00     0.021 A 
ATOM     27  C   UNL d   1       4.656  -0.974 -16.200  0.00  0.00     0.109 A 
ATOM     28  N   UNL d   1       4.804  -1.427 -17.497  0.00  0.00    -0.184 NA
ATOM     29  C   UNL d   1       5.837  -0.343 -15.882  0.00  0.00     0.120 A 
ATOM     30  C   UNL d   1       6.071  -1.095 -17.960  0.00  0.00     0.392 A 
ATOM     31  O   UNL d   1       6.572  -1.365 -19.049  0.00  0.00    -0.236 OA
ATOM     32  O   UNL d   1       6.686  -0.399 -16.952  0.00  0.00    -0.257 OA
ENDBRANCH  22  23
ENDBRANCH   1  22
TORSDOF 4
