REMARK  4 active torsions:
REMARK  status: ('A' for Active; 'I' for Inactive)
REMARK    1  A    between atoms: C_2  and  C_3 
REMARK    2  A    between atoms: C_2  and  C_6 
REMARK    3  A    between atoms: C_9  and  C_10 
REMARK    4  A    between atoms: C_10  and  C_11 
ROOT
ATOM      1  C   UNL d   1      11.591   7.804  -4.985  0.00  0.00    -0.012 A 
ATOM      2  C   UNL d   1      11.807   8.846  -5.928  0.00  0.00    -0.004 A 
ATOM      3  C   UNL d   1      11.071   8.884  -7.129  0.00  0.00    -0.005 A 
ATOM      4  C   UNL d   1      10.110   7.886  -7.386  0.00  0.00    -0.022 A 
ATOM      5  C   UNL d   1       9.883   6.864  -6.448  0.00  0.00    -0.005 A 
ATOM      6  C   UNL d   1      10.639   6.805  -5.272  0.00  0.00    -0.004 A 
ENDROOT
BRANCH   4   7
ATOM      7  C   UNL d   1       9.295   7.904  -8.656  0.00  0.00     0.034 C 
BRANCH   7   8
ATOM      8  C   UNL d   1       9.809   6.932  -9.736  0.00  0.00     0.062 C 
ATOM      9  C   UNL d   1       9.149   5.552  -9.697  0.00  0.00     0.150 C 
ATOM     10  C   UNL d   1       8.659   5.129 -11.066  0.00  0.00     0.065 C 
ATOM     11  O   UNL d   1       9.060   4.834  -8.703  0.00  0.00    -0.296 OA
ATOM     12  C   UNL d   1       9.268   6.164 -12.013  0.00  0.00     0.008 C 
ATOM     13  C   UNL d   1       9.532   7.417 -11.171  0.00  0.00     0.008 C 
ENDBRANCH   7   8
ENDBRANCH   4   7
BRANCH   1  14
ATOM     14  C   UNL d   1      12.413   7.748  -3.697  0.00  0.00     0.110 C 
ATOM     15  C   UNL d   1      12.222   6.452  -2.877  0.00  0.00     0.016 C 
BRANCH  14  16
ATOM     16  C   UNL d   1      12.159   8.996  -2.842  0.00  0.00     0.189 C 
ATOM     17  O   UNL d   1      11.521   9.984  -3.206  0.00  0.00    -0.647 OA
ATOM     18  O   UNL d   1      12.774   8.888  -1.636  0.00  0.00    -0.647 OA
ENDBRANCH  14  16
ENDBRANCH   1  14
TORSDOF 4
