REMARK  5 active torsions:
REMARK  status: ('A' for Active; 'I' for Inactive)
REMARK    1  A    between atoms: O_2  and  C_3 
REMARK    2  A    between atoms: C_9  and  C_10 
REMARK    3  A    between atoms: C_12  and  N_13 
REMARK       I    between atoms: N_13  and  C_14 
REMARK    4  A    between atoms: N_21  and  S_22 
REMARK    5  A    between atoms: S_22  and  C_25 
ROOT
ATOM      1  C   UNL d   1       6.392   1.977 -13.999  0.00  0.00     0.094 A 
ATOM      2  C   UNL d   1       5.808   2.912 -13.143  0.00  0.00     0.026 A 
ATOM      3  C   UNL d   1       6.484   4.120 -12.837  0.00  0.00     0.020 A 
ATOM      4  C   UNL d   1       7.787   4.355 -13.352  0.00  0.00     0.075 A 
ATOM      5  C   UNL d   1       8.417   3.422 -14.204  0.00  0.00     0.022 A 
ATOM      6  C   UNL d   1       7.654   2.278 -14.545  0.00  0.00     0.026 A 
ATOM      7  C   UNL d   1       9.724   3.917 -14.567  0.00  0.00     0.039 A 
ATOM      8  C   UNL d   1       9.835   5.144 -13.949  0.00  0.00     0.093 A 
ATOM      9  N   UNL d   1       8.687   5.399 -13.209  0.00  0.00    -0.231 N 
ENDROOT
BRANCH   9  10
ATOM     10  S   UNL d   1       8.431   6.817 -12.317  0.00  0.00     0.271 S 
ATOM     11  O   UNL d   1       9.471   7.726 -12.825  0.00  0.00    -0.200 OA
ATOM     12  O   UNL d   1       6.999   7.110 -12.462  0.00  0.00    -0.200 OA
BRANCH  10  13
ATOM     13  C   UNL d   1       8.908   6.395 -10.642  0.00  0.00     0.104 A 
ATOM     14  C   UNL d   1       9.745   7.200  -9.817  0.00  0.00     0.012 A 
ATOM     15  C   UNL d   1      10.033   6.769  -8.504  0.00  0.00     0.001 A 
ATOM     16  C   UNL d   1      10.280   8.466 -10.181  0.00  0.00     0.001 A 
ATOM     17  C   UNL d   1       9.482   5.570  -8.046  0.00  0.00     0.000 A 
ATOM     18  C   UNL d   1      10.846   7.513  -7.629  0.00  0.00     0.000 A 
ATOM     19  C   UNL d   1       8.675   4.760  -8.845  0.00  0.00     0.001 A 
ATOM     20  C   UNL d   1       8.395   5.174 -10.147  0.00  0.00     0.013 A 
ATOM     21  C   UNL d   1      11.402   8.731  -8.048  0.00  0.00     0.000 A 
ATOM     22  C   UNL d   1      11.104   9.188  -9.331  0.00  0.00     0.000 A 
ENDBRANCH  10  13
ENDBRANCH   9  10
BRANCH   7  23
ATOM     23  C   UNL d   1      10.697   3.247 -15.451  0.00  0.00     0.115 A 
ATOM     24  C   UNL d   1      10.947   1.917 -15.787  0.00  0.00     0.096 A 
ATOM     25  N   UNL d   1      11.990   1.927 -16.691  0.00  0.00    -0.062 NA
ATOM     26  C   UNL d   1      10.351   0.624 -15.375  0.00  0.00     0.054 C 
ATOM     27  C   UNL d   1      12.378   3.189 -16.843  0.00  0.00     0.752 A 
ATOM     28  N   UNL d   1      11.632   4.034 -16.136  0.00  0.00    -0.058 NA
BRANCH  27  29
ATOM     29  N   UNL d   1      13.485   3.507 -17.675  0.00  0.00    -0.023 NA
ATOM     30  C   UNL d   1      14.129   4.683 -17.792  0.00  0.00     0.273 C 
ATOM     31  O   UNL d   1      15.090   4.791 -18.545  0.00  0.00    -0.270 OA
ATOM     32  C   UNL d   1      13.673   5.891 -16.976  0.00  0.00     0.101 C 
ENDBRANCH  27  29
ENDBRANCH   7  23
BRANCH   1  33
ATOM     33  O   UNL d   1       5.726   0.799 -14.284  0.00  0.00    -0.328 OA
ATOM     34  C   UNL d   1       6.399  -0.230 -15.024  0.00  0.00     0.181 C 
ENDBRANCH   1  33
TORSDOF 5
