REMARK  2 active torsions:
REMARK  status: ('A' for Active; 'I' for Inactive)
REMARK       I    between atoms: C_2  and  N_4 
REMARK       I    between atoms: N_4  and  C_5 
REMARK    1  A    between atoms: C_5  and  C_7 
REMARK    2  A    between atoms: C_7  and  C_8 
ROOT
ATOM      1  C   UNL d   1       9.975   7.856  -6.007  0.00  0.00     0.116 C 
ENDROOT
BRANCH   1   2
ATOM      2  C   UNL d   1      10.663   7.527  -7.319  0.00  0.00     0.264 C 
ATOM      3  N   UNL d   1       9.938   7.766  -8.424  0.00  0.00    -0.154 NA
ATOM      4  C   UNL d   1      10.412   7.789  -9.678  0.00  0.00     0.389 C 
ATOM      5  N   UNL d   1       9.459   7.931 -10.582  0.00  0.00    -0.084 N 
ATOM      6  O   UNL d   1      11.595   7.711  -9.997  0.00  0.00    -0.241 OA
ATOM      7  O   UNL d   1      11.815   7.090  -7.307  0.00  0.00    -0.270 OA
ENDBRANCH   1   2
BRANCH   1   8
ATOM      8  C   UNL d   1      10.989   8.093  -4.891  0.00  0.00    -0.013 A 
ATOM      9  C   UNL d   1      11.643   6.998  -4.288  0.00  0.00    -0.004 A 
ATOM     10  C   UNL d   1      12.485   7.206  -3.186  0.00  0.00    -0.000 A 
ATOM     11  C   UNL d   1      12.651   8.503  -2.667  0.00  0.00    -0.000 A 
ATOM     12  C   UNL d   1      11.976   9.593  -3.250  0.00  0.00    -0.000 A 
ATOM     13  C   UNL d   1      11.155   9.394  -4.373  0.00  0.00    -0.004 A 
ENDBRANCH   1   8
TORSDOF 2
