REMARK  6 active torsions:
REMARK  status: ('A' for Active; 'I' for Inactive)
REMARK    1  A    between atoms: C_2  and  C_3 
REMARK    2  A    between atoms: C_2  and  C_18 
REMARK    3  A    between atoms: C_3  and  C_4 
REMARK    4  A    between atoms: C_4  and  C_5 
REMARK    5  A    between atoms: C_5  and  N_6 
REMARK    6  A    between atoms: N_9  and  C_10 
ROOT
ATOM      1  N   UNL d   1       9.037   6.106  -9.642  0.00  0.00     0.141 N 
ATOM      2  C   UNL d   1      10.034   7.177  -9.765  0.00  0.00     0.274 C 
ATOM      3  C   UNL d   1       9.804   8.238  -8.681  0.00  0.00     0.137 C 
ATOM      4  N   UNL d   1       9.819   7.614  -7.361  0.00  0.00    -0.343 N 
ATOM      5  C   UNL d   1       8.894   6.494  -7.216  0.00  0.00     0.137 C 
ATOM      6  C   UNL d   1       9.144   5.459  -8.332  0.00  0.00     0.274 C 
ENDROOT
BRANCH   1   7
ATOM      7  C   UNL d   1       9.201   5.142 -10.714  0.00  0.00     0.251 C 
BRANCH   7   8
ATOM      8  C   UNL d   1       8.486   5.634 -11.986  0.00  0.00     0.043 C 
BRANCH   8   9
ATOM      9  C   UNL d   1       8.397   4.522 -13.039  0.00  0.00     0.071 C 
BRANCH   9  10
ATOM     10  C   UNL d   1       9.729   4.157 -13.718  0.00  0.00     0.173 C 
ATOM     11  O   UNL d   1      10.681   4.935 -13.654  0.00  0.00    -0.291 OA
BRANCH  10  12
ATOM     12  C   UNL d   1       9.784   2.859 -14.451  0.00  0.00     0.035 A 
ATOM     13  C   UNL d   1      10.980   2.486 -15.116  0.00  0.00     0.005 A 
ATOM     14  C   UNL d   1      11.055   1.260 -15.809  0.00  0.00     0.030 A 
ATOM     15  C   UNL d   1       9.949   0.388 -15.833  0.00  0.00     0.140 A 
ATOM     16  C   UNL d   1       8.760   0.752 -15.176  0.00  0.00     0.030 A 
ATOM     17  F   UNL d   1      10.029  -0.793 -16.491  0.00  0.00    -0.204 F 
ATOM     18  C   UNL d   1       8.675   1.982 -14.501  0.00  0.00     0.005 A 
ENDBRANCH  10  12
ENDBRANCH   9  10
ENDBRANCH   8   9
ENDBRANCH   7   8
ENDBRANCH   1   7
BRANCH   4  19
ATOM     19  C   UNL d   1      10.644   8.076  -6.320  0.00  0.00     0.076 A 
ATOM     20  C   UNL d   1      11.102   9.415  -6.289  0.00  0.00     0.116 A 
ATOM     21  N   UNL d   1      11.886   9.922  -5.320  0.00  0.00    -0.241 NA
ATOM     22  C   UNL d   1      12.266   9.108  -4.316  0.00  0.00     0.099 A 
ATOM     23  C   UNL d   1      11.865   7.764  -4.232  0.00  0.00     0.022 A 
ATOM     24  C   UNL d   1      11.053   7.237  -5.254  0.00  0.00     0.020 A 
ENDBRANCH   4  19
TORSDOF 6
