REMARK  10 active torsions:
REMARK  status: ('A' for Active; 'I' for Inactive)
REMARK    1  A    between atoms: C_2  and  C_3 
REMARK    2  A    between atoms: C_3  and  N_4 
REMARK    3  A    between atoms: N_4  and  C_5 
REMARK    4  A    between atoms: N_4  and  C_24 
REMARK    5  A    between atoms: C_5  and  C_6 
REMARK    6  A    between atoms: C_6  and  C_7 
REMARK    7  A    between atoms: C_7  and  C_8 
REMARK    8  A    between atoms: C_8  and  N_9 
REMARK       I    between atoms: N_9  and  C_10 
REMARK    9  A    between atoms: C_10  and  C_12 
REMARK   10  A    between atoms: C_15  and  C_16 
ROOT
ATOM      1  C   UNL d   1       8.991   3.907 -13.700  0.00  0.00     0.037 C 
ENDROOT
BRANCH   1   2
ATOM      2  C   UNL d   1      10.058   2.986 -14.318  0.00  0.00     0.250 C 
BRANCH   2   3
ATOM      3  N   UNL d   1       9.693   2.505 -15.661  0.00  0.00     0.135 N 
BRANCH   3   4
ATOM      4  C   UNL d   1      10.766   1.683 -16.252  0.00  0.00     0.250 C 
BRANCH   4   5
ATOM      5  C   UNL d   1      12.102   2.418 -16.445  0.00  0.00     0.035 C 
ATOM      6  C   UNL d   1      12.005   3.466 -17.560  0.00  0.00     0.002 C 
ENDBRANCH   4   5
ENDBRANCH   3   4
BRANCH   3   7
ATOM      7  C   UNL d   1       8.385   1.825 -15.697  0.00  0.00     0.224 C 
ATOM      8  C   UNL d   1       7.859   1.702 -17.147  0.00  0.00     0.062 C 
ATOM      9  C   UNL d   1       6.639   0.807 -17.245  0.00  0.00     0.014 A 
ATOM     10  C   UNL d   1       6.249  -0.073 -16.201  0.00  0.00     0.075 A 
ATOM     11  C   UNL d   1       5.873   0.763 -18.418  0.00  0.00     0.115 A 
ATOM     12  C   UNL d   1       6.983  -0.159 -14.879  0.00  0.00     0.048 C 
ATOM     13  N   UNL d   1       5.188  -0.893 -16.343  0.00  0.00    -0.062 NA
ATOM     14  C   UNL d   1       8.384   0.472 -14.937  0.00  0.00     0.040 C 
ATOM     15  C   UNL d   1       4.550  -0.843 -17.505  0.00  0.00     0.768 A 
ATOM     16  N   UNL d   1       3.459  -1.653 -17.633  0.00  0.00     0.062 N 
ATOM     17  N   UNL d   1       4.823  -0.070 -18.557  0.00  0.00    -0.057 NA
ENDBRANCH   3   7
ENDBRANCH   2   3
ENDBRANCH   1   2
BRANCH   1  18
ATOM     18  C   UNL d   1       9.423   4.465 -12.345  0.00  0.00     0.029 C 
BRANCH  18  19
ATOM     19  C   UNL d   1       8.251   5.178 -11.655  0.00  0.00     0.129 C 
BRANCH  19  20
ATOM     20  N   UNL d   1       8.673   5.736 -10.384  0.00  0.00    -0.234 NA
ATOM     21  C   UNL d   1       9.474   6.804 -10.261  0.00  0.00     0.275 C 
ATOM     22  O   UNL d   1       9.838   7.486 -11.220  0.00  0.00    -0.266 OA
BRANCH  21  23
ATOM     23  C   UNL d   1       9.972   7.097  -8.875  0.00  0.00     0.058 A 
ATOM     24  C   UNL d   1      11.079   7.954  -8.691  0.00  0.00     0.005 A 
ATOM     25  C   UNL d   1      11.551   8.242  -7.397  0.00  0.00     0.000 A 
ATOM     26  C   UNL d   1      10.931   7.679  -6.262  0.00  0.00     0.000 A 
ATOM     27  C   UNL d   1       9.821   6.830  -6.449  0.00  0.00     0.000 A 
ATOM     28  C   UNL d   1       9.335   6.549  -7.737  0.00  0.00     0.005 A 
BRANCH  26  29
ATOM     29  C   UNL d   1      11.421   7.981  -4.911  0.00  0.00     0.000 A 
ATOM     30  C   UNL d   1      11.825   6.948  -4.036  0.00  0.00     0.000 A 
ATOM     31  C   UNL d   1      12.265   7.234  -2.729  0.00  0.00     0.000 A 
ATOM     32  C   UNL d   1      12.305   8.567  -2.283  0.00  0.00     0.000 A 
ATOM     33  C   UNL d   1      11.890   9.598  -3.143  0.00  0.00     0.000 A 
ATOM     34  C   UNL d   1      11.460   9.312  -4.450  0.00  0.00     0.000 A 
ENDBRANCH  26  29
ENDBRANCH  21  23
ENDBRANCH  19  20
ENDBRANCH  18  19
ENDBRANCH   1  18
TORSDOF 10
