REMARK  6 active torsions:
REMARK  status: ('A' for Active; 'I' for Inactive)
REMARK    1  A    between atoms: C_2  and  C_3 
REMARK    2  A    between atoms: N_12  and  C_13 
REMARK    3  A    between atoms: C_13  and  C_14 
REMARK    4  A    between atoms: C_14  and  C_15 
REMARK    5  A    between atoms: C_15  and  C_16 
REMARK    6  A    between atoms: C_17  and  C_18 
ROOT
ATOM      1  O   UNL d   1      11.840   7.661  -9.629  0.00  0.00    -0.221 OA
ATOM      2  C   UNL d   1      10.683   7.504  -8.808  0.00  0.00     0.149 C 
ATOM      3  C   UNL d   1       9.589   8.334  -9.525  0.00  0.00     0.070 C 
ATOM      4  C   UNL d   1       9.195   7.699 -10.896  0.00  0.00     0.253 C 
ATOM      5  N   UNL d   1       8.715   6.334 -10.718  0.00  0.00     0.137 N 
ATOM      6  C   UNL d   1       9.789   5.553 -10.160  0.00  0.00     0.253 C 
ATOM      7  C   UNL d   1      10.210   6.040  -8.790  0.00  0.00     0.070 C 
ENDROOT
BRANCH   5   8
ATOM      8  C   UNL d   1       8.236   5.772 -11.983  0.00  0.00     0.251 C 
BRANCH   8   9
ATOM      9  C   UNL d   1       6.993   4.915 -11.721  0.00  0.00     0.049 C 
BRANCH   9  10
ATOM     10  C   UNL d   1       6.246   4.538 -13.012  0.00  0.00     0.078 C 
BRANCH  10  11
ATOM     11  C   UNL d   1       6.985   3.588 -13.858  0.00  0.00    -0.086 C 
ATOM     12  C   UNL d   1       7.625   2.793 -14.527  0.00  0.00    -0.064 C 
BRANCH  12  13
ATOM     13  C   UNL d   1       8.405   1.852 -15.306  0.00  0.00     0.042 A 
ATOM     14  C   UNL d   1       9.720   1.538 -14.910  0.00  0.00     0.011 A 
ATOM     15  C   UNL d   1      10.474   0.622 -15.665  0.00  0.00     0.030 A 
ATOM     16  C   UNL d   1       9.918   0.021 -16.811  0.00  0.00     0.140 A 
ATOM     17  C   UNL d   1       8.603   0.336 -17.207  0.00  0.00     0.030 A 
ATOM     18  F   UNL d   1      10.646  -0.862 -17.534  0.00  0.00    -0.204 F 
ATOM     19  C   UNL d   1       7.845   1.253 -16.452  0.00  0.00     0.011 A 
ENDBRANCH  12  13
ENDBRANCH  10  11
ENDBRANCH   9  10
ENDBRANCH   8   9
ENDBRANCH   5   8
BRANCH   2  20
ATOM     20  C   UNL d   1      10.990   8.029  -7.384  0.00  0.00     0.005 A 
ATOM     21  C   UNL d   1      10.964   7.175  -6.245  0.00  0.00    -0.001 A 
ATOM     22  C   UNL d   1      11.249   7.687  -4.973  0.00  0.00     0.011 A 
ATOM     23  C   UNL d   1      11.558   9.043  -4.792  0.00  0.00     0.058 A 
ATOM     24  C   UNL d   1      11.625   9.895  -5.915  0.00  0.00     0.011 A 
ATOM     25 CL   UNL d   1      11.847   9.623  -3.202  0.00  0.00    -0.082 Cl
ATOM     26  C   UNL d   1      11.361   9.373  -7.198  0.00  0.00    -0.001 A 
ENDBRANCH   2  20
TORSDOF 6
