REMARK  6 active torsions:
REMARK  status: ('A' for Active; 'I' for Inactive)
REMARK    1  A    between atoms: C_2  and  C_3 
REMARK    2  A    between atoms: C_9  and  N_10 
REMARK    3  A    between atoms: C_12  and  C_13 
REMARK    4  A    between atoms: C_13  and  C_14 
REMARK    5  A    between atoms: C_14  and  N_15 
REMARK    6  A    between atoms: N_18  and  C_19 
ROOT
ATOM      1  N   UNL d   1       8.823   3.489 -13.954  0.00  0.00    -0.209 N 
ATOM      2  C   UNL d   1       8.310   4.044 -12.793  0.00  0.00     0.119 A 
ATOM      3  C   UNL d   1       9.287   4.887 -12.384  0.00  0.00     0.103 A 
ATOM      4  N   UNL d   1      10.369   4.788 -13.260  0.00  0.00    -0.133 NA
ATOM      5  N   UNL d   1      10.073   3.958 -14.206  0.00  0.00    -0.060 NA
ENDROOT
BRANCH   3   6
ATOM      6  C   UNL d   1       9.384   5.660 -11.113  0.00  0.00     0.085 C 
BRANCH   6   7
ATOM      7  C   UNL d   1       9.669   7.173 -11.364  0.00  0.00     0.257 C 
BRANCH   7   8
ATOM      8  N   UNL d   1      10.380   7.901 -10.303  0.00  0.00     0.141 N 
ATOM      9  C   UNL d   1      11.495   7.169  -9.701  0.00  0.00     0.274 C 
ATOM     10  C   UNL d   1      12.271   7.963  -8.676  0.00  0.00     0.137 C 
ATOM     11  N   UNL d   1      11.315   8.335  -7.677  0.00  0.00    -0.344 N 
ATOM     12  C   UNL d   1      10.171   9.052  -8.171  0.00  0.00     0.137 C 
ATOM     13  C   UNL d   1       9.439   8.270  -9.263  0.00  0.00     0.274 C 
BRANCH  11  14
ATOM     14  C   UNL d   1      11.453   8.033  -6.328  0.00  0.00     0.068 C 
ATOM     15  C   UNL d   1      11.498   9.071  -5.383  0.00  0.00     0.084 C 
ATOM     16  C   UNL d   1      11.711   8.774  -4.024  0.00  0.00     0.070 C 
ATOM     17 CL   UNL d   1      11.443  10.708  -5.905  0.00  0.00    -0.080 Cl
ATOM     18  C   UNL d   1      11.905   7.464  -3.600  0.00  0.00     0.012 C 
ATOM     19 CL   UNL d   1      11.819   9.986  -2.860  0.00  0.00    -0.081 Cl
ATOM     20  C   UNL d   1      11.826   6.439  -4.537  0.00  0.00     0.002 C 
ATOM     21  C   UNL d   1      11.535   6.698  -5.897  0.00  0.00     0.018 C 
ENDBRANCH  11  14
ENDBRANCH   7   8
ENDBRANCH   6   7
ENDBRANCH   3   6
BRANCH   1  22
ATOM     22  C   UNL d   1       8.210   2.557 -14.815  0.00  0.00     0.088 A 
ATOM     23  C   UNL d   1       8.718   2.356 -16.128  0.00  0.00     0.040 A 
ATOM     24  C   UNL d   1       8.095   1.483 -16.980  0.00  0.00     0.102 A 
ATOM     25  N   UNL d   1       6.997   0.807 -16.546  0.00  0.00    -0.228 N 
ATOM     26  N   UNL d   1       6.268  -0.080 -17.291  0.00  0.00    -0.164 NA
ATOM     27  C   UNL d   1       6.461   0.958 -15.253  0.00  0.00     0.089 A 
ATOM     28  C   UNL d   1       5.333  -0.496 -16.464  0.00  0.00     0.125 A 
ATOM     29  C   UNL d   1       5.390   0.108 -15.189  0.00  0.00     0.081 A 
ATOM     30  C   UNL d   1       7.082   1.882 -14.389  0.00  0.00     0.039 A 
BRANCH  29  31
ATOM     31  C   UNL d   1       4.523  -0.030 -14.039  0.00  0.00     0.237 C 
ATOM     32  O   UNL d   1       3.548  -0.787 -13.965  0.00  0.00    -0.283 OA
ENDBRANCH  29  31
ENDBRANCH   1  22
TORSDOF 6
