REMARK  5 active torsions:
REMARK  status: ('A' for Active; 'I' for Inactive)
REMARK    1  A    between atoms: N_13  and  C_14 
REMARK    2  A    between atoms: C_14  and  C_15 
REMARK    3  A    between atoms: C_15  and  C_16 
REMARK    4  A    between atoms: C_16  and  C_17 
REMARK    5  A    between atoms: C_17  and  C_18 
ROOT
ATOM      1  O   UNL d   1       9.464   7.694 -12.325  0.00  0.00    -0.192 OA
ATOM      2  C   UNL d   1       8.992   6.385 -12.091  0.00  0.00     0.314 C 
ATOM      3  C   UNL d   1       7.636   6.038 -12.738  0.00  0.00     0.061 C 
ATOM      4  C   UNL d   1       7.951   5.237 -14.038  0.00  0.00     0.004 C 
ATOM      5  C   UNL d   1       6.841   4.176 -14.041  0.00  0.00     0.000 C 
ATOM      6  C   UNL d   1       7.198   3.653 -12.664  0.00  0.00     0.002 C 
ATOM      7  C   UNL d   1       8.709   3.414 -12.748  0.00  0.00     0.002 A 
ATOM      8  C   UNL d   1       9.209   4.504 -13.670  0.00  0.00     0.005 A 
ATOM      9  C   UNL d   1       9.856   5.207 -12.502  0.00  0.00     0.061 A 
ATOM     10  C   UNL d   1       9.364   4.118 -11.574  0.00  0.00     0.036 A 
ATOM     11  C   UNL d   1       8.281   4.814 -10.757  0.00  0.00     0.222 C 
ATOM     12  C   UNL d   1       7.120   4.919 -11.775  0.00  0.00     0.036 C 
ATOM     13  N   UNL d   1       8.735   6.199 -10.664  0.00  0.00     0.159 N 
ENDROOT
BRANCH  13  14
ATOM     14  C   UNL d   1       9.871   6.383  -9.763  0.00  0.00     0.253 C 
BRANCH  14  15
ATOM     15  C   UNL d   1       9.717   7.670  -8.933  0.00  0.00     0.036 C 
BRANCH  15  16
ATOM     16  C   UNL d   1      10.650   7.637  -7.720  0.00  0.00     0.007 C 
BRANCH  16  17
ATOM     17  C   UNL d   1      10.353   8.710  -6.655  0.00  0.00     0.026 C 
BRANCH  17  18
ATOM     18  C   UNL d   1      11.049   8.476  -5.315  0.00  0.00    -0.022 A 
ATOM     19  C   UNL d   1      11.304   7.172  -4.839  0.00  0.00    -0.004 A 
ATOM     20  C   UNL d   1      11.915   6.972  -3.582  0.00  0.00    -0.000 A 
ATOM     21  C   UNL d   1      12.261   8.073  -2.787  0.00  0.00    -0.000 A 
ATOM     22  C   UNL d   1      11.991   9.379  -3.242  0.00  0.00    -0.000 A 
ATOM     23  C   UNL d   1      11.387   9.583  -4.501  0.00  0.00    -0.004 A 
ENDBRANCH  17  18
ENDBRANCH  16  17
ENDBRANCH  15  16
ENDBRANCH  14  15
ENDBRANCH  13  14
TORSDOF 5
