REMARK  7 active torsions:
REMARK  status: ('A' for Active; 'I' for Inactive)
REMARK    1  A    between atoms: C_2  and  C_3 
REMARK    2  A    between atoms: C_3  and  N_4 
REMARK    3  A    between atoms: N_4  and  C_5 
REMARK    4  A    between atoms: N_4  and  C_24 
REMARK    5  A    between atoms: C_5  and  C_6 
REMARK    6  A    between atoms: C_6  and  N_7 
REMARK       I    between atoms: N_10  and  C_11 
REMARK    7  A    between atoms: C_11  and  C_13 
ROOT
ATOM      1  N   UNL d   1       9.160   6.127  -9.882  0.00  0.00     0.143 N 
ATOM      2  C   UNL d   1       9.668   5.712  -8.583  0.00  0.00     0.274 C 
ATOM      3  C   UNL d   1       9.396   6.787  -7.528  0.00  0.00     0.140 C 
ATOM      4  N   UNL d   1      10.134   8.014  -7.934  0.00  0.00    -0.311 N 
ATOM      5  C   UNL d   1      10.981   8.739  -7.161  0.00  0.00     0.275 C 
ATOM      6  O   UNL d   1      11.456   9.820  -7.502  0.00  0.00    -0.266 OA
ATOM      7  C   UNL d   1       9.700   8.518  -9.269  0.00  0.00     0.140 C 
ATOM      8  C   UNL d   1       9.855   7.355 -10.302  0.00  0.00     0.274 C 
ENDROOT
BRANCH   1   9
ATOM      9  C   UNL d   1       9.220   5.048 -10.854  0.00  0.00     0.286 C 
BRANCH   9  10
ATOM     10  C   UNL d   1       8.219   5.220 -11.998  0.00  0.00     0.285 C 
BRANCH  10  11
ATOM     11  N   UNL d   1       8.161   4.049 -12.916  0.00  0.00     0.137 N 
BRANCH  11  12
ATOM     12  C   UNL d   1       6.964   4.161 -13.743  0.00  0.00     0.250 C 
BRANCH  12  13
ATOM     13  C   UNL d   1       6.486   2.890 -14.493  0.00  0.00     0.035 C 
ATOM     14  C   UNL d   1       6.554   1.573 -13.725  0.00  0.00     0.002 C 
ENDBRANCH  12  13
ENDBRANCH  11  12
BRANCH  11  15
ATOM     15  C   UNL d   1       9.423   3.843 -13.687  0.00  0.00     0.224 C 
ATOM     16  C   UNL d   1       9.996   5.157 -14.228  0.00  0.00     0.059 C 
ATOM     17  C   UNL d   1      11.119   5.036 -15.240  0.00  0.00    -0.022 A 
ATOM     18  C   UNL d   1      11.407   3.807 -15.881  0.00  0.00    -0.001 A 
ATOM     19  C   UNL d   1      11.871   6.180 -15.554  0.00  0.00    -0.004 A 
ATOM     20  C   UNL d   1      10.619   2.562 -15.549  0.00  0.00     0.030 C 
ATOM     21  C   UNL d   1      12.432   3.729 -16.841  0.00  0.00     0.127 A 
ATOM     22  C   UNL d   1       9.340   2.881 -14.885  0.00  0.00     0.038 C 
ATOM     23  O   UNL d   1      12.686   2.534 -17.462  0.00  0.00    -0.191 OA
ATOM     24  C   UNL d   1      13.190   4.874 -17.131  0.00  0.00     0.027 A 
ATOM     25  C   UNL d   1      12.918   6.091 -16.480  0.00  0.00     0.002 A 
ENDBRANCH  11  15
ENDBRANCH  10  11
ENDBRANCH   9  10
ENDBRANCH   1   9
BRANCH   5  26
ATOM     26  C   UNL d   1      11.347   8.274  -5.830  0.00  0.00     0.137 A 
ATOM     27  N   UNL d   1      11.655   9.218  -4.859  0.00  0.00    -0.241 NA
ATOM     28  C   UNL d   1      11.983   8.592  -3.704  0.00  0.00     0.082 A 
ATOM     29  C   UNL d   1      11.921   7.209  -3.977  0.00  0.00     0.019 A 
ATOM     30  C   UNL d   1      12.336   9.048  -2.426  0.00  0.00     0.019 A 
ATOM     31  C   UNL d   1      11.582   7.026  -5.334  0.00  0.00     0.025 A 
ATOM     32  C   UNL d   1      12.260   6.330  -2.975  0.00  0.00     0.002 A 
ATOM     33  C   UNL d   1      12.655   6.746  -1.728  0.00  0.00     0.000 A 
ATOM     34  C   UNL d   1      12.674   8.109  -1.446  0.00  0.00     0.002 A 
ENDBRANCH   5  26
TORSDOF 7
