REMARK  4 active torsions:
REMARK  status: ('A' for Active; 'I' for Inactive)
REMARK    1  A    between atoms: CA_6  and  N_7 
REMARK       I    between atoms: N_7  and  C_8 
REMARK    2  A    between atoms: C_8  and  CA_10 
REMARK    3  A    between atoms: CA_10  and  C_12 
REMARK    4  A    between atoms: CA_21  and  C_22 
ROOT
ATOM      1  C   UNL d   1      10.874   7.538  -5.036  0.00  0.00     0.013 C 
ATOM      2  C   UNL d   1      10.902   7.603  -6.560  0.00  0.00     0.070 C 
ATOM      3  C   UNL d   1      11.624   6.367  -6.967  0.00  0.00     0.013 C 
ATOM      4  S   UNL d   1       9.230   7.455  -7.306  0.00  0.00    -0.116 SA
ATOM      5  C   UNL d   1       9.469   8.695  -8.631  0.00  0.00     0.164 A 
ATOM      6  CA  UNL d   1       9.730   8.459 -10.127  0.00  0.00     0.215 A 
ATOM      7  C   UNL d   1      11.200   8.756  -9.816  0.00  0.00     0.260 A 
ATOM      8  O   UNL d   1      12.233   8.787 -10.417  0.00  0.00    -0.270 OA
ATOM      9  N   UNL d   1      10.884   8.955  -8.489  0.00  0.00    -0.300 N 
ATOM     10  CA  UNL d   1      11.604   8.798  -7.241  0.00  0.00     0.181 C 
ENDROOT
BRANCH   6  11
ATOM     11  N   UNL d   1       9.535   7.067 -10.513  0.00  0.00    -0.225 NA
ATOM     12  C   UNL d   1       9.082   6.676 -11.700  0.00  0.00     0.293 C 
ATOM     13  O   UNL d   1       8.521   7.454 -12.471  0.00  0.00    -0.268 OA
BRANCH  12  14
ATOM     14  CA  UNL d   1       9.371   5.221 -12.121  0.00  0.00     0.403 C 
ATOM     15  N   UNL d   1      10.293   5.175 -13.241  0.00  0.00     0.631 N 
BRANCH  14  16
ATOM     16  C   UNL d   1       8.071   4.584 -12.453  0.00  0.00     0.023 A 
ATOM     17  C   UNL d   1       7.121   4.388 -11.445  0.00  0.00    -0.002 A 
ATOM     18  C   UNL d   1       5.880   3.767 -11.698  0.00  0.00    -0.000 A 
ATOM     19  C   UNL d   1       5.560   3.332 -12.981  0.00  0.00    -0.000 A 
ATOM     20  C   UNL d   1       6.497   3.497 -14.007  0.00  0.00    -0.000 A 
ATOM     21  C   UNL d   1       7.732   4.122 -13.744  0.00  0.00    -0.002 A 
ENDBRANCH  14  16
ENDBRANCH  12  14
ENDBRANCH   6  11
BRANCH  10  22
ATOM     22  C   UNL d   1      11.552  10.075  -6.399  0.00  0.00     0.207 C 
ATOM     23  O   UNL d   1      10.624  10.459  -5.772  0.00  0.00    -0.646 OA
ATOM     24  OXT UNL d   1      12.652  10.854  -6.432  0.00  0.00    -0.646 OA
ENDBRANCH  10  22
TORSDOF 4
