REMARK  1 active torsions:
REMARK  status: ('A' for Active; 'I' for Inactive)
REMARK    1  A    between atoms: C_8  and  N_9 
ROOT
ATOM      1  N   UNL d   1      10.392   3.013 -15.261  0.00  0.00    -0.273 N 
ATOM      2  C   UNL d   1       9.117   3.208 -14.617  0.00  0.00     0.141 C 
ATOM      3  C   UNL d   1       9.402   4.335 -13.604  0.00  0.00     0.155 C 
ATOM      4  C   UNL d   1       9.531   3.870 -12.125  0.00  0.00     0.280 C 
ATOM      5  N   UNL d   1       8.546   4.542 -11.270  0.00  0.00     0.140 N 
ATOM      6  C   UNL d   1       7.197   4.283 -11.802  0.00  0.00     0.250 C 
ATOM      7  C   UNL d   1       7.021   4.845 -13.228  0.00  0.00     0.038 C 
ATOM      8  C   UNL d   1       8.355   5.452 -13.709  0.00  0.00     0.034 C 
ATOM      9  C   UNL d   1       8.738   6.568 -12.721  0.00  0.00     0.038 C 
ATOM     10  C   UNL d   1       8.807   5.988 -11.280  0.00  0.00     0.250 C 
ATOM     11  O   UNL d   1      10.688   4.812 -14.027  0.00  0.00    -0.286 OA
ATOM     12  C   UNL d   1      11.315   4.023 -14.911  0.00  0.00     0.369 C 
ATOM     13  O   UNL d   1      12.474   4.214 -15.305  0.00  0.00    -0.238 OA
ENDROOT
BRANCH   1  14
ATOM     14  C   UNL d   1      10.621   1.982 -16.244  0.00  0.00     0.065 A 
ATOM     15  C   UNL d   1       9.759   0.848 -16.282  0.00  0.00     0.019 A 
ATOM     16  C   UNL d   1       9.973  -0.177 -17.225  0.00  0.00     0.026 A 
ATOM     17  C   UNL d   1      11.036  -0.048 -18.133  0.00  0.00     0.100 A 
ATOM     18  O   UNL d   1      11.406  -0.916 -19.137  0.00  0.00    -0.305 OA
ATOM     19  C   UNL d   1      11.905   1.066 -18.158  0.00  0.00     0.022 A 
ATOM     20  C   UNL d   1      12.495  -0.362 -19.756  0.00  0.00     0.118 A 
ATOM     21  C   UNL d   1      12.850   0.845 -19.212  0.00  0.00     0.005 A 
ATOM     22  C   UNL d   1      13.975   1.738 -19.647  0.00  0.00     0.033 C 
ATOM     23  C   UNL d   1      11.667   2.079 -17.210  0.00  0.00     0.019 A 
ENDBRANCH   1  14
TORSDOF 1
