REMARK  3 active torsions:
REMARK  status: ('A' for Active; 'I' for Inactive)
REMARK    1  A    between atoms: C_5  and  C_6 
REMARK    2  A    between atoms: C_6  and  N_7 
REMARK    3  A    between atoms: N_10  and  C_11 
ROOT
ATOM      1  N   UNL d   1       9.132   5.551 -12.433  0.00  0.00     0.146 N 
ATOM      2  C   UNL d   1       9.514   4.195 -12.066  0.00  0.00     0.286 C 
ATOM      3  C   UNL d   1      10.365   3.544 -13.164  0.00  0.00     0.286 C 
ATOM      4  N   UNL d   1       9.669   3.480 -14.449  0.00  0.00     0.150 N 
ATOM      5  C   UNL d   1       9.238   4.846 -14.790  0.00  0.00     0.286 C 
ATOM      6  C   UNL d   1       8.386   5.479 -13.680  0.00  0.00     0.286 C 
ENDROOT
BRANCH   4   7
ATOM      7  C   UNL d   1      10.458   2.785 -15.510  0.00  0.00     0.282 A 
ATOM      8  C   UNL d   1       9.611   2.551 -16.742  0.00  0.00     0.031 A 
ATOM      9  C   UNL d   1      10.130   3.225 -17.841  0.00  0.00     0.061 A 
ATOM     10  C   UNL d   1       8.449   1.761 -16.848  0.00  0.00    -0.001 A 
ATOM     11  N   UNL d   1      11.297   3.913 -17.452  0.00  0.00    -0.296 N 
ATOM     12  C   UNL d   1       9.501   3.176 -19.096  0.00  0.00     0.017 A 
ATOM     13  C   UNL d   1      11.560   3.669 -16.153  0.00  0.00     0.270 A 
ATOM     14  C   UNL d   1      12.100   4.763 -18.319  0.00  0.00     0.133 C 
ATOM     15  O   UNL d   1      12.530   4.109 -15.531  0.00  0.00    -0.270 OA
ATOM     16  C   UNL d   1       8.340   2.377 -19.221  0.00  0.00     0.002 A 
ATOM     17  C   UNL d   1       7.819   1.674 -18.106  0.00  0.00    -0.000 A 
ATOM     18  C   UNL d   1      11.065   1.430 -15.081  0.00  0.00     0.048 C 
ENDBRANCH   4   7
BRANCH   1  19
ATOM     19  C   UNL d   1       8.362   6.199 -11.386  0.00  0.00     0.277 C 
BRANCH  19  20
ATOM     20  C   UNL d   1       9.197   6.538 -10.166  0.00  0.00     0.011 A 
ATOM     21  C   UNL d   1      10.225   7.498 -10.261  0.00  0.00    -0.003 A 
ATOM     22  C   UNL d   1      10.966   7.863  -9.121  0.00  0.00    -0.004 A 
ATOM     23  C   UNL d   1      10.664   7.280  -7.873  0.00  0.00    -0.022 A 
ATOM     24  C   UNL d   1      11.450   7.650  -6.638  0.00  0.00     0.031 C 
ATOM     25  C   UNL d   1       9.623   6.338  -7.776  0.00  0.00    -0.004 A 
ATOM     26  C   UNL d   1       8.895   5.960  -8.918  0.00  0.00    -0.003 A 
ENDBRANCH  19  20
ENDBRANCH   1  19
TORSDOF 3
