REMARK  5 active torsions:
REMARK  status: ('A' for Active; 'I' for Inactive)
REMARK    1  A    between atoms: N_12  and  C_13 
REMARK    2  A    between atoms: C_13  and  C_14 
REMARK    3  A    between atoms: C_14  and  C_15 
REMARK    4  A    between atoms: C_15  and  N_16 
REMARK    5  A    between atoms: C_19  and  N_20 
ROOT
ATOM      1  N   UNL d   1       8.184   5.542 -10.630  0.00  0.00     0.137 N 
ATOM      2  C   UNL d   1       9.252   6.293 -11.295  0.00  0.00     0.252 C 
ATOM      3  C   UNL d   1       9.796   7.391 -10.414  0.00  0.00     0.058 C 
ATOM      4  C   UNL d   1      10.294   6.825  -9.064  0.00  0.00     0.094 C 
ATOM      5  C   UNL d   1       9.179   5.975  -8.419  0.00  0.00     0.058 C 
ATOM      6  C   UNL d   1       8.674   4.921  -9.405  0.00  0.00     0.252 C 
ENDROOT
BRANCH   1   7
ATOM      7  C   UNL d   1       7.556   4.561 -11.504  0.00  0.00     0.252 C 
BRANCH   7   8
ATOM      8  C   UNL d   1       8.574   3.872 -12.451  0.00  0.00     0.060 C 
BRANCH   8   9
ATOM      9  C   UNL d   1       7.821   3.244 -13.643  0.00  0.00     0.111 C 
BRANCH   9  10
ATOM     10  N   UNL d   1       8.762   2.439 -14.473  0.00  0.00    -0.297 N 
ATOM     11  C   UNL d   1       8.487   1.125 -14.609  0.00  0.00     0.238 C 
ATOM     12  O   UNL d   1       7.541   0.541 -14.075  0.00  0.00    -0.272 OA
ATOM     13  C   UNL d   1       9.387   0.295 -15.522  0.00  0.00     0.093 C 
ATOM     14  C   UNL d   1      10.851   0.729 -15.458  0.00  0.00     0.038 C 
ATOM     15  C   UNL d   1      11.017   2.227 -15.555  0.00  0.00    -0.004 A 
ATOM     16  C   UNL d   1       9.947   3.049 -15.064  0.00  0.00     0.086 A 
ATOM     17  C   UNL d   1      12.171   2.804 -16.116  0.00  0.00    -0.003 A 
ATOM     18  C   UNL d   1      10.125   4.437 -15.162  0.00  0.00     0.155 A 
ATOM     19  C   UNL d   1      11.313   5.028 -15.654  0.00  0.00     0.031 A 
ATOM     20  F   UNL d   1       9.118   5.236 -14.731  0.00  0.00    -0.203 F 
ATOM     21  C   UNL d   1      12.355   4.202 -16.156  0.00  0.00     0.002 A 
ENDBRANCH   9  10
ENDBRANCH   8   9
ENDBRANCH   7   8
ENDBRANCH   1   7
BRANCH   4  22
ATOM     22  N   UNL d   1      10.822   7.870  -8.153  0.00  0.00    -0.281 N 
ATOM     23  C   UNL d   1      11.098   7.700  -6.780  0.00  0.00     0.082 A 
ATOM     24  C   UNL d   1      11.463   8.928  -6.260  0.00  0.00     0.102 A 
ATOM     25  C   UNL d   1      11.090   6.585  -5.948  0.00  0.00     0.019 A 
ATOM     26  N   UNL d   1      11.443   9.798  -7.320  0.00  0.00    -0.191 NA
ATOM     27  C   UNL d   1      11.806   9.157  -4.926  0.00  0.00     0.021 A 
ATOM     28  C   UNL d   1      11.117   9.156  -8.454  0.00  0.00     0.350 A 
ATOM     29  O   UNL d   1      11.110   9.694  -9.564  0.00  0.00    -0.244 OA
ATOM     30  C   UNL d   1      11.746   8.049  -4.057  0.00  0.00     0.002 A 
ATOM     31  C   UNL d   1      11.379   6.778  -4.572  0.00  0.00     0.002 A 
ENDBRANCH   4  22
TORSDOF 5
