REMARK  6 active torsions:
REMARK  status: ('A' for Active; 'I' for Inactive)
REMARK    1  A    between atoms: C_2  and  N_4 
REMARK    2  A    between atoms: N_4  and  C_5 
REMARK    3  A    between atoms: C_5  and  C_6 
REMARK    4  A    between atoms: C_6  and  C_8 
REMARK    5  A    between atoms: C_8  and  O_9 
REMARK    6  A    between atoms: O_9  and  C_10 
ROOT
ATOM      1  C   UNL d   1      10.839   8.012  -5.449  0.00  0.00     0.096 A 
ATOM      2  C   UNL d   1      10.532   9.352  -5.697  0.00  0.00     0.024 A 
ATOM      3  C   UNL d   1      10.870  10.303  -4.738  0.00  0.00     0.004 A 
ATOM      4  C   UNL d   1      11.529   9.964  -3.552  0.00  0.00     0.019 A 
ATOM      5  C   UNL d   1      11.860   8.653  -3.334  0.00  0.00     0.083 A 
ATOM      6  N   UNL d   1      12.508   8.013  -2.300  0.00  0.00    -0.244 NA
ATOM      7  C   UNL d   1      12.557   6.654  -2.543  0.00  0.00     0.099 A 
ATOM      8  C   UNL d   1      11.960   6.423  -3.753  0.00  0.00     0.024 A 
ATOM      9  C   UNL d   1      11.527   7.652  -4.271  0.00  0.00     0.042 A 
ENDROOT
BRANCH   1  10
ATOM     10  O   UNL d   1      10.459   6.983  -6.260  0.00  0.00    -0.328 OA
BRANCH  10  11
ATOM     11  C   UNL d   1       9.156   7.080  -6.801  0.00  0.00     0.184 C 
BRANCH  11  12
ATOM     12  C   UNL d   1       9.233   7.367  -8.303  0.00  0.00     0.206 C 
ATOM     13  O   UNL d   1       9.146   8.750  -8.592  0.00  0.00    -0.219 OA
BRANCH  12  14
ATOM     14  C   UNL d   1      10.432   6.694  -8.995  0.00  0.00     0.155 C 
BRANCH  14  15
ATOM     15  N   UNL d   1      10.249   6.439 -10.417  0.00  0.00    -0.295 NA
BRANCH  15  16
ATOM     16  C   UNL d   1       8.965   5.800 -10.836  0.00  0.00     0.098 C 
ATOM     17  C   UNL d   1       8.510   4.691  -9.868  0.00  0.00     0.026 C 
ATOM     18  C   UNL d   1       9.113   5.258 -12.258  0.00  0.00     0.026 C 
ENDBRANCH  15  16
ENDBRANCH  14  15
ENDBRANCH  12  14
ENDBRANCH  11  12
ENDBRANCH  10  11
ENDBRANCH   1  10
TORSDOF 6
