REMARK  4 active torsions:
REMARK  status: ('A' for Active; 'I' for Inactive)
REMARK    1  A    between atoms: C_3  and  C_4 
REMARK    2  A    between atoms: C_4  and  N_5 
REMARK    3  A    between atoms: N_8  and  C_9 
REMARK    4  A    between atoms: C_12  and  C_13 
ROOT
ATOM      1  N   UNL d   1       8.054   5.127 -11.815  0.00  0.00     0.149 N 
ATOM      2  C   UNL d   1       8.544   6.498 -11.983  0.00  0.00     0.275 C 
ATOM      3  C   UNL d   1       9.890   6.659 -11.252  0.00  0.00     0.137 C 
ATOM      4  N   UNL d   1       9.782   6.281  -9.853  0.00  0.00    -0.344 N 
ATOM      5  C   UNL d   1       9.179   4.984  -9.600  0.00  0.00     0.137 C 
ATOM      6  C   UNL d   1       7.866   4.890 -10.386  0.00  0.00     0.275 C 
ENDROOT
BRANCH   1   7
ATOM      7  C   UNL d   1       6.760   4.982 -12.483  0.00  0.00     0.314 C 
BRANCH   7   8
ATOM      8  C   UNL d   1       6.587   3.637 -13.121  0.00  0.00     0.154 A 
ATOM      9  N   UNL d   1       7.464   3.169 -14.049  0.00  0.00    -0.312 N 
ATOM     10  C   UNL d   1       8.669   3.815 -14.562  0.00  0.00     0.132 C 
ATOM     11  C   UNL d   1       6.980   1.921 -14.422  0.00  0.00     0.079 A 
ATOM     12  C   UNL d   1       5.807   1.738 -13.632  0.00  0.00     0.099 A 
ATOM     13  C   UNL d   1       7.410   0.935 -15.324  0.00  0.00     0.019 A 
ATOM     14  N   UNL d   1       5.564   2.832 -12.828  0.00  0.00    -0.229 NA
ATOM     15  C   UNL d   1       5.070   0.544 -13.781  0.00  0.00     0.021 A 
ATOM     16  C   UNL d   1       5.491  -0.442 -14.691  0.00  0.00     0.002 A 
ATOM     17  C   UNL d   1       6.648  -0.238 -15.467  0.00  0.00     0.002 A 
ENDBRANCH   7   8
ENDBRANCH   1   7
BRANCH   4  18
ATOM     18  C   UNL d   1      10.194   7.145  -8.828  0.00  0.00     0.056 A 
ATOM     19  C   UNL d   1       9.440   7.267  -7.637  0.00  0.00     0.017 A 
ATOM     20  C   UNL d   1       9.866   8.115  -6.601  0.00  0.00     0.005 A 
ATOM     21  C   UNL d   1      11.064   8.847  -6.725  0.00  0.00     0.072 A 
ATOM     22  C   UNL d   1      11.830   8.709  -7.902  0.00  0.00     0.005 A 
ATOM     23  C   UNL d   1      11.389   7.891  -8.955  0.00  0.00     0.017 A 
BRANCH  21  24
ATOM     24  C   UNL d   1      11.533   9.776  -5.619  0.00  0.00     0.419 C 
ATOM     25  F   UNL d   1      10.600  10.009  -4.699  0.00  0.00    -0.166 F 
ATOM     26  F   UNL d   1      12.596   9.261  -5.005  0.00  0.00    -0.166 F 
ATOM     27  F   UNL d   1      11.861  10.935  -6.176  0.00  0.00    -0.166 F 
ENDBRANCH  21  24
ENDBRANCH   4  18
TORSDOF 4
