REMARK  7 active torsions:
REMARK  status: ('A' for Active; 'I' for Inactive)
REMARK       I    between atoms: C_2  and  N_3 
REMARK    1  A    between atoms: C_2  and  C_21 
REMARK    2  A    between atoms: N_3  and  C_4 
REMARK    3  A    between atoms: C_4  and  C_5 
REMARK    4  A    between atoms: C_5  and  C_6 
REMARK    5  A    between atoms: C_6  and  C_7 
REMARK    6  A    between atoms: C_7  and  N_8 
REMARK    7  A    between atoms: N_11  and  C_12 
ROOT
ATOM      1  C   UNL d   1       7.103   2.290 -14.263  0.00  0.00     0.029 C 
ENDROOT
BRANCH   1   2
ATOM      2  C   UNL d   1       6.734   0.809 -14.096  0.00  0.00     0.129 C 
BRANCH   2   3
ATOM      3  N   UNL d   1       6.456   0.184 -15.382  0.00  0.00    -0.233 NA
ATOM      4  C   UNL d   1       5.296  -0.389 -15.732  0.00  0.00     0.293 C 
ATOM      5  O   UNL d   1       4.342  -0.526 -14.961  0.00  0.00    -0.264 OA
BRANCH   4   6
ATOM      6  C   UNL d   1       5.238  -0.894 -17.147  0.00  0.00     0.139 A 
ATOM      7  N   UNL d   1       5.954  -0.236 -18.093  0.00  0.00    -0.239 NA
ATOM      8  C   UNL d   1       5.881  -0.670 -19.369  0.00  0.00     0.099 A 
ATOM      9  C   UNL d   1       5.108  -1.777 -19.770  0.00  0.00     0.019 A 
ATOM     10  C   UNL d   1       4.358  -2.457 -18.785  0.00  0.00     0.003 A 
ATOM     11  C   UNL d   1       5.069  -2.212 -21.109  0.00  0.00     0.002 A 
ATOM     12  C   UNL d   1       4.420  -1.997 -17.459  0.00  0.00     0.024 A 
ATOM     13  C   UNL d   1       3.572  -3.571 -19.142  0.00  0.00     0.000 A 
ATOM     14  C   UNL d   1       3.535  -4.007 -20.480  0.00  0.00     0.000 A 
ATOM     15  C   UNL d   1       4.284  -3.328 -21.462  0.00  0.00     0.000 A 
ENDBRANCH   4   6
ENDBRANCH   2   3
ENDBRANCH   1   2
BRANCH   1  16
ATOM     16  C   UNL d   1       8.593   2.508 -14.608  0.00  0.00     0.037 C 
BRANCH  16  17
ATOM     17  C   UNL d   1       9.079   3.962 -14.432  0.00  0.00     0.251 C 
BRANCH  17  18
ATOM     18  N   UNL d   1       8.696   4.515 -13.135  0.00  0.00     0.141 N 
ATOM     19  C   UNL d   1       8.836   5.972 -13.151  0.00  0.00     0.274 C 
ATOM     20  C   UNL d   1       8.387   6.580 -11.812  0.00  0.00     0.137 C 
ATOM     21  N   UNL d   1       9.165   5.989 -10.732  0.00  0.00    -0.344 N 
ATOM     22  C   UNL d   1       9.126   4.538 -10.694  0.00  0.00     0.137 C 
ATOM     23  C   UNL d   1       9.539   3.966 -12.069  0.00  0.00     0.274 C 
BRANCH  21  24
ATOM     24  C   UNL d   1       9.823   6.761  -9.756  0.00  0.00     0.056 A 
ATOM     25  C   UNL d   1       9.969   6.288  -8.429  0.00  0.00     0.019 A 
ATOM     26  C   UNL d   1      10.658   7.054  -7.470  0.00  0.00     0.031 A 
ATOM     27  C   UNL d   1      11.197   8.306  -7.818  0.00  0.00     0.140 A 
ATOM     28  C   UNL d   1      11.046   8.791  -9.129  0.00  0.00     0.031 A 
ATOM     29  F   UNL d   1      11.860   9.042  -6.896  0.00  0.00    -0.204 F 
ATOM     30  C   UNL d   1      10.367   8.023 -10.090  0.00  0.00     0.019 A 
ENDBRANCH  21  24
ENDBRANCH  17  18
ENDBRANCH  16  17
ENDBRANCH   1  16
TORSDOF 7
