REMARK  7 active torsions:
REMARK  status: ('A' for Active; 'I' for Inactive)
REMARK    1  A    between atoms: C_2  and  C_3 
REMARK    2  A    between atoms: C_6  and  O_7 
REMARK    3  A    between atoms: C_9  and  C_10 
REMARK       I    between atoms: C_10  and  N_12 
REMARK    4  A    between atoms: N_12  and  C_13 
REMARK    5  A    between atoms: C_13  and  C_14 
REMARK    6  A    between atoms: N_18  and  C_19 
REMARK    7  A    between atoms: C_21  and  O_22 
ROOT
ATOM      1  C   UNL d   1       7.513   2.381 -14.352  0.00  0.00     0.000 A 
ATOM      2  C   UNL d   1       6.178   2.698 -14.007  0.00  0.00    -0.000 A 
ATOM      3  C   UNL d   1       5.861   3.779 -13.166  0.00  0.00     0.024 A 
ATOM      4  C   UNL d   1       6.909   4.520 -12.583  0.00  0.00     0.101 A 
ATOM      5  C   UNL d   1       8.238   4.164 -12.854  0.00  0.00     0.102 A 
ATOM      6  C   UNL d   1       8.559   3.155 -13.803  0.00  0.00     0.097 A 
ENDROOT
BRANCH   5   7
ATOM      7  C   UNL d   1       9.344   4.925 -12.184  0.00  0.00     0.279 C 
ATOM      8  O   UNL d   1      10.274   5.249 -12.856  0.00  0.00    -0.265 OA
ATOM      9  N   UNL d   1       9.164   5.258 -10.864  0.00  0.00    -0.232 NA
BRANCH   9  10
ATOM     10  C   UNL d   1      10.130   5.876 -10.008  0.00  0.00     0.162 C 
BRANCH  10  11
ATOM     11  C   UNL d   1       9.667   7.205  -9.432  0.00  0.00     0.243 C 
ATOM     12  N   UNL d   1      10.467   7.569  -8.263  0.00  0.00     0.137 N 
ATOM     13  C   UNL d   1      10.137   8.972  -8.095  0.00  0.00     0.250 C 
ATOM     14  C   UNL d   1      10.241   9.516  -9.506  0.00  0.00     0.037 C 
ATOM     15  C   UNL d   1       9.899   8.371 -10.418  0.00  0.00     0.037 C 
BRANCH  12  16
ATOM     16  C   UNL d   1      10.075   6.784  -7.096  0.00  0.00     0.250 C 
ATOM     17  C   UNL d   1      11.088   6.977  -5.971  0.00  0.00     0.037 C 
ENDBRANCH  12  16
ENDBRANCH  10  11
ENDBRANCH   9  10
ENDBRANCH   5   7
BRANCH   4  18
ATOM     18  O   UNL d   1       6.733   5.590 -11.742  0.00  0.00    -0.328 OA
ATOM     19  C   UNL d   1       5.444   6.099 -11.630  0.00  0.00     0.181 C 
ENDBRANCH   4  18
BRANCH   6  20
ATOM     20  O   UNL d   1       9.868   2.835 -14.099  0.00  0.00    -0.328 OA
ATOM     21  C   UNL d   1      10.504   3.605 -15.117  0.00  0.00     0.181 C 
ENDBRANCH   6  20
BRANCH   1  22
ATOM     22  C   UNL d   1       7.696   1.158 -15.244  0.00  0.00     0.028 C 
ATOM     23  C   UNL d   1       8.329   1.458 -16.611  0.00  0.00     0.005 C 
ENDBRANCH   1  22
TORSDOF 7
