REMARK  1 active torsions:
REMARK  status: ('A' for Active; 'I' for Inactive)
REMARK    1  A    between atoms: C_4  and  C_5 
ROOT
ATOM      1  N   UNL d   1      11.896   8.795 -10.037  0.00  0.00    -0.096 NA
ATOM      2  C   UNL d   1      11.298   8.161  -8.965  0.00  0.00     0.128 A 
ATOM      3  C   UNL d   1      11.664   8.374  -7.679  0.00  0.00     0.021 A 
ATOM      4  C   UNL d   1      11.037   7.654  -6.579  0.00  0.00     0.021 A 
ATOM      5  C   UNL d   1      10.057   6.794  -6.910  0.00  0.00     0.102 A 
ATOM      6  N   UNL d   1       9.665   6.594  -8.237  0.00  0.00    -0.206 NA
ATOM      7  C   UNL d   1      10.228   7.207  -9.296  0.00  0.00     0.292 A 
ATOM      8  O   UNL d   1       9.873   6.945 -10.444  0.00  0.00    -0.264 OA
ENDROOT
BRANCH   4   9
ATOM      9  C   UNL d   1      11.461   7.852  -5.180  0.00  0.00     0.005 A 
ATOM     10  C   UNL d   1      11.455   6.788  -4.256  0.00  0.00     0.021 A 
ATOM     11  C   UNL d   1      11.861   7.025  -2.926  0.00  0.00     0.099 A 
ATOM     12  N   UNL d   1      12.258   8.236  -2.489  0.00  0.00    -0.242 NA
ATOM     13  C   UNL d   1      12.257   9.250  -3.376  0.00  0.00     0.099 A 
ATOM     14  C   UNL d   1      11.891   9.112  -4.729  0.00  0.00     0.021 A 
ENDBRANCH   4   9
TORSDOF 1
