REMARK  8 active torsions:
REMARK  status: ('A' for Active; 'I' for Inactive)
REMARK    1  A    between atoms: C_2  and  C_5 
REMARK    2  A    between atoms: C_7  and  N_8 
REMARK    3  A    between atoms: N_11  and  C_12 
REMARK    4  A    between atoms: C_12  and  C_13 
REMARK    5  A    between atoms: C_13  and  C_14 
REMARK    6  A    between atoms: C_14  and  C_15 
REMARK    7  A    between atoms: C_15  and  N_16 
REMARK    8  A    between atoms: C_28  and  C_29 
ROOT
ATOM      1  N   UNL d   1       8.805   5.201 -12.987  0.00  0.00    -0.330 N 
ATOM      2  C   UNL d   1       7.817   4.585 -12.102  0.00  0.00     0.138 C 
ATOM      3  C   UNL d   1       8.324   4.625 -10.652  0.00  0.00     0.274 C 
ATOM      4  N   UNL d   1       8.619   5.986 -10.220  0.00  0.00     0.141 N 
ATOM      5  C   UNL d   1       9.644   6.560 -11.104  0.00  0.00     0.274 C 
ATOM      6  C   UNL d   1       9.175   6.553 -12.564  0.00  0.00     0.138 C 
ENDROOT
BRANCH   1   7
ATOM      7  C   UNL d   1       9.399   4.550 -14.086  0.00  0.00     0.143 A 
ATOM      8  N   UNL d   1      10.489   5.120 -14.656  0.00  0.00    -0.214 NA
ATOM      9  C   UNL d   1      10.975   4.593 -15.783  0.00  0.00     0.140 A 
ATOM     10  N   UNL d   1      10.557   3.457 -16.333  0.00  0.00    -0.227 NA
ATOM     11  C   UNL d   1       9.516   2.825 -15.752  0.00  0.00     0.157 A 
ATOM     12  C   UNL d   1       8.868   3.357 -14.630  0.00  0.00     0.060 A 
BRANCH   9  13
ATOM     13  C   UNL d   1      12.262   5.204 -16.367  0.00  0.00     0.052 C 
ATOM     14  C   UNL d   1      12.432   6.681 -15.961  0.00  0.00     0.008 C 
ATOM     15  C   UNL d   1      12.231   5.176 -17.910  0.00  0.00     0.008 C 
ATOM     16  C   UNL d   1      13.456   4.397 -15.849  0.00  0.00     0.008 C 
ENDBRANCH   9  13
BRANCH  11  17
ATOM     17  C   UNL d   1       9.045   1.510 -16.367  0.00  0.00     0.435 C 
ATOM     18  F   UNL d   1       8.116   0.932 -15.610  0.00  0.00    -0.165 F 
ATOM     19  F   UNL d   1       8.519   1.749 -17.567  0.00  0.00    -0.165 F 
ATOM     20  F   UNL d   1      10.066   0.659 -16.489  0.00  0.00    -0.165 F 
ENDBRANCH  11  17
ENDBRANCH   1   7
BRANCH   4  21
ATOM     21  C   UNL d   1       8.988   5.988  -8.817  0.00  0.00     0.251 C 
BRANCH  21  22
ATOM     22  C   UNL d   1       9.201   7.409  -8.254  0.00  0.00     0.037 C 
BRANCH  22  23
ATOM     23  C   UNL d   1       9.614   7.443  -6.788  0.00  0.00     0.027 C 
BRANCH  23  24
ATOM     24  C   UNL d   1      11.102   7.826  -6.676  0.00  0.00     0.111 C 
BRANCH  24  25
ATOM     25  N   UNL d   1      11.463   8.142  -5.332  0.00  0.00    -0.278 N 
ATOM     26  C   UNL d   1      11.422   9.498  -4.924  0.00  0.00     0.353 A 
ATOM     27  N   UNL d   1      11.803   9.759  -3.611  0.00  0.00    -0.152 NA
ATOM     28  O   UNL d   1      11.068  10.427  -5.654  0.00  0.00    -0.244 OA
ATOM     29  C   UNL d   1      12.211   8.813  -2.689  0.00  0.00     0.295 A 
ATOM     30  C   UNL d   1      12.201   7.449  -3.167  0.00  0.00     0.133 A 
ATOM     31  O   UNL d   1      12.510   9.149  -1.552  0.00  0.00    -0.264 OA
ATOM     32  C   UNL d   1      11.828   7.154  -4.432  0.00  0.00     0.096 A 
ATOM     33 CL   UNL d   1      12.656   6.257  -2.050  0.00  0.00    -0.076 Cl
ENDBRANCH  24  25
ENDBRANCH  23  24
ENDBRANCH  22  23
ENDBRANCH  21  22
ENDBRANCH   4  21
TORSDOF 8
