REMARK  8 active torsions:
REMARK  status: ('A' for Active; 'I' for Inactive)
REMARK    1  A    between atoms: C_2  and  C_3 
REMARK       I    between atoms: C_3  and  N_5 
REMARK    2  A    between atoms: N_5  and  C_6 
REMARK    3  A    between atoms: C_9  and  O_10 
REMARK    4  A    between atoms: O_10  and  C_11 
REMARK    5  A    between atoms: C_11  and  C_12 
REMARK    6  A    between atoms: C_12  and  C_13 
REMARK    7  A    between atoms: C_13  and  N_14 
REMARK    8  A    between atoms: C_17  and  C_18 
ROOT
ATOM      1  N   UNL d   1       7.923   4.504 -12.729  0.00  0.00     0.137 N 
ATOM      2  C   UNL d   1       6.644   3.778 -12.715  0.00  0.00     0.251 C 
ATOM      3  C   UNL d   1       6.354   3.161 -14.100  0.00  0.00     0.041 C 
ATOM      4  C   UNL d   1       7.500   2.266 -14.607  0.00  0.00     0.047 C 
ATOM      5  C   UNL d   1       8.835   3.009 -14.466  0.00  0.00     0.041 C 
ATOM      6  C   UNL d   1       9.020   3.594 -13.072  0.00  0.00     0.251 C 
ENDROOT
BRANCH   1   7
ATOM      7  C   UNL d   1       8.145   5.065 -11.399  0.00  0.00     0.253 C 
BRANCH   7   8
ATOM      8  C   UNL d   1       9.405   5.946 -11.307  0.00  0.00     0.068 C 
BRANCH   8   9
ATOM      9  C   UNL d   1       9.173   7.421 -11.732  0.00  0.00     0.151 C 
BRANCH   9  10
ATOM     10  O   UNL d   1      10.241   8.288 -11.374  0.00  0.00    -0.331 OA
BRANCH  10  11
ATOM     11  C   UNL d   1      10.593   8.371 -10.052  0.00  0.00     0.094 A 
ATOM     12  C   UNL d   1      11.919   8.673  -9.784  0.00  0.00     0.026 A 
ATOM     13  C   UNL d   1      12.363   8.787  -8.455  0.00  0.00     0.021 A 
ATOM     14  C   UNL d   1      11.441   8.630  -7.400  0.00  0.00     0.085 A 
ATOM     15  C   UNL d   1      10.116   8.275  -7.656  0.00  0.00     0.021 A 
ATOM     16  C   UNL d   1       9.689   8.133  -8.984  0.00  0.00     0.026 A 
BRANCH  14  17
ATOM     17  N   UNL d   1      11.873   8.926  -6.103  0.00  0.00    -0.212 NA
ATOM     18  C   UNL d   1      11.532   8.287  -4.969  0.00  0.00     0.256 C 
ATOM     19  O   UNL d   1      10.876   7.252  -4.944  0.00  0.00    -0.270 OA
BRANCH  18  20
ATOM     20  C   UNL d   1      12.111   8.915  -3.700  0.00  0.00     0.090 C 
ATOM     21  C   UNL d   1      12.166   7.969  -2.493  0.00  0.00     0.010 C 
ENDBRANCH  18  20
ENDBRANCH  14  17
ENDBRANCH  10  11
ENDBRANCH   9  10
ENDBRANCH   8   9
ENDBRANCH   7   8
ENDBRANCH   1   7
BRANCH   4  22
ATOM     22  C   UNL d   1       7.291   1.764 -16.031  0.00  0.00     0.087 A 
ATOM     23  C   UNL d   1       6.482   0.725 -16.524  0.00  0.00     0.041 A 
ATOM     24  C   UNL d   1       6.581   0.676 -17.917  0.00  0.00     0.129 A 
ATOM     25  C   UNL d   1       5.609  -0.180 -15.865  0.00  0.00     0.006 A 
ATOM     26  O   UNL d   1       7.449   1.702 -18.261  0.00  0.00    -0.211 OA
ATOM     27  C   UNL d   1       5.886  -0.227 -18.713  0.00  0.00     0.057 A 
ATOM     28  N   UNL d   1       7.856   2.376 -17.077  0.00  0.00    -0.131 NA
ATOM     29  C   UNL d   1       5.025  -1.138 -18.063  0.00  0.00     0.142 A 
ATOM     30  F   UNL d   1       4.346  -2.046 -18.798  0.00  0.00    -0.204 F 
ATOM     31  C   UNL d   1       4.883  -1.110 -16.650  0.00  0.00     0.030 A 
ENDBRANCH   4  22
TORSDOF 8
