REMARK  6 active torsions:
REMARK  status: ('A' for Active; 'I' for Inactive)
REMARK       I    between atoms: C_2  and  N_3 
REMARK    1  A    between atoms: C_2  and  C_27 
REMARK    2  A    between atoms: N_3  and  C_4 
REMARK    3  A    between atoms: C_7  and  C_8 
REMARK    4  A    between atoms: C_8  and  C_9 
REMARK    5  A    between atoms: C_9  and  N_10 
REMARK    6  A    between atoms: C_13  and  C_14 
ROOT
ATOM      1  C   UNL d   1       9.241   5.516 -11.926  0.00  0.00     0.035 C 
ENDROOT
BRANCH   1   2
ATOM      2  C   UNL d   1       9.332   4.269 -12.828  0.00  0.00     0.002 C 
ATOM      3  C   UNL d   1       8.005   4.043 -13.568  0.00  0.00     0.002 C 
ATOM      4  C   UNL d   1       8.078   2.828 -14.495  0.00  0.00     0.024 C 
ATOM      5  C   UNL d   1       9.247   2.958 -15.494  0.00  0.00     0.106 C 
ATOM      6  C   UNL d   1      10.581   3.168 -14.762  0.00  0.00     0.024 C 
ATOM      7  C   UNL d   1      10.499   4.383 -13.831  0.00  0.00     0.002 C 
BRANCH   5   8
ATOM      8  N   UNL d   1       9.334   1.759 -16.317  0.00  0.00    -0.240 NA
ATOM      9  C   UNL d   1       8.634   1.536 -17.439  0.00  0.00     0.253 C 
ATOM     10  O   UNL d   1       7.859   2.353 -17.930  0.00  0.00    -0.271 OA
BRANCH   9  11
ATOM     11  C   UNL d   1       8.840   0.169 -18.100  0.00  0.00     0.110 C 
ATOM     12  C   UNL d   1       7.552  -0.679 -18.039  0.00  0.00     0.152 C 
ATOM     13  O   UNL d   1       7.804  -1.949 -18.627  0.00  0.00    -0.354 OA
ATOM     14  C   UNL d   1       8.129  -1.869 -20.010  0.00  0.00     0.142 C 
ATOM     15  C   UNL d   1       9.428  -1.068 -20.196  0.00  0.00     0.033 C 
ATOM     16  C   UNL d   1       9.296   0.319 -19.563  0.00  0.00     0.015 C 
ENDBRANCH   9  11
ENDBRANCH   5   8
ENDBRANCH   1   2
BRANCH   1  17
ATOM     17  C   UNL d   1       8.665   5.212 -10.524  0.00  0.00     0.250 C 
BRANCH  17  18
ATOM     18  N   UNL d   1       9.088   6.176  -9.501  0.00  0.00     0.137 N 
ATOM     19  C   UNL d   1       8.557   5.750  -8.202  0.00  0.00     0.251 C 
ATOM     20  C   UNL d   1       8.925   6.766  -7.104  0.00  0.00     0.040 C 
ATOM     21  C   UNL d   1      10.448   6.955  -7.012  0.00  0.00     0.028 C 
ATOM     22  C   UNL d   1      10.999   7.279  -8.392  0.00  0.00     0.040 C 
ATOM     23  C   UNL d   1      10.546   6.236  -9.405  0.00  0.00     0.251 C 
BRANCH  21  24
ATOM     24  C   UNL d   1      10.828   8.039  -6.042  0.00  0.00     0.004 A 
ATOM     25  C   UNL d   1      11.430   7.883  -4.750  0.00  0.00     0.021 A 
ATOM     26  C   UNL d   1      11.568   9.188  -4.219  0.00  0.00     0.100 A 
ATOM     27  C   UNL d   1      11.852   6.806  -3.935  0.00  0.00     0.002 A 
ATOM     28  O   UNL d   1      11.085  10.110  -5.123  0.00  0.00    -0.305 OA
ATOM     29  C   UNL d   1      12.096   9.443  -2.950  0.00  0.00     0.025 A 
ATOM     30  C   UNL d   1      10.664   9.393  -6.208  0.00  0.00     0.118 A 
ATOM     31  C   UNL d   1      12.506   8.354  -2.159  0.00  0.00     0.002 A 
ATOM     32  C   UNL d   1      12.371   7.037  -2.646  0.00  0.00     0.000 A 
ENDBRANCH  21  24
ENDBRANCH  17  18
ENDBRANCH   1  17
TORSDOF 6
