REMARK  6 active torsions:
REMARK  status: ('A' for Active; 'I' for Inactive)
REMARK    1  A    between atoms: C_2  and  C_4 
REMARK    2  A    between atoms: C_4  and  S_5 
REMARK    3  A    between atoms: S_5  and  N_8 
REMARK    4  A    between atoms: C_12  and  C_13 
REMARK    5  A    between atoms: C_18  and  C_19 
REMARK    6  A    between atoms: C_24  and  N_25 
ROOT
ATOM      1  N   UNL d   1       6.505   0.978 -20.872  0.00  0.00    -0.218 N 
ATOM      2  C   UNL d   1       5.157   0.688 -20.745  0.00  0.00     0.093 A 
ATOM      3  C   UNL d   1       4.879   0.398 -19.434  0.00  0.00     0.023 A 
ATOM      4  C   UNL d   1       6.129   0.465 -18.716  0.00  0.00     0.037 A 
ATOM      5  C   UNL d   1       6.563   0.256 -17.378  0.00  0.00     0.006 A 
ATOM      6  C   UNL d   1       7.929   0.376 -17.094  0.00  0.00     0.037 A 
ATOM      7  C   UNL d   1       8.850   0.812 -18.092  0.00  0.00     0.142 A 
ATOM      8  N   UNL d   1       8.460   1.033 -19.363  0.00  0.00    -0.211 NA
ATOM      9  C   UNL d   1       7.141   0.842 -19.643  0.00  0.00     0.158 A 
ENDROOT
BRANCH   5  10
ATOM     10  C   UNL d   1       5.594  -0.093 -16.310  0.00  0.00     0.004 A 
ATOM     11  C   UNL d   1       5.648   0.437 -14.986  0.00  0.00     0.071 A 
ATOM     12  C   UNL d   1       4.682   0.019 -14.036  0.00  0.00     0.004 A 
ATOM     13  C   UNL d   1       3.632  -0.841 -14.391  0.00  0.00    -0.000 A 
ATOM     14  C   UNL d   1       3.558  -1.333 -15.698  0.00  0.00    -0.000 A 
ATOM     15  C   UNL d   1       4.546  -0.985 -16.633  0.00  0.00    -0.000 A 
BRANCH  11  16
ATOM     16  C   UNL d   1       6.689   1.458 -14.510  0.00  0.00     0.419 C 
ATOM     17  F   UNL d   1       6.183   2.191 -13.502  0.00  0.00    -0.166 F 
ATOM     18  F   UNL d   1       7.744   0.796 -14.043  0.00  0.00    -0.166 F 
ATOM     19  F   UNL d   1       7.116   2.281 -15.467  0.00  0.00    -0.166 F 
ENDBRANCH  11  16
ENDBRANCH   5  10
BRANCH   7  20
ATOM     20  N   UNL d   1      10.172   1.038 -17.731  0.00  0.00    -0.330 N 
ATOM     21  C   UNL d   1      10.623   1.345 -16.361  0.00  0.00     0.138 C 
ATOM     22  C   UNL d   1      11.506   2.608 -16.354  0.00  0.00     0.274 C 
ATOM     23  N   UNL d   1      12.627   2.452 -17.285  0.00  0.00     0.143 N 
ATOM     24  C   UNL d   1      12.108   2.253 -18.643  0.00  0.00     0.274 C 
ATOM     25  C   UNL d   1      13.461   3.645 -17.255  0.00  0.00     0.286 C 
ATOM     26  C   UNL d   1      11.260   0.975 -18.712  0.00  0.00     0.138 C 
ENDBRANCH   7  20
BRANCH   1  27
ATOM     27  S   UNL d   1       7.255   1.339 -22.358  0.00  0.00     0.252 S 
ATOM     28  O   UNL d   1       6.174   1.423 -23.339  0.00  0.00    -0.204 OA
ATOM     29  O   UNL d   1       8.329   0.324 -22.482  0.00  0.00    -0.204 OA
BRANCH  27  30
ATOM     30  C   UNL d   1       7.940   3.031 -22.024  0.00  0.00     0.145 C 
BRANCH  30  31
ATOM     31  C   UNL d   1       8.958   3.510 -23.082  0.00  0.00     0.018 C 
ATOM     32  C   UNL d   1      10.176   2.576 -23.198  0.00  0.00     0.001 C 
ATOM     33  C   UNL d   1       9.425   4.950 -22.798  0.00  0.00     0.001 C 
ENDBRANCH  30  31
ENDBRANCH  27  30
ENDBRANCH   1  27
TORSDOF 6
