REMARK  11 active torsions:
REMARK  status: ('A' for Active; 'I' for Inactive)
REMARK    1  A    between atoms: C_2  and  C_3 
REMARK       I    between atoms: C_2  and  N_26 
REMARK    2  A    between atoms: C_3  and  C_4 
REMARK    3  A    between atoms: C_4  and  O_5 
REMARK    4  A    between atoms: O_5  and  C_6 
REMARK    5  A    between atoms: C_6  and  C_7 
REMARK    6  A    between atoms: C_7  and  N_8 
REMARK    7  A    between atoms: N_11  and  C_12 
REMARK    8  A    between atoms: C_17  and  C_18 
REMARK    9  A    between atoms: N_26  and  C_27 
REMARK   10  A    between atoms: C_27  and  C_28 
REMARK   11  A    between atoms: C_31  and  C_32 
ROOT
ATOM      1  C   UNL d   1       9.880   5.352 -13.834  0.00  0.00     0.282 C 
ENDROOT
BRANCH   1   2
ATOM      2  C   UNL d   1       9.676   4.530 -12.559  0.00  0.00     0.178 C 
BRANCH   2   3
ATOM      3  O   UNL d   1       9.271   5.420 -11.548  0.00  0.00    -0.352 OA
BRANCH   3   4
ATOM      4  C   UNL d   1       8.913   4.740 -10.364  0.00  0.00     0.152 C 
BRANCH   4   5
ATOM      5  C   UNL d   1       8.393   5.746  -9.348  0.00  0.00     0.122 C 
BRANCH   5   6
ATOM      6  C   UNL d   1       9.476   6.732  -8.902  0.00  0.00     0.254 C 
ATOM      7  O   UNL d   1      10.669   6.500  -9.107  0.00  0.00    -0.270 OA
ATOM      8  N   UNL d   1       9.063   7.836  -8.274  0.00  0.00    -0.233 NA
BRANCH   8   9
ATOM      9  C   UNL d   1       9.936   8.877  -7.764  0.00  0.00     0.155 C 
BRANCH   9  10
ATOM     10  C   UNL d   1      10.575   8.580  -6.410  0.00  0.00     0.002 A 
ATOM     11  C   UNL d   1      10.845   7.246  -6.009  0.00  0.00    -0.002 A 
ATOM     12  C   UNL d   1      11.464   6.998  -4.780  0.00  0.00     0.004 A 
ATOM     13  C   UNL d   1      11.817   8.051  -3.924  0.00  0.00     0.071 A 
ATOM     14  C   UNL d   1      11.531   9.385  -4.298  0.00  0.00     0.004 A 
ATOM     15  C   UNL d   1      10.920   9.651  -5.544  0.00  0.00    -0.002 A 
BRANCH  13  16
ATOM     16  C   UNL d   1      12.410   7.716  -2.573  0.00  0.00     0.419 C 
ATOM     17  F   UNL d   1      11.439   7.550  -1.699  0.00  0.00    -0.166 F 
ATOM     18  F   UNL d   1      13.066   6.580  -2.636  0.00  0.00    -0.166 F 
ATOM     19  F   UNL d   1      13.183   8.705  -2.145  0.00  0.00    -0.166 F 
ENDBRANCH  13  16
ENDBRANCH   9  10
ENDBRANCH   8   9
ENDBRANCH   5   6
ENDBRANCH   4   5
ENDBRANCH   3   4
ENDBRANCH   2   3
ENDBRANCH   1   2
BRANCH   1  20
ATOM     20  N   UNL d   1      10.361   4.597 -14.985  0.00  0.00     0.144 N 
ATOM     21  C   UNL d   1       9.386   3.575 -15.359  0.00  0.00     0.274 C 
ATOM     22  C   UNL d   1       9.784   2.788 -16.608  0.00  0.00     0.137 C 
ATOM     23  N   UNL d   1      10.151   3.672 -17.708  0.00  0.00    -0.343 N 
ATOM     24  C   UNL d   1      11.116   4.718 -17.383  0.00  0.00     0.137 C 
ATOM     25  C   UNL d   1      10.620   5.470 -16.139  0.00  0.00     0.274 C 
BRANCH  23  26
ATOM     26  C   UNL d   1       9.620   3.527 -19.015  0.00  0.00     0.074 A 
ATOM     27  C   UNL d   1       9.423   2.266 -19.635  0.00  0.00     0.097 A 
ATOM     28  N   UNL d   1       8.871   2.116 -20.856  0.00  0.00    -0.243 NA
ATOM     29  C   UNL d   1       8.519   3.213 -21.539  0.00  0.00     0.099 A 
ATOM     30  C   UNL d   1       8.690   4.511 -21.036  0.00  0.00     0.022 A 
ATOM     31  C   UNL d   1       9.245   4.669 -19.752  0.00  0.00     0.020 A 
BRANCH  27  32
ATOM     32  C   UNL d   1       9.844   0.993 -19.035  0.00  0.00     0.019 A 
ATOM     33  C   UNL d   1       8.882  -0.013 -18.766  0.00  0.00     0.002 A 
ATOM     34  C   UNL d   1       9.280  -1.213 -18.158  0.00  0.00     0.000 A 
ATOM     35  C   UNL d   1      10.622  -1.400 -17.810  0.00  0.00     0.000 A 
ATOM     36  C   UNL d   1      11.591  -0.419 -18.085  0.00  0.00     0.000 A 
ATOM     37  C   UNL d   1      11.194   0.779 -18.700  0.00  0.00     0.002 A 
ENDBRANCH  27  32
ENDBRANCH  23  26
ENDBRANCH   1  20
TORSDOF 11
