REMARK  4 active torsions:
REMARK  status: ('A' for Active; 'I' for Inactive)
REMARK    1  A    between atoms: O_2  and  C_3 
REMARK    2  A    between atoms: N_12  and  C_13 
REMARK    3  A    between atoms: C_13  and  C_14 
REMARK    4  A    between atoms: C_14  and  C_15 
ROOT
ATOM      1  C   UNL d   1       6.751   1.358 -15.101  0.00  0.00     0.090 A 
ATOM      2  C   UNL d   1       7.396   0.740 -16.204  0.00  0.00     0.024 A 
ATOM      3  C   UNL d   1       8.701   1.107 -16.572  0.00  0.00     0.002 A 
ATOM      4  C   UNL d   1       9.383   2.104 -15.848  0.00  0.00    -0.004 A 
ATOM      5  C   UNL d   1       8.750   2.744 -14.767  0.00  0.00    -0.024 A 
ATOM      6  C   UNL d   1       7.426   2.396 -14.400  0.00  0.00    -0.002 A 
ATOM      7  C   UNL d   1       6.713   3.097 -13.234  0.00  0.00     0.057 C 
ATOM      8  C   UNL d   1       5.601   4.031 -13.682  0.00  0.00     0.042 C 
ATOM      9  C   UNL d   1       5.750   5.243 -12.785  0.00  0.00     0.251 C 
ATOM     10  N   UNL d   1       7.202   5.342 -12.663  0.00  0.00     0.136 N 
ATOM     11  C   UNL d   1       7.620   3.994 -12.329  0.00  0.00     0.224 C 
ATOM     12  C   UNL d   1       9.154   3.741 -12.486  0.00  0.00     0.038 C 
ATOM     13  C   UNL d   1       9.527   3.780 -13.974  0.00  0.00     0.028 C 
ENDROOT
BRANCH  10  14
ATOM     14  C   UNL d   1       7.535   6.330 -11.636  0.00  0.00     0.255 C 
BRANCH  14  15
ATOM     15  C   UNL d   1       8.977   6.869 -11.854  0.00  0.00     0.062 C 
BRANCH  15  16
ATOM     16  C   UNL d   1       9.653   7.209 -10.527  0.00  0.00    -0.020 A 
ATOM     17  C   UNL d   1       9.685   6.294  -9.435  0.00  0.00    -0.004 A 
ATOM     18  C   UNL d   1      10.315   6.646  -8.232  0.00  0.00    -0.000 A 
ATOM     19  C   UNL d   1      10.943   7.909  -8.103  0.00  0.00    -0.000 A 
ATOM     20  C   UNL d   1      10.926   8.806  -9.191  0.00  0.00    -0.000 A 
ATOM     21  C   UNL d   1      10.276   8.453 -10.383  0.00  0.00    -0.004 A 
ENDBRANCH  15  16
ENDBRANCH  14  15
ENDBRANCH  10  14
BRANCH   1  22
ATOM     22  O   UNL d   1       5.500   1.001 -14.649  0.00  0.00    -0.328 OA
ATOM     23  C   UNL d   1       4.808  -0.039 -15.319  0.00  0.00     0.181 C 
ENDBRANCH   1  22
TORSDOF 4
