REMARK  3 active torsions:
REMARK  status: ('A' for Active; 'I' for Inactive)
REMARK    1  A    between atoms: C_9  and  N_10 
REMARK    2  A    between atoms: N_13  and  C_14 
REMARK    3  A    between atoms: C_14  and  C_15 
ROOT
ATOM      1  N   UNL d   1       9.663   4.609 -13.355  0.00  0.00    -0.344 N 
ATOM      2  C   UNL d   1       9.128   3.718 -12.350  0.00  0.00     0.137 C 
ATOM      3  C   UNL d   1       7.828   4.302 -11.725  0.00  0.00     0.274 C 
ATOM      4  N   UNL d   1       8.131   5.608 -11.131  0.00  0.00     0.141 N 
ATOM      5  C   UNL d   1       8.492   6.473 -12.258  0.00  0.00     0.274 C 
ATOM      6  C   UNL d   1       9.821   5.978 -12.860  0.00  0.00     0.137 C 
ENDROOT
BRANCH   4   7
ATOM      7  C   UNL d   1       9.171   5.456 -10.085  0.00  0.00     0.251 C 
BRANCH   7   8
ATOM      8  C   UNL d   1       9.247   6.632  -9.104  0.00  0.00     0.038 C 
ATOM      9  C   UNL d   1      10.129   6.237  -7.878  0.00  0.00     0.030 C 
ATOM     10  C   UNL d   1      10.468   7.426  -7.031  0.00  0.00    -0.007 A 
ATOM     11  C   UNL d   1      10.307   8.700  -7.507  0.00  0.00     0.055 A 
ATOM     12  C   UNL d   1      11.002   7.557  -5.663  0.00  0.00     0.017 A 
ATOM     13  C   UNL d   1       9.796   9.114  -8.834  0.00  0.00     0.046 C 
ATOM     14  N   UNL d   1      10.675   9.596  -6.568  0.00  0.00    -0.250 NA
ATOM     15  C   UNL d   1       9.751   7.944  -9.769  0.00  0.00     0.009 C 
ATOM     16  C   UNL d   1      11.086   8.983  -5.452  0.00  0.00     0.081 A 
ATOM     17  C   UNL d   1      11.511   9.546  -4.271  0.00  0.00     0.021 A 
ATOM     18  C   UNL d   1      11.924   8.738  -3.218  0.00  0.00     0.031 A 
ATOM     19  C   UNL d   1      11.871   7.343  -3.362  0.00  0.00     0.140 A 
ATOM     20  F   UNL d   1      12.247   6.549  -2.342  0.00  0.00    -0.204 F 
ATOM     21  C   UNL d   1      11.409   6.769  -4.593  0.00  0.00     0.031 A 
ENDBRANCH   7   8
ENDBRANCH   4   7
BRANCH   1  22
ATOM     22  C   UNL d   1       9.890   4.269 -14.706  0.00  0.00     0.054 A 
ATOM     23  C   UNL d   1       9.100   3.309 -15.370  0.00  0.00     0.021 A 
ATOM     24  C   UNL d   1       7.882   2.537 -14.884  0.00  0.00     0.119 A 
ATOM     25  C   UNL d   1       9.359   2.975 -16.688  0.00  0.00     0.082 A 
ATOM     26  C   UNL d   1       7.559   1.736 -16.132  0.00  0.00     0.260 A 
ATOM     27  O   UNL d   1       6.660   0.901 -16.175  0.00  0.00    -0.270 OA
ATOM     28  N   UNL d   1       8.421   2.030 -17.116  0.00  0.00    -0.212 NA
ATOM     29  C   UNL d   1      10.404   3.563 -17.420  0.00  0.00     0.019 A 
ATOM     30  C   UNL d   1      11.207   4.524 -16.769  0.00  0.00     0.003 A 
ATOM     31  C   UNL d   1      10.950   4.880 -15.427  0.00  0.00     0.017 A 
ENDBRANCH   1  22
TORSDOF 3
