REMARK  7 active torsions:
REMARK  status: ('A' for Active; 'I' for Inactive)
REMARK    1  A    between atoms: C_3  and  O_4 
REMARK    2  A    between atoms: O_4  and  C_5 
REMARK    3  A    between atoms: C_5  and  C_6 
REMARK    4  A    between atoms: C_6  and  C_7 
REMARK    5  A    between atoms: C_7  and  C_8 
REMARK    6  A    between atoms: C_8  and  N_9 
REMARK    7  A    between atoms: N_12  and  C_13 
ROOT
ATOM      1  N   UNL d   1       9.249   5.479 -12.495  0.00  0.00     0.141 N 
ATOM      2  C   UNL d   1       7.793   5.472 -12.694  0.00  0.00     0.274 C 
ATOM      3  C   UNL d   1       7.451   4.760 -13.999  0.00  0.00     0.137 C 
ATOM      4  N   UNL d   1       7.978   3.411 -14.023  0.00  0.00    -0.344 N 
ATOM      5  C   UNL d   1       9.389   3.306 -13.686  0.00  0.00     0.137 C 
ATOM      6  C   UNL d   1       9.669   4.073 -12.395  0.00  0.00     0.274 C 
ENDROOT
BRANCH   1   7
ATOM      7  C   UNL d   1       9.564   6.178 -11.257  0.00  0.00     0.251 C 
BRANCH   7   8
ATOM      8  C   UNL d   1       9.339   7.700 -11.376  0.00  0.00     0.038 C 
BRANCH   8   9
ATOM      9  C   UNL d   1       9.636   8.427 -10.064  0.00  0.00     0.035 C 
BRANCH   9  10
ATOM     10  C   UNL d   1      11.122   8.767  -9.878  0.00  0.00     0.149 C 
BRANCH  10  11
ATOM     11  O   UNL d   1      11.300   9.392  -8.610  0.00  0.00    -0.331 OA
BRANCH  11  12
ATOM     12  C   UNL d   1      11.349   8.623  -7.471  0.00  0.00     0.090 A 
ATOM     13  C   UNL d   1      11.474   9.272  -6.213  0.00  0.00     0.005 A 
ATOM     14  C   UNL d   1      11.525  10.773  -6.129  0.00  0.00     0.033 C 
ATOM     15  C   UNL d   1      11.590   8.476  -5.048  0.00  0.00     0.053 A 
ATOM     16  C   UNL d   1      11.563   7.098  -5.118  0.00  0.00     0.007 A 
ATOM     17  C   UNL d   1      11.824   8.856  -3.634  0.00  0.00     0.275 A 
ATOM     18  C   UNL d   1      11.454   6.446  -6.350  0.00  0.00    -0.000 A 
ATOM     19  C   UNL d   1      11.750   6.522  -3.736  0.00  0.00     0.155 A 
ATOM     20  C   UNL d   1      11.322   7.207  -7.516  0.00  0.00     0.024 A 
ATOM     21  N   UNL d   1      11.927   7.729  -2.928  0.00  0.00    -0.229 NA
ATOM     22  O   UNL d   1      11.852   9.990  -3.179  0.00  0.00    -0.266 OA
ENDBRANCH  11  12
ENDBRANCH  10  11
ENDBRANCH   9  10
ENDBRANCH   8   9
ENDBRANCH   7   8
ENDBRANCH   1   7
BRANCH   4  23
ATOM     23  C   UNL d   1       7.172   2.334 -14.353  0.00  0.00     0.058 A 
ATOM     24  C   UNL d   1       7.373   1.488 -15.504  0.00  0.00     0.043 A 
ATOM     25  C   UNL d   1       6.496   0.392 -15.704  0.00  0.00     0.004 A 
ATOM     26  C   UNL d   1       8.385   1.742 -16.472  0.00  0.00     0.141 A 
ATOM     27  C   UNL d   1       5.474   0.091 -14.784  0.00  0.00     0.000 A 
ATOM     28  C   UNL d   1       6.626  -0.420 -16.847  0.00  0.00     0.000 A 
ATOM     29  C   UNL d   1       5.293   0.893 -13.651  0.00  0.00     0.002 A 
ATOM     30  C   UNL d   1       6.088   2.038 -13.481  0.00  0.00     0.017 A 
ATOM     31  C   UNL d   1       7.647  -0.174 -17.784  0.00  0.00     0.002 A 
ATOM     32  C   UNL d   1       8.525   0.899 -17.583  0.00  0.00     0.030 A 
ATOM     33  F   UNL d   1       9.229   2.796 -16.415  0.00  0.00    -0.204 F 
ENDBRANCH   4  23
TORSDOF 7
