REMARK  7 active torsions:
REMARK  status: ('A' for Active; 'I' for Inactive)
REMARK    1  A    between atoms: N_2  and  C_3 
REMARK    2  A    between atoms: N_2  and  C_20 
REMARK    3  A    between atoms: C_3  and  C_4 
REMARK    4  A    between atoms: C_4  and  O_5 
REMARK    5  A    between atoms: O_5  and  C_6 
REMARK    6  A    between atoms: C_9  and  C_10 
REMARK    7  A    between atoms: C_10  and  C_11 
ROOT
ATOM      1  C   UNL d   1       9.092   5.744 -10.001  0.00  0.00     0.094 A 
ATOM      2  C   UNL d   1      10.010   6.716 -10.461  0.00  0.00     0.024 A 
ATOM      3  C   UNL d   1      10.661   7.568  -9.549  0.00  0.00    -0.002 A 
ATOM      4  C   UNL d   1      10.341   7.507  -8.181  0.00  0.00    -0.021 A 
ATOM      5  C   UNL d   1       9.370   6.579  -7.723  0.00  0.00    -0.002 A 
ATOM      6  C   UNL d   1       8.756   5.706  -8.634  0.00  0.00     0.024 A 
ENDROOT
BRANCH   1   7
ATOM      7  O   UNL d   1       8.504   4.842 -10.849  0.00  0.00    -0.329 OA
BRANCH   7   8
ATOM      8  C   UNL d   1       9.337   4.176 -11.780  0.00  0.00     0.173 C 
BRANCH   8   9
ATOM      9  C   UNL d   1       9.580   4.934 -13.104  0.00  0.00     0.136 C 
BRANCH   9  10
ATOM     10  N   UNL d   1      10.274   4.101 -14.092  0.00  0.00    -0.329 N 
ATOM     11  C   UNL d   1      11.709   4.272 -14.294  0.00  0.00     0.127 C 
BRANCH  10  12
ATOM     12  C   UNL d   1       9.635   2.956 -14.622  0.00  0.00     0.140 A 
ATOM     13  N   UNL d   1       8.289   2.876 -14.493  0.00  0.00    -0.227 NA
ATOM     14  C   UNL d   1       7.646   1.773 -14.925  0.00  0.00     0.101 A 
ATOM     15  C   UNL d   1       8.307   0.698 -15.547  0.00  0.00     0.021 A 
ATOM     16  C   UNL d   1       9.703   0.781 -15.716  0.00  0.00     0.005 A 
ATOM     17  C   UNL d   1      10.377   1.925 -15.247  0.00  0.00     0.037 A 
ENDBRANCH  10  12
ENDBRANCH   9  10
ENDBRANCH   8   9
ENDBRANCH   7   8
ENDBRANCH   1   7
BRANCH   4  18
ATOM     18  C   UNL d   1      11.035   8.502  -7.254  0.00  0.00     0.047 C 
BRANCH  18  19
ATOM     19  C   UNL d   1      10.630   8.363  -5.777  0.00  0.00     0.141 A 
ATOM     20  C   UNL d   1      11.105   9.532  -4.895  0.00  0.00     0.269 A 
ATOM     21  N   UNL d   1      11.828   9.155  -3.832  0.00  0.00    -0.167 NA
ATOM     22  O   UNL d   1      10.795  10.699  -5.148  0.00  0.00    -0.269 OA
ATOM     23  C   UNL d   1      12.041   7.845  -3.710  0.00  0.00     0.309 A 
ATOM     24  S   UNL d   1      11.352   6.901  -5.001  0.00  0.00    -0.043 SA
ATOM     25  O   UNL d   1      12.658   7.332  -2.786  0.00  0.00    -0.258 OA
ENDBRANCH  18  19
ENDBRANCH   4  18
TORSDOF 7
