REMARK  8 active torsions:
REMARK  status: ('A' for Active; 'I' for Inactive)
REMARK    1  A    between atoms: O_2  and  C_3 
REMARK    2  A    between atoms: C_8  and  N_9 
REMARK    3  A    between atoms: N_12  and  C_13 
REMARK    4  A    between atoms: C_13  and  C_14 
REMARK    5  A    between atoms: C_14  and  C_15 
REMARK    6  A    between atoms: C_15  and  C_16 
REMARK    7  A    between atoms: C_16  and  N_17 
REMARK       I    between atoms: N_17  and  C_18 
REMARK       I    between atoms: C_18  and  N_20 
REMARK    8  A    between atoms: N_20  and  C_22 
ROOT
ATOM      1  C   UNL d   1       9.200   4.876 -11.257  0.00  0.00     0.251 C 
ENDROOT
BRANCH   1   2
ATOM      2  N   UNL d   1       8.390   4.556 -12.424  0.00  0.00     0.141 N 
ATOM      3  C   UNL d   1       9.086   3.514 -13.188  0.00  0.00     0.274 C 
ATOM      4  C   UNL d   1       8.289   3.137 -14.438  0.00  0.00     0.137 C 
ATOM      5  N   UNL d   1       6.918   2.775 -14.089  0.00  0.00    -0.343 N 
ATOM      6  C   UNL d   1       6.202   3.763 -13.280  0.00  0.00     0.137 C 
ATOM      7  C   UNL d   1       7.031   4.126 -12.037  0.00  0.00     0.274 C 
BRANCH   5   8
ATOM      8  C   UNL d   1       6.331   1.563 -14.520  0.00  0.00     0.079 A 
ATOM      9  C   UNL d   1       6.564   1.048 -15.829  0.00  0.00     0.110 A 
ATOM     10  C   UNL d   1       5.925  -0.158 -16.222  0.00  0.00     0.026 A 
ATOM     11  C   UNL d   1       5.043  -0.824 -15.354  0.00  0.00     0.002 A 
ATOM     12  C   UNL d   1       4.790  -0.295 -14.082  0.00  0.00     0.002 A 
ATOM     13  C   UNL d   1       5.453   0.871 -13.654  0.00  0.00     0.019 A 
BRANCH   9  14
ATOM     14  O   UNL d   1       7.335   1.796 -16.701  0.00  0.00    -0.327 OA
ATOM     15  C   UNL d   1       7.669   1.245 -17.962  0.00  0.00     0.181 C 
ENDBRANCH   9  14
ENDBRANCH   5   8
ENDBRANCH   1   2
BRANCH   1  16
ATOM     16  C   UNL d   1       8.826   6.234 -10.660  0.00  0.00     0.037 C 
BRANCH  16  17
ATOM     17  C   UNL d   1       9.743   6.640  -9.501  0.00  0.00     0.029 C 
BRANCH  17  18
ATOM     18  C   UNL d   1       9.286   7.939  -8.822  0.00  0.00     0.131 C 
BRANCH  18  19
ATOM     19  N   UNL d   1      10.287   8.462  -7.913  0.00  0.00    -0.219 NA
ATOM     20  C   UNL d   1      10.443   8.046  -6.649  0.00  0.00     0.346 C 
ATOM     21  O   UNL d   1       9.749   7.155  -6.165  0.00  0.00    -0.245 OA
ATOM     22  N   UNL d   1      11.426   8.694  -5.970  0.00  0.00    -0.279 N 
ATOM     23  C   UNL d   1      12.142   9.842  -6.543  0.00  0.00     0.135 C 
BRANCH  22  24
ATOM     24  C   UNL d   1      11.733   8.334  -4.625  0.00  0.00     0.064 A 
ATOM     25  C   UNL d   1      11.890   6.983  -4.239  0.00  0.00     0.017 A 
ATOM     26  C   UNL d   1      12.239   6.663  -2.915  0.00  0.00     0.002 A 
ATOM     27  C   UNL d   1      12.421   7.690  -1.977  0.00  0.00     0.000 A 
ATOM     28  C   UNL d   1      12.254   9.026  -2.339  0.00  0.00     0.002 A 
ATOM     29  C   UNL d   1      11.909   9.350  -3.660  0.00  0.00     0.017 A 
ENDBRANCH  22  24
ENDBRANCH  18  19
ENDBRANCH  17  18
ENDBRANCH  16  17
ENDBRANCH   1  16
TORSDOF 8
