REMARK  6 active torsions:
REMARK  status: ('A' for Active; 'I' for Inactive)
REMARK    1  A    between atoms: C_5  and  C_6 
REMARK    2  A    between atoms: C_12  and  C_13 
REMARK    3  A    between atoms: N_16  and  C_17 
REMARK    4  A    between atoms: C_17  and  C_18 
REMARK    5  A    between atoms: C_18  and  N_19 
REMARK    6  A    between atoms: N_28  and  C_29 
ROOT
ATOM      1  C   UNL d   1       7.439   0.337 -17.237  0.00  0.00     0.040 A 
ATOM      2  C   UNL d   1       8.336   0.045 -18.285  0.00  0.00     0.005 A 
ATOM      3  C   UNL d   1       9.571   0.704 -18.381  0.00  0.00     0.018 A 
ATOM      4  C   UNL d   1       9.943   1.651 -17.401  0.00  0.00     0.064 A 
ATOM      5  C   UNL d   1       9.056   1.982 -16.333  0.00  0.00     0.014 A 
ATOM      6  C   UNL d   1       7.813   1.306 -16.279  0.00  0.00     0.004 A 
ATOM      7  C   UNL d   1       9.676   2.996 -15.527  0.00  0.00    -0.003 A 
ATOM      8  C   UNL d   1      10.903   3.228 -16.095  0.00  0.00     0.076 A 
ATOM      9  N   UNL d   1      11.087   2.429 -17.218  0.00  0.00    -0.305 N 
ENDROOT
BRANCH   7  10
ATOM     10  C   UNL d   1       9.129   3.667 -14.295  0.00  0.00     0.028 C 
ATOM     11  C   UNL d   1      10.027   3.440 -13.088  0.00  0.00     0.040 C 
ATOM     12  C   UNL d   1       9.498   4.181 -11.861  0.00  0.00     0.251 C 
ATOM     13  N   UNL d   1       9.474   5.619 -12.115  0.00  0.00     0.139 N 
ATOM     14  C   UNL d   1       8.510   5.870 -13.179  0.00  0.00     0.251 C 
ATOM     15  C   UNL d   1       8.994   5.184 -14.467  0.00  0.00     0.040 C 
BRANCH  13  16
ATOM     16  C   UNL d   1       9.061   6.370 -10.930  0.00  0.00     0.274 C 
BRANCH  16  17
ATOM     17  C   UNL d   1      10.153   6.354  -9.845  0.00  0.00     0.141 C 
BRANCH  17  18
ATOM     18  N   UNL d   1       9.746   7.141  -8.696  0.00  0.00    -0.297 N 
ATOM     19  C   UNL d   1       9.969   8.440  -8.507  0.00  0.00     0.342 A 
ATOM     20  N   UNL d   1       9.477   8.789  -7.326  0.00  0.00    -0.217 NA
ATOM     21  O   UNL d   1      10.559   9.198  -9.279  0.00  0.00    -0.245 OA
ATOM     22  C   UNL d   1       8.854   7.690  -6.620  0.00  0.00     0.155 A 
ATOM     23  C   UNL d   1       9.050   6.519  -7.582  0.00  0.00     0.132 A 
ENDBRANCH  17  18
ENDBRANCH  16  17
ENDBRANCH  13  16
ENDBRANCH   7  10
BRANCH   9  24
ATOM     24  C   UNL d   1      12.255   2.440 -18.029  0.00  0.00     0.064 A 
ATOM     25  C   UNL d   1      12.728   1.252 -18.634  0.00  0.00     0.020 A 
ATOM     26  C   UNL d   1      13.866   1.273 -19.459  0.00  0.00     0.031 A 
ATOM     27  C   UNL d   1      14.578   2.470 -19.649  0.00  0.00     0.140 A 
ATOM     28  C   UNL d   1      14.137   3.654 -19.026  0.00  0.00     0.031 A 
ATOM     29  F   UNL d   1      15.694   2.475 -20.415  0.00  0.00    -0.204 F 
ATOM     30  C   UNL d   1      12.975   3.644 -18.227  0.00  0.00     0.020 A 
ENDBRANCH   9  24
BRANCH   1  31
ATOM     31  C   UNL d   1       6.137  -0.353 -17.155  0.00  0.00     0.206 A 
ATOM     32  N   UNL d   1       5.402  -0.398 -16.007  0.00  0.00    -0.108 NA
ATOM     33  N   UNL d   1       4.347  -1.087 -16.307  0.00  0.00    -0.045 NA
ATOM     34  N   UNL d   1       4.474  -1.409 -17.616  0.00  0.00    -0.149 N 
ATOM     35  C   UNL d   1       3.480  -2.163 -18.339  0.00  0.00     0.180 C 
ATOM     36  N   UNL d   1       5.599  -0.961 -18.198  0.00  0.00    -0.130 NA
ENDBRANCH   1  31
TORSDOF 6
