REMARK  4 active torsions:
REMARK  status: ('A' for Active; 'I' for Inactive)
REMARK    1  A    between atoms: C_8  and  C_9 
REMARK    2  A    between atoms: C_9  and  C_10 
REMARK    3  A    between atoms: C_10  and  N_11 
REMARK    4  A    between atoms: N_14  and  C_15 
ROOT
ATOM      1  N   UNL d   1       9.679   5.904  -9.552  0.00  0.00     0.141 N 
ATOM      2  C   UNL d   1       9.378   5.663  -8.150  0.00  0.00     0.274 C 
ATOM      3  C   UNL d   1      10.576   6.047  -7.290  0.00  0.00     0.138 C 
ATOM      4  N   UNL d   1      10.992   7.415  -7.513  0.00  0.00    -0.329 N 
ATOM      5  C   UNL d   1      11.156   7.773  -8.922  0.00  0.00     0.138 C 
ATOM      6  C   UNL d   1       9.930   7.337  -9.739  0.00  0.00     0.274 C 
ENDROOT
BRANCH   1   7
ATOM      7  C   UNL d   1       8.540   5.427 -10.314  0.00  0.00     0.255 C 
BRANCH   7   8
ATOM      8  C   UNL d   1       8.845   5.502 -11.816  0.00  0.00     0.063 C 
BRANCH   8   9
ATOM      9  C   UNL d   1       7.997   4.538 -12.627  0.00  0.00    -0.003 A 
ATOM     10  C   UNL d   1       8.575   3.710 -13.627  0.00  0.00     0.076 A 
ATOM     11  N   UNL d   1       9.961   3.808 -13.925  0.00  0.00    -0.212 NA
ATOM     12  C   UNL d   1       7.768   2.788 -14.341  0.00  0.00    -0.005 A 
ATOM     13  C   UNL d   1      10.662   2.928 -14.657  0.00  0.00     0.256 C 
ATOM     14  C   UNL d   1       9.920   1.675 -15.137  0.00  0.00     0.094 C 
ATOM     15  O   UNL d   1      11.851   3.098 -14.906  0.00  0.00    -0.270 OA
ATOM     16  C   UNL d   1       8.418   1.922 -15.431  0.00  0.00     0.033 C 
ATOM     17  C   UNL d   1       7.703   0.577 -15.678  0.00  0.00     0.005 C 
ATOM     18  C   UNL d   1       6.389   2.697 -14.036  0.00  0.00    -0.003 A 
ATOM     19  C   UNL d   1       5.823   3.512 -13.041  0.00  0.00    -0.001 A 
ATOM     20  C   UNL d   1       6.617   4.429 -12.341  0.00  0.00    -0.003 A 
ENDBRANCH   8   9
ENDBRANCH   7   8
ENDBRANCH   1   7
BRANCH   4  21
ATOM     21  C   UNL d   1      11.086   8.331  -6.450  0.00  0.00     0.148 A 
ATOM     22  C   UNL d   1      11.467   7.978  -5.074  0.00  0.00     0.042 A 
ATOM     23  C   UNL d   1      11.498   9.144  -4.275  0.00  0.00     0.050 A 
ATOM     24  C   UNL d   1      11.858   6.779  -4.437  0.00  0.00     0.004 A 
ATOM     25  S   UNL d   1      11.037  10.467  -5.283  0.00  0.00     0.015 SA
ATOM     26  C   UNL d   1      11.863   9.139  -2.916  0.00  0.00     0.008 A 
ATOM     27  N   UNL d   1      10.865   9.606  -6.685  0.00  0.00    -0.192 NA
ATOM     28  C   UNL d   1      12.233   7.927  -2.308  0.00  0.00     0.001 A 
ATOM     29  C   UNL d   1      12.227   6.753  -3.075  0.00  0.00     0.000 A 
ENDBRANCH   4  21
TORSDOF 4
