REMARK  6 active torsions:
REMARK  status: ('A' for Active; 'I' for Inactive)
REMARK    1  A    between atoms: C_2  and  C_3 
REMARK    2  A    between atoms: N_13  and  C_14 
REMARK    3  A    between atoms: C_14  and  C_15 
REMARK    4  A    between atoms: C_15  and  C_17 
REMARK    5  A    between atoms: C_17  and  N_18 
REMARK    6  A    between atoms: N_21  and  C_22 
ROOT
ATOM      1  C   UNL d   1       9.165   5.638 -11.768  0.00  0.00     0.208 C 
ATOM      2  O   UNL d   1       9.703   6.599 -12.638  0.00  0.00    -0.219 OA
ENDROOT
BRANCH   1   3
ATOM      3  C   UNL d   1       8.171   4.902 -12.675  0.00  0.00     0.148 C 
BRANCH   3   4
ATOM      4  N   UNL d   1       8.798   3.853 -13.526  0.00  0.00    -0.247 N 
ATOM      5  C   UNL d   1      10.108   3.628 -13.805  0.00  0.00     0.348 A 
ATOM      6  N   UNL d   1      10.210   2.543 -14.559  0.00  0.00    -0.209 NA
ATOM      7  O   UNL d   1      11.102   4.272 -13.479  0.00  0.00    -0.245 OA
ATOM      8  C   UNL d   1       8.937   2.025 -14.986  0.00  0.00     0.179 A 
ATOM      9  C   UNL d   1       8.847   0.566 -14.522  0.00  0.00     0.039 C 
ATOM     10  C   UNL d   1       8.040   2.960 -14.175  0.00  0.00     0.265 A 
ATOM     11  O   UNL d   1       6.809   2.886 -14.139  0.00  0.00    -0.269 OA
BRANCH   8  12
ATOM     12  C   UNL d   1       8.716   2.204 -16.491  0.00  0.00     0.006 A 
ATOM     13  C   UNL d   1       9.551   3.050 -17.267  0.00  0.00     0.000 A 
ATOM     14  C   UNL d   1       9.355   3.165 -18.654  0.00  0.00     0.029 A 
ATOM     15  C   UNL d   1       8.335   2.427 -19.283  0.00  0.00     0.140 A 
ATOM     16  C   UNL d   1       7.497   1.589 -18.524  0.00  0.00     0.029 A 
ATOM     17  F   UNL d   1       8.100   2.600 -20.603  0.00  0.00    -0.204 F 
ATOM     18  C   UNL d   1       7.677   1.494 -17.133  0.00  0.00     0.000 A 
ENDBRANCH   8  12
ENDBRANCH   3   4
ENDBRANCH   1   3
BRANCH   1  19
ATOM     19  C   UNL d   1       8.599   6.390 -10.586  0.00  0.00     0.285 C 
BRANCH  19  20
ATOM     20  N   UNL d   1       9.413   6.290  -9.370  0.00  0.00     0.144 N 
ATOM     21  C   UNL d   1      10.527   7.250  -9.399  0.00  0.00     0.274 C 
ATOM     22  C   UNL d   1      11.348   7.237  -8.093  0.00  0.00     0.137 C 
ATOM     23  N   UNL d   1      10.471   7.405  -6.967  0.00  0.00    -0.344 N 
ATOM     24  C   UNL d   1       9.321   6.540  -6.891  0.00  0.00     0.137 C 
ATOM     25  C   UNL d   1       8.591   6.626  -8.213  0.00  0.00     0.274 C 
BRANCH  23  26
ATOM     26  C   UNL d   1      10.816   8.255  -5.936  0.00  0.00     0.056 A 
ATOM     27  C   UNL d   1      11.418   7.859  -4.717  0.00  0.00     0.015 A 
ATOM     28  C   UNL d   1      11.660   8.810  -3.700  0.00  0.00     0.001 A 
ATOM     29  C   UNL d   1      11.761   6.537  -4.451  0.00  0.00     0.001 A 
ATOM     30  C   UNL d   1      11.277  10.106  -3.908  0.00  0.00     0.000 A 
ATOM     31  C   UNL d   1      12.234   8.506  -2.445  0.00  0.00     0.000 A 
ATOM     32  C   UNL d   1      10.685  10.513  -5.122  0.00  0.00     0.002 A 
ATOM     33  C   UNL d   1      10.486   9.593  -6.134  0.00  0.00     0.017 A 
ATOM     34  C   UNL d   1      12.558   7.167  -2.209  0.00  0.00     0.000 A 
ATOM     35  C   UNL d   1      12.333   6.226  -3.212  0.00  0.00     0.000 A 
ENDBRANCH  23  26
ENDBRANCH  19  20
ENDBRANCH   1  19
TORSDOF 6
