REMARK  1 active torsions:
REMARK  status: ('A' for Active; 'I' for Inactive)
REMARK    1  A    between atoms: O_2  and  C_3 
ROOT
ATOM      1  C   UNL d   1       6.743   3.455 -13.282  0.00  0.00     0.094 A 
ATOM      2  C   UNL d   1       6.082   4.402 -12.460  0.00  0.00     0.024 A 
ATOM      3  C   UNL d   1       6.737   5.572 -12.043  0.00  0.00     0.002 A 
ATOM      4  C   UNL d   1       8.060   5.805 -12.440  0.00  0.00    -0.004 A 
ATOM      5  C   UNL d   1       8.729   4.864 -13.247  0.00  0.00    -0.018 A 
ATOM      6  C   UNL d   1       8.100   3.667 -13.659  0.00  0.00     0.018 A 
ATOM      7  C   UNL d   1       8.910   2.699 -14.448  0.00  0.00    -0.001 A 
ATOM      8  C   UNL d   1       8.674   1.296 -14.464  0.00  0.00    -0.000 A 
ATOM      9  C   UNL d   1       9.447   0.391 -15.215  0.00  0.00    -0.000 A 
ATOM     10  C   UNL d   1      10.527   0.851 -15.977  0.00  0.00    -0.004 A 
ATOM     11  C   UNL d   1      10.843   2.220 -15.974  0.00  0.00    -0.022 A 
ATOM     12  C   UNL d   1      10.047   3.106 -15.200  0.00  0.00     0.005 A 
ATOM     13  C   UNL d   1      10.383   4.614 -15.147  0.00  0.00     0.246 C 
ATOM     14  C   UNL d   1      10.134   5.159 -13.714  0.00  0.00     0.064 C 
ATOM     15  N   UNL d   1      11.739   4.957 -15.608  0.00  0.00     0.142 N 
ATOM     16  C   UNL d   1      11.910   6.394 -15.796  0.00  0.00     0.286 C 
ATOM     17  C   UNL d   1      11.931   4.340 -16.913  0.00  0.00     0.255 C 
ATOM     18  C   UNL d   1      12.025   2.831 -16.705  0.00  0.00     0.061 C 
ENDROOT
BRANCH   1  19
ATOM     19  O   UNL d   1       6.093   2.340 -13.756  0.00  0.00    -0.328 OA
ATOM     20  C   UNL d   1       5.064   1.777 -12.958  0.00  0.00     0.181 C 
ENDBRANCH   1  19
TORSDOF 1
