REMARK  7 active torsions:
REMARK  status: ('A' for Active; 'I' for Inactive)
REMARK    1  A    between atoms: N_2  and  C_3 
REMARK    2  A    between atoms: C_5  and  O_6 
REMARK    3  A    between atoms: C_8  and  C_9 
REMARK       I    between atoms: C_9  and  N_11 
REMARK    4  A    between atoms: N_11  and  C_12 
REMARK    5  A    between atoms: C_12  and  C_13 
REMARK    6  A    between atoms: N_15  and  C_16 
REMARK    7  A    between atoms: C_16  and  C_17 
ROOT
ATOM      1  C   UNL d   1       8.294   4.465 -11.556  0.00  0.00     0.277 C 
ATOM      2  O   UNL d   1       7.173   4.047 -11.322  0.00  0.00    -0.266 OA
ATOM      3  N   UNL d   1       9.068   5.155 -10.707  0.00  0.00    -0.234 NA
ENDROOT
BRANCH   3   4
ATOM      4  C   UNL d   1       8.684   5.564  -9.358  0.00  0.00     0.131 C 
BRANCH   4   5
ATOM      5  C   UNL d   1       9.733   6.578  -8.783  0.00  0.00     0.060 C 
ATOM      6  C   UNL d   1       9.107   7.752  -8.016  0.00  0.00     0.037 C 
ATOM      7  C   UNL d   1       9.491   7.579  -6.561  0.00  0.00     0.251 C 
ATOM      8  C   UNL d   1       9.540   9.109  -8.596  0.00  0.00     0.002 C 
ATOM      9  N   UNL d   1      10.815   6.991  -6.691  0.00  0.00     0.141 N 
ATOM     10  C   UNL d   1      10.529   5.949  -7.660  0.00  0.00     0.253 C 
BRANCH   9  11
ATOM     11  C   UNL d   1      11.356   6.424  -5.460  0.00  0.00     0.277 C 
BRANCH  11  12
ATOM     12  C   UNL d   1      11.672   7.453  -4.399  0.00  0.00     0.011 C 
ATOM     13  C   UNL d   1      12.049   7.018  -3.101  0.00  0.00    -0.002 C 
ATOM     14  C   UNL d   1      12.295   7.981  -2.093  0.00  0.00    -0.000 C 
ATOM     15  C   UNL d   1      12.071   9.341  -2.372  0.00  0.00    -0.000 C 
ATOM     16  C   UNL d   1      11.664   9.757  -3.647  0.00  0.00    -0.000 C 
ATOM     17  C   UNL d   1      11.543   8.830  -4.673  0.00  0.00    -0.002 C 
ENDBRANCH  11  12
ENDBRANCH   9  11
ENDBRANCH   4   5
ENDBRANCH   3   4
BRANCH   1  18
ATOM     18  C   UNL d   1       8.898   4.342 -12.916  0.00  0.00     0.081 A 
ATOM     19  C   UNL d   1       8.684   5.353 -13.849  0.00  0.00     0.100 A 
ATOM     20  C   UNL d   1       9.150   5.132 -15.187  0.00  0.00     0.044 A 
ATOM     21  C   UNL d   1       9.826   3.946 -15.559  0.00  0.00     0.089 A 
ATOM     22  C   UNL d   1       9.996   2.947 -14.590  0.00  0.00     0.075 A 
ATOM     23  C   UNL d   1       9.540   3.156 -13.281  0.00  0.00     0.020 A 
ATOM     24 CL   UNL d   1      10.724   1.438 -14.964  0.00  0.00    -0.081 Cl
BRANCH  19  25
ATOM     25  O   UNL d   1       7.969   6.472 -13.458  0.00  0.00    -0.328 OA
ATOM     26  C   UNL d   1       8.613   7.497 -12.696  0.00  0.00     0.181 C 
ENDBRANCH  19  25
BRANCH  21  27
ATOM     27  N   UNL d   1      10.300   3.703 -16.867  0.00  0.00    -0.268 NA
ATOM     28  C   UNL d   1      10.032   4.603 -17.973  0.00  0.00     0.152 C 
ENDBRANCH  21  27
ENDBRANCH   1  18
TORSDOF 7
