REMARK  4 active torsions:
REMARK  status: ('A' for Active; 'I' for Inactive)
REMARK    1  A    between atoms: N_4  and  C_5 
REMARK    2  A    between atoms: C_5  and  C_6 
REMARK    3  A    between atoms: C_6  and  C_7 
REMARK    4  A    between atoms: C_10  and  N_11 
ROOT
ATOM      1  C   UNL d   1      13.320   4.885 -16.065  0.00  0.00     0.002 C 
ATOM      2  C   UNL d   1      13.725   4.015 -17.280  0.00  0.00     0.002 C 
ATOM      3  C   UNL d   1      15.029   4.490 -17.916  0.00  0.00     0.023 C 
ATOM      4  C   UNL d   1      14.948   5.990 -18.274  0.00  0.00     0.091 C 
ATOM      5  C   UNL d   1      14.541   6.863 -17.067  0.00  0.00     0.023 C 
ATOM      6  C   UNL d   1      13.236   6.378 -16.436  0.00  0.00     0.002 C 
ENDROOT
BRANCH   1   7
ATOM      7  C   UNL d   1      12.030   4.382 -15.397  0.00  0.00     0.035 C 
BRANCH   7   8
ATOM      8  C   UNL d   1      10.799   4.373 -16.338  0.00  0.00     0.250 C 
BRANCH   8   9
ATOM      9  N   UNL d   1      10.139   3.070 -16.328  0.00  0.00     0.138 N 
ATOM     10  C   UNL d   1       9.340   2.968 -15.107  0.00  0.00     0.255 C 
ATOM     11  C   UNL d   1       8.935   1.532 -14.750  0.00  0.00     0.055 C 
ATOM     12  C   UNL d   1      10.130   0.568 -14.745  0.00  0.00     0.007 C 
ATOM     13  C   UNL d   1       7.758   0.983 -15.557  0.00  0.00    -0.024 A 
ATOM     14  C   UNL d   1       7.743   0.955 -16.975  0.00  0.00    -0.024 A 
ATOM     15  C   UNL d   1       6.660   0.439 -14.848  0.00  0.00     0.007 A 
ATOM     16  C   UNL d   1       8.895   1.482 -17.822  0.00  0.00     0.061 C 
ATOM     17  C   UNL d   1       6.639   0.381 -17.646  0.00  0.00    -0.004 A 
ATOM     18  C   UNL d   1       9.324   2.927 -17.530  0.00  0.00     0.255 C 
ATOM     19  C   UNL d   1       5.555  -0.162 -16.931  0.00  0.00     0.011 A 
ATOM     20  C   UNL d   1       5.562  -0.132 -15.527  0.00  0.00     0.057 A 
ATOM     21 CL   UNL d   1       4.237  -0.804 -14.643  0.00  0.00    -0.082 Cl
ENDBRANCH   8   9
ENDBRANCH   7   8
ENDBRANCH   1   7
BRANCH   4  22
ATOM     22  N   UNL d   1      16.219   6.454 -18.859  0.00  0.00    -0.272 N 
ATOM     23  C   UNL d   1      17.398   6.493 -18.215  0.00  0.00     0.240 A 
ATOM     24  C   UNL d   1      18.508   7.020 -19.111  0.00  0.00     0.093 A 
ATOM     25  O   UNL d   1      17.617   6.145 -17.056  0.00  0.00    -0.272 OA
ATOM     26  C   UNL d   1      17.764   7.317 -20.431  0.00  0.00     0.093 A 
ATOM     27  C   UNL d   1      19.107   8.400 -18.721  0.00  0.00     0.031 C 
ATOM     28  C   UNL d   1      16.326   6.922 -20.114  0.00  0.00     0.240 A 
ATOM     29  C   UNL d   1      18.028   8.835 -20.642  0.00  0.00     0.031 C 
ATOM     30  O   UNL d   1      15.419   7.031 -20.936  0.00  0.00    -0.272 OA
ATOM     31  C   UNL d   1      19.475   8.882 -20.131  0.00  0.00     0.010 C 
ATOM     32  C   UNL d   1      17.361   9.653 -19.549  0.00  0.00    -0.030 C 
ATOM     33  C   UNL d   1      18.008   9.403 -18.409  0.00  0.00    -0.030 C 
ENDBRANCH   4  22
TORSDOF 4
