REMARK  7 active torsions:
REMARK  status: ('A' for Active; 'I' for Inactive)
REMARK    1  A    between atoms: N_3  and  C_4 
REMARK    2  A    between atoms: C_4  and  C_5 
REMARK    3  A    between atoms: C_5  and  N_6 
REMARK    4  A    between atoms: C_10  and  O_11 
REMARK    5  A    between atoms: O_11  and  C_12 
REMARK    6  A    between atoms: C_12  and  C_13 
REMARK    7  A    between atoms: N_22  and  C_23 
ROOT
ATOM      1  C   UNL d   1       9.348   2.960 -13.828  0.00  0.00     0.274 C 
ENDROOT
BRANCH   1   2
ATOM      2  C   UNL d   1       8.133   3.881 -13.558  0.00  0.00     0.141 C 
BRANCH   2   3
ATOM      3  N   UNL d   1       8.236   4.464 -12.238  0.00  0.00    -0.298 N 
ATOM      4  C   UNL d   1       9.233   5.302 -11.884  0.00  0.00     0.328 C 
ATOM      5  O   UNL d   1      10.148   5.622 -12.625  0.00  0.00    -0.247 OA
ATOM      6  N   UNL d   1       9.058   5.667 -10.596  0.00  0.00    -0.280 N 
ATOM      7  C   UNL d   1       7.830   5.136 -10.104  0.00  0.00     0.135 C 
ATOM      8  C   UNL d   1       7.171   4.388 -11.267  0.00  0.00     0.131 C 
BRANCH   6   9
ATOM      9  C   UNL d   1       9.865   6.537  -9.797  0.00  0.00     0.065 A 
ATOM     10  C   UNL d   1      10.017   6.309  -8.406  0.00  0.00     0.029 A 
ATOM     11  C   UNL d   1      10.857   7.135  -7.630  0.00  0.00     0.059 A 
ATOM     12  C   UNL d   1      11.567   8.182  -8.238  0.00  0.00     0.011 A 
ATOM     13 CL   UNL d   1      11.047   6.842  -5.934  0.00  0.00    -0.082 Cl
ATOM     14  C   UNL d   1      11.386   8.441  -9.609  0.00  0.00     0.002 A 
ATOM     15  C   UNL d   1      10.496   7.655 -10.382  0.00  0.00     0.017 A 
ENDBRANCH   6   9
ENDBRANCH   2   3
ENDBRANCH   1   2
BRANCH   1  16
ATOM     16  N   UNL d   1       9.586   2.612 -15.207  0.00  0.00     0.142 N 
ATOM     17  C   UNL d   1       9.909   3.777 -16.032  0.00  0.00     0.280 C 
ATOM     18  C   UNL d   1      10.000   3.396 -17.515  0.00  0.00     0.149 C 
ATOM     19  C   UNL d   1      11.096   2.337 -17.718  0.00  0.00     0.034 C 
ATOM     20  C   UNL d   1      10.863   1.149 -16.759  0.00  0.00     0.038 C 
ATOM     21  C   UNL d   1      10.677   1.644 -15.319  0.00  0.00     0.251 C 
BRANCH  18  22
ATOM     22  O   UNL d   1      10.287   4.527 -18.324  0.00  0.00    -0.350 OA
BRANCH  22  23
ATOM     23  C   UNL d   1       9.188   5.426 -18.487  0.00  0.00     0.169 C 
BRANCH  23  24
ATOM     24  C   UNL d   1       9.518   6.537 -19.454  0.00  0.00     0.007 A 
ATOM     25  C   UNL d   1      10.800   7.125 -19.443  0.00  0.00    -0.002 A 
ATOM     26  C   UNL d   1      11.109   8.161 -20.343  0.00  0.00    -0.000 A 
ATOM     27  C   UNL d   1      10.130   8.621 -21.246  0.00  0.00    -0.000 A 
ATOM     28  C   UNL d   1       8.841   8.051 -21.242  0.00  0.00    -0.000 A 
ATOM     29  C   UNL d   1       8.533   7.014 -20.341  0.00  0.00    -0.002 A 
ENDBRANCH  23  24
ENDBRANCH  22  23
ENDBRANCH  18  22
ENDBRANCH   1  16
TORSDOF 7
