REMARK  4 active torsions:
REMARK  status: ('A' for Active; 'I' for Inactive)
REMARK    1  A    between atoms: C_11  and  C_12 
REMARK    2  A    between atoms: C_12  and  N_13 
REMARK    3  A    between atoms: N_13  and  C_14 
REMARK    4  A    between atoms: C_14  and  C_15 
ROOT
ATOM      1  O   UNL d   1      12.639   6.939  -1.865  0.00  0.00    -0.270 OA
ATOM      2  C   UNL d   1      12.199   7.423  -2.881  0.00  0.00     0.260 A 
ATOM      3  C   UNL d   1      11.656   6.550  -4.032  0.00  0.00     0.120 A 
ATOM      4  C   UNL d   1      11.277   7.624  -5.041  0.00  0.00     0.027 A 
ATOM      5  C   UNL d   1      11.523   8.853  -4.409  0.00  0.00     0.083 A 
ATOM      6  C   UNL d   1      11.272  10.067  -5.017  0.00  0.00     0.019 A 
ATOM      7  C   UNL d   1      10.770   9.989  -6.313  0.00  0.00    -0.001 A 
ATOM      8  C   UNL d   1      10.450   8.776  -6.967  0.00  0.00    -0.000 A 
ATOM      9  C   UNL d   1      10.739   7.540  -6.343  0.00  0.00     0.088 A 
ATOM     10  O   UNL d   1      10.496   6.340  -6.960  0.00  0.00    -0.332 OA
ATOM     11  C   UNL d   1      10.196   6.376  -8.357  0.00  0.00     0.145 C 
ATOM     12  C   UNL d   1       9.255   7.512  -8.742  0.00  0.00     0.037 C 
ATOM     13  C   UNL d   1       9.803   8.831  -8.301  0.00  0.00     0.031 C 
ATOM     14  N   UNL d   1      12.055   8.728  -3.138  0.00  0.00    -0.212 NA
ENDROOT
BRANCH  11  15
ATOM     15  C   UNL d   1       9.594   5.045  -8.821  0.00  0.00     0.150 C 
BRANCH  15  16
ATOM     16  N   UNL d   1       9.454   4.941 -10.265  0.00  0.00    -0.288 NA
BRANCH  16  17
ATOM     17  C   UNL d   1       8.244   5.497 -10.834  0.00  0.00     0.146 C 
BRANCH  17  18
ATOM     18  C   UNL d   1       7.716   4.657 -11.963  0.00  0.00     0.002 A 
ATOM     19  C   UNL d   1       6.325   4.482 -12.061  0.00  0.00    -0.002 A 
ATOM     20  C   UNL d   1       5.781   3.737 -13.119  0.00  0.00    -0.000 A 
ATOM     21  C   UNL d   1       6.651   3.162 -14.073  0.00  0.00    -0.000 A 
ATOM     22  C   UNL d   1       8.047   3.348 -13.996  0.00  0.00    -0.000 A 
ATOM     23  C   UNL d   1       8.582   4.094 -12.930  0.00  0.00    -0.002 A 
ENDBRANCH  17  18
ENDBRANCH  16  17
ENDBRANCH  15  16
ENDBRANCH  11  15
TORSDOF 4
