REMARK  5 active torsions:
REMARK  status: ('A' for Active; 'I' for Inactive)
REMARK    1  A    between atoms: C_7  and  N_8 
REMARK    2  A    between atoms: N_11  and  C_12 
REMARK    3  A    between atoms: C_12  and  C_13 
REMARK    4  A    between atoms: C_13  and  C_14 
REMARK    5  A    between atoms: C_14  and  N_15 
ROOT
ATOM      1  C   UNL d   1      10.707   0.911 -17.286  0.00  0.00     0.252 C 
ENDROOT
BRANCH   1   2
ATOM      2  N   UNL d   1       9.335   1.396 -17.363  0.00  0.00     0.141 N 
ATOM      3  C   UNL d   1       8.589   0.941 -16.191  0.00  0.00     0.274 C 
ATOM      4  C   UNL d   1       9.196   1.534 -14.896  0.00  0.00     0.137 C 
ATOM      5  N   UNL d   1       9.230   2.991 -15.002  0.00  0.00    -0.344 N 
ATOM      6  C   UNL d   1       9.824   3.556 -16.213  0.00  0.00     0.137 C 
ATOM      7  C   UNL d   1       9.230   2.864 -17.466  0.00  0.00     0.274 C 
BRANCH   5   8
ATOM      8  C   UNL d   1       8.632   3.803 -14.030  0.00  0.00     0.052 A 
ATOM      9  C   UNL d   1       7.303   3.593 -13.586  0.00  0.00    -0.006 A 
ATOM     10  C   UNL d   1       6.422   2.486 -14.139  0.00  0.00     0.033 C 
ATOM     11  C   UNL d   1       6.762   4.429 -12.589  0.00  0.00    -0.003 A 
ATOM     12  C   UNL d   1       7.523   5.476 -12.041  0.00  0.00    -0.000 A 
ATOM     13  C   UNL d   1       8.837   5.699 -12.493  0.00  0.00     0.002 A 
ATOM     14  C   UNL d   1       9.381   4.863 -13.492  0.00  0.00     0.017 A 
ENDBRANCH   5   8
ENDBRANCH   1   2
BRANCH   1  15
ATOM     15  C   UNL d   1      11.467   1.052 -18.604  0.00  0.00     0.060 C 
BRANCH  15  16
ATOM     16  C   UNL d   1      12.913   0.570 -18.429  0.00  0.00     0.111 C 
BRANCH  16  17
ATOM     17  N   UNL d   1      13.666   0.673 -19.676  0.00  0.00    -0.299 N 
ATOM     18  C   UNL d   1      14.094   1.974 -20.117  0.00  0.00     0.058 A 
ATOM     19  C   UNL d   1      14.544   2.158 -21.448  0.00  0.00    -0.006 A 
ATOM     20  C   UNL d   1      14.055   3.105 -19.258  0.00  0.00     0.017 A 
ATOM     21  C   UNL d   1      14.528   0.973 -22.399  0.00  0.00     0.038 C 
ATOM     22  C   UNL d   1      14.965   3.428 -21.898  0.00  0.00    -0.003 A 
ATOM     23  C   UNL d   1      14.746  -0.351 -21.651  0.00  0.00     0.093 C 
ATOM     24  C   UNL d   1      13.891  -0.457 -20.387  0.00  0.00     0.238 C 
ATOM     25  O   UNL d   1      13.460  -1.558 -20.061  0.00  0.00    -0.272 OA
ATOM     26  C   UNL d   1      14.939   4.537 -21.033  0.00  0.00    -0.000 A 
ATOM     27  C   UNL d   1      14.477   4.369 -19.711  0.00  0.00     0.002 A 
ENDBRANCH  16  17
ENDBRANCH  15  16
ENDBRANCH   1  15
TORSDOF 5
