REMARK  7 active torsions:
REMARK  status: ('A' for Active; 'I' for Inactive)
REMARK    1  A    between atoms: C_2  and  C_3 
REMARK    2  A    between atoms: C_3  and  C_4 
REMARK    3  A    between atoms: C_5  and  C_6 
REMARK    4  A    between atoms: C_8  and  C_9 
REMARK    5  A    between atoms: C_9  and  N_10 
REMARK    6  A    between atoms: N_13  and  C_14 
REMARK    7  A    between atoms: C_19  and  O_20 
ROOT
ATOM      1  C   UNL d   1       9.319   3.264 -14.937  0.00  0.00     0.023 A 
ATOM      2  C   UNL d   1       9.503   4.588 -14.435  0.00  0.00     0.059 A 
ATOM      3  C   UNL d   1       8.379   4.875 -13.575  0.00  0.00    -0.006 A 
ATOM      4  C   UNL d   1       7.532   3.738 -13.560  0.00  0.00    -0.005 A 
ATOM      5  C   UNL d   1       6.347   3.671 -12.821  0.00  0.00    -0.001 A 
ATOM      6  C   UNL d   1       5.462   2.563 -12.720  0.00  0.00    -0.000 A 
ATOM      7  C   UNL d   1       5.510   1.268 -13.330  0.00  0.00    -0.000 A 
ATOM      8  C   UNL d   1       6.498   0.748 -14.229  0.00  0.00     0.000 A 
ATOM      9  C   UNL d   1       7.681   1.390 -14.730  0.00  0.00     0.000 A 
ATOM     10  C   UNL d   1       8.140   2.681 -14.438  0.00  0.00     0.003 A 
ENDROOT
BRANCH   3  11
ATOM     11  C   UNL d   1       8.167   6.210 -12.854  0.00  0.00     0.273 C 
BRANCH  11  12
ATOM     12  N   UNL d   1       9.318   6.611 -12.060  0.00  0.00     0.145 N 
ATOM     13  C   UNL d   1       9.261   5.869 -10.780  0.00  0.00     0.275 C 
ATOM     14  C   UNL d   1      10.432   6.294  -9.866  0.00  0.00     0.137 C 
ATOM     15  N   UNL d   1      10.315   7.707  -9.627  0.00  0.00    -0.343 N 
ATOM     16  C   UNL d   1      10.336   8.530 -10.801  0.00  0.00     0.137 C 
ATOM     17  C   UNL d   1       9.230   8.050 -11.763  0.00  0.00     0.275 C 
BRANCH  15  18
ATOM     18  C   UNL d   1      10.466   8.253  -8.352  0.00  0.00     0.079 A 
ATOM     19  C   UNL d   1       9.741   7.672  -7.324  0.00  0.00     0.110 A 
ATOM     20  C   UNL d   1       9.883   8.211  -6.025  0.00  0.00     0.026 A 
ATOM     21  C   UNL d   1      10.668   9.352  -5.776  0.00  0.00     0.002 A 
ATOM     22  C   UNL d   1      11.395   9.939  -6.827  0.00  0.00     0.002 A 
ATOM     23  C   UNL d   1      11.291   9.354  -8.120  0.00  0.00     0.019 A 
BRANCH  19  24
ATOM     24  O   UNL d   1       8.925   6.622  -7.647  0.00  0.00    -0.327 OA
ATOM     25  C   UNL d   1       7.982   6.248  -6.689  0.00  0.00     0.181 C 
ENDBRANCH  19  24
ENDBRANCH  15  18
ENDBRANCH  11  12
ENDBRANCH   3  11
BRANCH   1  26
ATOM     26  C   UNL d   1      10.258   2.627 -15.855  0.00  0.00    -0.068 C 
ATOM     27  C   UNL d   1      11.025   2.076 -16.618  0.00  0.00    -0.087 C 
BRANCH  27  28
ATOM     28  C   UNL d   1      11.947   1.393 -17.550  0.00  0.00     0.076 C 
BRANCH  28  29
ATOM     29  C   UNL d   1      13.046   2.296 -18.141  0.00  0.00     0.014 C 
ATOM     30  C   UNL d   1      12.512   3.411 -19.052  0.00  0.00     0.001 C 
ENDBRANCH  28  29
ENDBRANCH  27  28
ENDBRANCH   1  26
TORSDOF 7
