REMARK  8 active torsions:
REMARK  status: ('A' for Active; 'I' for Inactive)
REMARK    1  A    between atoms: C_2  and  C_3 
REMARK    2  A    between atoms: C_3  and  C_5 
REMARK    3  A    between atoms: C_5  and  C_6 
REMARK       I    between atoms: C_6  and  N_8 
REMARK    4  A    between atoms: N_8  and  C_9 
REMARK    5  A    between atoms: C_12  and  C_13 
REMARK    6  A    between atoms: C_13  and  C_14 
REMARK    7  A    between atoms: C_14  and  N_15 
REMARK    8  A    between atoms: N_18  and  C_19 
ROOT
ATOM      1  C   UNL d   1      10.416   4.118 -15.046  0.00  0.00     0.250 C 
ENDROOT
BRANCH   1   2
ATOM      2  C   UNL d   1       9.066   3.717 -14.438  0.00  0.00     0.035 C 
BRANCH   2   3
ATOM      3  C   UNL d   1       8.766   4.447 -13.122  0.00  0.00     0.002 C 
ATOM      4  C   UNL d   1       9.671   3.901 -12.030  0.00  0.00     0.002 C 
ATOM      5  C   UNL d   1       9.436   4.602 -10.680  0.00  0.00     0.024 C 
ATOM      6  C   UNL d   1       9.618   6.125 -10.816  0.00  0.00     0.106 C 
ATOM      7  C   UNL d   1       8.664   6.692 -11.884  0.00  0.00     0.024 C 
ATOM      8  C   UNL d   1       8.909   5.987 -13.219  0.00  0.00     0.002 C 
BRANCH   6   9
ATOM      9  N   UNL d   1       9.363   6.765  -9.537  0.00  0.00    -0.240 NA
ATOM     10  C   UNL d   1      10.227   7.513  -8.843  0.00  0.00     0.254 C 
ATOM     11  O   UNL d   1      11.410   7.639  -9.149  0.00  0.00    -0.271 OA
BRANCH  10  12
ATOM     12  C   UNL d   1       9.654   8.261  -7.639  0.00  0.00     0.122 C 
BRANCH  12  13
ATOM     13  C   UNL d   1      10.618   8.282  -6.434  0.00  0.00     0.162 C 
ATOM     14  O   UNL d   1      10.316   9.409  -5.644  0.00  0.00    -0.223 OA
BRANCH  13  15
ATOM     15  C   UNL d   1      10.491   7.000  -5.593  0.00  0.00     0.034 C 
ATOM     16  C   UNL d   1      11.461   6.945  -4.406  0.00  0.00     0.003 C 
ENDBRANCH  13  15
ENDBRANCH  12  13
ENDBRANCH  10  12
ENDBRANCH   6   9
ENDBRANCH   2   3
ENDBRANCH   1   2
BRANCH   1  17
ATOM     17  N   UNL d   1      10.671   3.510 -16.341  0.00  0.00     0.141 N 
ATOM     18  C   UNL d   1      12.034   3.843 -16.760  0.00  0.00     0.274 C 
ATOM     19  C   UNL d   1      12.218   5.360 -17.008  0.00  0.00     0.138 C 
ATOM     20  N   UNL d   1      11.182   5.851 -17.899  0.00  0.00    -0.330 N 
ATOM     21  C   UNL d   1       9.804   5.440 -17.669  0.00  0.00     0.138 C 
ATOM     22  C   UNL d   1       9.738   3.916 -17.407  0.00  0.00     0.274 C 
BRANCH  20  23
ATOM     23  C   UNL d   1      11.535   6.638 -19.035  0.00  0.00     0.138 A 
ATOM     24  C   UNL d   1      12.580   7.568 -19.015  0.00  0.00     0.036 A 
ATOM     25  C   UNL d   1      12.864   8.318 -20.145  0.00  0.00     0.095 A 
ATOM     26  C   UNL d   1      13.480   8.023 -17.903  0.00  0.00     0.064 A 
ATOM     27  C   UNL d   1      12.112   8.127 -21.320  0.00  0.00     0.045 A 
ATOM     28  O   UNL d   1      13.871   9.220 -19.959  0.00  0.00    -0.331 OA
ATOM     29  C   UNL d   1      11.076   7.170 -21.261  0.00  0.00     0.103 A 
ATOM     30  N   UNL d   1      10.793   6.448 -20.146  0.00  0.00    -0.228 NA
ATOM     31  C   UNL d   1      14.323   9.103 -18.599  0.00  0.00     0.154 A 
ENDBRANCH  20  23
ENDBRANCH   1  17
TORSDOF 8
