REMARK  9 active torsions:
REMARK  status: ('A' for Active; 'I' for Inactive)
REMARK    1  A    between atoms: O_2  and  C_3 
REMARK    2  A    between atoms: C_6  and  N_7 
REMARK    3  A    between atoms: N_10  and  C_11 
REMARK    4  A    between atoms: C_11  and  C_12 
REMARK    5  A    between atoms: C_12  and  C_13 
REMARK    6  A    between atoms: C_13  and  C_14 
REMARK    7  A    between atoms: C_14  and  C_15 
REMARK    8  A    between atoms: C_15  and  C_16 
REMARK    9  A    between atoms: C_16  and  N_17 
ROOT
ATOM      1  C   UNL d   1       8.283   1.960 -15.605  0.00  0.00     0.035 C 
ENDROOT
BRANCH   1   2
ATOM      2  C   UNL d   1       9.043   0.775 -16.237  0.00  0.00     0.250 C 
BRANCH   2   3
ATOM      3  N   UNL d   1       9.660   1.137 -17.507  0.00  0.00     0.141 N 
ATOM      4  C   UNL d   1      10.784   2.066 -17.299  0.00  0.00     0.274 C 
ATOM      5  C   UNL d   1      11.421   2.455 -18.636  0.00  0.00     0.137 C 
ATOM      6  N   UNL d   1      11.843   1.252 -19.344  0.00  0.00    -0.344 N 
ATOM      7  C   UNL d   1      10.800   0.247 -19.522  0.00  0.00     0.137 C 
ATOM      8  C   UNL d   1      10.176  -0.081 -18.156  0.00  0.00     0.274 C 
BRANCH   6   9
ATOM      9  C   UNL d   1      13.136   1.110 -19.840  0.00  0.00     0.056 A 
ATOM     10  C   UNL d   1      13.775  -0.160 -19.943  0.00  0.00     0.019 A 
ATOM     11  C   UNL d   1      15.090  -0.257 -20.446  0.00  0.00     0.026 A 
ATOM     12  C   UNL d   1      15.786   0.892 -20.867  0.00  0.00     0.094 A 
ATOM     13  C   UNL d   1      15.146   2.151 -20.759  0.00  0.00     0.026 A 
ATOM     14  C   UNL d   1      13.856   2.252 -20.259  0.00  0.00     0.019 A 
BRANCH  12  15
ATOM     15  O   UNL d   1      17.060   0.719 -21.365  0.00  0.00    -0.328 OA
ATOM     16  C   UNL d   1      17.703   1.857 -21.939  0.00  0.00     0.181 C 
ENDBRANCH  12  15
ENDBRANCH   6   9
ENDBRANCH   2   3
ENDBRANCH   1   2
BRANCH   1  17
ATOM     17  C   UNL d   1       7.498   1.552 -14.356  0.00  0.00     0.002 C 
BRANCH  17  18
ATOM     18  C   UNL d   1       6.807   2.736 -13.637  0.00  0.00     0.002 C 
BRANCH  18  19
ATOM     19  C   UNL d   1       7.786   3.720 -12.963  0.00  0.00     0.025 C 
BRANCH  19  20
ATOM     20  C   UNL d   1       7.237   4.367 -11.665  0.00  0.00     0.122 C 
BRANCH  20  21
ATOM     21  N   UNL d   1       8.228   5.263 -11.048  0.00  0.00    -0.221 N 
ATOM     22  S   UNL d   1       8.958   6.544 -11.949  0.00  0.00     0.270 S 
ATOM     23  C   UNL d   1       9.832   7.134 -10.496  0.00  0.00     0.108 A 
ATOM     24  O   UNL d   1       9.855   5.919 -12.908  0.00  0.00    -0.200 OA
ATOM     25  O   UNL d   1       7.914   7.476 -12.424  0.00  0.00    -0.200 OA
ATOM     26  C   UNL d   1       9.589   6.292  -9.404  0.00  0.00     0.069 A 
ATOM     27  C   UNL d   1      10.704   8.221 -10.385  0.00  0.00     0.013 A 
ATOM     28  C   UNL d   1       8.645   5.188  -9.699  0.00  0.00     0.271 A 
ATOM     29  C   UNL d   1      10.218   6.529  -8.160  0.00  0.00     0.005 A 
ATOM     30  O   UNL d   1       8.299   4.335  -8.868  0.00  0.00    -0.266 OA
ATOM     31  C   UNL d   1      11.118   7.613  -8.040  0.00  0.00     0.000 A 
ATOM     32  C   UNL d   1      11.369   8.444  -9.159  0.00  0.00     0.001 A 
ENDBRANCH  20  21
ENDBRANCH  19  20
ENDBRANCH  18  19
ENDBRANCH  17  18
ENDBRANCH   1  17
TORSDOF 9
