REMARK  7 active torsions:
REMARK  status: ('A' for Active; 'I' for Inactive)
REMARK       I    between atoms: C_2  and  N_3 
REMARK    1  A    between atoms: C_2  and  C_27 
REMARK    2  A    between atoms: N_3  and  C_4 
REMARK    3  A    between atoms: C_7  and  C_8 
REMARK    4  A    between atoms: C_8  and  C_9 
REMARK    5  A    between atoms: C_9  and  N_10 
REMARK    6  A    between atoms: N_13  and  C_14 
REMARK    7  A    between atoms: C_30  and  N_31 
ROOT
ATOM      1  C   UNL d   1       9.405   3.452 -13.254  0.00  0.00     0.107 C 
ATOM      2  C   UNL d   1       8.103   3.357 -14.065  0.00  0.00     0.024 C 
ATOM      3  C   UNL d   1       8.279   2.502 -15.306  0.00  0.00     0.002 C 
ATOM      4  C   UNL d   1       9.431   3.025 -16.203  0.00  0.00     0.002 C 
ATOM      5  C   UNL d   1      10.746   3.074 -15.396  0.00  0.00     0.002 C 
ATOM      6  C   UNL d   1      10.602   3.914 -14.120  0.00  0.00     0.024 C 
ENDROOT
BRANCH   4   7
ATOM      7  C   UNL d   1       9.595   2.156 -17.461  0.00  0.00     0.035 C 
BRANCH   7   8
ATOM      8  C   UNL d   1       8.317   2.082 -18.320  0.00  0.00     0.250 C 
BRANCH   8   9
ATOM      9  N   UNL d   1       7.704   0.765 -18.216  0.00  0.00     0.141 N 
ATOM     10  C   UNL d   1       8.401  -0.186 -19.096  0.00  0.00     0.274 C 
ATOM     11  C   UNL d   1       7.781  -1.591 -18.992  0.00  0.00     0.138 C 
ATOM     12  N   UNL d   1       6.348  -1.526 -19.239  0.00  0.00    -0.330 N 
ATOM     13  C   UNL d   1       5.617  -0.528 -18.473  0.00  0.00     0.138 C 
ATOM     14  C   UNL d   1       6.296   0.849 -18.614  0.00  0.00     0.274 C 
BRANCH  12  15
ATOM     15  C   UNL d   1       5.719  -2.340 -20.176  0.00  0.00     0.138 A 
ATOM     16  C   UNL d   1       4.485  -2.994 -19.914  0.00  0.00     0.036 A 
ATOM     17  C   UNL d   1       3.904  -3.805 -20.862  0.00  0.00     0.095 A 
ATOM     18  C   UNL d   1       3.653  -3.002 -18.677  0.00  0.00     0.064 C 
ATOM     19  C   UNL d   1       4.519  -3.973 -22.112  0.00  0.00     0.045 A 
ATOM     20  O   UNL d   1       2.752  -4.397 -20.429  0.00  0.00    -0.331 OA
ATOM     21  C   UNL d   1       5.741  -3.295 -22.312  0.00  0.00     0.103 A 
ATOM     22  N   UNL d   1       6.333  -2.522 -21.376  0.00  0.00    -0.228 NA
ATOM     23  C   UNL d   1       2.585  -4.059 -19.038  0.00  0.00     0.154 C 
ENDBRANCH  12  15
ENDBRANCH   8   9
ENDBRANCH   7   8
ENDBRANCH   4   7
BRANCH   1  24
ATOM     24  N   UNL d   1       9.276   4.278 -12.052  0.00  0.00    -0.236 NA
ATOM     25  C   UNL d   1       8.972   5.585 -12.011  0.00  0.00     0.275 C 
ATOM     26  O   UNL d   1       8.517   6.218 -12.964  0.00  0.00    -0.266 OA
BRANCH  25  27
ATOM     27  C   UNL d   1       9.443   6.311 -10.792  0.00  0.00     0.058 A 
ATOM     28  C   UNL d   1       9.421   5.700  -9.518  0.00  0.00     0.006 A 
ATOM     29  C   UNL d   1       9.845   6.431  -8.391  0.00  0.00     0.018 A 
ATOM     30  C   UNL d   1      10.268   7.770  -8.538  0.00  0.00     0.064 A 
ATOM     31  C   UNL d   1      10.284   8.387  -9.803  0.00  0.00     0.018 A 
ATOM     32  C   UNL d   1       9.851   7.657 -10.918  0.00  0.00     0.006 A 
BRANCH  30  33
ATOM     33  N   UNL d   1      10.667   8.504  -7.416  0.00  0.00    -0.304 N 
ATOM     34  C   UNL d   1      11.860   9.178  -7.282  0.00  0.00     0.080 A 
ATOM     35  C   UNL d   1      11.888   9.760  -6.048  0.00  0.00     0.021 A 
ATOM     36  C   UNL d   1      10.658   9.432  -5.402  0.00  0.00     0.021 A 
ATOM     37  C   UNL d   1       9.933   8.661  -6.264  0.00  0.00     0.080 A 
ENDBRANCH  30  33
ENDBRANCH  25  27
ENDBRANCH   1  24
TORSDOF 7
