REMARK  6 active torsions:
REMARK  status: ('A' for Active; 'I' for Inactive)
REMARK    1  A    between atoms: C_2  and  N_3 
REMARK    2  A    between atoms: C_7  and  C_8 
REMARK    3  A    between atoms: C_8  and  N_9 
REMARK       I    between atoms: N_9  and  C_10 
REMARK    4  A    between atoms: C_10  and  C_12 
REMARK    5  A    between atoms: C_13  and  O_14 
REMARK    6  A    between atoms: C_20  and  O_21 
ROOT
ATOM      1  C   UNL d   1       8.615   5.521 -12.660  0.00  0.00     0.102 A 
ATOM      2  C   UNL d   1       9.479   4.758 -13.484  0.00  0.00     0.101 A 
ATOM      3  C   UNL d   1       8.987   3.592 -14.120  0.00  0.00     0.024 A 
ATOM      4  C   UNL d   1       7.648   3.207 -13.966  0.00  0.00    -0.000 A 
ATOM      5  C   UNL d   1       6.789   3.974 -13.155  0.00  0.00     0.001 A 
ATOM      6  C   UNL d   1       5.360   3.515 -12.997  0.00  0.00     0.033 C 
ATOM      7  C   UNL d   1       7.260   5.138 -12.511  0.00  0.00     0.097 A 
ENDROOT
BRANCH   1   8
ATOM      8  C   UNL d   1       9.136   6.748 -11.970  0.00  0.00     0.279 C 
ATOM      9  N   UNL d   1       9.848   6.540 -10.850  0.00  0.00    -0.232 NA
ATOM     10  O   UNL d   1       8.954   7.866 -12.441  0.00  0.00    -0.265 OA
BRANCH   9  11
ATOM     11  C   UNL d   1      10.299   7.643 -10.002  0.00  0.00     0.162 C 
BRANCH  11  12
ATOM     12  C   UNL d   1      10.313   7.223  -8.518  0.00  0.00     0.243 C 
ATOM     13  N   UNL d   1      10.349   8.374  -7.606  0.00  0.00     0.137 N 
ATOM     14  C   UNL d   1       9.977   7.777  -6.331  0.00  0.00     0.250 C 
ATOM     15  C   UNL d   1       8.829   6.846  -6.648  0.00  0.00     0.037 C 
ATOM     16  C   UNL d   1       9.059   6.457  -8.091  0.00  0.00     0.037 C 
BRANCH  13  17
ATOM     17  C   UNL d   1      11.648   9.027  -7.556  0.00  0.00     0.250 C 
ATOM     18  C   UNL d   1      11.707  10.116  -6.461  0.00  0.00     0.037 C 
ENDBRANCH  13  17
ENDBRANCH  11  12
ENDBRANCH   9  11
ENDBRANCH   1   8
BRANCH   7  19
ATOM     19  O   UNL d   1       6.389   5.853 -11.728  0.00  0.00    -0.328 OA
ATOM     20  C   UNL d   1       5.803   6.978 -12.366  0.00  0.00     0.181 C 
ENDBRANCH   7  19
BRANCH   2  21
ATOM     21  O   UNL d   1      10.779   5.186 -13.639  0.00  0.00    -0.328 OA
ATOM     22  C   UNL d   1      11.657   4.430 -14.455  0.00  0.00     0.181 C 
ENDBRANCH   2  21
TORSDOF 6
