REMARK  7 active torsions:
REMARK  status: ('A' for Active; 'I' for Inactive)
REMARK    1  A    between atoms: C_5  and  C_6 
REMARK       I    between atoms: C_6  and  N_8 
REMARK    2  A    between atoms: N_8  and  C_9 
REMARK    3  A    between atoms: C_9  and  C_10 
REMARK    4  A    between atoms: C_10  and  C_11 
REMARK    5  A    between atoms: C_14  and  S_15 
REMARK    6  A    between atoms: S_15  and  N_18 
REMARK       I    between atoms: N_18  and  C_19 
REMARK       I    between atoms: C_19  and  N_21 
REMARK    7  A    between atoms: N_21  and  C_22 
ROOT
ATOM      1  C   UNL d   1       8.082   5.120 -10.874  0.00  0.00    -0.020 A 
ATOM      2  C   UNL d   1       8.283   5.267  -9.487  0.00  0.00    -0.004 A 
ATOM      3  C   UNL d   1       9.024   6.339  -9.007  0.00  0.00     0.013 A 
ATOM      4  C   UNL d   1       9.486   7.282  -9.924  0.00  0.00     0.105 A 
ATOM      5  C   UNL d   1       9.333   7.145 -11.316  0.00  0.00     0.013 A 
ATOM      6  C   UNL d   1       8.612   6.043 -11.791  0.00  0.00    -0.004 A 
ENDROOT
BRANCH   4   7
ATOM      7  S   UNL d   1      10.299   8.704  -9.312  0.00  0.00     0.289 S 
ATOM      8  O   UNL d   1      11.159   9.207 -10.354  0.00  0.00    -0.198 OA
ATOM      9  O   UNL d   1       9.293   9.513  -8.612  0.00  0.00    -0.198 OA
BRANCH   7  10
ATOM     10  N   UNL d   1      11.338   8.048  -8.157  0.00  0.00    -0.101 NA
ATOM     11  C   UNL d   1      11.185   8.287  -6.824  0.00  0.00     0.374 C 
ATOM     12  O   UNL d   1      10.145   7.939  -6.245  0.00  0.00    -0.242 OA
ATOM     13  N   UNL d   1      12.241   8.886  -6.290  0.00  0.00    -0.219 NA
BRANCH  13  14
ATOM     14  C   UNL d   1      12.503   9.090  -4.877  0.00  0.00     0.108 C 
ATOM     15  C   UNL d   1      11.422   9.987  -4.330  0.00  0.00     0.025 C 
ATOM     16  C   UNL d   1      11.734  10.146  -2.886  0.00  0.00     0.002 C 
ATOM     17  C   UNL d   1      11.776   8.868  -2.040  0.00  0.00     0.000 C 
ATOM     18  C   UNL d   1      12.826   7.944  -2.576  0.00  0.00     0.002 C 
ATOM     19  C   UNL d   1      12.580   7.769  -4.070  0.00  0.00     0.025 C 
ENDBRANCH  13  14
ENDBRANCH   7  10
ENDBRANCH   4   7
BRANCH   1  20
ATOM     20  C   UNL d   1       7.361   3.925 -11.393  0.00  0.00     0.053 C 
BRANCH  20  21
ATOM     21  C   UNL d   1       6.210   4.122 -12.386  0.00  0.00     0.134 C 
BRANCH  21  22
ATOM     22  N   UNL d   1       5.942   2.913 -13.180  0.00  0.00    -0.233 NA
ATOM     23  C   UNL d   1       6.770   2.360 -14.090  0.00  0.00     0.294 C 
ATOM     24  O   UNL d   1       7.885   2.807 -14.357  0.00  0.00    -0.264 OA
BRANCH  23  25
ATOM     25  C   UNL d   1       6.231   1.163 -14.825  0.00  0.00     0.158 A 
ATOM     26  N   UNL d   1       5.198   0.471 -14.276  0.00  0.00    -0.236 NA
ATOM     27  C   UNL d   1       4.658  -0.516 -15.024  0.00  0.00     0.114 A 
ATOM     28  C   UNL d   1       5.171  -0.846 -16.297  0.00  0.00     0.079 A 
ATOM     29  C   UNL d   1       4.567  -1.971 -17.109  0.00  0.00     0.054 C 
ATOM     30  N   UNL d   1       6.222  -0.187 -16.836  0.00  0.00    -0.245 NA
ATOM     31  C   UNL d   1       6.751   0.811 -16.095  0.00  0.00     0.122 A 
ENDBRANCH  23  25
ENDBRANCH  21  22
ENDBRANCH  20  21
ENDBRANCH   1  20
TORSDOF 7
