REMARK  9 active torsions:
REMARK  status: ('A' for Active; 'I' for Inactive)
REMARK    1  A    between atoms: O_2  and  C_3 
REMARK    2  A    between atoms: C_8  and  C_9 
REMARK    3  A    between atoms: C_11  and  C_12 
REMARK    4  A    between atoms: C_12  and  N_13 
REMARK    5  A    between atoms: N_13  and  C_14 
REMARK    6  A    between atoms: C_14  and  C_15 
REMARK    7  A    between atoms: C_16  and  C_17 
REMARK    8  A    between atoms: C_17  and  O_18 
REMARK    9  A    between atoms: O_18  and  C_19 
ROOT
ATOM      1  C   UNL d   1       8.809   5.992 -11.518  0.00  0.00     0.009 C 
ATOM      2  C   UNL d   1       9.726   6.425 -10.645  0.00  0.00     0.004 C 
ENDROOT
BRANCH   1   3
ATOM      3  C   UNL d   1       9.156   5.462 -12.880  0.00  0.00     0.316 C 
BRANCH   3   4
ATOM      4  N   UNL d   1       8.542   4.167 -13.083  0.00  0.00     0.344 N 
BRANCH   4   5
ATOM      5  C   UNL d   1       9.196   3.516 -14.196  0.00  0.00     0.291 C 
BRANCH   5   6
ATOM      6  C   UNL d   1       8.244   2.600 -14.937  0.00  0.00     0.041 A 
ATOM      7  C   UNL d   1       8.640   2.116 -16.323  0.00  0.00     0.026 A 
ATOM      8  C   UNL d   1       8.561   1.140 -15.167  0.00  0.00     0.007 A 
BRANCH   7   9
ATOM      9  C   UNL d   1       9.939   2.524 -16.948  0.00  0.00    -0.000 A 
ATOM     10  C   UNL d   1      10.133   3.831 -17.467  0.00  0.00     0.090 A 
ATOM     11  C   UNL d   1      11.411   4.203 -17.951  0.00  0.00     0.024 A 
ATOM     12  C   UNL d   1      12.472   3.279 -17.938  0.00  0.00     0.002 A 
ATOM     13  C   UNL d   1      12.261   1.975 -17.452  0.00  0.00    -0.000 A 
ATOM     14  C   UNL d   1      11.004   1.602 -16.964  0.00  0.00    -0.002 A 
BRANCH  10  15
ATOM     15  O   UNL d   1       9.064   4.701 -17.436  0.00  0.00    -0.328 OA
ATOM     16  C   UNL d   1       9.173   5.939 -18.122  0.00  0.00     0.181 C 
ENDBRANCH  10  15
ENDBRANCH   7   9
ENDBRANCH   5   6
ENDBRANCH   4   5
ENDBRANCH   3   4
ENDBRANCH   1   3
BRANCH   2  17
ATOM     17  C   UNL d   1       9.394   6.973  -9.290  0.00  0.00     0.175 C 
BRANCH  17  18
ATOM     18  O   UNL d   1      10.406   6.602  -8.357  0.00  0.00    -0.326 OA
BRANCH  18  19
ATOM     19  C   UNL d   1      10.655   7.417  -7.282  0.00  0.00     0.096 A 
ATOM     20  C   UNL d   1      11.167   6.803  -6.120  0.00  0.00     0.043 A 
ATOM     21  C   UNL d   1      11.446   7.572  -4.977  0.00  0.00     0.087 A 
ATOM     22  C   UNL d   1      11.275   8.968  -4.995  0.00  0.00     0.018 A 
ATOM     23  N   UNL d   1      11.927   6.963  -3.794  0.00  0.00    -0.208 NA
ATOM     24  C   UNL d   1      10.812   9.592  -6.158  0.00  0.00     0.004 A 
ATOM     25  C   UNL d   1      11.588   9.706  -3.772  0.00  0.00     0.006 A 
ATOM     26  C   UNL d   1      10.502   8.826  -7.293  0.00  0.00     0.024 A 
ATOM     27  C   UNL d   1      12.045   9.070  -2.682  0.00  0.00     0.063 A 
ATOM     28  C   UNL d   1      12.237   7.621  -2.669  0.00  0.00     0.279 A 
ATOM     29  O   UNL d   1      12.642   6.994  -1.691  0.00  0.00    -0.265 OA
ENDBRANCH  18  19
ENDBRANCH  17  18
ENDBRANCH   2  17
TORSDOF 9
