REMARK  2 active torsions:
REMARK  status: ('A' for Active; 'I' for Inactive)
REMARK    1  A    between atoms: C_2  and  N_3 
REMARK    2  A    between atoms: C_7  and  C_8 
ROOT
ATOM      1  C   UNL d   1      10.789   8.532  -6.213  0.00  0.00     0.038 A 
ATOM      2  C   UNL d   1      10.608   9.873  -6.253  0.00  0.00     0.100 A 
ATOM      3  N   UNL d   1      11.060  10.524  -5.142  0.00  0.00    -0.244 NA
ATOM      4  C   UNL d   1      11.475   9.589  -4.236  0.00  0.00     0.082 A 
ATOM      5  C   UNL d   1      11.929   9.723  -2.937  0.00  0.00     0.019 A 
ATOM      6  C   UNL d   1      12.281   8.566  -2.216  0.00  0.00    -0.003 A 
ATOM      7  C   UNL d   1      12.133   7.301  -2.817  0.00  0.00    -0.022 A 
ATOM      8  C   UNL d   1      12.436   6.063  -2.099  0.00  0.00     0.031 C 
ATOM      9  C   UNL d   1      11.664   7.183  -4.130  0.00  0.00    -0.003 A 
ATOM     10  C   UNL d   1      11.326   8.319  -4.888  0.00  0.00     0.020 A 
ENDROOT
BRANCH   1  11
ATOM     11  C   UNL d   1      10.428   7.578  -7.266  0.00  0.00     0.082 A 
ATOM     12  N   UNL d   1      10.044   7.861  -8.604  0.00  0.00    -0.309 N 
ATOM     13  C   UNL d   1       9.858   6.666  -9.177  0.00  0.00     0.179 A 
ATOM     14  N   UNL d   1      10.043   5.627  -8.390  0.00  0.00    -0.223 NA
ATOM     15  C   UNL d   1      10.405   6.218  -7.191  0.00  0.00     0.118 A 
BRANCH  12  16
ATOM     16  C   UNL d   1       9.861   9.102  -9.312  0.00  0.00     0.108 C 
ATOM     17  C   UNL d   1      11.171   9.887  -9.396  0.00  0.00     0.027 C 
ENDBRANCH  12  16
ENDBRANCH   1  11
TORSDOF 2
