REMARK  4 active torsions:
REMARK  status: ('A' for Active; 'I' for Inactive)
REMARK    1  A    between atoms: C_2  and  N_3 
REMARK    2  A    between atoms: C_17  and  C_18 
REMARK       I    between atoms: C_18  and  N_20 
REMARK    3  A    between atoms: N_20  and  C_21 
REMARK    4  A    between atoms: C_21  and  C_22 
ROOT
ATOM      1  N   UNL d   1       7.287   0.335 -15.301  0.00  0.00    -0.295 N 
ATOM      2  C   UNL d   1       6.519  -0.114 -16.335  0.00  0.00     0.261 C 
ATOM      3  O   UNL d   1       5.515  -0.812 -16.160  0.00  0.00    -0.267 OA
ATOM      4  C   UNL d   1       6.799   0.323 -17.744  0.00  0.00     0.065 A 
ATOM      5  C   UNL d   1       5.707   0.761 -18.525  0.00  0.00     0.005 A 
ATOM      6  C   UNL d   1       5.885   1.115 -19.873  0.00  0.00     0.000 A 
ATOM      7  C   UNL d   1       7.159   1.023 -20.456  0.00  0.00     0.001 A 
ATOM      8  C   UNL d   1       8.253   0.565 -19.699  0.00  0.00     0.009 A 
ATOM      9  C   UNL d   1       8.072   0.206 -18.350  0.00  0.00     0.065 A 
ATOM     10  S   UNL d   1       9.502  -0.408 -17.412  0.00  0.00     0.090 S 
ATOM     11  O   UNL d   1      10.721  -0.238 -18.316  0.00  0.00    -0.247 OA
ATOM     12  C   UNL d   1       9.498   1.016 -16.289  0.00  0.00     0.076 A 
ATOM     13  C   UNL d   1      10.602   1.899 -16.311  0.00  0.00     0.011 A 
ATOM     14  C   UNL d   1      10.642   3.000 -15.436  0.00  0.00     0.005 A 
ATOM     15  C   UNL d   1       9.577   3.225 -14.541  0.00  0.00     0.059 A 
ATOM     16  C   UNL d   1       8.490   2.329 -14.524  0.00  0.00     0.023 A 
ATOM     17  C   UNL d   1       8.411   1.228 -15.407  0.00  0.00     0.071 A 
ENDROOT
BRANCH  15  18
ATOM     18  C   UNL d   1       9.599   4.385 -13.587  0.00  0.00     0.275 C 
ATOM     19  O   UNL d   1      10.664   4.907 -13.260  0.00  0.00    -0.266 OA
ATOM     20  N   UNL d   1       8.400   4.844 -13.193  0.00  0.00    -0.229 NA
BRANCH  20  21
ATOM     21  C   UNL d   1       8.174   6.101 -12.492  0.00  0.00     0.155 C 
BRANCH  21  22
ATOM     22  C   UNL d   1       8.837   6.165 -11.130  0.00  0.00     0.002 A 
ATOM     23  C   UNL d   1       9.728   7.218 -10.833  0.00  0.00    -0.000 A 
ATOM     24  C   UNL d   1      10.333   7.294  -9.563  0.00  0.00     0.029 A 
ATOM     25  C   UNL d   1      10.048   6.319  -8.587  0.00  0.00     0.140 A 
ATOM     26  C   UNL d   1       9.163   5.264  -8.884  0.00  0.00     0.029 A 
ATOM     27  F   UNL d   1      10.636   6.390  -7.371  0.00  0.00    -0.204 F 
ATOM     28  C   UNL d   1       8.559   5.190 -10.152  0.00  0.00    -0.000 A 
ENDBRANCH  21  22
ENDBRANCH  20  21
ENDBRANCH  15  18
BRANCH   1  29
ATOM     29  C   UNL d   1       6.793   0.051 -13.942  0.00  0.00     0.109 C 
ATOM     30  C   UNL d   1       5.572   0.924 -13.561  0.00  0.00     0.027 C 
ENDBRANCH   1  29
TORSDOF 4
