REMARK  4 active torsions:
REMARK  status: ('A' for Active; 'I' for Inactive)
REMARK    1  A    between atoms: C_13  and  C_14 
REMARK    2  A    between atoms: C_17  and  C_18 
REMARK    3  A    between atoms: C_18  and  N_19 
REMARK    4  A    between atoms: N_19  and  C_20 
ROOT
ATOM      1  C   UNL d   1       4.954   3.457 -13.002  0.00  0.00     0.285 C 
ATOM      2  N   UNL d   1       6.371   3.191 -13.097  0.00  0.00     0.140 N 
ATOM      3  C   UNL d   1       6.670   2.636 -14.403  0.00  0.00     0.255 C 
ATOM      4  C   UNL d   1       8.105   2.084 -14.532  0.00  0.00     0.061 C 
ATOM      5  C   UNL d   1       9.158   3.151 -14.771  0.00  0.00    -0.023 A 
ATOM      6  C   UNL d   1       9.897   3.120 -15.986  0.00  0.00     0.009 A 
ATOM      7  C   UNL d   1      10.881   4.090 -16.256  0.00  0.00     0.083 A 
ATOM      8 CL   UNL d   1      11.761   4.070 -17.747  0.00  0.00    -0.080 Cl
ATOM      9  C   UNL d   1      11.138   5.084 -15.299  0.00  0.00     0.141 A 
ATOM     10  O   UNL d   1      12.049   6.071 -15.533  0.00  0.00    -0.189 OA
ATOM     11  C   UNL d   1      10.417   5.091 -14.091  0.00  0.00     0.024 A 
ATOM     12  C   UNL d   1       9.405   4.164 -13.801  0.00  0.00    -0.018 A 
ATOM     13  C   UNL d   1       8.610   4.224 -12.483  0.00  0.00     0.078 C 
ATOM     14  C   UNL d   1       7.092   4.399 -12.691  0.00  0.00     0.259 C 
ENDROOT
BRANCH  13  15
ATOM     15  C   UNL d   1       9.055   5.260 -11.437  0.00  0.00    -0.017 C 
ATOM     16  C   UNL d   1       9.012   6.640 -11.720  0.00  0.00    -0.004 C 
ATOM     17  C   UNL d   1       9.588   7.552 -10.787  0.00  0.00    -0.003 C 
ATOM     18  C   UNL d   1       9.982   7.113  -9.510  0.00  0.00     0.002 C 
ATOM     19  C   UNL d   1       9.860   5.751  -9.176  0.00  0.00    -0.003 C 
ATOM     20  C   UNL d   1       9.434   4.832 -10.153  0.00  0.00    -0.004 C 
BRANCH  18  21
ATOM     21  C   UNL d   1      10.528   8.137  -8.524  0.00  0.00     0.152 C 
BRANCH  21  22
ATOM     22  N   UNL d   1      11.069   7.562  -7.303  0.00  0.00    -0.266 NA
BRANCH  22  23
ATOM     23  C   UNL d   1      11.157   8.289  -6.110  0.00  0.00     0.076 A 
ATOM     24  C   UNL d   1      11.523   7.606  -4.929  0.00  0.00     0.019 A 
ATOM     25  C   UNL d   1      11.726   8.311  -3.730  0.00  0.00     0.002 A 
ATOM     26  C   UNL d   1      11.463   9.696  -3.684  0.00  0.00     0.000 A 
ATOM     27  C   UNL d   1      11.059  10.371  -4.851  0.00  0.00     0.002 A 
ATOM     28  C   UNL d   1      10.917   9.677  -6.059  0.00  0.00     0.019 A 
ENDBRANCH  22  23
ENDBRANCH  21  22
ENDBRANCH  18  21
ENDBRANCH  13  15
TORSDOF 4
