REMARK  6 active torsions:
REMARK  status: ('A' for Active; 'I' for Inactive)
REMARK    1  A    between atoms: C_4  and  N_5 
REMARK    2  A    between atoms: N_5  and  C_6 
REMARK    3  A    between atoms: C_9  and  C_10 
REMARK    4  A    between atoms: C_10  and  C_11 
REMARK    5  A    between atoms: C_11  and  N_12 
REMARK    6  A    between atoms: N_15  and  C_16 
ROOT
ATOM      1  C   UNL d   1       8.696   4.784 -10.624  0.00  0.00     0.035 C 
ENDROOT
BRANCH   1   2
ATOM      2  C   UNL d   1       8.936   5.984  -9.691  0.00  0.00     0.002 C 
ATOM      3  C   UNL d   1       8.610   5.636  -8.228  0.00  0.00     0.002 C 
ATOM      4  C   UNL d   1       8.907   6.801  -7.269  0.00  0.00     0.025 C 
ATOM      5  C   UNL d   1      10.355   7.280  -7.391  0.00  0.00     0.122 C 
ATOM      6  C   UNL d   1      10.670   7.660  -8.841  0.00  0.00     0.025 C 
ATOM      7  C   UNL d   1      10.379   6.501  -9.790  0.00  0.00     0.002 C 
BRANCH   5   8
ATOM      8  N   UNL d   1      10.597   8.421  -6.517  0.00  0.00    -0.088 NA
BRANCH   8   9
ATOM      9  C   UNL d   1      11.127   8.356  -5.249  0.00  0.00     0.746 A 
ATOM     10  N   UNL d   1      11.259   9.527  -4.625  0.00  0.00    -0.058 NA
ATOM     11  C   UNL d   1      11.807   9.503  -3.391  0.00  0.00     0.120 A 
ATOM     12  C   UNL d   1      12.200   8.300  -2.779  0.00  0.00     0.043 A 
ATOM     13  C   UNL d   1      11.994   7.127  -3.527  0.00  0.00     0.120 A 
ATOM     14  N   UNL d   1      11.462   7.160  -4.764  0.00  0.00    -0.058 NA
ENDBRANCH   8   9
ENDBRANCH   5   8
ENDBRANCH   1   2
BRANCH   1  15
ATOM     15  C   UNL d   1       8.698   5.153 -12.117  0.00  0.00     0.250 C 
BRANCH  15  16
ATOM     16  N   UNL d   1       8.865   3.953 -12.928  0.00  0.00     0.141 N 
ATOM     17  C   UNL d   1       9.768   4.199 -14.057  0.00  0.00     0.275 C 
ATOM     18  C   UNL d   1       9.966   2.917 -14.886  0.00  0.00     0.155 C 
ATOM     19  N   UNL d   1       8.679   2.411 -15.362  0.00  0.00    -0.179 N 
ATOM     20  C   UNL d   1       7.713   2.228 -14.279  0.00  0.00     0.155 C 
ATOM     21  C   UNL d   1       7.567   3.527 -13.455  0.00  0.00     0.275 C 
BRANCH  19  22
ATOM     22  C   UNL d   1       8.406   2.116 -16.697  0.00  0.00     0.727 A 
ATOM     23  N   UNL d   1       9.280   2.553 -17.609  0.00  0.00    -0.060 NA
ATOM     24  C   UNL d   1       9.023   2.290 -18.903  0.00  0.00     0.120 A 
ATOM     25  C   UNL d   1       7.867   1.589 -19.299  0.00  0.00     0.043 A 
ATOM     26  C   UNL d   1       7.016   1.163 -18.262  0.00  0.00     0.120 A 
ATOM     27  N   UNL d   1       7.282   1.447 -16.973  0.00  0.00    -0.060 NA
ENDBRANCH  19  22
ENDBRANCH  15  16
ENDBRANCH   1  15
TORSDOF 6
