REMARK  10 active torsions:
REMARK  status: ('A' for Active; 'I' for Inactive)
REMARK       I    between atoms: C_2  and  N_3 
REMARK    1  A    between atoms: C_2  and  C_26 
REMARK    2  A    between atoms: N_3  and  C_4 
REMARK    3  A    between atoms: C_4  and  C_5 
REMARK    4  A    between atoms: C_5  and  C_6 
REMARK    5  A    between atoms: C_6  and  C_7 
REMARK    6  A    between atoms: C_7  and  N_8 
REMARK    7  A    between atoms: C_14  and  O_15 
REMARK    8  A    between atoms: O_15  and  S_16 
REMARK    9  A    between atoms: S_16  and  C_19 
REMARK   10  A    between atoms: C_30  and  C_31 
ROOT
ATOM      1  C   UNL d   1       9.406   3.107 -14.283  0.00  0.00     0.251 C 
ENDROOT
BRANCH   1   2
ATOM      2  C   UNL d   1       8.346   3.837 -13.437  0.00  0.00     0.037 C 
BRANCH   2   3
ATOM      3  C   UNL d   1       8.944   4.477 -12.172  0.00  0.00     0.029 C 
BRANCH   3   4
ATOM      4  C   UNL d   1       7.866   4.998 -11.196  0.00  0.00     0.129 C 
BRANCH   4   5
ATOM      5  N   UNL d   1       8.421   5.983 -10.283  0.00  0.00    -0.234 NA
ATOM      6  C   UNL d   1       9.270   5.733  -9.284  0.00  0.00     0.275 C 
ATOM      7  O   UNL d   1       9.502   4.597  -8.864  0.00  0.00    -0.266 OA
BRANCH   6   8
ATOM      8  C   UNL d   1       9.948   6.934  -8.694  0.00  0.00     0.058 A 
ATOM      9  C   UNL d   1      10.295   6.948  -7.327  0.00  0.00     0.005 A 
ATOM     10  C   UNL d   1      10.990   8.038  -6.747  0.00  0.00     0.000 A 
ATOM     11  C   UNL d   1      11.338   9.120  -7.588  0.00  0.00     0.000 A 
ATOM     12  C   UNL d   1      11.010   9.116  -8.956  0.00  0.00     0.000 A 
ATOM     13  C   UNL d   1      10.317   8.027  -9.510  0.00  0.00     0.005 A 
BRANCH  10  14
ATOM     14  C   UNL d   1      11.346   8.040  -5.307  0.00  0.00     0.000 A 
ATOM     15  C   UNL d   1      11.524   6.830  -4.595  0.00  0.00     0.000 A 
ATOM     16  C   UNL d   1      11.863   6.821  -3.230  0.00  0.00     0.000 A 
ATOM     17  C   UNL d   1      12.041   8.034  -2.544  0.00  0.00     0.000 A 
ATOM     18  C   UNL d   1      11.869   9.248  -3.230  0.00  0.00     0.000 A 
ATOM     19  C   UNL d   1      11.524   9.252  -4.594  0.00  0.00     0.000 A 
ENDBRANCH  10  14
ENDBRANCH   6   8
ENDBRANCH   4   5
ENDBRANCH   3   4
ENDBRANCH   2   3
ENDBRANCH   1   2
BRANCH   1  20
ATOM     20  N   UNL d   1       8.872   2.790 -15.606  0.00  0.00     0.142 N 
ATOM     21  C   UNL d   1       8.372   1.416 -15.658  0.00  0.00     0.277 C 
ATOM     22  C   UNL d   1       7.920   0.974 -17.044  0.00  0.00     0.009 A 
ATOM     23  C   UNL d   1       8.347   1.666 -18.198  0.00  0.00    -0.022 A 
ATOM     24  C   UNL d   1       7.122  -0.170 -17.184  0.00  0.00     0.023 A 
ATOM     25  C   UNL d   1       9.250   2.875 -18.038  0.00  0.00     0.061 C 
ATOM     26  C   UNL d   1       7.933   1.235 -19.477  0.00  0.00    -0.002 A 
ATOM     27  C   UNL d   1       9.895   2.955 -16.638  0.00  0.00     0.255 C 
ATOM     28  C   UNL d   1       7.076   0.123 -19.601  0.00  0.00     0.025 A 
ATOM     29  C   UNL d   1       6.647  -0.571 -18.448  0.00  0.00     0.113 A 
BRANCH  29  30
ATOM     30  O   UNL d   1       5.791  -1.636 -18.554  0.00  0.00    -0.224 OA
BRANCH  30  31
ATOM     31  S   UNL d   1       4.135  -1.323 -18.369  0.00  0.00     0.374 S 
ATOM     32  O   UNL d   1       3.866  -0.014 -18.987  0.00  0.00    -0.189 OA
ATOM     33  O   UNL d   1       3.424  -2.518 -18.846  0.00  0.00    -0.189 OA
BRANCH  31  34
ATOM     34  C   UNL d   1       4.001  -1.212 -16.516  0.00  0.00     0.524 C 
ATOM     35  F   UNL d   1       4.676  -2.225 -15.982  0.00  0.00    -0.155 F 
ATOM     36  F   UNL d   1       4.478  -0.053 -16.070  0.00  0.00    -0.155 F 
ATOM     37  F   UNL d   1       2.718  -1.312 -16.167  0.00  0.00    -0.155 F 
ENDBRANCH  31  34
ENDBRANCH  30  31
ENDBRANCH  29  30
ENDBRANCH   1  20
TORSDOF 10
