REMARK  5 active torsions:
REMARK  status: ('A' for Active; 'I' for Inactive)
REMARK    1  A    between atoms: N_11  and  C_12 
REMARK    2  A    between atoms: C_12  and  C_13 
REMARK    3  A    between atoms: C_13  and  C_14 
REMARK    4  A    between atoms: C_17  and  N_18 
REMARK       I    between atoms: N_18  and  C_19 
REMARK    5  A    between atoms: C_19  and  C_21 
ROOT
ATOM      1  N   UNL d   1      11.848  11.134  -6.036  0.00  0.00    -0.191 NA
ATOM      2  C   UNL d   1      11.609  10.230  -6.646  0.00  0.00     0.101 C 
ATOM      3  C   UNL d   1      11.292   9.118  -7.489  0.00  0.00     0.068 C 
ATOM      4  C   UNL d   1      12.149   8.776  -8.568  0.00  0.00     0.010 C 
ATOM      5  C   UNL d   1      11.769   7.848  -9.531  0.00  0.00    -0.002 C 
ATOM      6  C   UNL d   1      10.589   7.147  -9.277  0.00  0.00     0.007 C 
ATOM      7  C   UNL d   1       9.819   7.348  -8.114  0.00  0.00    -0.022 C 
ATOM      8  C   UNL d   1      10.154   8.352  -7.217  0.00  0.00     0.006 C 
ATOM      9  C   UNL d   1       8.669   6.447  -7.846  0.00  0.00     0.061 C 
ATOM     10  C   UNL d   1       8.666   5.200  -8.704  0.00  0.00     0.255 C 
ATOM     11  N   UNL d   1       8.887   5.614 -10.098  0.00  0.00     0.142 N 
ATOM     12  C   UNL d   1      10.261   6.036 -10.162  0.00  0.00     0.276 C 
ENDROOT
BRANCH  11  13
ATOM     13  C   UNL d   1       8.809   4.433 -10.941  0.00  0.00     0.251 C 
BRANCH  13  14
ATOM     14  C   UNL d   1       8.816   4.675 -12.459  0.00  0.00     0.035 C 
BRANCH  14  15
ATOM     15  C   UNL d   1       8.494   3.411 -13.304  0.00  0.00     0.002 C 
ATOM     16  C   UNL d   1       8.980   3.565 -14.755  0.00  0.00     0.002 C 
ATOM     17  C   UNL d   1       8.626   2.342 -15.623  0.00  0.00     0.024 C 
ATOM     18  C   UNL d   1       7.118   2.006 -15.601  0.00  0.00     0.107 C 
ATOM     19  C   UNL d   1       6.603   1.867 -14.157  0.00  0.00     0.024 C 
ATOM     20  C   UNL d   1       6.963   3.110 -13.310  0.00  0.00     0.002 C 
BRANCH  18  21
ATOM     21  N   UNL d   1       6.843   0.800 -16.370  0.00  0.00    -0.236 NA
ATOM     22  C   UNL d   1       6.811   0.781 -17.715  0.00  0.00     0.275 C 
ATOM     23  O   UNL d   1       7.165   1.720 -18.427  0.00  0.00    -0.266 OA
BRANCH  22  24
ATOM     24  C   UNL d   1       6.274  -0.486 -18.305  0.00  0.00     0.058 A 
ATOM     25  C   UNL d   1       6.902  -1.143 -19.404  0.00  0.00     0.005 A 
ATOM     26  C   UNL d   1       6.303  -2.326 -19.919  0.00  0.00     0.000 A 
ATOM     27  C   UNL d   1       8.106  -0.683 -20.000  0.00  0.00     0.000 A 
ATOM     28  C   UNL d   1       5.122  -2.840 -19.347  0.00  0.00     0.000 A 
ATOM     29  C   UNL d   1       6.887  -3.004 -21.009  0.00  0.00     0.000 A 
ATOM     30  C   UNL d   1       4.517  -2.191 -18.259  0.00  0.00     0.000 A 
ATOM     31  C   UNL d   1       5.090  -1.017 -17.749  0.00  0.00     0.005 A 
ATOM     32  C   UNL d   1       8.070  -2.522 -21.597  0.00  0.00     0.000 A 
ATOM     33  C   UNL d   1       8.680  -1.363 -21.090  0.00  0.00     0.000 A 
ENDBRANCH  22  24
ENDBRANCH  18  21
ENDBRANCH  14  15
ENDBRANCH  13  14
ENDBRANCH  11  13
TORSDOF 5
