REMARK  9 active torsions:
REMARK  status: ('A' for Active; 'I' for Inactive)
REMARK    1  A    between atoms: O_2  and  C_3 
REMARK    2  A    between atoms: C_8  and  N_9 
REMARK    3  A    between atoms: N_12  and  C_13 
REMARK    4  A    between atoms: C_13  and  C_14 
REMARK    5  A    between atoms: C_14  and  C_15 
REMARK    6  A    between atoms: C_15  and  C_16 
REMARK    7  A    between atoms: C_16  and  C_17 
REMARK    8  A    between atoms: C_19  and  C_20 
REMARK    9  A    between atoms: C_24  and  N_25 
ROOT
ATOM      1  C   UNL d   1       9.048   3.891 -13.491  0.00  0.00     0.036 C 
ENDROOT
BRANCH   1   2
ATOM      2  C   UNL d   1       9.386   4.911 -14.588  0.00  0.00     0.250 C 
BRANCH   2   3
ATOM      3  N   UNL d   1      10.493   4.459 -15.428  0.00  0.00     0.141 N 
ATOM      4  C   UNL d   1      11.767   4.950 -14.887  0.00  0.00     0.274 C 
ATOM      5  C   UNL d   1      12.957   4.458 -15.724  0.00  0.00     0.137 C 
ATOM      6  N   UNL d   1      12.774   4.847 -17.115  0.00  0.00    -0.343 N 
ATOM      7  C   UNL d   1      11.487   4.462 -17.684  0.00  0.00     0.137 C 
ATOM      8  C   UNL d   1      10.338   4.981 -16.792  0.00  0.00     0.274 C 
BRANCH   6   9
ATOM      9  C   UNL d   1      13.736   5.614 -17.799  0.00  0.00     0.079 A 
ATOM     10  C   UNL d   1      13.371   6.705 -18.633  0.00  0.00     0.110 A 
ATOM     11  C   UNL d   1      14.387   7.408 -19.336  0.00  0.00     0.026 A 
ATOM     12  C   UNL d   1      15.741   7.060 -19.186  0.00  0.00     0.002 A 
ATOM     13  C   UNL d   1      16.101   6.003 -18.339  0.00  0.00     0.002 A 
ATOM     14  C   UNL d   1      15.104   5.279 -17.656  0.00  0.00     0.019 A 
BRANCH  10  15
ATOM     15  O   UNL d   1      12.039   7.058 -18.702  0.00  0.00    -0.327 OA
ATOM     16  C   UNL d   1      11.615   7.888 -19.770  0.00  0.00     0.181 C 
ENDBRANCH  10  15
ENDBRANCH   6   9
ENDBRANCH   2   3
ENDBRANCH   1   2
BRANCH   1  17
ATOM     17  C   UNL d   1       9.557   4.363 -12.126  0.00  0.00     0.009 C 
BRANCH  17  18
ATOM     18  C   UNL d   1       8.795   5.567 -11.540  0.00  0.00     0.054 C 
BRANCH  18  19
ATOM     19  C   UNL d   1       9.301   5.968 -10.198  0.00  0.00     0.104 A 
ATOM     20  O   UNL d   1       9.211   5.044  -9.212  0.00  0.00    -0.215 OA
ATOM     21  N   UNL d   1       9.705   5.619  -8.043  0.00  0.00    -0.127 NA
ATOM     22  C   UNL d   1      10.069   6.857  -8.338  0.00  0.00     0.110 A 
ATOM     23  C   UNL d   1       9.852   7.123  -9.720  0.00  0.00     0.044 A 
BRANCH  22  24
ATOM     24  C   UNL d   1      10.599   7.747  -7.298  0.00  0.00     0.022 A 
ATOM     25  C   UNL d   1      10.941   7.262  -6.011  0.00  0.00     0.025 A 
ATOM     26  C   UNL d   1      11.460   8.124  -5.021  0.00  0.00     0.127 A 
ATOM     27  C   UNL d   1      11.643   9.488  -5.330  0.00  0.00     0.024 A 
ATOM     28  C   UNL d   1      11.312   9.983  -6.600  0.00  0.00     0.002 A 
ATOM     29  C   UNL d   1      10.790   9.118  -7.579  0.00  0.00     0.002 A 
BRANCH  26  30
ATOM     30  N   UNL d   1      11.861   7.609  -3.697  0.00  0.00    -0.114 N 
ATOM     31  O   UNL d   1      12.169   8.421  -2.831  0.00  0.00    -0.532 OA
ATOM     32  O   UNL d   1      11.868   6.397  -3.522  0.00  0.00    -0.532 OA
ENDBRANCH  26  30
ENDBRANCH  22  24
ENDBRANCH  18  19
ENDBRANCH  17  18
ENDBRANCH   1  17
TORSDOF 9
