REMARK  7 active torsions:
REMARK  status: ('A' for Active; 'I' for Inactive)
REMARK    1  A    between atoms: C_2  and  C_3 
REMARK    2  A    between atoms: N_14  and  C_15 
REMARK    3  A    between atoms: C_15  and  C_16 
REMARK    4  A    between atoms: C_16  and  C_17 
REMARK    5  A    between atoms: C_17  and  S_18 
REMARK    6  A    between atoms: S_18  and  C_19 
REMARK    7  A    between atoms: C_22  and  C_23 
ROOT
ATOM      1  C   UNL d   1       8.851   5.674 -11.873  0.00  0.00     0.088 A 
ATOM      2  N   UNL d   1       7.641   5.107 -11.807  0.00  0.00    -0.243 NA
ATOM      3  C   UNL d   1       7.483   4.181 -12.830  0.00  0.00     0.087 A 
ATOM      4  C   UNL d   1       6.355   3.361 -13.051  0.00  0.00     0.019 A 
ATOM      5  C   UNL d   1       6.331   2.432 -14.107  0.00  0.00    -0.003 A 
ATOM      6  C   UNL d   1       7.417   2.340 -15.006  0.00  0.00    -0.024 A 
ATOM      7  C   UNL d   1       8.553   3.158 -14.820  0.00  0.00    -0.017 A 
ATOM      8  C   UNL d   1       8.582   4.054 -13.731  0.00  0.00     0.044 A 
ATOM      9  S   UNL d   1       9.863   5.159 -13.227  0.00  0.00    -0.071 SA
ATOM     10  C   UNL d   1       9.720   3.096 -15.797  0.00  0.00     0.062 C 
ATOM     11  C   UNL d   1      10.398   1.720 -15.867  0.00  0.00     0.255 C 
ATOM     12  N   UNL d   1       9.709   0.783 -16.756  0.00  0.00     0.138 N 
ATOM     13  C   UNL d   1       8.439   0.306 -16.199  0.00  0.00     0.255 C 
ATOM     14  C   UNL d   1       7.331   1.376 -16.181  0.00  0.00     0.061 C 
ENDROOT
BRANCH  12  15
ATOM     15  C   UNL d   1      10.579  -0.368 -17.008  0.00  0.00     0.251 C 
BRANCH  15  16
ATOM     16  C   UNL d   1      10.395  -0.923 -18.434  0.00  0.00     0.047 C 
BRANCH  16  17
ATOM     17  C   UNL d   1      11.331  -0.233 -19.437  0.00  0.00     0.067 C 
BRANCH  17  18
ATOM     18  S   UNL d   1      13.064  -0.772 -19.243  0.00  0.00    -0.075 SA
BRANCH  18  19
ATOM     19  C   UNL d   1      13.891   0.489 -20.167  0.00  0.00     0.193 A 
ATOM     20  N   UNL d   1      15.231   0.506 -20.371  0.00  0.00    -0.287 N 
ATOM     21  C   UNL d   1      15.387   1.628 -21.114  0.00  0.00     0.191 A 
ATOM     22  C   UNL d   1      16.243  -0.445 -19.929  0.00  0.00     0.134 C 
ATOM     23  N   UNL d   1      14.235   2.268 -21.335  0.00  0.00    -0.126 NA
ATOM     24  N   UNL d   1      13.259   1.520 -20.723  0.00  0.00    -0.122 NA
BRANCH  21  25
ATOM     25  C   UNL d   1      16.647   2.142 -21.658  0.00  0.00     0.151 A 
ATOM     26  C   UNL d   1      16.921   3.241 -22.440  0.00  0.00     0.087 A 
ATOM     27  N   UNL d   1      18.288   3.277 -22.683  0.00  0.00    -0.221 NA
ATOM     28  C   UNL d   1      15.996   4.288 -23.000  0.00  0.00     0.054 C 
ATOM     29  C   UNL d   1      18.767   2.211 -22.049  0.00  0.00     0.225 A 
ATOM     30  O   UNL d   1      17.817   1.477 -21.408  0.00  0.00    -0.282 OA
ENDBRANCH  21  25
ENDBRANCH  18  19
ENDBRANCH  17  18
ENDBRANCH  16  17
ENDBRANCH  15  16
ENDBRANCH  12  15
BRANCH   1  31
ATOM     31  C   UNL d   1       9.299   6.722 -10.912  0.00  0.00     0.053 C 
ATOM     32  C   UNL d   1       9.248   8.130 -11.518  0.00  0.00     0.007 C 
ENDBRANCH   1  31
TORSDOF 7
