REMARK  4 active torsions:
REMARK  status: ('A' for Active; 'I' for Inactive)
REMARK    1  A    between atoms: C_6  and  C_7 
REMARK    2  A    between atoms: C_11  and  C_12 
REMARK    3  A    between atoms: C_12  and  N_13 
REMARK    4  A    between atoms: N_16  and  C_17 
ROOT
ATOM      1  N   UNL d   1       8.849   3.886 -14.566  0.00  0.00    -0.191 NA
ATOM      2  C   UNL d   1       8.118   4.056 -13.680  0.00  0.00     0.111 C 
ATOM      3  C   UNL d   1       7.223   4.209 -12.588  0.00  0.00     0.138 C 
ATOM      4  C   UNL d   1       6.151   3.306 -12.401  0.00  0.00     0.111 C 
ATOM      5  N   UNL d   1       5.350   2.487 -12.231  0.00  0.00    -0.191 NA
ATOM      6  C   UNL d   1       7.390   5.192 -11.685  0.00  0.00     0.040 C 
ENDROOT
BRANCH   6   7
ATOM      7  C   UNL d   1       8.334   6.237 -11.640  0.00  0.00     0.081 A 
ATOM      8  C   UNL d   1       9.105   6.759 -10.632  0.00  0.00     0.030 A 
ATOM      9  C   UNL d   1       9.795   7.888 -11.149  0.00  0.00     0.020 A 
ATOM     10  C   UNL d   1       9.456   8.010 -12.446  0.00  0.00     0.099 A 
ATOM     11  N   UNL d   1       8.599   6.988 -12.753  0.00  0.00    -0.244 NA
BRANCH   8  12
ATOM     12  C   UNL d   1       9.147   6.275  -9.248  0.00  0.00     0.278 C 
BRANCH  12  13
ATOM     13  N   UNL d   1      10.209   6.948  -8.502  0.00  0.00     0.145 N 
ATOM     14  C   UNL d   1       9.726   8.171  -7.851  0.00  0.00     0.275 C 
ATOM     15  C   UNL d   1      10.865   8.821  -7.034  0.00  0.00     0.137 C 
ATOM     16  N   UNL d   1      11.429   7.832  -6.097  0.00  0.00    -0.344 N 
ATOM     17  C   UNL d   1      11.818   6.587  -6.747  0.00  0.00     0.137 C 
ATOM     18  C   UNL d   1      10.644   6.003  -7.508  0.00  0.00     0.275 C 
BRANCH  16  19
ATOM     19  C   UNL d   1      11.613   8.061  -4.737  0.00  0.00     0.056 A 
ATOM     20  C   UNL d   1      11.704   6.983  -3.820  0.00  0.00     0.017 A 
ATOM     21  C   UNL d   1      11.916   7.213  -2.439  0.00  0.00     0.002 A 
ATOM     22  C   UNL d   1      12.018   8.523  -1.978  0.00  0.00     0.000 A 
ATOM     23  C   UNL d   1      11.874   9.606  -2.848  0.00  0.00     0.002 A 
ATOM     24  C   UNL d   1      11.703   9.384  -4.237  0.00  0.00     0.017 A 
ENDBRANCH  16  19
ENDBRANCH  12  13
ENDBRANCH   8  12
ENDBRANCH   6   7
TORSDOF 4
