REMARK  8 active torsions:
REMARK  status: ('A' for Active; 'I' for Inactive)
REMARK    1  A    between atoms: O_2  and  C_3 
REMARK    2  A    between atoms: C_8  and  S_9 
REMARK    3  A    between atoms: S_9  and  N_12 
REMARK    4  A    between atoms: N_12  and  C_13 
REMARK    5  A    between atoms: N_16  and  C_17 
REMARK    6  A    between atoms: C_17  and  C_18 
REMARK    7  A    between atoms: C_18  and  C_19 
REMARK    8  A    between atoms: C_19  and  C_20 
ROOT
ATOM      1  C   UNL d   1       8.939   4.694 -10.702  0.00  0.00     0.151 C 
ATOM      2  C   UNL d   1       9.194   4.398  -9.229  0.00  0.00     0.063 C 
ATOM      3  C   UNL d   1       9.679   5.704  -8.698  0.00  0.00     0.252 C 
ATOM      4  N   UNL d   1      10.266   6.438  -9.803  0.00  0.00     0.139 N 
ATOM      5  C   UNL d   1       9.295   6.184 -10.860  0.00  0.00     0.275 C 
ENDROOT
BRANCH   1   6
ATOM      6  N   UNL d   1       7.535   4.430 -11.038  0.00  0.00    -0.185 NA
BRANCH   6   7
ATOM      7  S   UNL d   1       6.895   4.904 -12.545  0.00  0.00     0.281 S 
ATOM      8  O   UNL d   1       7.403   6.245 -12.846  0.00  0.00    -0.199 OA
ATOM      9  O   UNL d   1       5.457   4.642 -12.489  0.00  0.00    -0.199 OA
BRANCH   7  10
ATOM     10  C   UNL d   1       7.646   3.724 -13.649  0.00  0.00     0.105 A 
ATOM     11  C   UNL d   1       8.980   3.902 -14.062  0.00  0.00     0.013 A 
ATOM     12  C   UNL d   1       9.571   2.958 -14.925  0.00  0.00     0.001 A 
ATOM     13  C   UNL d   1      10.905   3.118 -15.348  0.00  0.00     0.002 A 
ATOM     14  C   UNL d   1       8.826   1.837 -15.367  0.00  0.00     0.002 A 
ATOM     15  C   UNL d   1      11.495   2.160 -16.195  0.00  0.00     0.024 A 
ATOM     16  C   UNL d   1      10.771   1.031 -16.630  0.00  0.00     0.094 A 
ATOM     17  C   UNL d   1       9.426   0.878 -16.211  0.00  0.00     0.024 A 
ATOM     18  C   UNL d   1       7.484   1.678 -14.957  0.00  0.00     0.001 A 
ATOM     19  C   UNL d   1       6.892   2.624 -14.100  0.00  0.00     0.013 A 
BRANCH  16  20
ATOM     20  O   UNL d   1      11.437   0.140 -17.445  0.00  0.00    -0.328 OA
ATOM     21  C   UNL d   1      10.714  -0.971 -17.954  0.00  0.00     0.181 C 
ENDBRANCH  16  20
ENDBRANCH   7  10
ENDBRANCH   6   7
ENDBRANCH   1   6
BRANCH   4  22
ATOM     22  C   UNL d   1      10.422   7.874  -9.563  0.00  0.00     0.251 C 
BRANCH  22  23
ATOM     23  C   UNL d   1      11.225   8.207  -8.282  0.00  0.00     0.042 C 
BRANCH  23  24
ATOM     24  C   UNL d   1      10.517   7.798  -6.973  0.00  0.00     0.050 C 
BRANCH  24  25
ATOM     25  C   UNL d   1      10.923   8.580  -5.802  0.00  0.00     0.088 A 
ATOM     26  C   UNL d   1      11.481   8.131  -4.594  0.00  0.00     0.041 A 
ATOM     27  C   UNL d   1      11.636   9.235  -3.750  0.00  0.00     0.126 A 
ATOM     28  C   UNL d   1      11.854   6.844  -4.137  0.00  0.00     0.003 A 
ATOM     29  O   UNL d   1      11.105  10.314  -4.433  0.00  0.00    -0.211 OA
ATOM     30  C   UNL d   1      12.191   9.130  -2.482  0.00  0.00     0.027 A 
ATOM     31  N   UNL d   1      10.665   9.896  -5.718  0.00  0.00    -0.131 NA
ATOM     32  C   UNL d   1      12.597   7.864  -2.031  0.00  0.00     0.002 A 
ATOM     33  C   UNL d   1      12.423   6.722  -2.845  0.00  0.00     0.000 A 
ENDBRANCH  24  25
ENDBRANCH  23  24
ENDBRANCH  22  23
ENDBRANCH   4  22
TORSDOF 8
