REMARK  4 active torsions:
REMARK  status: ('A' for Active; 'I' for Inactive)
REMARK    1  A    between atoms: S_2  and  C_3 
REMARK    2  A    between atoms: S_2  and  C_19 
REMARK    3  A    between atoms: C_6  and  C_7 
REMARK    4  A    between atoms: C_8  and  C_9 
ROOT
ATOM      1  C   UNL d   1       9.425   6.123 -11.367  0.00  0.00     0.080 A 
ATOM      2  C   UNL d   1       9.341   5.002 -10.528  0.00  0.00     0.012 A 
ATOM      3  C   UNL d   1       9.617   5.177  -9.167  0.00  0.00     0.020 A 
ATOM      4  C   UNL d   1      10.029   6.454  -8.719  0.00  0.00     0.082 A 
ATOM      5  N   UNL d   1      10.175   7.512  -9.543  0.00  0.00    -0.243 NA
ATOM      6  C   UNL d   1       9.845   7.354 -10.840  0.00  0.00     0.108 A 
ENDROOT
BRANCH   4   7
ATOM      7  C   UNL d   1      10.369   6.632  -7.305  0.00  0.00     0.019 C 
ATOM      8  C   UNL d   1      11.002   7.702  -6.790  0.00  0.00     0.004 C 
BRANCH   8   9
ATOM      9  C   UNL d   1      11.357   7.880  -5.379  0.00  0.00     0.028 A 
ATOM     10  C   UNL d   1      11.549   9.191  -4.882  0.00  0.00     0.142 A 
ATOM     11  C   UNL d   1      11.870   9.391  -3.528  0.00  0.00     0.059 A 
ATOM     12  F   UNL d   1      11.395  10.260  -5.702  0.00  0.00    -0.204 F 
ATOM     13  C   UNL d   1      12.027   8.292  -2.664  0.00  0.00     0.142 A 
ATOM     14  C   UNL d   1      11.820   6.987  -3.147  0.00  0.00     0.030 A 
ATOM     15  F   UNL d   1      12.342   8.488  -1.366  0.00  0.00    -0.204 F 
ATOM     16  C   UNL d   1      11.468   6.790  -4.497  0.00  0.00     0.004 A 
ENDBRANCH   8   9
ENDBRANCH   4   7
BRANCH   1  17
ATOM     17  S   UNL d   1       9.074   5.970 -13.134  0.00  0.00     0.092 S 
ATOM     18  O   UNL d   1      10.267   5.189 -13.694  0.00  0.00    -0.247 OA
BRANCH  17  19
ATOM     19  C   UNL d   1       7.631   4.844 -13.050  0.00  0.00     0.088 A 
ATOM     20  C   UNL d   1       7.585   3.622 -13.762  0.00  0.00     0.148 A 
ATOM     21  C   UNL d   1       6.453   2.794 -13.634  0.00  0.00     0.030 A 
ATOM     22  F   UNL d   1       8.608   3.216 -14.553  0.00  0.00    -0.204 F 
ATOM     23  C   UNL d   1       5.408   3.160 -12.756  0.00  0.00     0.002 A 
ATOM     24  C   UNL d   1       5.466   4.383 -12.059  0.00  0.00     0.001 A 
ATOM     25  C   UNL d   1       6.573   5.232 -12.223  0.00  0.00     0.011 A 
ENDBRANCH  17  19
ENDBRANCH   1  17
TORSDOF 4
