REMARK  8 active torsions:
REMARK  status: ('A' for Active; 'I' for Inactive)
REMARK    1  A    between atoms: O_2  and  C_3 
REMARK    2  A    between atoms: C_8  and  O_9 
REMARK    3  A    between atoms: O_9  and  C_10 
REMARK    4  A    between atoms: C_10  and  C_11 
REMARK    5  A    between atoms: C_11  and  N_12 
REMARK    6  A    between atoms: N_12  and  C_13 
REMARK    7  A    between atoms: C_13  and  C_14 
REMARK       I    between atoms: N_18  and  C_19 
REMARK    8  A    between atoms: C_19  and  C_21 
ROOT
ATOM      1  C   UNL d   1       9.254   6.068  -9.013  0.00  0.00     0.172 C 
ATOM      2  F   UNL d   1       7.977   5.928  -8.727  0.00  0.00    -0.238 F 
ATOM      3  C   UNL d   1       9.972   5.826  -7.709  0.00  0.00     0.059 C 
ATOM      4  C   UNL d   1       9.630   6.862  -6.639  0.00  0.00     0.107 C 
ATOM      5  N   UNL d   1      10.086   8.154  -7.191  0.00  0.00    -0.317 N 
ATOM      6  C   UNL d   1      10.960   9.012  -6.637  0.00  0.00     0.257 C 
ATOM      7  O   UNL d   1      11.276  10.037  -7.215  0.00  0.00    -0.267 OA
ATOM      8  C   UNL d   1       9.382   8.536  -8.419  0.00  0.00     0.107 C 
ATOM      9  C   UNL d   1       9.602   7.478  -9.519  0.00  0.00     0.059 C 
ENDROOT
BRANCH   1  10
ATOM     10  C   UNL d   1       9.516   4.953 -10.012  0.00  0.00     0.323 C 
BRANCH  10  11
ATOM     11  N   UNL d   1       9.033   5.331 -11.335  0.00  0.00     0.345 N 
BRANCH  11  12
ATOM     12  C   UNL d   1       8.514   4.167 -12.011  0.00  0.00     0.323 C 
BRANCH  12  13
ATOM     13  C   UNL d   1       7.998   4.575 -13.392  0.00  0.00     0.187 C 
BRANCH  13  14
ATOM     14  O   UNL d   1       7.540   3.418 -14.076  0.00  0.00    -0.327 OA
BRANCH  14  15
ATOM     15  C   UNL d   1       8.474   2.544 -14.599  0.00  0.00     0.116 A 
ATOM     16  C   UNL d   1       7.977   1.364 -15.198  0.00  0.00     0.116 A 
ATOM     17  C   UNL d   1       8.889   0.432 -15.754  0.00  0.00     0.026 A 
ATOM     18  C   UNL d   1      10.275   0.668 -15.710  0.00  0.00     0.002 A 
ATOM     19  C   UNL d   1      10.767   1.838 -15.114  0.00  0.00     0.002 A 
ATOM     20  C   UNL d   1       9.875   2.771 -14.565  0.00  0.00     0.026 A 
BRANCH  16  21
ATOM     21  O   UNL d   1       6.608   1.192 -15.206  0.00  0.00    -0.326 OA
ATOM     22  C   UNL d   1       6.084  -0.016 -15.738  0.00  0.00     0.181 C 
ENDBRANCH  16  21
ENDBRANCH  14  15
ENDBRANCH  13  14
ENDBRANCH  12  13
ENDBRANCH  11  12
ENDBRANCH  10  11
ENDBRANCH   1  10
BRANCH   6  23
ATOM     23  C   UNL d   1      11.401   8.849  -5.225  0.00  0.00     0.057 A 
ATOM     24  C   UNL d   1      11.886   7.657  -4.707  0.00  0.00     0.018 A 
ATOM     25  C   UNL d   1      12.243   7.573  -3.348  0.00  0.00     0.085 A 
ATOM     26  C   UNL d   1      12.223   8.696  -2.523  0.00  0.00     0.151 A 
ATOM     27 CL   UNL d   1      12.671   6.100  -2.631  0.00  0.00    -0.080 Cl
ATOM     28  C   UNL d   1      11.813   9.927  -3.056  0.00  0.00     0.031 A 
ATOM     29  F   UNL d   1      12.595   8.573  -1.216  0.00  0.00    -0.203 F 
ATOM     30  C   UNL d   1      11.370   9.986  -4.380  0.00  0.00     0.007 A 
ENDBRANCH   6  23
TORSDOF 8
