REMARK  7 active torsions:
REMARK  status: ('A' for Active; 'I' for Inactive)
REMARK    1  A    between atoms: C_2  and  C_3 
REMARK    2  A    between atoms: C_3  and  C_4 
REMARK    3  A    between atoms: C_7  and  O_8 
REMARK    4  A    between atoms: C_10  and  C_11 
REMARK       I    between atoms: C_11  and  N_13 
REMARK    5  A    between atoms: N_13  and  C_14 
REMARK    6  A    between atoms: C_14  and  C_15 
REMARK    7  A    between atoms: N_19  and  C_20 
ROOT
ATOM      1  C   UNL d   1       7.790   0.396 -15.903  0.00  0.00    -0.022 A 
ATOM      2  C   UNL d   1       8.525   0.100 -17.065  0.00  0.00    -0.002 A 
ATOM      3  C   UNL d   1       9.647   0.873 -17.419  0.00  0.00     0.024 A 
ATOM      4  C   UNL d   1      10.054   1.963 -16.606  0.00  0.00     0.099 A 
ATOM      5  C   UNL d   1       9.319   2.249 -15.436  0.00  0.00     0.080 A 
ATOM      6  C   UNL d   1       8.197   1.467 -15.086  0.00  0.00     0.003 A 
ENDROOT
BRANCH   5   7
ATOM      7  C   UNL d   1       9.695   3.405 -14.572  0.00  0.00     0.277 C 
ATOM      8  O   UNL d   1      10.075   4.481 -15.034  0.00  0.00    -0.266 OA
ATOM      9  N   UNL d   1       9.578   3.161 -13.268  0.00  0.00    -0.232 NA
BRANCH   9  10
ATOM     10  C   UNL d   1       9.749   4.119 -12.213  0.00  0.00     0.162 C 
BRANCH  10  11
ATOM     11  C   UNL d   1       8.392   4.771 -11.794  0.00  0.00     0.243 C 
ATOM     12  N   UNL d   1       8.535   5.608 -10.603  0.00  0.00     0.137 N 
ATOM     13  C   UNL d   1       9.120   6.858 -11.079  0.00  0.00     0.250 C 
ATOM     14  C   UNL d   1       8.379   7.126 -12.388  0.00  0.00     0.037 C 
ATOM     15  C   UNL d   1       7.837   5.769 -12.834  0.00  0.00     0.037 C 
BRANCH  12  16
ATOM     16  C   UNL d   1       9.235   5.019  -9.467  0.00  0.00     0.250 C 
ATOM     17  C   UNL d   1       9.203   5.875  -8.210  0.00  0.00     0.037 C 
ENDBRANCH  12  16
ENDBRANCH  10  11
ENDBRANCH   9  10
ENDBRANCH   5   7
BRANCH   4  18
ATOM     18  O   UNL d   1      11.143   2.756 -16.893  0.00  0.00    -0.328 OA
ATOM     19  C   UNL d   1      11.935   2.453 -18.024  0.00  0.00     0.181 C 
ENDBRANCH   4  18
BRANCH   1  20
ATOM     20  C   UNL d   1       6.580  -0.437 -15.513  0.00  0.00     0.026 C 
BRANCH  20  21
ATOM     21  C   UNL d   1       5.285   0.372 -15.412  0.00  0.00     0.005 C 
ATOM     22  C   UNL d   1       4.106  -0.465 -14.902  0.00  0.00     0.000 C 
ENDBRANCH  20  21
ENDBRANCH   1  20
TORSDOF 7
