REMARK  8 active torsions:
REMARK  status: ('A' for Active; 'I' for Inactive)
REMARK    1  A    between atoms: O_2  and  C_3 
REMARK    2  A    between atoms: C_8  and  N_9 
REMARK    3  A    between atoms: N_12  and  C_13 
REMARK    4  A    between atoms: C_13  and  C_14 
REMARK    5  A    between atoms: C_14  and  C_15 
REMARK    6  A    between atoms: C_15  and  C_16 
REMARK    7  A    between atoms: C_16  and  C_17 
REMARK    8  A    between atoms: N_19  and  C_20 
ROOT
ATOM      1  C   UNL d   1       8.017   2.776 -14.340  0.00  0.00     0.009 C 
ENDROOT
BRANCH   1   2
ATOM      2  C   UNL d   1       7.244   1.771 -15.208  0.00  0.00     0.036 C 
BRANCH   2   3
ATOM      3  C   UNL d   1       8.137   0.656 -15.787  0.00  0.00     0.250 C 
BRANCH   3   4
ATOM      4  N   UNL d   1       8.992   1.158 -16.865  0.00  0.00     0.141 N 
ATOM      5  C   UNL d   1      10.320   1.518 -16.346  0.00  0.00     0.274 C 
ATOM      6  C   UNL d   1      11.188   2.114 -17.457  0.00  0.00     0.137 C 
ATOM      7  N   UNL d   1      11.301   1.175 -18.572  0.00  0.00    -0.343 N 
ATOM      8  C   UNL d   1      10.023   0.652 -19.057  0.00  0.00     0.137 C 
ATOM      9  C   UNL d   1       9.166   0.119 -17.888  0.00  0.00     0.274 C 
BRANCH   7  10
ATOM     10  C   UNL d   1      12.527   0.701 -19.035  0.00  0.00     0.079 A 
ATOM     11  C   UNL d   1      13.647   1.566 -19.239  0.00  0.00     0.110 A 
ATOM     12  C   UNL d   1      14.855   1.021 -19.740  0.00  0.00     0.026 A 
ATOM     13  C   UNL d   1      14.965  -0.347 -20.041  0.00  0.00     0.002 A 
ATOM     14  C   UNL d   1      13.871  -1.197 -19.838  0.00  0.00     0.002 A 
ATOM     15  C   UNL d   1      12.671  -0.682 -19.331  0.00  0.00     0.019 A 
BRANCH  11  16
ATOM     16  O   UNL d   1      13.492   2.913 -18.960  0.00  0.00    -0.327 OA
ATOM     17  C   UNL d   1      14.632   3.762 -19.009  0.00  0.00     0.181 C 
ENDBRANCH  11  16
ENDBRANCH   7  10
ENDBRANCH   3   4
ENDBRANCH   2   3
ENDBRANCH   1   2
BRANCH   1  18
ATOM     18  C   UNL d   1       7.134   3.779 -13.595  0.00  0.00     0.049 C 
BRANCH  18  19
ATOM     19  C   UNL d   1       7.960   4.677 -12.724  0.00  0.00     0.101 A 
ATOM     20  N   UNL d   1       8.896   5.570 -13.235  0.00  0.00    -0.133 NA
ATOM     21  N   UNL d   1       9.447   6.216 -12.259  0.00  0.00    -0.060 NA
ATOM     22  N   UNL d   1       8.906   5.761 -11.100  0.00  0.00    -0.209 N 
ATOM     23  C   UNL d   1       7.952   4.791 -11.366  0.00  0.00     0.119 A 
BRANCH  22  24
ATOM     24  C   UNL d   1       9.308   6.283  -9.841  0.00  0.00     0.085 A 
ATOM     25  C   UNL d   1      10.339   7.252  -9.748  0.00  0.00     0.019 A 
ATOM     26  C   UNL d   1      10.713   7.768  -8.494  0.00  0.00     0.004 A 
ATOM     27  C   UNL d   1      10.069   7.320  -7.323  0.00  0.00     0.019 A 
ATOM     28  C   UNL d   1      11.734   8.728  -8.369  0.00  0.00     0.021 A 
ATOM     29  C   UNL d   1       9.036   6.375  -7.407  0.00  0.00     0.003 A 
ATOM     30  C   UNL d   1      10.473   7.843  -6.084  0.00  0.00     0.099 A 
ATOM     31  C   UNL d   1       8.666   5.845  -8.658  0.00  0.00     0.019 A 
ATOM     32  N   UNL d   1      11.446   8.764  -5.952  0.00  0.00    -0.242 NA
ATOM     33  C   UNL d   1      12.057   9.191  -7.077  0.00  0.00     0.099 A 
ENDBRANCH  22  24
ENDBRANCH  18  19
ENDBRANCH   1  18
TORSDOF 8
