REMARK  8 active torsions:
REMARK  status: ('A' for Active; 'I' for Inactive)
REMARK    1  A    between atoms: N_2  and  C_3 
REMARK    2  A    between atoms: N_2  and  C_16 
REMARK    3  A    between atoms: C_3  and  C_4 
REMARK    4  A    between atoms: C_4  and  C_5 
REMARK    5  A    between atoms: C_8  and  O_9 
REMARK    6  A    between atoms: O_9  and  C_10 
REMARK    7  A    between atoms: C_16  and  C_17 
REMARK    8  A    between atoms: C_17  and  N_18 
ROOT
ATOM      1  C   UNL d   1      10.245   7.952  -9.021  0.00  0.00    -0.020 A 
ATOM      2  C   UNL d   1      11.484   8.488  -8.639  0.00  0.00    -0.002 A 
ATOM      3  C   UNL d   1      11.864   8.484  -7.287  0.00  0.00     0.024 A 
ATOM      4  C   UNL d   1      11.025   7.934  -6.285  0.00  0.00     0.102 A 
ATOM      5  C   UNL d   1       9.797   7.375  -6.678  0.00  0.00     0.024 A 
ATOM      6  C   UNL d   1       9.401   7.393  -8.031  0.00  0.00    -0.002 A 
ENDROOT
BRANCH   1   7
ATOM      7  C   UNL d   1       9.812   8.030 -10.477  0.00  0.00     0.062 C 
BRANCH   7   8
ATOM      8  C   UNL d   1       9.323   6.683 -11.045  0.00  0.00     0.255 C 
BRANCH   8   9
ATOM      9  N   UNL d   1       8.815   6.702 -12.424  0.00  0.00     0.142 N 
ATOM     10  C   UNL d   1       7.596   7.510 -12.512  0.00  0.00     0.285 C 
BRANCH   9  11
ATOM     11  C   UNL d   1       8.533   5.354 -12.927  0.00  0.00     0.285 C 
BRANCH  11  12
ATOM     12  C   UNL d   1       9.739   4.398 -13.033  0.00  0.00     0.285 C 
BRANCH  12  13
ATOM     13  N   UNL d   1      10.706   4.765 -14.073  0.00  0.00     0.139 N 
ATOM     14  C   UNL d   1      10.177   4.641 -15.420  0.00  0.00     0.250 C 
ATOM     15  C   UNL d   1      11.400   4.660 -16.338  0.00  0.00     0.037 C 
ATOM     16  C   UNL d   1      12.544   4.164 -15.442  0.00  0.00     0.037 C 
ATOM     17  C   UNL d   1      11.872   3.907 -14.091  0.00  0.00     0.250 C 
ENDBRANCH  12  13
ENDBRANCH  11  12
ENDBRANCH   9  11
ENDBRANCH   8   9
ENDBRANCH   7   8
ENDBRANCH   1   7
BRANCH   4  18
ATOM     18  O   UNL d   1      11.386   7.897  -4.960  0.00  0.00    -0.253 OA
BRANCH  18  19
ATOM     19  C   UNL d   1      11.755   9.052  -4.338  0.00  0.00     0.530 C 
ATOM     20  F   UNL d   1      11.949   8.818  -3.021  0.00  0.00    -0.144 F 
ATOM     21  F   UNL d   1      12.919   9.543  -4.829  0.00  0.00    -0.144 F 
ATOM     22  F   UNL d   1      10.794  10.002  -4.432  0.00  0.00    -0.144 F 
ENDBRANCH  18  19
ENDBRANCH   4  18
TORSDOF 8
