REMARK  8 active torsions:
REMARK  status: ('A' for Active; 'I' for Inactive)
REMARK    1  A    between atoms: C_6  and  C_7 
REMARK    2  A    between atoms: N_10  and  C_11 
REMARK    3  A    between atoms: C_11  and  C_12 
REMARK    4  A    between atoms: C_12  and  C_13 
REMARK    5  A    between atoms: C_13  and  O_14 
REMARK    6  A    between atoms: O_14  and  C_15 
REMARK    7  A    between atoms: C_18  and  C_19 
REMARK    8  A    between atoms: C_19  and  N_20 
ROOT
ATOM      1  C   UNL d   1       9.914   6.560 -10.665  0.00  0.00     0.253 C 
ENDROOT
BRANCH   1   2
ATOM      2  N   UNL d   1      10.263   6.951  -9.300  0.00  0.00     0.137 N 
ATOM      3  C   UNL d   1       9.073   7.510  -8.648  0.00  0.00     0.251 C 
ATOM      4  C   UNL d   1       9.365   7.883  -7.198  0.00  0.00     0.041 C 
ATOM      5  C   UNL d   1      10.523   8.888  -7.135  0.00  0.00     0.047 C 
ATOM      6  C   UNL d   1      11.732   8.383  -7.939  0.00  0.00     0.041 C 
ATOM      7  C   UNL d   1      11.309   7.974  -9.358  0.00  0.00     0.251 C 
BRANCH   5   8
ATOM      8  C   UNL d   1      10.893   9.194  -5.716  0.00  0.00     0.087 A 
ATOM      9  C   UNL d   1      11.429   8.359  -4.724  0.00  0.00     0.041 A 
ATOM     10  C   UNL d   1      11.740   6.988  -4.754  0.00  0.00     0.006 A 
ATOM     11  C   UNL d   1      11.586   9.091  -3.544  0.00  0.00     0.129 A 
ATOM     12  C   UNL d   1      12.265   6.412  -3.586  0.00  0.00     0.030 A 
ATOM     13  C   UNL d   1      12.424   7.157  -2.411  0.00  0.00     0.142 A 
ATOM     14  F   UNL d   1      12.918   6.495  -1.349  0.00  0.00    -0.204 F 
ATOM     15  C   UNL d   1      12.097   8.528  -2.362  0.00  0.00     0.057 A 
ATOM     16  O   UNL d   1      11.101  10.351  -3.839  0.00  0.00    -0.211 OA
ATOM     17  N   UNL d   1      10.678  10.394  -5.198  0.00  0.00    -0.131 NA
ENDBRANCH   5   8
ENDBRANCH   1   2
BRANCH   1  18
ATOM     18  C   UNL d   1       9.110   5.249 -10.730  0.00  0.00     0.068 C 
BRANCH  18  19
ATOM     19  C   UNL d   1       8.943   4.732 -12.164  0.00  0.00     0.151 C 
BRANCH  19  20
ATOM     20  O   UNL d   1      10.227   4.513 -12.743  0.00  0.00    -0.329 OA
BRANCH  20  21
ATOM     21  C   UNL d   1      10.296   4.158 -14.073  0.00  0.00     0.121 A 
ATOM     22  C   UNL d   1      11.565   4.152 -14.689  0.00  0.00     0.162 A 
ATOM     23  C   UNL d   1      11.713   3.796 -16.047  0.00  0.00     0.029 A 
ATOM     24  F   UNL d   1      12.665   4.474 -13.971  0.00  0.00    -0.202 F 
ATOM     25  C   UNL d   1      10.582   3.436 -16.805  0.00  0.00     0.013 A 
ATOM     26  C   UNL d   1       9.312   3.462 -16.197  0.00  0.00    -0.000 A 
ATOM     27  C   UNL d   1       9.165   3.791 -14.838  0.00  0.00     0.026 A 
BRANCH  25  28
ATOM     28  C   UNL d   1      10.717   2.992 -18.259  0.00  0.00     0.277 C 
BRANCH  28  29
ATOM     29  N   UNL d   1      10.640   1.533 -18.466  0.00  0.00     0.147 N 
ATOM     30  C   UNL d   1       9.475   0.905 -17.837  0.00  0.00     0.283 C 
ATOM     31  C   UNL d   1       9.384  -0.600 -18.077  0.00  0.00     0.178 C 
ATOM     32  O   UNL d   1      10.600  -1.212 -17.655  0.00  0.00    -0.350 OA
ATOM     33  C   UNL d   1      11.739  -0.683 -18.329  0.00  0.00     0.178 C 
ATOM     34  C   UNL d   1      11.856   0.833 -18.072  0.00  0.00     0.283 C 
ENDBRANCH  28  29
ENDBRANCH  25  28
ENDBRANCH  20  21
ENDBRANCH  19  20
ENDBRANCH  18  19
ENDBRANCH   1  18
TORSDOF 8
