REMARK  8 active torsions:
REMARK  status: ('A' for Active; 'I' for Inactive)
REMARK    1  A    between atoms: O_2  and  C_3 
REMARK    2  A    between atoms: C_6  and  C_7 
REMARK    3  A    between atoms: C_7  and  C_8 
REMARK       I    between atoms: C_8  and  N_10 
REMARK    4  A    between atoms: N_10  and  C_11 
REMARK    5  A    between atoms: C_14  and  C_15 
REMARK    6  A    between atoms: C_15  and  C_16 
REMARK    7  A    between atoms: C_16  and  N_17 
REMARK    8  A    between atoms: N_20  and  C_21 
ROOT
ATOM      1  C   UNL d   1       8.184   2.652 -14.996  0.00  0.00     0.106 C 
ATOM      2  C   UNL d   1       6.814   3.040 -14.420  0.00  0.00     0.024 C 
ATOM      3  C   UNL d   1       6.914   4.280 -13.511  0.00  0.00     0.002 C 
ATOM      4  C   UNL d   1       7.890   4.044 -12.367  0.00  0.00     0.002 C 
ATOM      5  C   UNL d   1       9.270   3.570 -12.910  0.00  0.00     0.002 C 
ATOM      6  C   UNL d   1       9.177   2.373 -13.871  0.00  0.00     0.024 C 
ENDROOT
BRANCH   4   7
ATOM      7  C   UNL d   1       8.044   5.273 -11.472  0.00  0.00     0.035 C 
BRANCH   7   8
ATOM      8  C   UNL d   1       8.722   4.913 -10.140  0.00  0.00     0.250 C 
BRANCH   8   9
ATOM      9  N   UNL d   1       8.714   6.056  -9.259  0.00  0.00     0.141 N 
ATOM     10  C   UNL d   1       8.909   5.631  -7.881  0.00  0.00     0.274 C 
ATOM     11  C   UNL d   1       8.798   6.823  -6.918  0.00  0.00     0.137 C 
ATOM     12  N   UNL d   1       9.770   7.845  -7.304  0.00  0.00    -0.343 N 
ATOM     13  C   UNL d   1       9.659   8.268  -8.702  0.00  0.00     0.137 C 
ATOM     14  C   UNL d   1       9.733   7.043  -9.624  0.00  0.00     0.274 C 
BRANCH  12  15
ATOM     15  C   UNL d   1      10.703   8.398  -6.416  0.00  0.00     0.081 A 
ATOM     16  C   UNL d   1      11.112   7.785  -5.204  0.00  0.00     0.135 A 
ATOM     17  C   UNL d   1      12.016   8.376  -4.343  0.00  0.00     0.121 A 
ATOM     18  O   UNL d   1      10.768   6.583  -4.675  0.00  0.00    -0.298 OA
ATOM     19  C   UNL d   1      12.636   9.586  -4.642  0.00  0.00     0.026 A 
ATOM     20  O   UNL d   1      12.210   7.603  -3.251  0.00  0.00    -0.299 OA
ATOM     21  C   UNL d   1      12.262  10.220  -5.846  0.00  0.00     0.004 A 
ATOM     22  C   UNL d   1      11.307   9.646  -6.703  0.00  0.00     0.019 A 
ATOM     23  C   UNL d   1      11.426   6.470  -3.449  0.00  0.00     0.304 A 
ENDBRANCH  12  15
ENDBRANCH   8   9
ENDBRANCH   7   8
ENDBRANCH   4   7
BRANCH   1  24
ATOM     24  N   UNL d   1       8.059   1.472 -15.837  0.00  0.00    -0.240 NA
ATOM     25  C   UNL d   1       8.191   1.460 -17.167  0.00  0.00     0.251 C 
ATOM     26  O   UNL d   1       8.296   2.479 -17.849  0.00  0.00    -0.271 OA
BRANCH  25  27
ATOM     27  C   UNL d   1       8.266   0.080 -17.818  0.00  0.00     0.090 C 
BRANCH  27  28
ATOM     28  C   UNL d   1       7.590  -0.011 -19.210  0.00  0.00     0.009 C 
ATOM     29  C   UNL d   1       8.530  -0.646 -20.252  0.00  0.00     0.003 C 
ATOM     30  C   UNL d   1       7.845  -0.783 -21.620  0.00  0.00     0.030 C 
ATOM     31  C   UNL d   1       6.533  -1.577 -21.502  0.00  0.00     0.116 C 
ATOM     32  C   UNL d   1       5.585  -0.916 -20.482  0.00  0.00     0.030 C 
ATOM     33  C   UNL d   1       6.262  -0.780 -19.115  0.00  0.00     0.003 C 
BRANCH  31  34
ATOM     34  O   UNL d   1       5.933  -1.623 -22.789  0.00  0.00    -0.354 OA
ATOM     35  C   UNL d   1       5.005  -2.686 -22.947  0.00  0.00     0.174 C 
ENDBRANCH  31  34
ENDBRANCH  27  28
ENDBRANCH  25  27
ENDBRANCH   1  24
TORSDOF 8
