REMARK  3 active torsions:
REMARK  status: ('A' for Active; 'I' for Inactive)
REMARK    1  A    between atoms: C_9  and  C_10 
REMARK    2  A    between atoms: C_20  and  O_21 
REMARK    3  A    between atoms: O_21  and  C_22 
ROOT
ATOM      1  C   UNL d   1      12.371   7.221 -18.726  0.00  0.00     0.031 C 
ATOM      2  C   UNL d   1      12.132   5.997 -17.860  0.00  0.00    -0.020 A 
ATOM      3  C   UNL d   1      12.550   4.721 -18.287  0.00  0.00    -0.003 A 
ATOM      4  C   UNL d   1      12.322   3.596 -17.470  0.00  0.00     0.020 A 
ATOM      5  C   UNL d   1      11.665   3.735 -16.230  0.00  0.00     0.099 A 
ATOM      6  C   UNL d   1      11.248   5.016 -15.785  0.00  0.00     0.099 A 
ATOM      7  C   UNL d   1      11.503   6.132 -16.609  0.00  0.00     0.016 A 
ATOM      8  N   UNL d   1      10.706   5.286 -14.525  0.00  0.00    -0.244 NA
ATOM      9  C   UNL d   1       9.913   4.550 -13.846  0.00  0.00     0.079 C 
ATOM     10  C   UNL d   1       9.350   3.261 -14.344  0.00  0.00     0.037 A 
ATOM     11  C   UNL d   1       7.989   2.967 -14.081  0.00  0.00     0.028 A 
ATOM     12  C   UNL d   1       7.414   1.736 -14.439  0.00  0.00     0.102 A 
ATOM     13  C   UNL d   1       8.224   0.766 -15.081  0.00  0.00     0.026 A 
ATOM     14  C   UNL d   1       9.565   1.055 -15.383  0.00  0.00     0.021 A 
ATOM     15  C   UNL d   1      10.123   2.301 -15.047  0.00  0.00     0.083 A 
ATOM     16  N   UNL d   1      11.412   2.579 -15.497  0.00  0.00    -0.244 NA
ENDROOT
BRANCH   9  17
ATOM     17  C   UNL d   1       9.630   5.016 -12.451  0.00  0.00    -0.005 C 
ATOM     18  C   UNL d   1       9.278   4.014 -11.377  0.00  0.00     0.063 C 
ATOM     19  C   UNL d   1       9.405   4.563  -9.932  0.00  0.00     0.255 C 
ATOM     20  N   UNL d   1       8.750   5.850  -9.835  0.00  0.00     0.141 N 
ATOM     21  C   UNL d   1       9.360   6.856 -10.710  0.00  0.00     0.241 C 
ATOM     22  C   UNL d   1       8.656   6.274  -8.442  0.00  0.00     0.286 C 
ATOM     23  C   UNL d   1       9.550   6.319 -12.125  0.00  0.00     0.004 C 
ATOM     24  C   UNL d   1      10.693   7.440 -10.164  0.00  0.00     0.040 C 
ENDBRANCH   9  17
BRANCH  12  25
ATOM     25  O   UNL d   1       6.107   1.524 -14.058  0.00  0.00    -0.253 OA
BRANCH  25  26
ATOM     26  C   UNL d   1       5.511   0.309 -14.220  0.00  0.00     0.530 C 
ATOM     27  F   UNL d   1       6.208  -0.685 -13.605  0.00  0.00    -0.144 F 
ATOM     28  F   UNL d   1       4.283   0.328 -13.656  0.00  0.00    -0.144 F 
ATOM     29  F   UNL d   1       5.357  -0.010 -15.530  0.00  0.00    -0.144 F 
ENDBRANCH  25  26
ENDBRANCH  12  25
TORSDOF 3
