REMARK  7 active torsions:
REMARK  status: ('A' for Active; 'I' for Inactive)
REMARK    1  A    between atoms: C_2  and  C_3 
REMARK       I    between atoms: C_2  and  N_7 
REMARK    2  A    between atoms: C_3  and  C_4 
REMARK    3  A    between atoms: N_7  and  C_8 
REMARK    4  A    between atoms: C_11  and  C_12 
REMARK    5  A    between atoms: C_12  and  C_13 
REMARK    6  A    between atoms: C_13  and  N_14 
REMARK    7  A    between atoms: C_17  and  C_18 
ROOT
ATOM      1  N   UNL d   1       9.109   6.298  -9.427  0.00  0.00     0.137 N 
ATOM      2  C   UNL d   1      10.571   6.346  -9.350  0.00  0.00     0.251 C 
ATOM      3  C   UNL d   1      11.035   7.327  -8.278  0.00  0.00     0.040 C 
ATOM      4  C   UNL d   1      10.479   6.946  -6.908  0.00  0.00     0.026 C 
ATOM      5  C   UNL d   1       8.957   6.764  -6.999  0.00  0.00     0.040 C 
ATOM      6  C   UNL d   1       8.579   5.811  -8.152  0.00  0.00     0.251 C 
ENDROOT
BRANCH   1   7
ATOM      7  C   UNL d   1       8.657   5.398 -10.497  0.00  0.00     0.250 C 
BRANCH   7   8
ATOM      8  C   UNL d   1       9.254   5.732 -11.890  0.00  0.00     0.035 C 
BRANCH   8   9
ATOM      9  C   UNL d   1       9.387   4.501 -12.819  0.00  0.00     0.002 C 
ATOM     10  C   UNL d   1       8.083   4.258 -13.586  0.00  0.00     0.002 C 
ATOM     11  C   UNL d   1       8.207   3.048 -14.518  0.00  0.00     0.024 C 
ATOM     12  C   UNL d   1       9.392   3.205 -15.499  0.00  0.00     0.106 C 
ATOM     13  C   UNL d   1      10.701   3.456 -14.736  0.00  0.00     0.024 C 
ATOM     14  C   UNL d   1      10.570   4.658 -13.799  0.00  0.00     0.002 C 
BRANCH  12  15
ATOM     15  N   UNL d   1       9.545   2.004 -16.313  0.00  0.00    -0.240 NA
ATOM     16  C   UNL d   1       8.793   1.685 -17.375  0.00  0.00     0.251 C 
ATOM     17  O   UNL d   1       7.880   2.394 -17.794  0.00  0.00    -0.271 OA
BRANCH  16  18
ATOM     18  C   UNL d   1       9.144   0.364 -18.058  0.00  0.00     0.090 C 
BRANCH  18  19
ATOM     19  C   UNL d   1       7.994  -0.240 -18.843  0.00  0.00     0.009 A 
ATOM     20  C   UNL d   1       7.844  -1.741 -18.961  0.00  0.00     0.001 A 
ATOM     21  C   UNL d   1       6.862  -0.948 -18.134  0.00  0.00     0.001 A 
ENDBRANCH  18  19
ENDBRANCH  16  18
ENDBRANCH  12  15
ENDBRANCH   8   9
ENDBRANCH   7   8
ENDBRANCH   1   7
BRANCH   4  22
ATOM     22  C   UNL d   1      10.879   7.971  -5.859  0.00  0.00    -0.024 A 
ATOM     23  C   UNL d   1      11.487   7.611  -4.641  0.00  0.00    -0.001 A 
ATOM     24  C   UNL d   1      11.832   8.535  -3.667  0.00  0.00     0.090 A 
ATOM     25  C   UNL d   1      11.809   6.262  -4.142  0.00  0.00     0.061 A 
ATOM     26  C   UNL d   1      11.576   9.888  -3.865  0.00  0.00     0.024 A 
ATOM     27  O   UNL d   1      12.373   7.978  -2.541  0.00  0.00    -0.331 OA
ATOM     28  C   UNL d   1      11.017  10.291  -5.097  0.00  0.00     0.002 A 
ATOM     29  C   UNL d   1      10.658   9.350  -6.080  0.00  0.00    -0.004 A 
ATOM     30  C   UNL d   1      12.469   6.567  -2.778  0.00  0.00     0.154 A 
ENDBRANCH   4  22
TORSDOF 7
