REMARK  4 active torsions:
REMARK  status: ('A' for Active; 'I' for Inactive)
REMARK    1  A    between atoms: C_5  and  C_6 
REMARK    2  A    between atoms: C_10  and  C_11 
REMARK    3  A    between atoms: C_11  and  N_12 
REMARK    4  A    between atoms: N_15  and  C_16 
ROOT
ATOM      1  C   UNL d   1       7.943   3.159 -14.046  0.00  0.00     0.019 A 
ATOM      2  C   UNL d   1       6.630   2.786 -13.668  0.00  0.00     0.099 A 
ATOM      3  N   UNL d   1       5.829   3.502 -12.854  0.00  0.00    -0.243 NA
ATOM      4  C   UNL d   1       6.312   4.656 -12.354  0.00  0.00     0.097 A 
ATOM      5  C   UNL d   1       7.597   5.139 -12.665  0.00  0.00     0.030 A 
ATOM      6  C   UNL d   1       8.416   4.382 -13.521  0.00  0.00     0.001 A 
ENDROOT
BRANCH   5   7
ATOM      7  C   UNL d   1       8.096   6.456 -12.115  0.00  0.00     0.278 C 
BRANCH   7   8
ATOM      8  N   UNL d   1       9.209   6.315 -11.178  0.00  0.00     0.145 N 
ATOM      9  C   UNL d   1       9.785   7.644 -10.931  0.00  0.00     0.275 C 
ATOM     10  C   UNL d   1      10.976   7.549  -9.972  0.00  0.00     0.137 C 
ATOM     11  N   UNL d   1      10.562   6.902  -8.737  0.00  0.00    -0.344 N 
ATOM     12  C   UNL d   1       9.859   5.624  -8.886  0.00  0.00     0.137 C 
ATOM     13  C   UNL d   1       8.720   5.750  -9.911  0.00  0.00     0.275 C 
BRANCH  11  14
ATOM     14  C   UNL d   1      10.782   7.509  -7.486  0.00  0.00     0.056 A 
ATOM     15  C   UNL d   1      10.741   8.911  -7.317  0.00  0.00     0.017 A 
ATOM     16  C   UNL d   1      10.973   9.495  -6.055  0.00  0.00     0.002 A 
ATOM     17  C   UNL d   1      11.246   8.684  -4.937  0.00  0.00     0.000 A 
ATOM     18  C   UNL d   1      11.286   7.286  -5.091  0.00  0.00     0.002 A 
ATOM     19  C   UNL d   1      11.063   6.714  -6.357  0.00  0.00     0.017 A 
ENDBRANCH  11  14
ENDBRANCH   7   8
ENDBRANCH   5   7
BRANCH   1  20
ATOM     20  C   UNL d   1       8.784   2.308 -14.926  0.00  0.00     0.002 A 
ATOM     21  C   UNL d   1       8.200   1.404 -15.847  0.00  0.00     0.002 A 
ATOM     22  C   UNL d   1       8.993   0.602 -16.689  0.00  0.00     0.030 A 
ATOM     23  C   UNL d   1      10.394   0.696 -16.636  0.00  0.00     0.140 A 
ATOM     24  F   UNL d   1      11.155  -0.060 -17.460  0.00  0.00    -0.204 F 
ATOM     25  C   UNL d   1      10.997   1.583 -15.729  0.00  0.00     0.030 A 
ATOM     26  C   UNL d   1      10.201   2.372 -14.877  0.00  0.00     0.002 A 
ENDBRANCH   1  20
TORSDOF 4
