REMARK  1 active torsions:
REMARK  status: ('A' for Active; 'I' for Inactive)
REMARK    1  A    between atoms: C_4  and  C_5 
ROOT
ATOM      1  C   UNL d   1      11.701   6.285  -5.969  0.00  0.00     0.019 C 
ATOM      2  C   UNL d   1      10.874   7.449  -6.501  0.00  0.00     0.125 C 
ATOM      3  C   UNL d   1      10.070   8.036  -5.351  0.00  0.00     0.019 C 
ATOM      4  C   UNL d   1      11.682   8.506  -7.311  0.00  0.00     0.186 C 
ATOM      5  N   UNL d   1      10.870   8.754  -8.499  0.00  0.00    -0.299 N 
ATOM      6  C   UNL d   1      11.182   8.618  -9.827  0.00  0.00     0.238 A 
ATOM      7  O   UNL d   1      12.229   8.716 -10.394  0.00  0.00    -0.272 OA
ATOM      8  C   UNL d   1       9.764   8.227 -10.197  0.00  0.00     0.127 A 
ATOM      9  C   UNL d   1       9.501   8.317  -8.688  0.00  0.00     0.202 A 
ATOM     10  S   UNL d   1       9.586   6.793  -7.687  0.00  0.00     0.190 S 
ATOM     11  O   UNL d   1      10.160   5.692  -8.498  0.00  0.00    -0.224 OA
ATOM     12  O   UNL d   1       8.319   6.576  -6.978  0.00  0.00    -0.224 OA
ENDROOT
BRANCH   4  13
ATOM     13  C   UNL d   1      11.993   9.740  -6.477  0.00  0.00     0.208 C 
ATOM     14  O   UNL d   1      11.427  10.798  -6.732  0.00  0.00    -0.646 OA
ATOM     15  O   UNL d   1      12.743   9.599  -5.362  0.00  0.00    -0.646 OA
ENDBRANCH   4  13
TORSDOF 1
