REMARK  5 active torsions:
REMARK  status: ('A' for Active; 'I' for Inactive)
REMARK    1  A    between atoms: C_2  and  N_3 
REMARK    2  A    between atoms: C_17  and  C_18 
REMARK       I    between atoms: C_18  and  N_20 
REMARK    3  A    between atoms: N_20  and  C_21 
REMARK    4  A    between atoms: C_21  and  C_22 
REMARK    5  A    between atoms: C_25  and  O_26 
ROOT
ATOM      1  N   UNL d   1       7.306   0.303 -15.386  0.00  0.00    -0.295 N 
ATOM      2  C   UNL d   1       6.649  -0.131 -16.504  0.00  0.00     0.261 C 
ATOM      3  O   UNL d   1       5.625  -0.822 -16.451  0.00  0.00    -0.267 OA
ATOM      4  C   UNL d   1       7.082   0.315 -17.873  0.00  0.00     0.065 A 
ATOM      5  C   UNL d   1       6.086   0.767 -18.766  0.00  0.00     0.005 A 
ATOM      6  C   UNL d   1       6.409   1.130 -20.083  0.00  0.00     0.000 A 
ATOM      7  C   UNL d   1       7.739   1.031 -20.526  0.00  0.00     0.001 A 
ATOM      8  C   UNL d   1       8.742   0.561 -19.659  0.00  0.00     0.009 A 
ATOM      9  C   UNL d   1       8.413   0.195 -18.343  0.00  0.00     0.065 A 
ATOM     10  S   UNL d   1       9.716  -0.433 -17.251  0.00  0.00     0.090 S 
ATOM     11  O   UNL d   1      11.048  -0.267 -18.029  0.00  0.00    -0.247 OA
ATOM     12  C   UNL d   1       9.619   0.979 -16.132  0.00  0.00     0.076 A 
ATOM     13  C   UNL d   1      10.724   1.851 -16.024  0.00  0.00     0.011 A 
ATOM     14  C   UNL d   1      10.685   2.939 -15.133  0.00  0.00     0.005 A 
ATOM     15  C   UNL d   1       9.540   3.154 -14.333  0.00  0.00     0.059 A 
ATOM     16  C   UNL d   1       8.441   2.277 -14.471  0.00  0.00     0.023 A 
ATOM     17  C   UNL d   1       8.444   1.188 -15.368  0.00  0.00     0.071 A 
ENDROOT
BRANCH  15  18
ATOM     18  C   UNL d   1       9.453   4.335 -13.403  0.00  0.00     0.275 C 
ATOM     19  O   UNL d   1      10.264   5.252 -13.473  0.00  0.00    -0.266 OA
ATOM     20  N   UNL d   1       8.404   4.333 -12.554  0.00  0.00    -0.229 NA
BRANCH  20  21
ATOM     21  C   UNL d   1       7.856   5.516 -11.910  0.00  0.00     0.155 C 
BRANCH  21  22
ATOM     22  C   UNL d   1       8.727   6.005 -10.784  0.00  0.00     0.002 A 
ATOM     23  C   UNL d   1       8.762   5.305  -9.572  0.00  0.00    -0.000 A 
ATOM     24  C   UNL d   1       9.562   5.769  -8.525  0.00  0.00     0.024 A 
ATOM     25  C   UNL d   1      10.353   6.941  -8.663  0.00  0.00     0.094 A 
ATOM     26  C   UNL d   1      10.316   7.638  -9.894  0.00  0.00     0.024 A 
ATOM     27  C   UNL d   1       9.504   7.169 -10.950  0.00  0.00    -0.000 A 
BRANCH  25  28
ATOM     28  O   UNL d   1      11.167   7.423  -7.656  0.00  0.00    -0.328 OA
ATOM     29  C   UNL d   1      11.244   6.636  -6.473  0.00  0.00     0.181 C 
ENDBRANCH  25  28
ENDBRANCH  21  22
ENDBRANCH  20  21
ENDBRANCH  15  18
BRANCH   1  30
ATOM     30  C   UNL d   1       6.670   0.020 -14.080  0.00  0.00     0.109 C 
ATOM     31  C   UNL d   1       5.424   0.904 -13.826  0.00  0.00     0.027 C 
ENDBRANCH   1  30
TORSDOF 5
