REMARK  5 active torsions:
REMARK  status: ('A' for Active; 'I' for Inactive)
REMARK    1  A    between atoms: C_5  and  O_6 
REMARK    2  A    between atoms: O_6  and  C_7 
REMARK    3  A    between atoms: C_7  and  C_8 
REMARK    4  A    between atoms: C_8  and  C_9 
REMARK    5  A    between atoms: C_9  and  N_10 
ROOT
ATOM      1  C   UNL d   1       9.206   5.927 -10.252  0.00  0.00     0.253 C 
ENDROOT
BRANCH   1   2
ATOM      2  C   UNL d   1       8.645   5.938  -8.822  0.00  0.00     0.068 C 
BRANCH   2   3
ATOM      3  C   UNL d   1       9.152   7.125  -7.989  0.00  0.00     0.151 C 
BRANCH   3   4
ATOM      4  O   UNL d   1      10.422   6.781  -7.444  0.00  0.00    -0.331 OA
BRANCH   4   5
ATOM      5  C   UNL d   1      10.832   7.534  -6.372  0.00  0.00     0.094 A 
ATOM      6  C   UNL d   1      10.670   8.938  -6.310  0.00  0.00     0.026 A 
ATOM      7  C   UNL d   1      11.088   9.648  -5.166  0.00  0.00     0.032 A 
ATOM      8  C   UNL d   1      11.674   8.958  -4.087  0.00  0.00     0.140 A 
ATOM      9  F   UNL d   1      12.052   9.627  -2.975  0.00  0.00    -0.204 F 
ATOM     10  C   UNL d   1      11.861   7.567  -4.154  0.00  0.00     0.032 A 
ATOM     11  C   UNL d   1      11.452   6.860  -5.303  0.00  0.00     0.026 A 
ENDBRANCH   4   5
ENDBRANCH   3   4
ENDBRANCH   2   3
ENDBRANCH   1   2
BRANCH   1  12
ATOM     12  N   UNL d   1       8.509   4.957 -11.095  0.00  0.00     0.142 N 
ATOM     13  C   UNL d   1       9.369   4.597 -12.220  0.00  0.00     0.276 C 
ATOM     14  C   UNL d   1       8.707   3.687 -13.242  0.00  0.00     0.007 A 
ATOM     15  C   UNL d   1       7.297   3.628 -13.325  0.00  0.00    -0.022 A 
ATOM     16  C   UNL d   1       9.494   2.909 -14.117  0.00  0.00    -0.003 A 
ATOM     17  C   UNL d   1       6.458   4.432 -12.345  0.00  0.00     0.061 C 
ATOM     18  C   UNL d   1       6.685   2.781 -14.270  0.00  0.00    -0.004 A 
ATOM     19  C   UNL d   1       7.268   5.530 -11.627  0.00  0.00     0.255 C 
ATOM     20  C   UNL d   1       7.473   2.003 -15.143  0.00  0.00    -0.000 A 
ATOM     21  C   UNL d   1       8.879   2.070 -15.066  0.00  0.00    -0.000 A 
ENDBRANCH   1  12
TORSDOF 5
