REMARK  3 active torsions:
REMARK  status: ('A' for Active; 'I' for Inactive)
REMARK    1  A    between atoms: C_3  and  C_4 
REMARK    2  A    between atoms: C_4  and  N_5 
REMARK    3  A    between atoms: C_8  and  C_9 
ROOT
ATOM      1  N   UNL d   1       9.555   6.640 -11.242  0.00  0.00     0.145 N 
ATOM      2  C   UNL d   1       8.747   5.965 -10.245  0.00  0.00     0.251 C 
ATOM      3  C   UNL d   1       9.415   6.120  -8.877  0.00  0.00     0.040 C 
ATOM      4  C   UNL d   1       9.638   7.605  -8.460  0.00  0.00     0.026 C 
ATOM      5  C   UNL d   1      10.354   8.315  -9.624  0.00  0.00     0.040 C 
ATOM      6  C   UNL d   1       9.636   8.068 -10.958  0.00  0.00     0.251 C 
ENDROOT
BRANCH   1   7
ATOM      7  C   UNL d   1       8.963   6.440 -12.555  0.00  0.00     0.313 C 
BRANCH   7   8
ATOM      8  C   UNL d   1       9.322   5.124 -13.177  0.00  0.00     0.154 A 
ATOM      9  N   UNL d   1       8.414   4.120 -13.339  0.00  0.00    -0.312 N 
ATOM     10  C   UNL d   1       7.020   4.113 -12.937  0.00  0.00     0.132 C 
ATOM     11  C   UNL d   1       9.107   3.091 -13.979  0.00  0.00     0.079 A 
ATOM     12  C   UNL d   1      10.429   3.596 -14.146  0.00  0.00     0.099 A 
ATOM     13  C   UNL d   1       8.751   1.807 -14.431  0.00  0.00     0.019 A 
ATOM     14  N   UNL d   1      10.548   4.868 -13.633  0.00  0.00    -0.229 NA
ATOM     15  C   UNL d   1      11.387   2.776 -14.777  0.00  0.00     0.021 A 
ATOM     16  C   UNL d   1      11.040   1.484 -15.215  0.00  0.00     0.002 A 
ATOM     17  C   UNL d   1       9.731   0.990 -15.026  0.00  0.00     0.002 A 
ENDBRANCH   7   8
ENDBRANCH   1   7
BRANCH   4  18
ATOM     18  C   UNL d   1      10.395   7.788  -7.123  0.00  0.00    -0.022 A 
ATOM     19  C   UNL d   1      10.786   6.674  -6.352  0.00  0.00    -0.003 A 
ATOM     20  C   UNL d   1      11.467   6.828  -5.127  0.00  0.00     0.011 A 
ATOM     21  C   UNL d   1      11.770   8.121  -4.655  0.00  0.00     0.058 A 
ATOM     22  C   UNL d   1      11.403   9.248  -5.417  0.00  0.00     0.011 A 
ATOM     23 CL   UNL d   1      12.625   8.276  -3.156  0.00  0.00    -0.082 Cl
ATOM     24  C   UNL d   1      10.702   9.084  -6.640  0.00  0.00    -0.003 A 
ENDBRANCH   4  18
TORSDOF 3
