REMARK  7 active torsions:
REMARK  status: ('A' for Active; 'I' for Inactive)
REMARK    1  A    between atoms: C_6  and  S_7 
REMARK    2  A    between atoms: S_7  and  N_10 
REMARK    3  A    between atoms: N_10  and  C_11 
REMARK    4  A    between atoms: N_14  and  C_15 
REMARK    5  A    between atoms: C_15  and  C_16 
REMARK    6  A    between atoms: C_16  and  C_17 
REMARK    7  A    between atoms: C_17  and  C_18 
ROOT
ATOM      1  C   UNL d   1       9.018   4.779 -10.944  0.00  0.00     0.151 C 
ATOM      2  C   UNL d   1       9.110   4.447  -9.462  0.00  0.00     0.063 C 
ATOM      3  C   UNL d   1       9.548   5.737  -8.840  0.00  0.00     0.252 C 
ATOM      4  N   UNL d   1      10.247   6.474  -9.885  0.00  0.00     0.139 N 
ATOM      5  C   UNL d   1       9.387   6.269 -11.040  0.00  0.00     0.275 C 
ENDROOT
BRANCH   4   6
ATOM      6  C   UNL d   1      10.429   7.896  -9.609  0.00  0.00     0.251 C 
BRANCH   6   7
ATOM      7  C   UNL d   1      11.277   8.173  -8.346  0.00  0.00     0.042 C 
BRANCH   7   8
ATOM      8  C   UNL d   1      10.575   7.775  -7.025  0.00  0.00     0.050 C 
BRANCH   8   9
ATOM      9  C   UNL d   1      10.947   8.582  -5.849  0.00  0.00     0.088 A 
ATOM     10  C   UNL d   1      11.494   8.163  -4.629  0.00  0.00     0.041 A 
ATOM     11  C   UNL d   1      11.625   9.272  -3.801  0.00  0.00     0.126 A 
ATOM     12  C   UNL d   1      11.860   6.881  -4.145  0.00  0.00     0.003 A 
ATOM     13  O   UNL d   1      11.104  10.340  -4.514  0.00  0.00    -0.211 OA
ATOM     14  C   UNL d   1      12.161   9.194  -2.517  0.00  0.00     0.027 A 
ATOM     15  N   UNL d   1      10.695   9.894  -5.796  0.00  0.00    -0.131 NA
ATOM     16  C   UNL d   1      12.546   7.926  -2.038  0.00  0.00     0.002 A 
ATOM     17  C   UNL d   1      12.386   6.777  -2.840  0.00  0.00     0.000 A 
ENDBRANCH   8   9
ENDBRANCH   7   8
ENDBRANCH   6   7
ENDBRANCH   4   6
BRANCH   1  18
ATOM     18  N   UNL d   1       7.660   4.551 -11.423  0.00  0.00    -0.185 NA
BRANCH  18  19
ATOM     19  S   UNL d   1       7.296   4.756 -13.084  0.00  0.00     0.281 S 
ATOM     20  O   UNL d   1       8.252   5.728 -13.642  0.00  0.00    -0.199 OA
ATOM     21  O   UNL d   1       5.845   4.949 -13.178  0.00  0.00    -0.199 OA
BRANCH  19  22
ATOM     22  C   UNL d   1       7.721   3.183 -13.788  0.00  0.00     0.105 A 
ATOM     23  C   UNL d   1       9.066   2.878 -14.081  0.00  0.00     0.013 A 
ATOM     24  C   UNL d   1       9.385   1.620 -14.631  0.00  0.00     0.000 A 
ATOM     25  C   UNL d   1       8.363   0.682 -14.882  0.00  0.00    -0.004 A 
ATOM     26  C   UNL d   1       7.019   0.997 -14.594  0.00  0.00    -0.021 A 
ATOM     27  C   UNL d   1       5.917  -0.005 -14.863  0.00  0.00     0.031 C 
ATOM     28  C   UNL d   1       6.696   2.256 -14.046  0.00  0.00     0.009 A 
ENDBRANCH  19  22
ENDBRANCH  18  19
ENDBRANCH   1  18
TORSDOF 7
