REMARK  7 active torsions:
REMARK  status: ('A' for Active; 'I' for Inactive)
REMARK    1  A    between atoms: C_2  and  C_3 
REMARK    2  A    between atoms: C_3  and  N_4 
REMARK    3  A    between atoms: N_4  and  C_5 
REMARK    4  A    between atoms: N_4  and  C_24 
REMARK    5  A    between atoms: C_5  and  C_6 
REMARK    6  A    between atoms: C_6  and  N_7 
REMARK    7  A    between atoms: N_10  and  C_11 
ROOT
ATOM      1  N   UNL d   1       9.685   6.086  -9.289  0.00  0.00     0.143 N 
ATOM      2  C   UNL d   1      10.851   6.966  -9.238  0.00  0.00     0.274 C 
ATOM      3  C   UNL d   1      11.491   6.979  -7.846  0.00  0.00     0.137 C 
ATOM      4  N   UNL d   1      10.482   7.364  -6.916  0.00  0.00    -0.344 N 
ATOM      5  C   UNL d   1       9.242   6.633  -6.901  0.00  0.00     0.137 C 
ATOM      6  C   UNL d   1       8.701   6.587  -8.302  0.00  0.00     0.274 C 
ENDROOT
BRANCH   1   7
ATOM      7  C   UNL d   1       9.127   6.217 -10.630  0.00  0.00     0.286 C 
BRANCH   7   8
ATOM      8  C   UNL d   1       7.909   5.301 -10.933  0.00  0.00     0.285 C 
BRANCH   8   9
ATOM      9  N   UNL d   1       7.136   5.585 -12.139  0.00  0.00     0.137 N 
BRANCH   9  10
ATOM     10  C   UNL d   1       7.328   6.939 -12.707  0.00  0.00     0.250 C 
BRANCH  10  11
ATOM     11  C   UNL d   1       6.037   7.628 -13.219  0.00  0.00     0.035 C 
ATOM     12  C   UNL d   1       5.372   8.445 -12.116  0.00  0.00     0.002 C 
ENDBRANCH  10  11
ENDBRANCH   9  10
BRANCH   9  13
ATOM     13  C   UNL d   1       7.169   4.494 -13.126  0.00  0.00     0.224 C 
ATOM     14  C   UNL d   1       6.242   3.305 -12.805  0.00  0.00     0.059 C 
ATOM     15  C   UNL d   1       6.434   2.146 -13.802  0.00  0.00    -0.022 A 
ATOM     16  C   UNL d   1       7.553   2.057 -14.674  0.00  0.00    -0.001 A 
ATOM     17  C   UNL d   1       5.470   1.120 -13.830  0.00  0.00    -0.004 A 
ATOM     18  C   UNL d   1       8.659   3.112 -14.681  0.00  0.00     0.030 C 
ATOM     19  C   UNL d   1       7.664   0.961 -15.574  0.00  0.00     0.127 A 
ATOM     20  C   UNL d   1       8.603   4.037 -13.466  0.00  0.00     0.038 C 
ATOM     21  O   UNL d   1       8.734   0.844 -16.416  0.00  0.00    -0.191 OA
ATOM     22  C   UNL d   1       6.664  -0.030 -15.600  0.00  0.00     0.027 A 
ATOM     23  C   UNL d   1       5.572   0.042 -14.728  0.00  0.00     0.002 A 
ENDBRANCH   9  13
ENDBRANCH   8   9
ENDBRANCH   7   8
ENDBRANCH   1   7
BRANCH   4  24
ATOM     24  C   UNL d   1      10.812   8.260  -5.924  0.00  0.00     0.059 A 
ATOM     25  C   UNL d   1      11.382   7.902  -4.679  0.00  0.00     0.035 A 
ATOM     26  C   UNL d   1      11.555   8.926  -3.715  0.00  0.00     0.108 A 
ATOM     27  C   UNL d   1      11.707   6.599  -4.354  0.00  0.00     0.003 A 
ATOM     28  N   UNL d   1      11.161  10.164  -3.948  0.00  0.00    -0.242 NA
ATOM     29  C   UNL d   1      12.090   8.642  -2.452  0.00  0.00     0.148 A 
ATOM     30  C   UNL d   1      10.675  10.472  -5.157  0.00  0.00     0.101 A 
ATOM     31  C   UNL d   1      10.498   9.551  -6.188  0.00  0.00     0.038 A 
ATOM     32  O   UNL d   1      12.298   9.580  -1.495  0.00  0.00    -0.189 OA
ATOM     33  C   UNL d   1      12.414   7.341  -2.131  0.00  0.00     0.029 A 
ATOM     34  C   UNL d   1      12.254   6.359  -3.085  0.00  0.00     0.002 A 
ENDBRANCH   4  24
TORSDOF 7
