REMARK  9 active torsions:
REMARK  status: ('A' for Active; 'I' for Inactive)
REMARK    1  A    between atoms: C_3  and  S_4 
REMARK    2  A    between atoms: S_4  and  C_5 
REMARK    3  A    between atoms: C_5  and  C_6 
REMARK    4  A    between atoms: C_6  and  C_7 
REMARK    5  A    between atoms: C_7  and  N_8 
REMARK    6  A    between atoms: N_13  and  C_14 
REMARK    7  A    between atoms: C_19  and  O_20 
REMARK    8  A    between atoms: O_20  and  C_21 
REMARK    9  A    between atoms: C_29  and  C_30 
ROOT
ATOM      1  N   UNL d   1      10.413   4.343 -17.797  0.00  0.00     0.138 N 
ATOM      2  C   UNL d   1      11.770   4.062 -17.321  0.00  0.00     0.252 C 
ATOM      3  C   UNL d   1      11.581   3.856 -15.815  0.00  0.00     0.052 C 
ATOM      4  C   UNL d   1      11.354   2.417 -15.357  0.00  0.00     0.021 C 
ATOM      5  C   UNL d   1      10.220   2.534 -14.335  0.00  0.00     0.077 C 
ATOM      6  N   UNL d   1       9.390   3.609 -14.845  0.00  0.00    -0.250 NA
ATOM      7  C   UNL d   1      10.287   4.589 -15.461  0.00  0.00     0.097 C 
ATOM      8  C   UNL d   1       9.760   5.153 -16.776  0.00  0.00     0.266 C 
ENDROOT
BRANCH   1   9
ATOM      9  C   UNL d   1      10.315   4.906 -19.140  0.00  0.00     0.251 C 
BRANCH   9  10
ATOM     10  C   UNL d   1      10.930   6.319 -19.209  0.00  0.00     0.047 C 
BRANCH  10  11
ATOM     11  C   UNL d   1      11.129   6.809 -20.656  0.00  0.00     0.067 C 
BRANCH  11  12
ATOM     12  S   UNL d   1      12.056   8.377 -20.692  0.00  0.00    -0.075 SA
BRANCH  12  13
ATOM     13  C   UNL d   1      13.620   7.856 -20.045  0.00  0.00     0.193 A 
ATOM     14  N   UNL d   1      14.564   8.725 -19.610  0.00  0.00    -0.287 N 
ATOM     15  C   UNL d   1      14.521  10.184 -19.629  0.00  0.00     0.134 C 
ATOM     16  C   UNL d   1      15.548   7.888 -19.180  0.00  0.00     0.186 A 
ATOM     17  N   UNL d   1      15.217   6.598 -19.332  0.00  0.00    -0.127 NA
ATOM     18  N   UNL d   1      13.973   6.577 -19.927  0.00  0.00    -0.122 NA
BRANCH  16  19
ATOM     19  C   UNL d   1      16.856   8.256 -18.625  0.00  0.00     0.136 A 
ATOM     20  N   UNL d   1      17.205   9.561 -18.572  0.00  0.00    -0.238 NA
ATOM     21  C   UNL d   1      18.422   9.855 -18.070  0.00  0.00     0.120 A 
ATOM     22  C   UNL d   1      19.295   8.848 -17.609  0.00  0.00     0.120 A 
ATOM     23  N   UNL d   1      18.960   7.540 -17.648  0.00  0.00    -0.239 NA
ATOM     24  C   UNL d   1      17.745   7.250 -18.161  0.00  0.00     0.121 A 
ENDBRANCH  16  19
ENDBRANCH  12  13
ENDBRANCH  11  12
ENDBRANCH  10  11
ENDBRANCH   9  10
ENDBRANCH   1   9
BRANCH   6  25
ATOM     25  C   UNL d   1       8.336   4.025 -14.012  0.00  0.00     0.059 A 
ATOM     26  C   UNL d   1       7.161   3.223 -13.923  0.00  0.00     0.112 A 
ATOM     27  C   UNL d   1       6.091   3.650 -13.103  0.00  0.00     0.025 A 
ATOM     28  C   UNL d   1       6.207   4.843 -12.354  0.00  0.00     0.002 A 
ATOM     29  C   UNL d   1       7.377   5.631 -12.430  0.00  0.00     0.001 A 
ATOM     30  C   UNL d   1       8.433   5.216 -13.251  0.00  0.00     0.013 A 
BRANCH  26  31
ATOM     31  O   UNL d   1       7.036   2.120 -14.750  0.00  0.00    -0.253 OA
BRANCH  31  32
ATOM     32  C   UNL d   1       6.452   0.951 -14.331  0.00  0.00     0.530 C 
ATOM     33  F   UNL d   1       5.400   1.161 -13.504  0.00  0.00    -0.144 F 
ATOM     34  F   UNL d   1       5.998   0.258 -15.421  0.00  0.00    -0.144 F 
ATOM     35  F   UNL d   1       7.345   0.132 -13.695  0.00  0.00    -0.144 F 
ENDBRANCH  31  32
ENDBRANCH  26  31
ENDBRANCH   6  25
TORSDOF 9
