REMARK  5 active torsions:
REMARK  status: ('A' for Active; 'I' for Inactive)
REMARK    1  A    between atoms: C_12  and  C_13 
REMARK    2  A    between atoms: C_13  and  N_14 
REMARK    3  A    between atoms: N_14  and  C_15 
REMARK    4  A    between atoms: C_15  and  C_16 
REMARK    5  A    between atoms: C_16  and  C_17 
ROOT
ATOM      1  N   UNL d   1       7.532   4.186 -13.967  0.00  0.00     0.342 N 
ENDROOT
BRANCH   1   2
ATOM      2  C   UNL d   1       8.418   3.029 -14.057  0.00  0.00     0.323 C 
BRANCH   2   3
ATOM      3  C   UNL d   1       7.751   1.799 -14.763  0.00  0.00     0.188 C 
ATOM      4  C   UNL d   1       6.328   1.431 -14.287  0.00  0.00     0.181 C 
ATOM      5  O   UNL d   1       5.801   0.267 -14.948  0.00  0.00    -0.326 OA
ATOM      6  C   UNL d   1       6.034   0.248 -16.315  0.00  0.00     0.114 A 
ATOM      7  C   UNL d   1       5.378  -0.631 -17.201  0.00  0.00     0.029 A 
ATOM      8  C   UNL d   1       6.958   1.163 -16.907  0.00  0.00     0.116 A 
ATOM      9  C   UNL d   1       4.380  -1.712 -16.933  0.00  0.00     0.120 A 
ATOM     10  C   UNL d   1       5.628  -0.541 -18.571  0.00  0.00     0.083 A 
ATOM     11  C   UNL d   1       4.148  -2.178 -18.382  0.00  0.00     0.260 A 
ATOM     12  O   UNL d   1       3.376  -3.082 -18.695  0.00  0.00    -0.270 OA
ATOM     13  N   UNL d   1       4.878  -1.481 -19.246  0.00  0.00    -0.212 NA
ATOM     14  C   UNL d   1       6.501   0.360 -19.177  0.00  0.00     0.021 A 
ATOM     15  C   UNL d   1       7.172   1.218 -18.302  0.00  0.00     0.028 A 
ATOM     16  O   UNL d   1       7.663   2.066 -16.151  0.00  0.00    -0.327 OA
ENDBRANCH   2   3
ENDBRANCH   1   2
BRANCH   1  17
ATOM     17  C   UNL d   1       7.417   4.709 -12.606  0.00  0.00     0.290 C 
BRANCH  17  18
ATOM     18  C   UNL d   1       8.749   5.372 -12.183  0.00  0.00     0.038 C 
BRANCH  18  19
ATOM     19  C   UNL d   1       8.733   5.933 -10.732  0.00  0.00     0.008 C 
ATOM     20  C   UNL d   1       9.768   7.043 -10.558  0.00  0.00     0.046 C 
ATOM     21  C   UNL d   1      10.164   7.326  -9.169  0.00  0.00     0.055 A 
ATOM     22  C   UNL d   1       9.869   6.587  -8.058  0.00  0.00    -0.007 A 
ATOM     23  N   UNL d   1      10.949   8.398  -8.834  0.00  0.00    -0.250 NA
ATOM     24  C   UNL d   1       9.026   5.335  -8.205  0.00  0.00     0.028 C 
ATOM     25  C   UNL d   1      10.514   7.268  -6.946  0.00  0.00     0.017 A 
ATOM     26  C   UNL d   1       8.931   4.841  -9.663  0.00  0.00     0.005 C 
ATOM     27  C   UNL d   1      11.162   8.417  -7.487  0.00  0.00     0.081 A 
ATOM     28  C   UNL d   1      10.653   7.095  -5.558  0.00  0.00     0.031 A 
ATOM     29  C   UNL d   1      11.870   9.346  -6.720  0.00  0.00     0.021 A 
ATOM     30  C   UNL d   1      11.970   9.158  -5.350  0.00  0.00     0.031 A 
ATOM     31  C   UNL d   1      11.375   8.012  -4.778  0.00  0.00     0.140 A 
ATOM     32  F   UNL d   1      11.472   7.804  -3.438  0.00  0.00    -0.204 F 
ENDBRANCH  18  19
ENDBRANCH  17  18
ENDBRANCH   1  17
TORSDOF 5
