REMARK  9 active torsions:
REMARK  status: ('A' for Active; 'I' for Inactive)
REMARK    1  A    between atoms: C_5  and  C_6 
REMARK    2  A    between atoms: C_6  and  C_7 
REMARK    3  A    between atoms: C_7  and  N_8 
REMARK    4  A    between atoms: C_11  and  C_12 
REMARK    5  A    between atoms: C_12  and  C_13 
REMARK    6  A    between atoms: C_13  and  O_14 
REMARK    7  A    between atoms: O_14  and  C_15 
REMARK    8  A    between atoms: C_15  and  C_16 
REMARK    9  A    between atoms: C_17  and  C_18 
ROOT
ATOM      1  N   UNL d   1       6.202   1.921 -13.643  0.00  0.00     0.137 N 
ATOM      2  C   UNL d   1       5.250   2.519 -12.714  0.00  0.00     0.250 C 
ATOM      3  C   UNL d   1       5.896   3.623 -11.861  0.00  0.00     0.035 C 
ATOM      4  C   UNL d   1       6.554   4.696 -12.731  0.00  0.00     0.006 C 
ATOM      5  C   UNL d   1       7.457   4.013 -13.770  0.00  0.00     0.035 C 
ATOM      6  C   UNL d   1       6.688   2.950 -14.551  0.00  0.00     0.250 C 
ENDROOT
BRANCH   4   7
ATOM      7  C   UNL d   1       7.289   5.769 -11.891  0.00  0.00     0.032 C 
BRANCH   7   8
ATOM      8  C   UNL d   1       8.686   5.301 -11.414  0.00  0.00     0.144 C 
BRANCH   8   9
ATOM      9  O   UNL d   1       9.230   6.058 -10.350  0.00  0.00    -0.341 OA
BRANCH   9  10
ATOM     10  C   UNL d   1       8.644   5.722  -9.108  0.00  0.00     0.218 C 
BRANCH  10  11
ATOM     11  C   UNL d   1       9.342   6.447  -8.047  0.00  0.00    -0.054 C 
ATOM     12  C   UNL d   1       9.942   7.044  -7.178  0.00  0.00    -0.062 C 
BRANCH  12  13
ATOM     13  C   UNL d   1      10.630   7.772  -6.141  0.00  0.00     0.042 A 
ATOM     14  C   UNL d   1      10.707   9.173  -6.209  0.00  0.00     0.008 A 
ATOM     15  C   UNL d   1      11.363   9.882  -5.189  0.00  0.00     0.001 A 
ATOM     16  C   UNL d   1      11.940   9.188  -4.105  0.00  0.00     0.000 A 
ATOM     17  C   UNL d   1      11.859   7.782  -4.040  0.00  0.00     0.001 A 
ATOM     18  C   UNL d   1      11.207   7.071  -5.062  0.00  0.00     0.008 A 
ENDBRANCH  12  13
ENDBRANCH  10  11
ENDBRANCH   9  10
ENDBRANCH   8   9
ENDBRANCH   7   8
ENDBRANCH   4   7
BRANCH   1  19
ATOM     19  C   UNL d   1       5.584   0.784 -14.352  0.00  0.00     0.255 C 
BRANCH  19  20
ATOM     20  C   UNL d   1       6.593  -0.335 -14.664  0.00  0.00     0.062 C 
BRANCH  20  21
ATOM     21  C   UNL d   1       7.795   0.102 -15.489  0.00  0.00    -0.020 A 
ATOM     22  C   UNL d   1       7.700   0.195 -16.895  0.00  0.00    -0.002 A 
ATOM     23  C   UNL d   1       8.813   0.618 -17.650  0.00  0.00     0.029 A 
ATOM     24  C   UNL d   1      10.017   0.959 -17.006  0.00  0.00     0.140 A 
ATOM     25  F   UNL d   1      11.079   1.377 -17.733  0.00  0.00    -0.204 F 
ATOM     26  C   UNL d   1      10.114   0.879 -15.603  0.00  0.00     0.029 A 
ATOM     27  C   UNL d   1       9.002   0.447 -14.849  0.00  0.00    -0.002 A 
ENDBRANCH  20  21
ENDBRANCH  19  20
ENDBRANCH   1  19
TORSDOF 9
