REMARK  2 active torsions:
REMARK  status: ('A' for Active; 'I' for Inactive)
REMARK    1  A    between atoms: N_10  and  C_11 
REMARK    2  A    between atoms: C_11  and  C_12 
ROOT
ATOM      1 BR   UNL d   1      16.093   0.243 -19.823  0.00  0.00    -0.049 Br
ATOM      2  C   UNL d   1      14.303  -0.010 -20.428  0.00  0.00     0.035 A 
ATOM      3  C   UNL d   1      14.024   0.007 -21.808  0.00  0.00     0.009 A 
ATOM      4  C   UNL d   1      12.708  -0.194 -22.270  0.00  0.00     0.024 A 
ATOM      5  C   UNL d   1      11.662  -0.413 -21.358  0.00  0.00     0.090 A 
ATOM      6  C   UNL d   1      11.947  -0.416 -19.965  0.00  0.00     0.002 A 
ATOM      7  C   UNL d   1      13.261  -0.211 -19.502  0.00  0.00     0.004 A 
ATOM      8  C   UNL d   1      10.813  -0.661 -19.004  0.00  0.00     0.062 C 
ATOM      9  C   UNL d   1      10.737   0.077 -17.668  0.00  0.00     0.255 C 
ATOM     10  N   UNL d   1       9.352  -0.210 -17.276  0.00  0.00     0.142 N 
ATOM     11  C   UNL d   1       8.565  -0.320 -18.521  0.00  0.00     0.254 C 
ATOM     12  C   UNL d   1       9.557  -0.188 -19.646  0.00  0.00     0.070 C 
ATOM     13  C   UNL d   1       9.322  -0.920 -20.960  0.00  0.00     0.151 C 
ATOM     14  O   UNL d   1      10.383  -0.600 -21.864  0.00  0.00    -0.331 OA
ENDROOT
BRANCH  10  15
ATOM     15  C   UNL d   1       8.797   0.779 -16.354  0.00  0.00     0.277 C 
BRANCH  15  16
ATOM     16  C   UNL d   1       7.479   0.386 -15.672  0.00  0.00     0.011 A 
ATOM     17  C   UNL d   1       6.316   0.029 -16.435  0.00  0.00    -0.002 A 
ATOM     18  C   UNL d   1       5.134  -0.369 -15.768  0.00  0.00    -0.000 A 
ATOM     19  C   UNL d   1       5.061  -0.366 -14.367  0.00  0.00    -0.000 A 
ATOM     20  C   UNL d   1       6.191   0.008 -13.613  0.00  0.00    -0.000 A 
ATOM     21  C   UNL d   1       7.382   0.382 -14.266  0.00  0.00    -0.002 A 
ENDBRANCH  15  16
ENDBRANCH  10  15
TORSDOF 2
