REMARK  7 active torsions:
REMARK  status: ('A' for Active; 'I' for Inactive)
REMARK       I    between atoms: C_2  and  N_3 
REMARK    1  A    between atoms: C_2  and  C_21 
REMARK    2  A    between atoms: N_3  and  C_4 
REMARK    3  A    between atoms: C_4  and  C_5 
REMARK    4  A    between atoms: C_5  and  C_6 
REMARK    5  A    between atoms: C_6  and  C_7 
REMARK    6  A    between atoms: C_7  and  N_8 
REMARK    7  A    between atoms: N_11  and  C_12 
ROOT
ATOM      1  C   UNL d   1       8.815   4.924 -11.463  0.00  0.00     0.029 C 
ENDROOT
BRANCH   1   2
ATOM      2  C   UNL d   1       8.633   5.330 -12.930  0.00  0.00     0.129 C 
BRANCH   2   3
ATOM      3  N   UNL d   1       9.041   4.246 -13.812  0.00  0.00    -0.234 NA
ATOM      4  C   UNL d   1      10.297   4.017 -14.220  0.00  0.00     0.275 C 
ATOM      5  O   UNL d   1      11.255   4.728 -13.909  0.00  0.00    -0.266 OA
BRANCH   4   6
ATOM      6  C   UNL d   1      10.461   2.857 -15.157  0.00  0.00     0.058 A 
ATOM      7  C   UNL d   1      11.401   2.932 -16.209  0.00  0.00     0.005 A 
ATOM      8  C   UNL d   1      11.570   1.850 -17.097  0.00  0.00     0.000 A 
ATOM      9  C   UNL d   1      10.802   0.672 -16.924  0.00  0.00     0.000 A 
ATOM     10  C   UNL d   1      12.499   1.936 -18.155  0.00  0.00     0.000 A 
ATOM     11  C   UNL d   1       9.877   0.586 -15.865  0.00  0.00     0.000 A 
ATOM     12  C   UNL d   1      10.978  -0.412 -17.808  0.00  0.00     0.000 A 
ATOM     13  C   UNL d   1       9.712   1.669 -14.982  0.00  0.00     0.005 A 
ATOM     14  C   UNL d   1      11.913  -0.326 -18.857  0.00  0.00     0.000 A 
ATOM     15  C   UNL d   1      12.670   0.848 -19.032  0.00  0.00     0.000 A 
ENDBRANCH   4   6
ENDBRANCH   2   3
ENDBRANCH   1   2
BRANCH   1  16
ATOM     16  C   UNL d   1       8.316   5.994 -10.499  0.00  0.00     0.037 C 
BRANCH  16  17
ATOM     17  C   UNL d   1       8.608   5.662  -9.029  0.00  0.00     0.251 C 
BRANCH  17  18
ATOM     18  N   UNL d   1       9.593   6.600  -8.483  0.00  0.00     0.141 N 
ATOM     19  C   UNL d   1      10.585   5.853  -7.734  0.00  0.00     0.274 C 
ATOM     20  C   UNL d   1      11.666   6.767  -7.136  0.00  0.00     0.137 C 
ATOM     21  N   UNL d   1      11.055   7.795  -6.302  0.00  0.00    -0.343 N 
ATOM     22  C   UNL d   1       9.954   8.499  -6.943  0.00  0.00     0.137 C 
ATOM     23  C   UNL d   1       8.948   7.517  -7.538  0.00  0.00     0.274 C 
BRANCH  21  24
ATOM     24  C   UNL d   1      11.459   8.032  -4.973  0.00  0.00     0.082 A 
ATOM     25  C   UNL d   1      11.467   9.339  -4.433  0.00  0.00     0.146 A 
ATOM     26  C   UNL d   1      11.859   9.568  -3.100  0.00  0.00     0.029 A 
ATOM     27  O   UNL d   1      11.120  10.415  -5.193  0.00  0.00    -0.189 OA
ATOM     28  C   UNL d   1      12.260   8.493  -2.291  0.00  0.00     0.002 A 
ATOM     29  C   UNL d   1      12.258   7.189  -2.807  0.00  0.00     0.002 A 
ATOM     30  C   UNL d   1      11.854   6.962  -4.140  0.00  0.00     0.019 A 
ENDBRANCH  21  24
ENDBRANCH  17  18
ENDBRANCH  16  17
ENDBRANCH   1  16
TORSDOF 7
