REMARK  3 active torsions:
REMARK  status: ('A' for Active; 'I' for Inactive)
REMARK    1  A    between atoms: O_2  and  C_3 
REMARK    2  A    between atoms: N_15  and  C_16 
REMARK    3  A    between atoms: C_16  and  C_17 
ROOT
ATOM      1  C   UNL d   1       5.824   0.102 -14.829  0.00  0.00     0.096 A 
ATOM      2  C   UNL d   1       5.060   0.704 -13.798  0.00  0.00     0.024 A 
ATOM      3  C   UNL d   1       5.460   1.933 -13.237  0.00  0.00     0.004 A 
ATOM      4  C   UNL d   1       6.633   2.573 -13.702  0.00  0.00     0.019 A 
ATOM      5  C   UNL d   1       7.144   3.836 -13.150  0.00  0.00    -0.015 A 
ATOM      6  C   UNL d   1       8.343   4.316 -13.540  0.00  0.00     0.071 A 
ATOM      7  C   UNL d   1       9.162   3.627 -14.570  0.00  0.00     0.298 A 
ATOM      8  O   UNL d   1      10.247   4.064 -14.955  0.00  0.00    -0.259 OA
ATOM      9  O   UNL d   1       8.637   2.476 -15.086  0.00  0.00    -0.273 OA
ATOM     10  C   UNL d   1       7.440   1.934 -14.674  0.00  0.00     0.105 A 
ATOM     11  C   UNL d   1       7.029   0.707 -15.228  0.00  0.00     0.049 A 
ATOM     12  C   UNL d   1       8.952   5.572 -12.939  0.00  0.00     0.282 C 
ATOM     13  N   UNL d   1       8.392   5.940 -11.641  0.00  0.00     0.146 N 
ATOM     14  C   UNL d   1       6.925   5.930 -11.718  0.00  0.00     0.256 C 
ATOM     15  C   UNL d   1       6.356   4.531 -12.052  0.00  0.00     0.062 C 
ENDROOT
BRANCH  13  16
ATOM     16  C   UNL d   1       8.939   5.152 -10.527  0.00  0.00     0.277 C 
BRANCH  16  17
ATOM     17  C   UNL d   1       9.383   6.014  -9.360  0.00  0.00     0.012 A 
ATOM     18  C   UNL d   1      10.550   6.800  -9.465  0.00  0.00     0.010 A 
ATOM     19  C   UNL d   1      11.017   7.540  -8.361  0.00  0.00     0.068 A 
ATOM     20  C   UNL d   1      10.292   7.530  -7.151  0.00  0.00     0.068 A 
ATOM     21 CL   UNL d   1      12.510   8.391  -8.481  0.00  0.00    -0.082 Cl
ATOM     22  C   UNL d   1       9.105   6.779  -7.059  0.00  0.00     0.012 A 
ATOM     23 CL   UNL d   1      10.847   8.422  -5.781  0.00  0.00    -0.082 Cl
ATOM     24  C   UNL d   1       8.661   6.005  -8.150  0.00  0.00    -0.001 A 
ENDBRANCH  16  17
ENDBRANCH  13  16
BRANCH   1  25
ATOM     25  O   UNL d   1       5.458  -1.054 -15.479  0.00  0.00    -0.328 OA
ATOM     26  C   UNL d   1       4.096  -1.452 -15.424  0.00  0.00     0.181 C 
ENDBRANCH   1  25
TORSDOF 3
