REMARK  9 active torsions:
REMARK  status: ('A' for Active; 'I' for Inactive)
REMARK    1  A    between atoms: O_2  and  C_3 
REMARK    2  A    between atoms: C_8  and  N_9 
REMARK    3  A    between atoms: N_12  and  C_13 
REMARK    4  A    between atoms: C_13  and  C_14 
REMARK    5  A    between atoms: C_14  and  C_15 
REMARK    6  A    between atoms: C_15  and  C_16 
REMARK    7  A    between atoms: C_16  and  N_17 
REMARK       I    between atoms: N_17  and  C_18 
REMARK    8  A    between atoms: C_18  and  C_20 
REMARK    9  A    between atoms: C_24  and  O_25 
ROOT
ATOM      1  C   UNL d   1       8.755   6.675 -11.049  0.00  0.00     0.129 C 
ENDROOT
BRANCH   1   2
ATOM      2  C   UNL d   1       9.210   5.312 -11.535  0.00  0.00     0.029 C 
BRANCH   2   3
ATOM      3  C   UNL d   1       9.020   5.127 -13.038  0.00  0.00     0.037 C 
BRANCH   3   4
ATOM      4  C   UNL d   1       9.654   3.811 -13.527  0.00  0.00     0.251 C 
BRANCH   4   5
ATOM      5  N   UNL d   1      10.341   3.994 -14.804  0.00  0.00     0.141 N 
ATOM      6  C   UNL d   1       9.367   4.180 -15.884  0.00  0.00     0.274 C 
ATOM      7  C   UNL d   1      10.075   4.407 -17.239  0.00  0.00     0.137 C 
ATOM      8  N   UNL d   1      10.997   3.315 -17.503  0.00  0.00    -0.343 N 
ATOM      9  C   UNL d   1      11.915   2.987 -16.423  0.00  0.00     0.137 C 
ATOM     10  C   UNL d   1      11.146   2.804 -15.097  0.00  0.00     0.274 C 
BRANCH   8  11
ATOM     11  C   UNL d   1      10.928   2.563 -18.696  0.00  0.00     0.079 A 
ATOM     12  C   UNL d   1      10.811   1.155 -18.652  0.00  0.00     0.110 A 
ATOM     13  C   UNL d   1      10.766   0.431 -19.881  0.00  0.00     0.026 A 
ATOM     14  C   UNL d   1      10.833   1.108 -21.111  0.00  0.00     0.002 A 
ATOM     15  C   UNL d   1      10.935   2.507 -21.143  0.00  0.00     0.002 A 
ATOM     16  C   UNL d   1      10.978   3.234 -19.934  0.00  0.00     0.019 A 
BRANCH  12  17
ATOM     17  O   UNL d   1      10.727   0.541 -17.421  0.00  0.00    -0.327 OA
ATOM     18  C   UNL d   1      10.312  -0.815 -17.355  0.00  0.00     0.181 C 
ENDBRANCH  12  17
ENDBRANCH   8  11
ENDBRANCH   4   5
ENDBRANCH   3   4
ENDBRANCH   2   3
ENDBRANCH   1   2
BRANCH   1  19
ATOM     19  N   UNL d   1       9.202   6.857  -9.673  0.00  0.00    -0.234 NA
ATOM     20  C   UNL d   1      10.400   7.352  -9.300  0.00  0.00     0.282 C 
ATOM     21  O   UNL d   1      11.263   7.730 -10.098  0.00  0.00    -0.265 OA
BRANCH  20  22
ATOM     22  C   UNL d   1      10.632   7.488  -7.839  0.00  0.00     0.108 C 
ATOM     23  C   UNL d   1      11.548   8.293  -7.178  0.00  0.00     0.115 C 
ATOM     24  C   UNL d   1      11.568   8.071  -5.756  0.00  0.00     0.041 A 
ATOM     25  N   UNL d   1      12.441   9.179  -7.739  0.00  0.00    -0.147 N 
ATOM     26  C   UNL d   1      10.727   6.966  -5.450  0.00  0.00     0.114 A 
ATOM     27  C   UNL d   1      12.284   8.559  -4.614  0.00  0.00    -0.004 A 
ATOM     28  S   UNL d   1       9.721   6.447  -6.793  0.00  0.00    -0.061 SA
ATOM     29  N   UNL d   1      10.674   6.391  -4.224  0.00  0.00    -0.215 NA
ATOM     30  C   UNL d   1      11.371   6.844  -3.191  0.00  0.00     0.189 A 
ATOM     31  C   UNL d   1      12.194   7.980  -3.338  0.00  0.00     0.095 A 
ATOM     32 CL   UNL d   1      12.873   8.630  -1.917  0.00  0.00    -0.079 Cl
ATOM     33  C   UNL d   1      13.310   9.623  -4.839  0.00  0.00     0.032 C 
BRANCH  30  34
ATOM     34  O   UNL d   1      11.053   6.376  -1.920  0.00  0.00    -0.311 OA
ATOM     35  C   UNL d   1       9.662   6.272  -1.486  0.00  0.00     0.183 C 
ENDBRANCH  30  34
ENDBRANCH  20  22
ENDBRANCH   1  19
TORSDOF 9
