REMARK  10 active torsions:
REMARK  status: ('A' for Active; 'I' for Inactive)
REMARK    1  A    between atoms: C_2  and  C_3 
REMARK    2  A    between atoms: C_3  and  N_4 
REMARK    3  A    between atoms: N_4  and  C_5 
REMARK    4  A    between atoms: N_4  and  C_24 
REMARK    5  A    between atoms: C_5  and  C_6 
REMARK    6  A    between atoms: C_6  and  C_7 
REMARK    7  A    between atoms: C_7  and  C_8 
REMARK    8  A    between atoms: C_8  and  N_9 
REMARK       I    between atoms: N_9  and  C_10 
REMARK    9  A    between atoms: C_10  and  C_12 
REMARK   10  A    between atoms: C_15  and  C_16 
ROOT
ATOM      1  C   UNL d   1       9.123   4.774 -12.624  0.00  0.00     0.029 C 
ENDROOT
BRANCH   1   2
ATOM      2  C   UNL d   1       8.522   4.530 -14.027  0.00  0.00     0.037 C 
BRANCH   2   3
ATOM      3  C   UNL d   1       8.708   3.101 -14.531  0.00  0.00     0.250 C 
BRANCH   3   4
ATOM      4  N   UNL d   1       9.075   2.938 -15.930  0.00  0.00     0.135 N 
BRANCH   4   5
ATOM      5  C   UNL d   1       8.927   1.536 -16.397  0.00  0.00     0.250 C 
BRANCH   5   6
ATOM      6  C   UNL d   1      10.085   0.600 -15.948  0.00  0.00     0.035 C 
ATOM      7  C   UNL d   1      10.219   0.421 -14.426  0.00  0.00     0.002 C 
ENDBRANCH   5   6
ENDBRANCH   4   5
BRANCH   4   8
ATOM      8  C   UNL d   1      10.351   3.546 -16.380  0.00  0.00     0.227 C 
ATOM      9  C   UNL d   1      10.221   4.996 -16.937  0.00  0.00     0.079 C 
ATOM     10  C   UNL d   1      11.549   5.630 -17.102  0.00  0.00     0.059 A 
ATOM     11  N   UNL d   1      12.710   5.127 -16.530  0.00  0.00    -0.255 N 
ATOM     12  C   UNL d   1      11.923   6.797 -17.722  0.00  0.00     0.037 A 
ATOM     13  C   UNL d   1      12.829   3.898 -15.778  0.00  0.00     0.129 C 
ATOM     14  N   UNL d   1      13.803   5.870 -16.782  0.00  0.00    -0.168 NA
ATOM     15  C   UNL d   1      11.481   3.414 -15.301  0.00  0.00     0.060 C 
ATOM     16  C   UNL d   1      13.320   6.868 -17.498  0.00  0.00     0.121 A 
ENDBRANCH   4   8
ENDBRANCH   3   4
ENDBRANCH   2   3
ENDBRANCH   1   2
BRANCH   1  17
ATOM     17  C   UNL d   1       8.925   6.235 -12.212  0.00  0.00     0.129 C 
BRANCH  17  18
ATOM     18  N   UNL d   1       9.454   6.486 -10.890  0.00  0.00    -0.234 NA
ATOM     19  C   UNL d   1       9.855   7.685 -10.441  0.00  0.00     0.275 C 
ATOM     20  O   UNL d   1       9.846   8.699 -11.139  0.00  0.00    -0.266 OA
BRANCH  19  21
ATOM     21  C   UNL d   1      10.281   7.736  -9.011  0.00  0.00     0.058 A 
ATOM     22  C   UNL d   1      11.318   8.608  -8.609  0.00  0.00     0.005 A 
ATOM     23  C   UNL d   1      11.698   8.681  -7.256  0.00  0.00     0.000 A 
ATOM     24  C   UNL d   1      11.062   7.893  -6.274  0.00  0.00     0.000 A 
ATOM     25  C   UNL d   1      10.018   7.027  -6.685  0.00  0.00     0.000 A 
ATOM     26  C   UNL d   1       9.632   6.950  -8.034  0.00  0.00     0.005 A 
BRANCH  24  27
ATOM     27  C   UNL d   1      11.460   7.962  -4.860  0.00  0.00     0.000 A 
ATOM     28  C   UNL d   1      11.697   9.209  -4.234  0.00  0.00     0.000 A 
ATOM     29  C   UNL d   1      12.089   9.278  -2.892  0.00  0.00     0.000 A 
ATOM     30  C   UNL d   1      12.280   8.105  -2.135  0.00  0.00     0.000 A 
ATOM     31  C   UNL d   1      12.034   6.856  -2.742  0.00  0.00     0.000 A 
ATOM     32  C   UNL d   1      11.640   6.789  -4.087  0.00  0.00     0.000 A 
ENDBRANCH  24  27
ENDBRANCH  19  21
ENDBRANCH  17  18
ENDBRANCH   1  17
TORSDOF 10
