REMARK  9 active torsions:
REMARK  status: ('A' for Active; 'I' for Inactive)
REMARK    1  A    between atoms: C_5  and  O_6 
REMARK    2  A    between atoms: O_6  and  C_7 
REMARK    3  A    between atoms: C_7  and  C_8 
REMARK    4  A    between atoms: C_8  and  N_9 
REMARK    5  A    between atoms: N_9  and  C_10 
REMARK    6  A    between atoms: C_10  and  C_11 
REMARK    7  A    between atoms: C_11  and  C_12 
REMARK    8  A    between atoms: C_12  and  O_13 
REMARK    9  A    between atoms: O_13  and  C_14 
ROOT
ATOM      1  N   UNL d   1       9.062   6.503  -9.221  0.00  0.00     0.342 N 
ENDROOT
BRANCH   1   2
ATOM      2  C   UNL d   1      10.034   7.462  -8.706  0.00  0.00     0.323 C 
BRANCH   2   3
ATOM      3  C   UNL d   1       9.245   8.557  -7.953  0.00  0.00     0.187 C 
BRANCH   3   4
ATOM      4  O   UNL d   1      10.104   9.354  -7.140  0.00  0.00    -0.329 OA
BRANCH   4   5
ATOM      5  C   UNL d   1      10.646   8.780  -6.015  0.00  0.00     0.094 A 
ATOM      6  C   UNL d   1      10.504   7.402  -5.763  0.00  0.00     0.025 A 
ATOM      7  C   UNL d   1      11.178   6.799  -4.713  0.00  0.00     0.013 A 
ATOM      8  C   UNL d   1      11.906   7.576  -3.789  0.00  0.00     0.058 A 
ATOM      9 CL   UNL d   1      12.588   6.807  -2.396  0.00  0.00    -0.082 Cl
ATOM     10  C   UNL d   1      11.997   8.978  -3.972  0.00  0.00     0.013 A 
ATOM     11  C   UNL d   1      11.392   9.583  -5.107  0.00  0.00     0.025 A 
ENDBRANCH   4   5
ENDBRANCH   3   4
ENDBRANCH   2   3
ENDBRANCH   1   2
BRANCH   1  12
ATOM     12  C   UNL d   1       9.803   5.504  -9.986  0.00  0.00     0.293 C 
BRANCH  12  13
ATOM     13  C   UNL d   1       8.867   4.843 -11.005  0.00  0.00     0.071 C 
BRANCH  13  14
ATOM     14  C   UNL d   1       8.335   5.827 -12.063  0.00  0.00     0.151 C 
BRANCH  14  15
ATOM     15  O   UNL d   1       8.212   5.173 -13.315  0.00  0.00    -0.331 OA
BRANCH  15  16
ATOM     16  C   UNL d   1       7.398   4.065 -13.390  0.00  0.00     0.094 A 
ATOM     17  C   UNL d   1       6.262   3.859 -12.567  0.00  0.00     0.025 A 
ATOM     18  C   UNL d   1       5.495   2.685 -12.697  0.00  0.00     0.009 A 
ATOM     19  C   UNL d   1       5.860   1.705 -13.643  0.00  0.00     0.035 A 
ATOM     20  C   UNL d   1       6.984   1.909 -14.465  0.00  0.00     0.009 A 
ATOM     21 BR   UNL d   1       4.856   0.095 -13.806  0.00  0.00    -0.049 Br
ATOM     22  C   UNL d   1       7.748   3.085 -14.338  0.00  0.00     0.025 A 
ENDBRANCH  15  16
ENDBRANCH  14  15
ENDBRANCH  13  14
ENDBRANCH  12  13
ENDBRANCH   1  12
TORSDOF 9
