REMARK  1 active torsions:
REMARK  status: ('A' for Active; 'I' for Inactive)
REMARK    1  A    between atoms: C_2  and  C_4 
ROOT
ATOM      1  C   UNL d   1      11.760   8.240  -4.028  0.00  0.00     0.079 A 
ATOM      2  C   UNL d   1      11.456   7.284  -5.024  0.00  0.00     0.008 A 
ATOM      3  C   UNL d   1      10.970   7.727  -6.271  0.00  0.00     0.021 A 
ATOM      4  C   UNL d   1      10.791   9.109  -6.474  0.00  0.00     0.099 A 
ATOM      5  N   UNL d   1      11.059  10.030  -5.530  0.00  0.00    -0.242 NA
ATOM      6  C   UNL d   1      11.516   9.595  -4.342  0.00  0.00     0.104 A 
ENDROOT
BRANCH   1   7
ATOM      7  C   UNL d   1      12.256   7.810  -2.678  0.00  0.00     0.298 C 
ATOM      8  N   UNL d   1      12.664   8.768  -1.840  0.00  0.00    -0.102 N 
ATOM      9  O   UNL d   1      12.297   6.624  -2.362  0.00  0.00    -0.264 OA
ENDBRANCH   1   7
TORSDOF 1
