REMARK  6 active torsions:
REMARK  status: ('A' for Active; 'I' for Inactive)
REMARK    1  A    between atoms: N_12  and  C_13 
REMARK    2  A    between atoms: C_13  and  C_14 
REMARK    3  A    between atoms: C_14  and  C_15 
REMARK    4  A    between atoms: C_15  and  C_16 
REMARK    5  A    between atoms: C_16  and  N_17 
REMARK    6  A    between atoms: N_17  and  C_18 
ROOT
ATOM      1  C   UNL d   1       8.136   6.870 -11.782  0.00  0.00     0.027 C 
ENDROOT
BRANCH   1   2
ATOM      2  C   UNL d   1       8.375   6.360 -13.189  0.00  0.00     0.112 C 
BRANCH   2   3
ATOM      3  N   UNL d   1       8.292   4.886 -13.303  0.00  0.00    -0.271 N 
ATOM      4  C   UNL d   1       9.492   4.242 -13.266  0.00  0.00     0.239 C 
ATOM      5  O   UNL d   1      10.587   4.819 -13.132  0.00  0.00    -0.272 OA
ATOM      6  C   UNL d   1       9.552   2.745 -13.268  0.00  0.00     0.089 C 
ATOM      7  C   UNL d   1       8.399   2.159 -14.094  0.00  0.00     0.018 C 
ATOM      8  C   UNL d   1       8.682   2.396 -15.575  0.00  0.00     0.001 C 
ATOM      9  C   UNL d   1       8.339   0.636 -13.994  0.00  0.00     0.001 C 
ATOM     10  C   UNL d   1       7.032   2.763 -13.712  0.00  0.00     0.089 C 
ATOM     11  C   UNL d   1       8.068   1.237 -16.336  0.00  0.00     0.000 C 
ATOM     12  C   UNL d   1       7.680   0.201 -15.283  0.00  0.00     0.000 C 
ATOM     13  C   UNL d   1       7.082   4.244 -13.428  0.00  0.00     0.239 C 
ATOM     14  O   UNL d   1       5.974   4.793 -13.310  0.00  0.00    -0.272 OA
ENDBRANCH   2   3
ENDBRANCH   1   2
BRANCH   1  15
ATOM     15  C   UNL d   1       9.195   6.381 -10.788  0.00  0.00     0.040 C 
BRANCH  15  16
ATOM     16  C   UNL d   1       9.126   7.072  -9.441  0.00  0.00     0.290 C 
BRANCH  16  17
ATOM     17  N   UNL d   1      10.294   6.701  -8.659  0.00  0.00     0.337 N 
BRANCH  17  18
ATOM     18  C   UNL d   1      10.235   7.338  -7.351  0.00  0.00     0.261 C 
ATOM     19  C   UNL d   1      11.212   6.612  -6.407  0.00  0.00     0.062 C 
ATOM     20  C   UNL d   1      11.460   7.342  -5.098  0.00  0.00    -0.022 A 
ATOM     21  C   UNL d   1      11.182   8.715  -4.992  0.00  0.00     0.002 A 
ATOM     22  C   UNL d   1      11.988   6.656  -3.980  0.00  0.00    -0.004 A 
ATOM     23  C   UNL d   1      10.500   9.494  -6.096  0.00  0.00     0.030 C 
ATOM     24  C   UNL d   1      11.457   9.373  -3.794  0.00  0.00     0.136 A 
ATOM     25  C   UNL d   1      10.598   8.829  -7.458  0.00  0.00     0.041 C 
ATOM     26  F   UNL d   1      11.054  10.637  -3.707  0.00  0.00    -0.205 F 
ATOM     27  C   UNL d   1      11.994   8.711  -2.675  0.00  0.00     0.029 A 
ATOM     28  C   UNL d   1      12.266   7.334  -2.773  0.00  0.00     0.002 A 
ENDBRANCH  17  18
ENDBRANCH  16  17
ENDBRANCH  15  16
ENDBRANCH   1  15
TORSDOF 6
