REMARK  4 active torsions:
REMARK  status: ('A' for Active; 'I' for Inactive)
REMARK    1  A    between atoms: C_2  and  C_3 
REMARK    2  A    between atoms: C_2  and  C_6 
REMARK    3  A    between atoms: C_9  and  C_10 
REMARK    4  A    between atoms: C_10  and  C_11 
ROOT
ATOM      1  C   UNL d   1      10.210   7.041  -9.651  0.00  0.00    -0.012 A 
ATOM      2  C   UNL d   1       9.381   7.132  -8.512  0.00  0.00    -0.004 A 
ATOM      3  C   UNL d   1       9.812   7.811  -7.365  0.00  0.00    -0.005 A 
ATOM      4  C   UNL d   1      11.106   8.382  -7.317  0.00  0.00    -0.022 A 
ATOM      5  C   UNL d   1      11.945   8.283  -8.438  0.00  0.00    -0.005 A 
ATOM      6  C   UNL d   1      11.494   7.625  -9.595  0.00  0.00    -0.004 A 
ENDROOT
BRANCH   4   7
ATOM      7  C   UNL d   1      11.618   9.076  -6.073  0.00  0.00     0.034 C 
BRANCH   7   8
ATOM      8  C   UNL d   1      11.216   8.311  -4.805  0.00  0.00     0.062 C 
ATOM      9  C   UNL d   1      11.858   8.804  -3.527  0.00  0.00     0.150 C 
ATOM     10  C   UNL d   1      12.402   7.667  -2.692  0.00  0.00     0.065 C 
ATOM     11  O   UNL d   1      11.854   9.987  -3.178  0.00  0.00    -0.296 OA
ATOM     12  C   UNL d   1      11.792   6.420  -3.319  0.00  0.00     0.008 C 
ATOM     13  C   UNL d   1      11.447   6.782  -4.771  0.00  0.00     0.008 C 
ENDBRANCH   7   8
ENDBRANCH   4   7
BRANCH   1  14
ATOM     14  C   UNL d   1       9.726   6.339 -10.927  0.00  0.00     0.110 C 
ATOM     15  C   UNL d   1       8.871   5.081 -10.645  0.00  0.00     0.016 C 
BRANCH  14  16
ATOM     16  C   UNL d   1       9.033   7.340 -11.878  0.00  0.00     0.189 C 
ATOM     17  O   UNL d   1       9.158   8.560 -11.803  0.00  0.00    -0.647 OA
ATOM     18  O   UNL d   1       8.292   6.720 -12.836  0.00  0.00    -0.647 OA
ENDBRANCH  14  16
ENDBRANCH   1  14
TORSDOF 4
