REMARK  4 active torsions:
REMARK  status: ('A' for Active; 'I' for Inactive)
REMARK    1  A    between atoms: C_8  and  C_9 
REMARK    2  A    between atoms: C_9  and  C_10 
REMARK    3  A    between atoms: C_10  and  N_11 
REMARK    4  A    between atoms: N_14  and  C_15 
ROOT
ATOM      1  N   UNL d   1      10.965   1.917 -16.989  0.00  0.00     0.141 N 
ATOM      2  C   UNL d   1      11.106   0.644 -17.703  0.00  0.00     0.274 C 
ATOM      3  C   UNL d   1      11.621   0.853 -19.141  0.00  0.00     0.138 C 
ATOM      4  N   UNL d   1      12.849   1.625 -19.131  0.00  0.00    -0.329 N 
ATOM      5  C   UNL d   1      12.783   2.861 -18.365  0.00  0.00     0.138 C 
ATOM      6  C   UNL d   1      12.249   2.594 -16.945  0.00  0.00     0.274 C 
ENDROOT
BRANCH   1   7
ATOM      7  C   UNL d   1      10.355   1.734 -15.681  0.00  0.00     0.255 C 
BRANCH   7   8
ATOM      8  C   UNL d   1       8.901   2.239 -15.679  0.00  0.00     0.068 C 
BRANCH   8   9
ATOM      9  C   UNL d   1       7.976   1.521 -16.673  0.00  0.00     0.050 A 
ATOM     10  C   UNL d   1       7.850   1.888 -17.985  0.00  0.00     0.061 A 
ATOM     11  C   UNL d   1       8.566   3.065 -18.667  0.00  0.00     0.052 C 
ATOM     12  N   UNL d   1       6.984   1.190 -18.836  0.00  0.00    -0.236 NA
ATOM     13  C   UNL d   1       6.299   0.194 -18.388  0.00  0.00     0.137 A 
ATOM     14  C   UNL d   1       5.311  -0.556 -19.286  0.00  0.00     0.137 C 
ATOM     15  N   UNL d   1       6.359  -0.240 -17.046  0.00  0.00    -0.284 N 
ATOM     16  C   UNL d   1       3.980  -0.843 -18.572  0.00  0.00     0.026 C 
ATOM     17 CL   UNL d   1       6.032  -2.064 -19.924  0.00  0.00    -0.107 Cl
ATOM     18  C   UNL d   1       4.158  -1.476 -17.183  0.00  0.00     0.026 C 
ATOM     19  C   UNL d   1       5.616  -1.469 -16.683  0.00  0.00     0.110 C 
ATOM     20  C   UNL d   1       7.155   0.408 -16.138  0.00  0.00     0.259 A 
ATOM     21  O   UNL d   1       7.176   0.065 -14.954  0.00  0.00    -0.267 OA
ENDBRANCH   8   9
ENDBRANCH   7   8
ENDBRANCH   1   7
BRANCH   4  22
ATOM     22  C   UNL d   1      14.044   1.162 -19.742  0.00  0.00     0.148 A 
ATOM     23  C   UNL d   1      15.007   2.029 -20.384  0.00  0.00     0.042 A 
ATOM     24  C   UNL d   1      16.067   1.254 -20.920  0.00  0.00     0.050 A 
ATOM     25  C   UNL d   1      15.080   3.441 -20.607  0.00  0.00     0.004 A 
ATOM     26  S   UNL d   1      15.745  -0.421 -20.545  0.00  0.00     0.015 SA
ATOM     27  C   UNL d   1      17.146   1.817 -21.640  0.00  0.00     0.008 A 
ATOM     28  N   UNL d   1      14.286  -0.138 -19.778  0.00  0.00    -0.192 NA
ATOM     29  C   UNL d   1      17.182   3.213 -21.826  0.00  0.00     0.001 A 
ATOM     30  C   UNL d   1      16.159   4.014 -21.307  0.00  0.00     0.000 A 
ENDBRANCH   4  22
TORSDOF 4
