REMARK  8 active torsions:
REMARK  status: ('A' for Active; 'I' for Inactive)
REMARK    1  A    between atoms: C_6  and  N_7 
REMARK    2  A    between atoms: N_10  and  C_11 
REMARK    3  A    between atoms: C_11  and  C_12 
REMARK    4  A    between atoms: C_12  and  C_13 
REMARK    5  A    between atoms: C_13  and  C_14 
REMARK    6  A    between atoms: C_14  and  O_15 
REMARK    7  A    between atoms: O_15  and  C_16 
REMARK    8  A    between atoms: C_22  and  C_23 
ROOT
ATOM      1  N   UNL d   1      10.514   6.890  -8.493  0.00  0.00    -0.343 N 
ATOM      2  C   UNL d   1      10.926   7.146  -9.867  0.00  0.00     0.137 C 
ATOM      3  C   UNL d   1       9.743   6.953 -10.831  0.00  0.00     0.274 C 
ATOM      4  N   UNL d   1       9.114   5.636 -10.642  0.00  0.00     0.141 N 
ATOM      5  C   UNL d   1       8.620   5.566  -9.257  0.00  0.00     0.274 C 
ATOM      6  C   UNL d   1       9.769   5.675  -8.250  0.00  0.00     0.137 C 
ENDROOT
BRANCH   4   7
ATOM      7  C   UNL d   1       8.003   5.520 -11.587  0.00  0.00     0.251 C 
BRANCH   7   8
ATOM      8  C   UNL d   1       7.280   4.181 -11.473  0.00  0.00     0.038 C 
BRANCH   8   9
ATOM      9  C   UNL d   1       6.135   3.974 -12.467  0.00  0.00     0.035 C 
BRANCH   9  10
ATOM     10  C   UNL d   1       5.563   2.528 -12.397  0.00  0.00     0.149 C 
BRANCH  10  11
ATOM     11  O   UNL d   1       5.315   1.884 -13.623  0.00  0.00    -0.331 OA
BRANCH  11  12
ATOM     12  C   UNL d   1       6.370   1.514 -14.444  0.00  0.00     0.097 A 
ATOM     13  C   UNL d   1       7.608   2.117 -14.343  0.00  0.00     0.043 A 
ATOM     14  C   UNL d   1       8.684   1.701 -15.130  0.00  0.00     0.088 A 
ATOM     15  N   UNL d   1       8.474   0.651 -16.014  0.00  0.00    -0.228 N 
ATOM     16  C   UNL d   1       9.980   2.080 -15.233  0.00  0.00     0.060 A 
ATOM     17  C   UNL d   1       7.259   0.044 -16.163  0.00  0.00     0.102 A 
ATOM     18  N   UNL d   1       9.644   0.336 -16.674  0.00  0.00    -0.164 NA
ATOM     19  C   UNL d   1       6.192   0.487 -15.394  0.00  0.00     0.045 A 
ATOM     20  C   UNL d   1      10.521   1.199 -16.201  0.00  0.00     0.124 A 
BRANCH  16  21
ATOM     21  C   UNL d   1      10.664   3.162 -14.502  0.00  0.00     0.134 C 
ATOM     22  N   UNL d   1      11.857   3.510 -14.724  0.00  0.00    -0.095 NA
ATOM     23  O   UNL d   1      12.193   4.557 -13.823  0.00  0.00    -0.061 OA
ENDBRANCH  16  21
ENDBRANCH  11  12
ENDBRANCH  10  11
ENDBRANCH   9  10
ENDBRANCH   8   9
ENDBRANCH   7   8
ENDBRANCH   4   7
BRANCH   1  24
ATOM     24  C   UNL d   1      10.723   7.819  -7.481  0.00  0.00     0.080 C 
ATOM     25  C   UNL d   1      11.352   7.491  -6.254  0.00  0.00     0.130 C 
ATOM     26  O   UNL d   1      11.850   6.258  -6.049  0.00  0.00    -0.318 OA
ATOM     27  C   UNL d   1      11.546   8.479  -5.252  0.00  0.00     0.133 C 
ATOM     28  C   UNL d   1      11.911   5.922  -4.676  0.00  0.00     0.238 C 
ATOM     29  C   UNL d   1      12.385   6.947  -3.680  0.00  0.00     0.287 C 
ATOM     30  O   UNL d   1      12.930   6.592  -2.648  0.00  0.00    -0.267 OA
ATOM     31  N   UNL d   1      12.198   8.177  -4.036  0.00  0.00    -0.205 NA
ATOM     32  C   UNL d   1      11.137   9.768  -5.472  0.00  0.00     0.151 C 
ATOM     33  C   UNL d   1      10.670  10.092  -6.724  0.00  0.00     0.031 C 
ATOM     34  O   UNL d   1      11.013  10.704  -4.498  0.00  0.00    -0.189 OA
ATOM     35  C   UNL d   1      10.351   9.150  -7.692  0.00  0.00     0.021 C 
ENDBRANCH   1  24
TORSDOF 8
