REMARK  13 active torsions:
REMARK  status: ('A' for Active; 'I' for Inactive)
REMARK    1  A    between atoms: C_2  and  C_3 
REMARK    2  A    between atoms: C_7  and  O_8 
REMARK    3  A    between atoms: C_10  and  C_11 
REMARK       I    between atoms: C_11  and  N_13 
REMARK    4  A    between atoms: N_13  and  C_14 
REMARK    5  A    between atoms: C_14  and  C_15 
REMARK    6  A    between atoms: C_17  and  O_18 
REMARK    7  A    between atoms: O_18  and  C_19 
REMARK    8  A    between atoms: C_19  and  C_20 
REMARK    9  A    between atoms: C_20  and  C_21 
REMARK   10  A    between atoms: C_21  and  C_22 
REMARK   11  A    between atoms: C_22  and  O_23 
REMARK   12  A    between atoms: O_23  and  C_24 
REMARK   13  A    between atoms: C_24  and  C_25 
ROOT
ATOM      1  C   UNL d   1       8.954   2.866 -15.375  0.00  0.00     0.283 C 
ATOM      2  C   UNL d   1       7.948   3.369 -14.323  0.00  0.00     0.070 C 
ATOM      3  C   UNL d   1       8.679   4.526 -13.595  0.00  0.00     0.153 C 
ATOM      4  C   UNL d   1      10.058   4.583 -14.258  0.00  0.00     0.319 C 
ATOM      5  N   UNL d   1       9.875   3.981 -15.573  0.00  0.00     0.342 N 
ENDROOT
BRANCH   1   6
ATOM      6  C   UNL d   1       8.305   2.371 -16.681  0.00  0.00     0.165 C 
BRANCH   6   7
ATOM      7  N   UNL d   1       9.315   2.001 -17.631  0.00  0.00    -0.232 NA
ATOM      8  C   UNL d   1       9.026   1.662 -18.888  0.00  0.00     0.279 C 
ATOM      9  O   UNL d   1       7.872   1.632 -19.312  0.00  0.00    -0.265 OA
BRANCH   8  10
ATOM     10  C   UNL d   1      10.223   1.395 -19.762  0.00  0.00     0.106 A 
ATOM     11  C   UNL d   1      10.239   1.804 -21.129  0.00  0.00     0.111 A 
ATOM     12  C   UNL d   1      11.380   1.565 -21.928  0.00  0.00     0.080 A 
ATOM     13  C   UNL d   1      12.485   0.894 -21.393  0.00  0.00     0.011 A 
ATOM     14 CL   UNL d   1      11.453   2.104 -23.566  0.00  0.00    -0.080 Cl
ATOM     15  C   UNL d   1      12.474   0.479 -20.055  0.00  0.00     0.004 A 
ATOM     16  C   UNL d   1      11.352   0.710 -19.235  0.00  0.00     0.134 A 
ATOM     17  O   UNL d   1      11.388   0.260 -17.937  0.00  0.00    -0.190 OA
BRANCH  11  18
ATOM     18  O   UNL d   1       9.174   2.472 -21.679  0.00  0.00    -0.327 OA
ATOM     19  C   UNL d   1       8.269   1.616 -22.360  0.00  0.00     0.181 C 
ENDBRANCH  11  18
BRANCH  15  20
ATOM     20  C   UNL d   1      13.688  -0.230 -19.519  0.00  0.00     0.029 C 
ATOM     21  C   UNL d   1      13.796  -1.629 -20.051  0.00  0.00     0.005 C 
ENDBRANCH  15  20
ENDBRANCH   8  10
ENDBRANCH   6   7
ENDBRANCH   1   6
BRANCH   3  22
ATOM     22  O   UNL d   1       8.774   4.264 -12.208  0.00  0.00    -0.354 OA
BRANCH  22  23
ATOM     23  C   UNL d   1       9.163   5.397 -11.453  0.00  0.00     0.142 C 
BRANCH  23  24
ATOM     24  C   UNL d   1       9.435   4.955 -10.013  0.00  0.00     0.035 C 
BRANCH  24  25
ATOM     25  C   UNL d   1       9.906   6.133  -9.145  0.00  0.00     0.035 C 
BRANCH  25  26
ATOM     26  C   UNL d   1      10.383   5.710  -7.769  0.00  0.00     0.143 C 
BRANCH  26  27
ATOM     27  O   UNL d   1      10.795   6.824  -7.012  0.00  0.00    -0.349 OA
BRANCH  27  28
ATOM     28  C   UNL d   1      11.201   6.489  -5.691  0.00  0.00     0.169 C 
BRANCH  28  29
ATOM     29  C   UNL d   1      11.461   7.698  -4.846  0.00  0.00     0.007 A 
ATOM     30  C   UNL d   1      12.107   7.563  -3.596  0.00  0.00    -0.002 A 
ATOM     31  C   UNL d   1      12.300   8.701  -2.796  0.00  0.00    -0.000 A 
ATOM     32  C   UNL d   1      11.832   9.951  -3.231  0.00  0.00    -0.000 A 
ATOM     33  C   UNL d   1      11.170  10.073  -4.470  0.00  0.00    -0.000 A 
ATOM     34  C   UNL d   1      10.991   8.950  -5.285  0.00  0.00    -0.002 A 
ENDBRANCH  28  29
ENDBRANCH  27  28
ENDBRANCH  26  27
ENDBRANCH  25  26
ENDBRANCH  24  25
ENDBRANCH  23  24
ENDBRANCH  22  23
ENDBRANCH   3  22
TORSDOF 13
