REMARK  5 active torsions:
REMARK  status: ('A' for Active; 'I' for Inactive)
REMARK    1  A    between atoms: N_12  and  C_13 
REMARK    2  A    between atoms: C_13  and  C_14 
REMARK    3  A    between atoms: C_19  and  C_20 
REMARK    4  A    between atoms: C_20  and  N_21 
REMARK    5  A    between atoms: N_24  and  C_25 
ROOT
ATOM      1  C   UNL d   1       9.287   4.964 -13.223  0.00  0.00     0.025 C 
ATOM      2  C   UNL d   1       8.183   5.078 -14.231  0.00  0.00     0.002 C 
ATOM      3  C   UNL d   1       6.917   4.254 -13.862  0.00  0.00     0.000 C 
ATOM      4  C   UNL d   1       6.394   4.686 -12.499  0.00  0.00     0.000 C 
ATOM      5  C   UNL d   1       7.503   4.641 -11.455  0.00  0.00     0.002 C 
ATOM      6  C   UNL d   1       8.720   5.470 -11.878  0.00  0.00     0.035 C 
ENDROOT
BRANCH   6   7
ATOM      7  C   UNL d   1       9.787   5.474 -10.791  0.00  0.00     0.250 C 
BRANCH   7   8
ATOM      8  N   UNL d   1       9.339   6.092  -9.552  0.00  0.00     0.141 N 
ATOM      9  C   UNL d   1      10.232   5.624  -8.512  0.00  0.00     0.274 C 
ATOM     10  C   UNL d   1       9.839   6.152  -7.154  0.00  0.00     0.138 C 
ATOM     11  N   UNL d   1       9.864   7.607  -7.207  0.00  0.00    -0.329 N 
ATOM     12  C   UNL d   1       9.083   8.176  -8.299  0.00  0.00     0.138 C 
ATOM     13  C   UNL d   1       9.523   7.545  -9.638  0.00  0.00     0.274 C 
BRANCH  11  14
ATOM     14  C   UNL d   1      10.535   8.364  -6.295  0.00  0.00     0.148 A 
ATOM     15  C   UNL d   1      11.062   7.928  -5.008  0.00  0.00     0.042 A 
ATOM     16  C   UNL d   1      11.665   9.032  -4.340  0.00  0.00     0.050 A 
ATOM     17  C   UNL d   1      11.124   6.708  -4.324  0.00  0.00     0.004 A 
ATOM     18  S   UNL d   1      11.447  10.396  -5.356  0.00  0.00     0.015 SA
ATOM     19  C   UNL d   1      12.299   8.944  -3.075  0.00  0.00     0.008 A 
ATOM     20  N   UNL d   1      10.747   9.616  -6.631  0.00  0.00    -0.192 NA
ATOM     21  C   UNL d   1      12.401   7.695  -2.450  0.00  0.00     0.001 A 
ATOM     22  C   UNL d   1      11.822   6.583  -3.080  0.00  0.00     0.000 A 
ENDBRANCH  11  14
ENDBRANCH   7   8
ENDBRANCH   6   7
BRANCH   1  23
ATOM     23  C   UNL d   1       9.863   3.525 -13.195  0.00  0.00     0.112 C 
BRANCH  23  24
ATOM     24  N   UNL d   1      10.501   3.146 -14.455  0.00  0.00    -0.271 N 
ATOM     25  C   UNL d   1      11.739   3.569 -14.800  0.00  0.00     0.239 A 
ATOM     26  O   UNL d   1      12.447   4.313 -14.138  0.00  0.00    -0.272 OA
ATOM     27  C   UNL d   1      12.129   2.991 -16.148  0.00  0.00     0.088 A 
ATOM     28  C   UNL d   1      10.896   2.192 -16.584  0.00  0.00     0.088 A 
ATOM     29  C   UNL d   1      12.326   3.987 -17.318  0.00  0.00     0.009 C 
ATOM     30  C   UNL d   1      10.525   2.829 -17.953  0.00  0.00     0.009 C 
ATOM     31  C   UNL d   1       9.931   2.387 -15.427  0.00  0.00     0.239 A 
ATOM     32  C   UNL d   1       9.992   4.275 -17.848  0.00  0.00     0.001 C 
ATOM     33  C   UNL d   1      11.924   3.103 -18.499  0.00  0.00     0.001 C 
ATOM     34  C   UNL d   1      11.229   5.074 -17.388  0.00  0.00     0.001 C 
ATOM     35  O   UNL d   1       8.811   1.909 -15.421  0.00  0.00    -0.272 OA
ENDBRANCH  23  24
ENDBRANCH   1  23
TORSDOF 5
