REMARK  8 active torsions:
REMARK  status: ('A' for Active; 'I' for Inactive)
REMARK    1  A    between atoms: O_2  and  C_3 
REMARK    2  A    between atoms: C_8  and  N_9 
REMARK    3  A    between atoms: N_12  and  C_13 
REMARK    4  A    between atoms: C_13  and  C_14 
REMARK    5  A    between atoms: C_14  and  C_15 
REMARK    6  A    between atoms: C_15  and  C_16 
REMARK    7  A    between atoms: C_16  and  N_17 
REMARK       I    between atoms: N_17  and  C_18 
REMARK    8  A    between atoms: C_18  and  C_20 
ROOT
ATOM      1  N   UNL d   1       9.095   2.426 -16.137  0.00  0.00    -0.343 N 
ATOM      2  C   UNL d   1       9.768   3.669 -16.481  0.00  0.00     0.137 C 
ATOM      3  C   UNL d   1      10.545   4.205 -15.265  0.00  0.00     0.274 C 
ATOM      4  N   UNL d   1       9.664   4.337 -14.100  0.00  0.00     0.141 N 
ATOM      5  C   UNL d   1       9.123   3.017 -13.763  0.00  0.00     0.274 C 
ATOM      6  C   UNL d   1       8.294   2.442 -14.922  0.00  0.00     0.137 C 
ENDROOT
BRANCH   4   7
ATOM      7  C   UNL d   1      10.409   4.816 -12.945  0.00  0.00     0.251 C 
BRANCH   7   8
ATOM      8  C   UNL d   1       9.652   5.957 -12.240  0.00  0.00     0.037 C 
BRANCH   8   9
ATOM      9  C   UNL d   1      10.173   6.233 -10.817  0.00  0.00     0.029 C 
BRANCH   9  10
ATOM     10  C   UNL d   1       9.328   7.235 -10.051  0.00  0.00     0.129 C 
BRANCH  10  11
ATOM     11  N   UNL d   1      10.017   7.739  -8.869  0.00  0.00    -0.234 NA
ATOM     12  C   UNL d   1      10.033   7.102  -7.686  0.00  0.00     0.275 C 
ATOM     13  O   UNL d   1       9.537   5.991  -7.530  0.00  0.00    -0.266 OA
BRANCH  12  14
ATOM     14  C   UNL d   1      10.744   7.814  -6.561  0.00  0.00     0.058 A 
ATOM     15  C   UNL d   1      11.034   7.133  -5.354  0.00  0.00     0.011 A 
ATOM     16  C   UNL d   1      11.666   7.801  -4.284  0.00  0.00     0.030 A 
ATOM     17  C   UNL d   1      11.994   9.164  -4.403  0.00  0.00     0.006 A 
ATOM     18  I   UNL d   1      12.070   6.792  -2.496  0.00  0.00    -0.043 I 
ATOM     19  C   UNL d   1      11.704   9.850  -5.598  0.00  0.00     0.001 A 
ATOM     20  C   UNL d   1      11.078   9.185  -6.663  0.00  0.00     0.005 A 
ENDBRANCH  12  14
ENDBRANCH  10  11
ENDBRANCH   9  10
ENDBRANCH   8   9
ENDBRANCH   7   8
ENDBRANCH   4   7
BRANCH   1  21
ATOM     21  C   UNL d   1       9.220   1.260 -16.921  0.00  0.00     0.079 A 
ATOM     22  C   UNL d   1       8.078   0.499 -17.276  0.00  0.00     0.110 A 
ATOM     23  C   UNL d   1       8.247  -0.682 -18.039  0.00  0.00     0.026 A 
ATOM     24  C   UNL d   1       9.528  -1.098 -18.445  0.00  0.00     0.002 A 
ATOM     25  C   UNL d   1      10.655  -0.335 -18.104  0.00  0.00     0.002 A 
ATOM     26  C   UNL d   1      10.501   0.844 -17.346  0.00  0.00     0.019 A 
BRANCH  22  27
ATOM     27  O   UNL d   1       6.838   0.970 -16.889  0.00  0.00    -0.327 OA
ATOM     28  C   UNL d   1       5.714   0.120 -17.042  0.00  0.00     0.181 C 
ENDBRANCH  22  27
ENDBRANCH   1  21
TORSDOF 8
