REMARK  8 active torsions:
REMARK  status: ('A' for Active; 'I' for Inactive)
REMARK    1  A    between atoms: C_6  and  C_7 
REMARK    2  A    between atoms: C_10  and  S_11 
REMARK    3  A    between atoms: S_11  and  C_12 
REMARK    4  A    between atoms: C_12  and  C_13 
REMARK    5  A    between atoms: C_13  and  C_14 
REMARK    6  A    between atoms: C_14  and  N_15 
REMARK    7  A    between atoms: C_19  and  C_20 
REMARK    8  A    between atoms: C_23  and  S_24 
ROOT
ATOM      1  N   UNL d   1       8.988   4.632 -12.680  0.00  0.00     0.137 N 
ATOM      2  C   UNL d   1       8.150   5.117 -11.592  0.00  0.00     0.251 C 
ATOM      3  C   UNL d   1       6.816   4.493 -11.905  0.00  0.00     0.039 A 
ATOM      4  C   UNL d   1       5.796   5.134 -12.818  0.00  0.00     0.008 A 
ATOM      5  C   UNL d   1       6.826   4.176 -13.375  0.00  0.00     0.052 A 
ATOM      6  C   UNL d   1       8.166   4.660 -13.876  0.00  0.00     0.254 C 
ENDROOT
BRANCH   1   7
ATOM      7  C   UNL d   1      10.165   5.471 -12.842  0.00  0.00     0.251 C 
BRANCH   7   8
ATOM      8  C   UNL d   1      11.206   4.792 -13.751  0.00  0.00     0.047 C 
BRANCH   8   9
ATOM      9  C   UNL d   1      11.428   5.572 -15.069  0.00  0.00     0.067 C 
BRANCH   9  10
ATOM     10  S   UNL d   1      12.966   5.128 -15.928  0.00  0.00    -0.075 SA
BRANCH  10  11
ATOM     11  C   UNL d   1      12.488   3.578 -16.606  0.00  0.00     0.193 A 
ATOM     12  N   UNL d   1      11.472   2.847 -16.149  0.00  0.00    -0.122 NA
ATOM     13  N   UNL d   1      11.412   1.743 -16.949  0.00  0.00    -0.126 NA
ATOM     14  C   UNL d   1      12.402   1.894 -17.828  0.00  0.00     0.191 A 
ATOM     15  N   UNL d   1      13.114   3.028 -17.657  0.00  0.00    -0.287 N 
ATOM     16  C   UNL d   1      14.253   3.535 -18.414  0.00  0.00     0.134 C 
BRANCH  14  17
ATOM     17  C   UNL d   1      12.621   0.891 -18.855  0.00  0.00     0.151 A 
ATOM     18  C   UNL d   1      11.862  -0.178 -19.263  0.00  0.00     0.087 A 
ATOM     19  C   UNL d   1      10.523  -0.664 -18.767  0.00  0.00     0.054 C 
ATOM     20  N   UNL d   1      12.533  -0.813 -20.294  0.00  0.00    -0.221 NA
ATOM     21  C   UNL d   1      13.653  -0.118 -20.448  0.00  0.00     0.225 A 
ATOM     22  O   UNL d   1      13.763   0.947 -19.610  0.00  0.00    -0.282 OA
ENDBRANCH  14  17
ENDBRANCH  10  11
ENDBRANCH   9  10
ENDBRANCH   8   9
ENDBRANCH   7   8
ENDBRANCH   1   7
BRANCH   5  23
ATOM     23  C   UNL d   1       6.399   2.792 -13.846  0.00  0.00    -0.021 A 
ATOM     24  C   UNL d   1       5.469   2.047 -13.094  0.00  0.00    -0.003 A 
ATOM     25  C   UNL d   1       5.080   0.757 -13.504  0.00  0.00     0.015 A 
ATOM     26  C   UNL d   1       5.573   0.220 -14.716  0.00  0.00     0.123 A 
ATOM     27  C   UNL d   1       6.487   0.966 -15.477  0.00  0.00     0.015 A 
ATOM     28  C   UNL d   1       6.901   2.237 -15.048  0.00  0.00    -0.003 A 
BRANCH  26  29
ATOM     29  S   UNL d   1       5.057  -1.429 -15.265  0.00  0.00     0.313 SA
ATOM     30  F   UNL d   1       6.202  -1.497 -16.405  0.00  0.00    -0.093 F 
ATOM     31  F   UNL d   1       3.818  -1.529 -14.232  0.00  0.00    -0.093 F 
ATOM     32  F   UNL d   1       4.704  -2.925 -15.748  0.00  0.00    -0.093 F 
ATOM     33  F   UNL d   1       6.051  -2.016 -14.138  0.00  0.00    -0.093 F 
ATOM     34  F   UNL d   1       4.051  -0.790 -16.351  0.00  0.00    -0.093 F 
ENDBRANCH  26  29
ENDBRANCH   5  23
TORSDOF 8
