REMARK  5 active torsions:
REMARK  status: ('A' for Active; 'I' for Inactive)
REMARK    1  A    between atoms: C_4  and  N_5 
REMARK    2  A    between atoms: N_8  and  C_9 
REMARK    3  A    between atoms: C_9  and  C_10 
REMARK    4  A    between atoms: C_10  and  C_11 
REMARK    5  A    between atoms: C_11  and  N_12 
ROOT
ATOM      1  N   UNL d   1      10.875   7.251  -8.030  0.00  0.00    -0.344 N 
ATOM      2  C   UNL d   1      10.279   5.918  -8.024  0.00  0.00     0.137 C 
ATOM      3  C   UNL d   1       9.084   5.843  -8.994  0.00  0.00     0.274 C 
ATOM      4  N   UNL d   1       9.490   6.247 -10.340  0.00  0.00     0.141 N 
ATOM      5  C   UNL d   1       9.960   7.635 -10.287  0.00  0.00     0.274 C 
ATOM      6  C   UNL d   1      11.193   7.759  -9.364  0.00  0.00     0.137 C 
ENDROOT
BRANCH   4   7
ATOM      7  C   UNL d   1       8.349   6.149 -11.245  0.00  0.00     0.252 C 
BRANCH   7   8
ATOM      8  C   UNL d   1       8.244   4.748 -11.850  0.00  0.00     0.060 C 
BRANCH   8   9
ATOM      9  C   UNL d   1       7.512   4.767 -13.201  0.00  0.00     0.110 C 
BRANCH   9  10
ATOM     10  N   UNL d   1       7.488   3.455 -13.820  0.00  0.00    -0.309 N 
ATOM     11  C   UNL d   1       8.557   2.741 -14.348  0.00  0.00     0.079 A 
ATOM     12  C   UNL d   1       7.985   1.516 -14.808  0.00  0.00     0.099 A 
ATOM     13  C   UNL d   1       9.935   2.999 -14.467  0.00  0.00     0.019 A 
ATOM     14  N   UNL d   1       6.620   1.483 -14.583  0.00  0.00    -0.224 NA
ATOM     15  C   UNL d   1       8.838   0.556 -15.392  0.00  0.00     0.021 A 
ATOM     16  C   UNL d   1       6.416   2.663 -14.003  0.00  0.00     0.179 A 
ATOM     17  C   UNL d   1      10.221   0.809 -15.513  0.00  0.00     0.002 A 
ATOM     18  C   UNL d   1      10.767   2.025 -15.052  0.00  0.00     0.002 A 
ENDBRANCH   9  10
ENDBRANCH   8   9
ENDBRANCH   7   8
ENDBRANCH   4   7
BRANCH   1  19
ATOM     19  C   UNL d   1      11.089   7.977  -6.838  0.00  0.00     0.056 A 
ATOM     20  C   UNL d   1      11.147   9.391  -6.838  0.00  0.00     0.017 A 
ATOM     21  C   UNL d   1      11.357  10.112  -5.647  0.00  0.00     0.002 A 
ATOM     22  C   UNL d   1      11.510   9.436  -4.421  0.00  0.00     0.000 A 
ATOM     23  C   UNL d   1      11.470   8.032  -4.409  0.00  0.00     0.002 A 
ATOM     24  C   UNL d   1      11.262   7.310  -5.598  0.00  0.00     0.017 A 
ENDBRANCH   1  19
TORSDOF 5
