REMARK  7 active torsions:
REMARK  status: ('A' for Active; 'I' for Inactive)
REMARK    1  A    between atoms: S_2  and  C_5 
REMARK    2  A    between atoms: N_13  and  C_14 
REMARK    3  A    between atoms: C_14  and  C_15 
REMARK    4  A    between atoms: C_15  and  C_16 
REMARK    5  A    between atoms: C_19  and  N_20 
REMARK       I    between atoms: N_20  and  C_21 
REMARK    6  A    between atoms: C_21  and  C_23 
REMARK    7  A    between atoms: C_24  and  C_25 
ROOT
ATOM      1  C   UNL d   1       9.517   2.996 -14.208  0.00  0.00     0.002 C 
ATOM      2  C   UNL d   1       8.921   1.617 -14.535  0.00  0.00     0.002 C 
ATOM      3  C   UNL d   1       9.911   0.747 -15.304  0.00  0.00     0.024 C 
ATOM      4  C   UNL d   1      10.377   1.497 -16.561  0.00  0.00     0.107 C 
ATOM      5  C   UNL d   1      11.023   2.838 -16.251  0.00  0.00     0.024 C 
ATOM      6  C   UNL d   1      10.026   3.699 -15.485  0.00  0.00     0.002 C 
ENDROOT
BRANCH   1   7
ATOM      7  C   UNL d   1       8.457   3.870 -13.533  0.00  0.00     0.035 C 
BRANCH   7   8
ATOM      8  C   UNL d   1       9.101   5.137 -12.987  0.00  0.00     0.250 C 
BRANCH   8   9
ATOM      9  N   UNL d   1       8.115   6.096 -12.471  0.00  0.00     0.138 N 
ATOM     10  C   UNL d   1       8.730   7.382 -12.145  0.00  0.00     0.255 C 
ATOM     11  C   UNL d   1       9.941   7.270 -11.230  0.00  0.00     0.061 C 
ATOM     12  C   UNL d   1       9.694   6.922  -9.790  0.00  0.00    -0.023 A 
ATOM     13  C   UNL d   1       8.868   5.852  -9.375  0.00  0.00    -0.024 A 
ATOM     14  C   UNL d   1      10.386   7.690  -8.855  0.00  0.00     0.006 A 
ATOM     15  C   UNL d   1       8.671   5.634  -8.002  0.00  0.00    -0.004 A 
ATOM     16  C   UNL d   1       8.126   4.886 -10.278  0.00  0.00     0.061 C 
ATOM     17  C   UNL d   1       9.321   6.444  -7.062  0.00  0.00     0.011 A 
ATOM     18  C   UNL d   1      10.204   7.449  -7.496  0.00  0.00     0.084 A 
ATOM     19  C   UNL d   1       7.293   5.579 -11.387  0.00  0.00     0.255 C 
BRANCH  18  20
ATOM     20  S   UNL d   1      11.064   8.455  -6.340  0.00  0.00     0.191 S 
ATOM     21  C   UNL d   1      11.562   7.292  -5.023  0.00  0.00     0.145 C 
ATOM     22  O   UNL d   1      10.112   9.394  -5.738  0.00  0.00    -0.222 OA
ATOM     23  O   UNL d   1      12.262   8.985  -7.003  0.00  0.00    -0.222 OA
ENDBRANCH  18  20
ENDBRANCH   8   9
ENDBRANCH   7   8
ENDBRANCH   1   7
BRANCH   4  24
ATOM     24  N   UNL d   1      11.292   0.667 -17.347  0.00  0.00    -0.236 NA
ATOM     25  C   UNL d   1      10.989  -0.251 -18.273  0.00  0.00     0.275 C 
ATOM     26  O   UNL d   1      11.870  -0.949 -18.771  0.00  0.00    -0.266 OA
BRANCH  25  27
ATOM     27  C   UNL d   1       9.580  -0.318 -18.627  0.00  0.00     0.062 C 
ATOM     28  C   UNL d   1       8.930  -1.493 -18.721  0.00  0.00     0.005 C 
BRANCH  28  29
ATOM     29  C   UNL d   1       7.489  -1.614 -19.012  0.00  0.00     0.005 A 
ATOM     30  C   UNL d   1       6.943  -2.907 -19.086  0.00  0.00     0.030 A 
ATOM     31  C   UNL d   1       5.573  -3.100 -19.356  0.00  0.00     0.142 A 
ATOM     32  C   UNL d   1       4.729  -1.988 -19.545  0.00  0.00     0.059 A 
ATOM     33  F   UNL d   1       5.083  -4.356 -19.445  0.00  0.00    -0.204 F 
ATOM     34  C   UNL d   1       5.252  -0.688 -19.456  0.00  0.00     0.142 A 
ATOM     35  C   UNL d   1       6.624  -0.498 -19.188  0.00  0.00     0.030 A 
ATOM     36  F   UNL d   1       4.444   0.386 -19.640  0.00  0.00    -0.204 F 
ENDBRANCH  28  29
ENDBRANCH  25  27
ENDBRANCH   4  24
TORSDOF 7
