REMARK  8 active torsions:
REMARK  status: ('A' for Active; 'I' for Inactive)
REMARK    1  A    between atoms: C_6  and  C_7 
REMARK    2  A    between atoms: C_10  and  S_11 
REMARK    3  A    between atoms: S_11  and  C_12 
REMARK    4  A    between atoms: C_12  and  C_13 
REMARK    5  A    between atoms: C_13  and  C_14 
REMARK    6  A    between atoms: C_14  and  N_15 
REMARK    7  A    between atoms: N_20  and  C_21 
REMARK    8  A    between atoms: C_24  and  C_25 
ROOT
ATOM      1  N   UNL d   1       7.559   0.004 -14.955  0.00  0.00     0.138 N 
ATOM      2  C   UNL d   1       6.283   0.495 -14.462  0.00  0.00     0.252 C 
ATOM      3  C   UNL d   1       5.289  -0.002 -15.508  0.00  0.00     0.052 C 
ATOM      4  C   UNL d   1       4.708  -1.401 -15.279  0.00  0.00     0.021 C 
ATOM      5  C   UNL d   1       4.722  -2.018 -16.678  0.00  0.00     0.077 C 
ATOM      6  N   UNL d   1       5.924  -1.479 -17.298  0.00  0.00    -0.250 NA
ATOM      7  C   UNL d   1       6.094  -0.116 -16.795  0.00  0.00     0.097 C 
ATOM      8  C   UNL d   1       7.531   0.201 -16.403  0.00  0.00     0.266 C 
ENDROOT
BRANCH   1   9
ATOM      9  C   UNL d   1       8.673   0.659 -14.299  0.00  0.00     0.251 C 
BRANCH   9  10
ATOM     10  C   UNL d   1      10.023   0.170 -14.849  0.00  0.00     0.047 C 
BRANCH  10  11
ATOM     11  C   UNL d   1      10.643   1.100 -15.885  0.00  0.00     0.067 C 
BRANCH  11  12
ATOM     12  S   UNL d   1      10.948   2.736 -15.190  0.00  0.00    -0.075 SA
BRANCH  12  13
ATOM     13  C   UNL d   1      12.107   3.337 -16.363  0.00  0.00     0.193 A 
ATOM     14  N   UNL d   1      12.653   2.604 -17.334  0.00  0.00    -0.122 NA
ATOM     15  N   UNL d   1      13.516   3.448 -17.983  0.00  0.00    -0.126 NA
ATOM     16  C   UNL d   1      13.409   4.636 -17.382  0.00  0.00     0.191 A 
ATOM     17  N   UNL d   1      12.538   4.624 -16.348  0.00  0.00    -0.287 N 
ATOM     18  C   UNL d   1      12.124   5.676 -15.441  0.00  0.00     0.134 C 
BRANCH  16  19
ATOM     19  C   UNL d   1      14.198   5.780 -17.848  0.00  0.00     0.151 A 
ATOM     20  C   UNL d   1      14.068   7.141 -17.785  0.00  0.00     0.087 A 
ATOM     21  C   UNL d   1      13.008   8.003 -17.177  0.00  0.00     0.054 C 
ATOM     22  N   UNL d   1      15.147   7.725 -18.441  0.00  0.00    -0.221 NA
ATOM     23  C   UNL d   1      15.870   6.698 -18.876  0.00  0.00     0.225 A 
ATOM     24  O   UNL d   1      15.354   5.490 -18.534  0.00  0.00    -0.282 OA
ENDBRANCH  16  19
ENDBRANCH  12  13
ENDBRANCH  11  12
ENDBRANCH  10  11
ENDBRANCH   9  10
ENDBRANCH   1   9
BRANCH   6  25
ATOM     25  C   UNL d   1       6.020  -1.639 -18.681  0.00  0.00     0.064 A 
ATOM     26  C   UNL d   1       5.184  -0.930 -19.572  0.00  0.00     0.150 A 
ATOM     27  C   UNL d   1       5.318  -1.089 -20.951  0.00  0.00     0.035 A 
ATOM     28  F   UNL d   1       4.236  -0.076 -19.096  0.00  0.00    -0.203 F 
ATOM     29  C   UNL d   1       6.276  -1.970 -21.489  0.00  0.00     0.074 A 
ATOM     30  C   UNL d   1       7.110  -2.698 -20.612  0.00  0.00     0.005 A 
ATOM     31  C   UNL d   1       6.987  -2.532 -19.213  0.00  0.00     0.013 A 
BRANCH  29  32
ATOM     32  C   UNL d   1       6.377  -2.142 -22.995  0.00  0.00     0.419 C 
ATOM     33  F   UNL d   1       6.185  -0.972 -23.606  0.00  0.00    -0.166 F 
ATOM     34  F   UNL d   1       7.571  -2.613 -23.353  0.00  0.00    -0.166 F 
ATOM     35  F   UNL d   1       5.437  -2.996 -23.398  0.00  0.00    -0.166 F 
ENDBRANCH  29  32
ENDBRANCH   6  25
TORSDOF 8
