REMARK  4 active torsions:
REMARK  status: ('A' for Active; 'I' for Inactive)
REMARK    1  A    between atoms: C_2  and  C_3 
REMARK    2  A    between atoms: C_3  and  N_4 
REMARK    3  A    between atoms: N_4  and  C_5 
REMARK    4  A    between atoms: N_4  and  C_8 
ROOT
ATOM      1  C   UNL d   1       9.103   5.209 -10.568  0.00  0.00     0.082 C 
ATOM      2  C   UNL d   1       8.184   5.177  -9.359  0.00  0.00     0.027 C 
ATOM      3  C   UNL d   1       8.863   5.469  -8.024  0.00  0.00     0.030 C 
ATOM      4  C   UNL d   1       9.863   6.612  -8.069  0.00  0.00     0.002 A 
ATOM      5  C   UNL d   1      10.293   7.221  -6.872  0.00  0.00     0.136 A 
ATOM      6  F   UNL d   1       9.849   6.801  -5.659  0.00  0.00    -0.205 F 
ATOM      7  C   UNL d   1      11.220   8.272  -6.921  0.00  0.00     0.029 A 
ATOM      8  C   UNL d   1      11.691   8.751  -8.159  0.00  0.00     0.002 A 
ATOM      9  C   UNL d   1      11.255   8.158  -9.356  0.00  0.00    -0.004 A 
ATOM     10  C   UNL d   1      10.350   7.080  -9.299  0.00  0.00    -0.022 A 
ATOM     11  C   UNL d   1       9.822   6.571 -10.617  0.00  0.00     0.048 C 
ENDROOT
BRANCH   1  12
ATOM     12  N   UNL d   1       8.396   4.918 -11.844  0.00  0.00    -0.371 N 
BRANCH  12  13
ATOM     13  C   UNL d   1       9.320   4.695 -12.971  0.00  0.00     0.097 C 
BRANCH  13  14
ATOM     14  C   UNL d   1       9.684   3.228 -13.168  0.00  0.00     0.024 C 
ATOM     15  C   UNL d   1      10.825   3.080 -14.186  0.00  0.00     0.002 C 
ENDBRANCH  13  14
ENDBRANCH  12  13
BRANCH  12  16
ATOM     16  C   UNL d   1       7.192   5.722 -12.182  0.00  0.00     0.077 C 
ATOM     17  C   UNL d   1       6.266   4.894 -13.101  0.00  0.00     0.024 C 
ATOM     18  C   UNL d   1       7.460   7.112 -12.822  0.00  0.00     0.024 C 
ENDBRANCH  12  16
ENDBRANCH   1  12
TORSDOF 4
