REMARK  9 active torsions:
REMARK  status: ('A' for Active; 'I' for Inactive)
REMARK    1  A    between atoms: C_2  and  O_4 
REMARK    2  A    between atoms: O_4  and  C_5 
REMARK    3  A    between atoms: C_5  and  C_6 
REMARK    4  A    between atoms: C_6  and  C_7 
REMARK    5  A    between atoms: C_6  and  C_19 
REMARK    6  A    between atoms: C_7  and  C_8 
REMARK    7  A    between atoms: C_8  and  N_9 
REMARK    8  A    between atoms: C_19  and  O_20 
REMARK    9  A    between atoms: O_20  and  C_21 
ROOT
ATOM      1  C   UNL d   1      10.097   4.267 -15.892  0.00  0.00     0.030 C 
ENDROOT
BRANCH   1   2
ATOM      2  C   UNL d   1      11.489   4.427 -16.543  0.00  0.00     0.063 C 
BRANCH   2   3
ATOM      3  C   UNL d   1      12.433   3.241 -16.212  0.00  0.00     0.154 C 
BRANCH   3   4
ATOM      4  O   UNL d   1      11.895   1.987 -16.629  0.00  0.00    -0.302 OA
BRANCH   4   5
ATOM      5  C   UNL d   1      12.188   1.475 -17.841  0.00  0.00     0.272 C 
ATOM      6  C   UNL d   1      11.508   0.134 -18.095  0.00  0.00     0.106 C 
ATOM      7  O   UNL d   1      12.916   1.992 -18.689  0.00  0.00    -0.264 OA
ENDBRANCH   4   5
ENDBRANCH   3   4
ENDBRANCH   2   3
BRANCH   2   8
ATOM      8  C   UNL d   1      11.395   4.623 -18.069  0.00  0.00     0.154 C 
BRANCH   8   9
ATOM      9  O   UNL d   1      10.589   5.744 -18.410  0.00  0.00    -0.302 OA
BRANCH   9  10
ATOM     10  C   UNL d   1       9.453   5.548 -19.102  0.00  0.00     0.272 C 
ATOM     11  C   UNL d   1       8.646   6.819 -19.295  0.00  0.00     0.106 C 
ATOM     12  O   UNL d   1       9.046   4.475 -19.543  0.00  0.00    -0.264 OA
ENDBRANCH   9  10
ENDBRANCH   8   9
ENDBRANCH   2   8
ENDBRANCH   1   2
BRANCH   1  13
ATOM     13  C   UNL d   1      10.114   4.278 -14.355  0.00  0.00     0.109 C 
BRANCH  13  14
ATOM     14  N   UNL d   1       8.762   4.254 -13.823  0.00  0.00    -0.294 N 
ATOM     15  C   UNL d   1       7.841   3.217 -13.888  0.00  0.00     0.183 A 
ATOM     16  C   UNL d   1       6.699   3.701 -13.192  0.00  0.00     0.138 A 
ATOM     17  N   UNL d   1       7.970   1.985 -14.463  0.00  0.00    -0.039 NA
ATOM     18  N   UNL d   1       6.891   4.990 -12.729  0.00  0.00    -0.221 NA
ATOM     19  C   UNL d   1       5.621   2.799 -13.083  0.00  0.00     0.140 A 
ATOM     20  C   UNL d   1       8.139   5.228 -13.129  0.00  0.00     0.180 A 
ATOM     21  N   UNL d   1       5.743   1.568 -13.638  0.00  0.00    -0.055 NA
ATOM     22  C   UNL d   1       6.868   1.252 -14.282  0.00  0.00     0.770 A 
ATOM     23  N   UNL d   1       6.902  -0.011 -14.810  0.00  0.00     0.062 N 
ENDBRANCH  13  14
ENDBRANCH   1  13
TORSDOF 9
