REMARK  1 active torsions:
REMARK  status: ('A' for Active; 'I' for Inactive)
REMARK    1  A    between atoms: C_8  and  C_9 
ROOT
ATOM      1  C   UNL d   1       6.095   1.401 -14.126  0.00  0.00     0.031 C 
ATOM      2  C   UNL d   1       7.549   1.713 -14.446  0.00  0.00    -0.022 A 
ATOM      3  C   UNL d   1       8.355   0.746 -15.073  0.00  0.00    -0.003 A 
ATOM      4  C   UNL d   1       9.700   1.056 -15.374  0.00  0.00     0.019 A 
ATOM      5  C   UNL d   1      10.235   2.317 -15.045  0.00  0.00     0.083 A 
ATOM      6  C   UNL d   1       9.444   3.266 -14.339  0.00  0.00     0.035 A 
ATOM      7  C   UNL d   1       8.091   2.953 -14.086  0.00  0.00    -0.001 A 
ATOM      8  C   UNL d   1       9.988   4.572 -13.819  0.00  0.00     0.079 C 
ATOM      9  N   UNL d   1      10.773   5.313 -14.494  0.00  0.00    -0.244 NA
ATOM     10  C   UNL d   1      11.349   5.052 -15.758  0.00  0.00     0.100 A 
ATOM     11  C   UNL d   1      11.619   6.176 -16.563  0.00  0.00     0.032 A 
ATOM     12  C   UNL d   1      12.271   6.049 -17.802  0.00  0.00     0.059 A 
ATOM     13 CL   UNL d   1      12.553   7.441 -18.788  0.00  0.00    -0.082 Cl
ATOM     14  C   UNL d   1      12.704   4.779 -18.236  0.00  0.00     0.013 A 
ATOM     15  C   UNL d   1      12.466   3.648 -17.426  0.00  0.00     0.021 A 
ATOM     16  C   UNL d   1      11.781   3.778 -16.202  0.00  0.00     0.099 A 
ATOM     17  N   UNL d   1      11.520   2.610 -15.479  0.00  0.00    -0.244 NA
ENDROOT
BRANCH   8  18
ATOM     18  C   UNL d   1       9.664   5.020 -12.440  0.00  0.00    -0.005 C 
ATOM     19  C   UNL d   1       9.332   3.999 -11.372  0.00  0.00     0.063 C 
ATOM     20  C   UNL d   1       9.444   4.544  -9.924  0.00  0.00     0.255 C 
ATOM     21  N   UNL d   1       8.772   5.820  -9.811  0.00  0.00     0.141 N 
ATOM     22  C   UNL d   1       9.374   6.848 -10.690  0.00  0.00     0.241 C 
ATOM     23  C   UNL d   1       8.672   6.207  -8.413  0.00  0.00     0.286 C 
ATOM     24  C   UNL d   1       9.586   6.331 -12.107  0.00  0.00     0.004 C 
ATOM     25  C   UNL d   1      10.687   7.470 -10.153  0.00  0.00     0.040 C 
ENDBRANCH   8  18
TORSDOF 1
