REMARK  5 active torsions:
REMARK  status: ('A' for Active; 'I' for Inactive)
REMARK    1  A    between atoms: C_2  and  C_4 
REMARK    2  A    between atoms: C_9  and  N_10 
REMARK    3  A    between atoms: N_10  and  S_11 
REMARK    4  A    between atoms: S_11  and  C_14 
REMARK    5  A    between atoms: C_17  and  C_18 
ROOT
ATOM      1  N   UNL d   1       8.685   4.396 -12.090  0.00  0.00    -0.159 NA
ENDROOT
BRANCH   1   2
ATOM      2  C   UNL d   1       8.518   3.595 -13.211  0.00  0.00     0.089 A 
ATOM      3  C   UNL d   1       7.214   3.205 -13.621  0.00  0.00    -0.004 A 
ATOM      4  C   UNL d   1       7.054   2.303 -14.692  0.00  0.00    -0.007 A 
ATOM      5  C   UNL d   1       8.145   1.782 -15.374  0.00  0.00    -0.024 A 
ATOM      6  C   UNL d   1       7.886   0.851 -16.548  0.00  0.00     0.061 C 
ATOM      7  C   UNL d   1       9.458   2.165 -14.956  0.00  0.00    -0.023 A 
ATOM      8  C   UNL d   1       8.674  -0.420 -16.483  0.00  0.00     0.255 C 
ATOM      9  N   UNL d   1      10.065  -0.323 -16.879  0.00  0.00     0.140 N 
ATOM     10  C   UNL d   1      10.828   0.184 -15.744  0.00  0.00     0.255 C 
ATOM     11  C   UNL d   1      10.554  -1.655 -17.207  0.00  0.00     0.285 C 
ATOM     12  C   UNL d   1      10.707   1.690 -15.624  0.00  0.00     0.061 C 
ATOM     13  C   UNL d   1       9.619   3.056 -13.877  0.00  0.00     0.015 A 
BRANCH   3  14
ATOM     14  C   UNL d   1       5.992   3.621 -12.832  0.00  0.00     0.024 C 
ATOM     15  C   UNL d   1       5.183   2.404 -12.360  0.00  0.00     0.005 C 
ATOM     16  C   UNL d   1       5.136   4.547 -13.672  0.00  0.00     0.005 C 
ENDBRANCH   3  14
ENDBRANCH   1   2
BRANCH   1  17
ATOM     17  S   UNL d   1       8.527   6.107 -11.994  0.00  0.00     0.285 S 
ATOM     18  O   UNL d   1       9.488   6.592 -13.002  0.00  0.00    -0.198 OA
ATOM     19  O   UNL d   1       7.104   6.408 -12.041  0.00  0.00    -0.198 OA
BRANCH  17  20
ATOM     20  C   UNL d   1       9.218   6.519 -10.425  0.00  0.00     0.105 A 
ATOM     21  C   UNL d   1      10.252   7.470 -10.350  0.00  0.00     0.013 A 
ATOM     22  C   UNL d   1      10.790   7.808  -9.098  0.00  0.00     0.001 A 
ATOM     23  C   UNL d   1      10.290   7.216  -7.913  0.00  0.00     0.000 A 
ATOM     24  C   UNL d   1       9.251   6.258  -8.028  0.00  0.00     0.001 A 
ATOM     25  C   UNL d   1       8.712   5.900  -9.276  0.00  0.00     0.013 A 
BRANCH  23  26
ATOM     26  C   UNL d   1      10.853   7.596  -6.609  0.00  0.00     0.000 A 
ATOM     27  C   UNL d   1      11.222   8.904  -6.299  0.00  0.00     0.001 A 
ATOM     28  C   UNL d   1      11.765   9.224  -5.027  0.00  0.00     0.011 A 
ATOM     29  C   UNL d   1      11.945   8.202  -4.059  0.00  0.00     0.058 A 
ATOM     30  C   UNL d   1      11.590   6.895  -4.362  0.00  0.00     0.011 A 
ATOM     31 CL   UNL d   1      12.604   8.590  -2.490  0.00  0.00    -0.082 Cl
ATOM     32  C   UNL d   1      11.045   6.601  -5.627  0.00  0.00     0.001 A 
ENDBRANCH  23  26
ENDBRANCH  17  20
ENDBRANCH   1  17
TORSDOF 5
