REMARK  5 active torsions:
REMARK  status: ('A' for Active; 'I' for Inactive)
REMARK       I    between atoms: C_2  and  N_4 
REMARK    1  A    between atoms: N_4  and  C_5 
REMARK    2  A    between atoms: C_8  and  C_9 
REMARK    3  A    between atoms: C_9  and  C_10 
REMARK    4  A    between atoms: C_10  and  N_11 
REMARK    5  A    between atoms: N_14  and  C_15 
ROOT
ATOM      1  N   UNL d   1       7.950   4.984 -11.909  0.00  0.00     0.141 N 
ATOM      2  C   UNL d   1       8.943   4.131 -12.564  0.00  0.00     0.274 C 
ATOM      3  C   UNL d   1       8.521   3.838 -13.997  0.00  0.00     0.138 C 
ATOM      4  N   UNL d   1       7.201   3.223 -14.018  0.00  0.00    -0.330 N 
ATOM      5  C   UNL d   1       6.166   3.941 -13.277  0.00  0.00     0.138 C 
ATOM      6  C   UNL d   1       6.661   4.276 -11.855  0.00  0.00     0.274 C 
ENDROOT
BRANCH   1   7
ATOM      7  C   UNL d   1       8.404   5.294 -10.561  0.00  0.00     0.250 C 
BRANCH   7   8
ATOM      8  C   UNL d   1       9.462   6.412 -10.556  0.00  0.00     0.035 C 
BRANCH   8   9
ATOM      9  C   UNL d   1      10.141   6.598  -9.191  0.00  0.00     0.002 C 
ATOM     10  C   UNL d   1      11.187   7.729  -9.270  0.00  0.00     0.002 C 
ATOM     11  C   UNL d   1      11.854   7.981  -7.911  0.00  0.00     0.024 C 
ATOM     12  C   UNL d   1      10.804   8.267  -6.825  0.00  0.00     0.106 C 
ATOM     13  C   UNL d   1       9.788   7.124  -6.729  0.00  0.00     0.024 C 
ATOM     14  C   UNL d   1       9.115   6.883  -8.079  0.00  0.00     0.002 C 
BRANCH  12  15
ATOM     15  N   UNL d   1      11.461   8.440  -5.536  0.00  0.00    -0.240 NA
ATOM     16  C   UNL d   1      11.353   9.501  -4.737  0.00  0.00     0.252 C 
ATOM     17  C   UNL d   1      12.158   9.468  -3.440  0.00  0.00     0.100 C 
ATOM     18  O   UNL d   1      10.657  10.476  -4.988  0.00  0.00    -0.271 OA
ENDBRANCH  12  15
ENDBRANCH   8   9
ENDBRANCH   7   8
ENDBRANCH   1   7
BRANCH   4  19
ATOM     19  C   UNL d   1       6.951   2.014 -14.693  0.00  0.00     0.141 A 
ATOM     20  C   UNL d   1       7.608   1.665 -15.917  0.00  0.00     0.040 A 
ATOM     21  C   UNL d   1       7.231   0.417 -16.511  0.00  0.00     0.034 A 
ATOM     22  C   UNL d   1       8.600   2.360 -16.733  0.00  0.00     0.011 A 
ATOM     23  C   UNL d   1       6.260  -0.399 -15.917  0.00  0.00     0.027 A 
ATOM     24  S   UNL d   1       8.119   0.126 -18.001  0.00  0.00    -0.086 SA
ATOM     25  C   UNL d   1       5.691   0.029 -14.715  0.00  0.00     0.101 A 
ATOM     26  N   UNL d   1       6.031   1.190 -14.126  0.00  0.00    -0.227 NA
ATOM     27  C   UNL d   1       8.964   1.633 -17.834  0.00  0.00     0.035 A 
ENDBRANCH   4  19
TORSDOF 5
