REMARK  6 active torsions:
REMARK  status: ('A' for Active; 'I' for Inactive)
REMARK       I    between atoms: C_2  and  N_4 
REMARK    1  A    between atoms: N_4  and  C_5 
REMARK    2  A    between atoms: C_5  and  C_6 
REMARK    3  A    between atoms: C_6  and  C_7 
REMARK    4  A    between atoms: C_7  and  C_8 
REMARK    5  A    between atoms: C_8  and  N_9 
REMARK    6  A    between atoms: N_12  and  C_13 
ROOT
ATOM      1  N   UNL d   1       9.744   7.146  -9.701  0.00  0.00     0.141 N 
ATOM      2  C   UNL d   1      11.080   7.634  -9.363  0.00  0.00     0.274 C 
ATOM      3  C   UNL d   1      11.014   8.733  -8.286  0.00  0.00     0.137 C 
ATOM      4  N   UNL d   1      10.285   8.251  -7.124  0.00  0.00    -0.344 N 
ATOM      5  C   UNL d   1       8.994   7.628  -7.383  0.00  0.00     0.137 C 
ATOM      6  C   UNL d   1       9.123   6.572  -8.499  0.00  0.00     0.274 C 
ENDROOT
BRANCH   1   7
ATOM      7  C   UNL d   1       9.815   6.123 -10.734  0.00  0.00     0.251 C 
BRANCH   7   8
ATOM      8  C   UNL d   1       8.520   6.017 -11.566  0.00  0.00     0.037 C 
BRANCH   8   9
ATOM      9  C   UNL d   1       8.408   4.680 -12.319  0.00  0.00     0.029 C 
BRANCH   9  10
ATOM     10  C   UNL d   1       9.569   4.390 -13.287  0.00  0.00     0.129 C 
BRANCH  10  11
ATOM     11  N   UNL d   1       9.612   2.977 -13.649  0.00  0.00    -0.238 NA
ATOM     12  C   UNL d   1       9.400   2.479 -14.873  0.00  0.00     0.252 C 
ATOM     13  C   UNL d   1       9.564   0.973 -15.025  0.00  0.00     0.100 C 
ATOM     14  O   UNL d   1       9.102   3.169 -15.845  0.00  0.00    -0.271 OA
ENDBRANCH  10  11
ENDBRANCH   9  10
ENDBRANCH   8   9
ENDBRANCH   7   8
ENDBRANCH   1   7
BRANCH   4  15
ATOM     15  C   UNL d   1      10.850   8.275  -5.843  0.00  0.00     0.056 A 
ATOM     16  C   UNL d   1      11.197   7.074  -5.186  0.00  0.00     0.018 A 
ATOM     17  C   UNL d   1      11.778   7.109  -3.901  0.00  0.00     0.013 A 
ATOM     18  C   UNL d   1      11.982   8.340  -3.260  0.00  0.00     0.058 A 
ATOM     19  C   UNL d   1      11.617   9.539  -3.897  0.00  0.00     0.013 A 
ATOM     20 CL   UNL d   1      12.653   8.389  -1.679  0.00  0.00    -0.082 Cl
ATOM     21  C   UNL d   1      11.072   9.511  -5.199  0.00  0.00     0.018 A 
ENDBRANCH   4  15
TORSDOF 6
