REMARK  0 active torsions:
REMARK  status: ('A' for Active; 'I' for Inactive)
ROOT
ATOM      1  C   UNL d   1       8.348   6.342 -13.124  0.00  0.00     0.038 C 
ATOM      2  C   UNL d   1       8.325   4.900 -13.458  0.00  0.00     0.005 A 
ATOM      3  S   UNL d   1       9.798   4.030 -13.790  0.00  0.00    -0.094 SA
ATOM      4  C   UNL d   1       8.914   2.569 -14.146  0.00  0.00     0.023 A 
ATOM      5  C   UNL d   1       9.645   1.296 -14.401  0.00  0.00     0.040 C 
ATOM      6  C   UNL d   1       7.571   2.802 -14.032  0.00  0.00     0.063 A 
ATOM      7  C   UNL d   1       7.211   4.121 -13.643  0.00  0.00    -0.004 A 
ATOM      8  C   UNL d   1       5.786   4.570 -13.510  0.00  0.00     0.029 C 
ATOM      9  C   UNL d   1       5.020   3.895 -12.414  0.00  0.00     0.013 C 
ATOM     10  C   UNL d   1       5.361   2.453 -12.088  0.00  0.00     0.065 C 
ATOM     11  C   UNL d   1       5.604   1.548 -13.260  0.00  0.00     0.124 A 
ATOM     12  N   UNL d   1       4.849   0.497 -13.593  0.00  0.00    -0.229 NA
ATOM     13  C   UNL d   1       5.401   0.020 -14.777  0.00  0.00     0.119 A 
ATOM     14  C   UNL d   1       6.518   0.773 -15.093  0.00  0.00     0.102 A 
ATOM     15  N   UNL d   1       6.608   1.762 -14.125  0.00  0.00    -0.293 N 
ENDROOT
TORSDOF 0
