REMARK  1 active torsions:
REMARK  status: ('A' for Active; 'I' for Inactive)
REMARK    1  A    between atoms: N_2  and  C_4 
ROOT
ATOM      1  C   UNL d   1       9.329  -0.367 -17.443  0.00  0.00     0.241 C 
ATOM      2  C   UNL d   1       8.138   0.581 -17.298  0.00  0.00     0.002 C 
ATOM      3  C   UNL d   1       8.229   1.819 -16.845  0.00  0.00    -0.021 C 
ATOM      4  C   UNL d   1       9.499   2.486 -16.269  0.00  0.00     0.056 C 
ATOM      5  C   UNL d   1      10.536   1.334 -15.999  0.00  0.00     0.015 C 
ATOM      6  C   UNL d   1      10.657   0.361 -17.178  0.00  0.00     0.039 C 
ATOM      7  C   UNL d   1       9.160   3.215 -14.952  0.00  0.00    -0.015 A 
ATOM      8  C   UNL d   1       7.845   3.186 -14.411  0.00  0.00    -0.004 A 
ATOM      9  C   UNL d   1       7.512   3.841 -13.213  0.00  0.00    -0.000 A 
ATOM     10  C   UNL d   1       8.508   4.486 -12.470  0.00  0.00    -0.000 A 
ATOM     11  C   UNL d   1       9.822   4.506 -12.963  0.00  0.00    -0.000 A 
ATOM     12  C   UNL d   1      10.161   3.875 -14.186  0.00  0.00    -0.003 A 
ATOM     13  C   UNL d   1      11.570   3.994 -14.577  0.00  0.00    -0.000 C 
ATOM     14  C   UNL d   1      12.067   4.121 -15.818  0.00  0.00    -0.000 C 
ATOM     15  C   UNL d   1      11.332   4.163 -17.080  0.00  0.00    -0.003 A 
ATOM     16  C   UNL d   1      11.900   4.958 -18.093  0.00  0.00     0.001 A 
ATOM     17  C   UNL d   1      11.273   5.121 -19.341  0.00  0.00     0.011 A 
ATOM     18  C   UNL d   1      10.050   4.481 -19.578  0.00  0.00     0.058 A 
ATOM     19 CL   UNL d   1       9.251   4.671 -21.097  0.00  0.00    -0.082 Cl
ATOM     20  C   UNL d   1       9.476   3.671 -18.584  0.00  0.00     0.008 A 
ATOM     21  C   UNL d   1      10.094   3.475 -17.311  0.00  0.00    -0.014 A 
ENDROOT
BRANCH   1  22
ATOM     22  N   UNL d   1       9.364  -1.018 -18.756  0.00  0.00     0.143 N 
ATOM     23  C   UNL d   1       8.306  -2.020 -18.868  0.00  0.00     0.286 C 
ATOM     24  C   UNL d   1       9.213  -0.076 -19.870  0.00  0.00     0.286 C 
ENDBRANCH   1  22
TORSDOF 1
