REMARK  13 active torsions:
REMARK  status: ('A' for Active; 'I' for Inactive)
REMARK    1  A    between atoms: C_2  and  C_3 
REMARK    2  A    between atoms: C_3  and  N_4 
REMARK    3  A    between atoms: N_4  and  C_5 
REMARK    4  A    between atoms: N_4  and  C_24 
REMARK    5  A    between atoms: C_5  and  C_6 
REMARK    6  A    between atoms: C_6  and  C_7 
REMARK    7  A    between atoms: C_7  and  C_8 
REMARK    8  A    between atoms: C_8  and  N_9 
REMARK       I    between atoms: N_9  and  C_10 
REMARK    9  A    between atoms: C_10  and  C_12 
REMARK   10  A    between atoms: C_15  and  C_16 
REMARK   11  A    between atoms: C_24  and  C_25 
REMARK   12  A    between atoms: C_27  and  C_28 
REMARK   13  A    between atoms: C_34  and  O_35 
ROOT
ATOM      1  C   UNL d   1      10.226   4.609 -15.257  0.00  0.00     0.250 C 
ENDROOT
BRANCH   1   2
ATOM      2  N   UNL d   1       9.729   4.236 -16.582  0.00  0.00     0.137 N 
BRANCH   2   3
ATOM      3  C   UNL d   1      10.730   4.370 -17.638  0.00  0.00     0.250 C 
BRANCH   3   4
ATOM      4  C   UNL d   1      11.067   5.835 -17.962  0.00  0.00     0.035 C 
ATOM      5  C   UNL d   1       9.915   6.556 -18.668  0.00  0.00     0.002 C 
ENDBRANCH   3   4
ENDBRANCH   2   3
BRANCH   2   6
ATOM      6  C   UNL d   1       9.189   2.875 -16.598  0.00  0.00     0.251 C 
BRANCH   6   7
ATOM      7  C   UNL d   1      10.230   1.816 -16.239  0.00  0.00     0.038 A 
ATOM      8  C   UNL d   1       9.909   0.355 -16.459  0.00  0.00     0.026 A 
ATOM      9  C   UNL d   1      10.936   1.052 -17.335  0.00  0.00     0.007 A 
BRANCH   8  10
ATOM     10  C   UNL d   1       8.564  -0.011 -17.017  0.00  0.00     0.002 A 
ATOM     11  C   UNL d   1       7.386   0.157 -16.250  0.00  0.00     0.090 A 
ATOM     12  C   UNL d   1       6.139  -0.180 -16.837  0.00  0.00     0.026 A 
ATOM     13  C   UNL d   1       6.078  -0.669 -18.153  0.00  0.00     0.032 A 
ATOM     14  C   UNL d   1       7.255  -0.833 -18.904  0.00  0.00     0.140 A 
ATOM     15  C   UNL d   1       8.496  -0.510 -18.332  0.00  0.00     0.027 A 
ATOM     16  F   UNL d   1       7.201  -1.278 -20.183  0.00  0.00    -0.204 F 
BRANCH  11  17
ATOM     17  O   UNL d   1       7.514   0.661 -14.970  0.00  0.00    -0.328 OA
ATOM     18  C   UNL d   1       6.328   0.928 -14.231  0.00  0.00     0.181 C 
ENDBRANCH  11  17
ENDBRANCH   8  10
ENDBRANCH   6   7
ENDBRANCH   2   6
ENDBRANCH   1   2
BRANCH   1  19
ATOM     19  C   UNL d   1       9.075   4.787 -14.255  0.00  0.00     0.037 C 
BRANCH  19  20
ATOM     20  C   UNL d   1       9.617   5.234 -12.906  0.00  0.00     0.029 C 
BRANCH  20  21
ATOM     21  C   UNL d   1       8.524   5.565 -11.883  0.00  0.00     0.129 C 
BRANCH  21  22
ATOM     22  N   UNL d   1       9.095   5.967 -10.606  0.00  0.00    -0.234 NA
ATOM     23  C   UNL d   1       9.667   7.157 -10.345  0.00  0.00     0.275 C 
ATOM     24  O   UNL d   1       9.847   8.029 -11.193  0.00  0.00    -0.266 OA
BRANCH  23  25
ATOM     25  C   UNL d   1      10.133   7.352  -8.928  0.00  0.00     0.058 A 
ATOM     26  C   UNL d   1       9.479   6.722  -7.846  0.00  0.00     0.005 A 
ATOM     27  C   UNL d   1       9.920   6.938  -6.526  0.00  0.00     0.002 A 
ATOM     28  C   UNL d   1      10.999   7.806  -6.255  0.00  0.00     0.018 A 
ATOM     29  C   UNL d   1      11.630   8.454  -7.337  0.00  0.00     0.002 A 
ATOM     30  C   UNL d   1      11.207   8.229  -8.661  0.00  0.00     0.005 A 
BRANCH  28  31
ATOM     31  C   UNL d   1      11.451   8.035  -4.871  0.00  0.00     0.081 A 
ATOM     32  N   UNL d   1      11.461   9.322  -4.456  0.00  0.00    -0.244 NA
ATOM     33  C   UNL d   1      11.860   9.586  -3.196  0.00  0.00     0.099 A 
ATOM     34  C   UNL d   1      12.266   8.591  -2.289  0.00  0.00     0.021 A 
ATOM     35  C   UNL d   1      12.258   7.251  -2.716  0.00  0.00     0.003 A 
ATOM     36  C   UNL d   1      11.845   6.970  -4.031  0.00  0.00     0.019 A 
ENDBRANCH  28  31
ENDBRANCH  23  25
ENDBRANCH  21  22
ENDBRANCH  20  21
ENDBRANCH  19  20
ENDBRANCH   1  19
TORSDOF 13
