REMARK  6 active torsions:
REMARK  status: ('A' for Active; 'I' for Inactive)
REMARK    1  A    between atoms: O_2  and  N_3 
REMARK    2  A    between atoms: C_4  and  C_5 
REMARK    3  A    between atoms: C_4  and  C_19 
REMARK    4  A    between atoms: C_5  and  C_6 
REMARK    5  A    between atoms: C_6  and  N_7 
REMARK    6  A    between atoms: C_10  and  C_11 
ROOT
ATOM      1  C   UNL d   1       9.325   6.020 -12.006  0.00  0.00     0.257 C 
ENDROOT
BRANCH   1   2
ATOM      2  C   UNL d   1       9.524   4.500 -12.264  0.00  0.00     0.083 C 
BRANCH   2   3
ATOM      3  C   UNL d   1       8.754   3.954 -13.468  0.00  0.00     0.087 C 
ATOM      4  N   UNL d   1       7.484   3.991 -13.525  0.00  0.00    -0.136 NA
BRANCH   4   5
ATOM      5  O   UNL d   1       6.901   4.571 -12.396  0.00  0.00    -0.234 OA
ATOM      6  C   UNL d   1       5.503   4.468 -12.499  0.00  0.00     0.211 C 
ENDBRANCH   4   5
BRANCH   3   7
ATOM      7  C   UNL d   1       9.537   3.264 -14.536  0.00  0.00     0.016 A 
ATOM      8  C   UNL d   1      10.869   3.624 -14.856  0.00  0.00     0.002 A 
ATOM      9  C   UNL d   1      11.585   2.932 -15.848  0.00  0.00     0.011 A 
ATOM     10  C   UNL d   1      10.977   1.882 -16.561  0.00  0.00     0.058 A 
ATOM     11  C   UNL d   1       9.652   1.517 -16.267  0.00  0.00     0.011 A 
ATOM     12 CL   UNL d   1      11.848   1.057 -17.800  0.00  0.00    -0.082 Cl
ATOM     13  C   UNL d   1       8.939   2.200 -15.262  0.00  0.00     0.002 A 
ENDBRANCH   3   7
ENDBRANCH   2   3
ENDBRANCH   1   2
BRANCH   1  14
ATOM     14  N   UNL d   1       9.855   6.394 -10.703  0.00  0.00     0.137 N 
ATOM     15  C   UNL d   1       9.972   7.857 -10.658  0.00  0.00     0.251 C 
ATOM     16  C   UNL d   1      10.585   8.308  -9.327  0.00  0.00     0.041 C 
ATOM     17  C   UNL d   1       9.750   7.830  -8.121  0.00  0.00     0.044 C 
ATOM     18  C   UNL d   1       9.486   6.316  -8.287  0.00  0.00     0.041 C 
ATOM     19  C   UNL d   1       8.916   5.963  -9.654  0.00  0.00     0.251 C 
BRANCH  17  20
ATOM     20  C   UNL d   1      10.437   8.165  -6.798  0.00  0.00     0.059 A 
ATOM     21  N   UNL d   1      10.663   9.479  -6.564  0.00  0.00    -0.248 NA
ATOM     22  C   UNL d   1      11.293   9.836  -5.426  0.00  0.00     0.099 A 
ATOM     23  C   UNL d   1      11.719   8.908  -4.453  0.00  0.00     0.021 A 
ATOM     24  C   UNL d   1      11.463   7.547  -4.686  0.00  0.00     0.003 A 
ATOM     25  C   UNL d   1      10.820   7.165  -5.870  0.00  0.00     0.015 A 
ENDBRANCH  17  20
ENDBRANCH   1  14
TORSDOF 6
