REMARK  7 active torsions:
REMARK  status: ('A' for Active; 'I' for Inactive)
REMARK    1  A    between atoms: O_2  and  C_3 
REMARK    2  A    between atoms: C_3  and  C_4 
REMARK       I    between atoms: C_4  and  N_6 
REMARK    3  A    between atoms: N_6  and  C_7 
REMARK    4  A    between atoms: C_10  and  C_11 
REMARK    5  A    between atoms: C_11  and  C_12 
REMARK    6  A    between atoms: C_12  and  N_13 
REMARK    7  A    between atoms: N_16  and  C_17 
ROOT
ATOM      1  N   UNL d   1       8.549   4.431 -13.036  0.00  0.00     0.141 N 
ATOM      2  C   UNL d   1       7.188   4.132 -12.553  0.00  0.00     0.274 C 
ATOM      3  C   UNL d   1       6.304   3.629 -13.711  0.00  0.00     0.138 C 
ATOM      4  N   UNL d   1       6.956   2.518 -14.401  0.00  0.00    -0.330 N 
ATOM      5  C   UNL d   1       8.342   2.724 -14.797  0.00  0.00     0.138 C 
ATOM      6  C   UNL d   1       9.154   3.224 -13.598  0.00  0.00     0.274 C 
ENDROOT
BRANCH   1   7
ATOM      7  C   UNL d   1       9.404   4.861 -11.944  0.00  0.00     0.250 C 
BRANCH   7   8
ATOM      8  C   UNL d   1       9.165   6.343 -11.628  0.00  0.00     0.035 C 
BRANCH   8   9
ATOM      9  C   UNL d   1      10.049   6.846 -10.483  0.00  0.00     0.002 C 
ATOM     10  C   UNL d   1      10.072   8.382 -10.438  0.00  0.00     0.002 C 
ATOM     11  C   UNL d   1      10.926   8.902  -9.281  0.00  0.00     0.024 C 
ATOM     12  C   UNL d   1      10.451   8.335  -7.941  0.00  0.00     0.106 C 
ATOM     13  C   UNL d   1      10.432   6.785  -7.993  0.00  0.00     0.024 C 
ATOM     14  C   UNL d   1       9.586   6.266  -9.144  0.00  0.00     0.002 C 
BRANCH  12  15
ATOM     15  N   UNL d   1      11.294   8.867  -6.877  0.00  0.00    -0.238 NA
ATOM     16  C   UNL d   1      11.167   8.519  -5.591  0.00  0.00     0.282 C 
ATOM     17  O   UNL d   1      10.446   7.594  -5.241  0.00  0.00    -0.268 OA
BRANCH  16  18
ATOM     18  C   UNL d   1      11.930   9.342  -4.551  0.00  0.00     0.232 C 
BRANCH  18  19
ATOM     19  O   UNL d   1      11.779   8.779  -3.243  0.00  0.00    -0.342 OA
ATOM     20  C   UNL d   1      12.428   7.527  -3.015  0.00  0.00     0.175 C 
ENDBRANCH  18  19
ENDBRANCH  16  18
ENDBRANCH  12  15
ENDBRANCH   8   9
ENDBRANCH   7   8
ENDBRANCH   1   7
BRANCH   4  21
ATOM     21  C   UNL d   1       6.292   1.298 -14.662  0.00  0.00     0.138 A 
ATOM     22  C   UNL d   1       6.510   0.545 -15.837  0.00  0.00     0.036 A 
ATOM     23  C   UNL d   1       5.788  -0.612 -16.070  0.00  0.00     0.095 A 
ATOM     24  C   UNL d   1       7.396   0.802 -17.021  0.00  0.00     0.064 C 
ATOM     25  C   UNL d   1       4.833  -1.042 -15.140  0.00  0.00     0.045 A 
ATOM     26  O   UNL d   1       6.083  -1.202 -17.262  0.00  0.00    -0.331 OA
ATOM     27  C   UNL d   1       4.670  -0.237 -13.995  0.00  0.00     0.103 A 
ATOM     28  N   UNL d   1       5.388   0.883 -13.746  0.00  0.00    -0.228 NA
ATOM     29  C   UNL d   1       7.172  -0.479 -17.851  0.00  0.00     0.154 C 
ENDBRANCH   4  21
TORSDOF 7
