REMARK  3 active torsions:
REMARK  status: ('A' for Active; 'I' for Inactive)
REMARK    1  A    between atoms: C_3  and  C_4 
REMARK    2  A    between atoms: N_13  and  C_14 
REMARK    3  A    between atoms: C_14  and  C_15 
ROOT
ATOM      1  N   UNL d   1       7.855   5.582  -7.558  0.00  0.00    -0.196 NA
ATOM      2  C   UNL d   1       8.712   6.117  -8.070  0.00  0.00     0.076 C 
ATOM      3  C   UNL d   1       9.834   6.758  -8.701  0.00  0.00     0.102 C 
ATOM      4  C   UNL d   1      10.578   5.649  -9.381  0.00  0.00     0.054 C 
ATOM      5  C   UNL d   1       9.747   4.917 -10.490  0.00  0.00     0.252 C 
ATOM      6  N   UNL d   1       9.509   5.892 -11.555  0.00  0.00     0.141 N 
ATOM      7  C   UNL d   1       8.668   6.900 -10.942  0.00  0.00     0.252 C 
ATOM      8  C   UNL d   1       9.403   7.692  -9.821  0.00  0.00     0.054 C 
ENDROOT
BRANCH   3   9
ATOM      9  C   UNL d   1      10.675   7.480  -7.645  0.00  0.00    -0.009 A 
ATOM     10  C   UNL d   1      11.537   8.533  -7.979  0.00  0.00    -0.002 A 
ATOM     11  C   UNL d   1      12.225   9.218  -6.958  0.00  0.00     0.011 A 
ATOM     12  C   UNL d   1      12.039   8.861  -5.612  0.00  0.00     0.058 A 
ATOM     13  C   UNL d   1      11.239   7.760  -5.273  0.00  0.00     0.011 A 
ATOM     14 CL   UNL d   1      12.981   9.576  -4.410  0.00  0.00    -0.082 Cl
ATOM     15  C   UNL d   1      10.557   7.078  -6.287  0.00  0.00    -0.002 A 
ENDBRANCH   3   9
BRANCH   6  16
ATOM     16  C   UNL d   1       8.787   5.250 -12.638  0.00  0.00     0.278 C 
BRANCH  16  17
ATOM     17  C   UNL d   1       9.494   4.204 -13.443  0.00  0.00     0.032 A 
ATOM     18  C   UNL d   1       8.914   3.076 -14.111  0.00  0.00     0.017 A 
ATOM     19  C   UNL d   1       9.973   2.331 -14.710  0.00  0.00     0.081 A 
ATOM     20  C   UNL d   1       7.598   2.586 -14.272  0.00  0.00     0.001 A 
ATOM     21  N   UNL d   1      11.131   3.015 -14.416  0.00  0.00    -0.244 NA
ATOM     22  C   UNL d   1       9.734   1.151 -15.436  0.00  0.00     0.019 A 
ATOM     23  C   UNL d   1      10.846   4.130 -13.650  0.00  0.00     0.097 A 
ATOM     24  C   UNL d   1       8.413   0.691 -15.583  0.00  0.00     0.002 A 
ATOM     25  C   UNL d   1       7.349   1.406 -15.001  0.00  0.00     0.000 A 
ENDBRANCH  16  17
ENDBRANCH   6  16
TORSDOF 3
