REMARK  6 active torsions:
REMARK  status: ('A' for Active; 'I' for Inactive)
REMARK       I    between atoms: C_2  and  N_3 
REMARK    1  A    between atoms: C_2  and  C_30 
REMARK    2  A    between atoms: N_3  and  C_4 
REMARK    3  A    between atoms: C_10  and  C_11 
REMARK    4  A    between atoms: C_11  and  C_12 
REMARK    5  A    between atoms: C_12  and  N_13 
REMARK    6  A    between atoms: N_16  and  C_17 
ROOT
ATOM      1  C   UNL d   1       8.730   0.987 -14.271  0.00  0.00     0.129 C 
ATOM      2  C   UNL d   1       9.877   0.283 -15.050  0.00  0.00     0.034 C 
ATOM      3  C   UNL d   1      10.774   1.385 -15.663  0.00  0.00     0.028 C 
ATOM      4  C   UNL d   1      10.322   2.633 -14.955  0.00  0.00    -0.024 A 
ATOM      5  C   UNL d   1      10.897   3.915 -15.032  0.00  0.00    -0.005 A 
ATOM      6  C   UNL d   1      10.275   4.960 -14.311  0.00  0.00    -0.005 A 
ATOM      7  C   UNL d   1       9.105   4.744 -13.532  0.00  0.00    -0.020 A 
ATOM      8  C   UNL d   1       8.562   3.447 -13.473  0.00  0.00    -0.007 A 
ATOM      9  C   UNL d   1       9.189   2.411 -14.183  0.00  0.00    -0.004 A 
ENDROOT
BRANCH   7  10
ATOM     10  C   UNL d   1       8.395   5.872 -12.803  0.00  0.00     0.062 C 
BRANCH  10  11
ATOM     11  C   UNL d   1       8.217   5.625 -11.285  0.00  0.00     0.255 C 
BRANCH  11  12
ATOM     12  N   UNL d   1       9.415   5.841 -10.485  0.00  0.00     0.141 N 
ATOM     13  C   UNL d   1       9.031   5.676  -9.072  0.00  0.00     0.274 C 
ATOM     14  C   UNL d   1      10.202   5.928  -8.114  0.00  0.00     0.138 C 
ATOM     15  N   UNL d   1      10.808   7.229  -8.362  0.00  0.00    -0.329 N 
ATOM     16  C   UNL d   1      11.117   7.478  -9.763  0.00  0.00     0.138 C 
ATOM     17  C   UNL d   1       9.895   7.213 -10.658  0.00  0.00     0.274 C 
BRANCH  15  18
ATOM     18  C   UNL d   1      11.047   8.194  -7.334  0.00  0.00     0.148 A 
ATOM     19  C   UNL d   1      11.322   7.852  -5.946  0.00  0.00     0.042 A 
ATOM     20  C   UNL d   1      11.543   9.041  -5.185  0.00  0.00     0.050 A 
ATOM     21  C   UNL d   1      11.477   6.630  -5.254  0.00  0.00     0.004 A 
ATOM     22  S   UNL d   1      11.478  10.387  -6.281  0.00  0.00     0.015 SA
ATOM     23  C   UNL d   1      11.814   9.027  -3.795  0.00  0.00     0.008 A 
ATOM     24  N   UNL d   1      11.111   9.463  -7.635  0.00  0.00    -0.192 NA
ATOM     25  C   UNL d   1      11.914   7.787  -3.144  0.00  0.00     0.001 A 
ATOM     26  C   UNL d   1      11.772   6.601  -3.875  0.00  0.00     0.000 A 
ENDBRANCH  15  18
ENDBRANCH  11  12
ENDBRANCH  10  11
ENDBRANCH   7  10
BRANCH   1  27
ATOM     27  N   UNL d   1       7.468   0.844 -14.983  0.00  0.00    -0.230 NA
ATOM     28  C   UNL d   1       6.251   0.744 -14.411  0.00  0.00     0.300 C 
ATOM     29  O   UNL d   1       5.962   1.130 -13.280  0.00  0.00    -0.263 OA
BRANCH  28  30
ATOM     30  C   UNL d   1       5.267  -0.014 -15.190  0.00  0.00     0.184 A 
ATOM     31  O   UNL d   1       4.091  -0.416 -14.657  0.00  0.00    -0.206 OA
ATOM     32  N   UNL d   1       3.452  -1.211 -15.613  0.00  0.00    -0.124 NA
ATOM     33  C   UNL d   1       4.249  -1.228 -16.670  0.00  0.00     0.130 A 
ATOM     34  C   UNL d   1       5.439  -0.473 -16.466  0.00  0.00     0.055 A 
ENDBRANCH  28  30
ENDBRANCH   1  27
TORSDOF 6
