REMARK  7 active torsions:
REMARK  status: ('A' for Active; 'I' for Inactive)
REMARK    1  A    between atoms: C_2  and  C_3 
REMARK       I    between atoms: C_2  and  N_11 
REMARK    2  A    between atoms: C_14  and  C_16 
REMARK    3  A    between atoms: C_16  and  N_17 
REMARK    4  A    between atoms: N_17  and  C_18 
REMARK    5  A    between atoms: C_18  and  C_19 
REMARK    6  A    between atoms: C_19  and  O_20 
REMARK    7  A    between atoms: O_20  and  C_21 
ROOT
ATOM      1  O   UNL d   1       9.113   1.090 -14.889  0.00  0.00    -0.267 OA
ATOM      2  C   UNL d   1       8.056   1.636 -14.549  0.00  0.00     0.257 C 
ATOM      3  N   UNL d   1       7.983   2.907 -14.094  0.00  0.00    -0.317 N 
ATOM      4  C   UNL d   1       9.181   3.775 -14.062  0.00  0.00     0.107 C 
ATOM      5  C   UNL d   1       9.403   4.340 -12.652  0.00  0.00     0.059 C 
ATOM      6  C   UNL d   1       8.147   5.070 -12.123  0.00  0.00     0.172 C 
ATOM      7  F   UNL d   1       7.936   6.175 -12.864  0.00  0.00    -0.238 F 
ATOM      8  C   UNL d   1       6.905   4.176 -12.256  0.00  0.00     0.059 C 
ATOM      9  C   UNL d   1       6.744   3.618 -13.685  0.00  0.00     0.107 C 
ENDROOT
BRANCH   6  10
ATOM     10  C   UNL d   1       8.334   5.506 -10.663  0.00  0.00     0.323 C 
BRANCH  10  11
ATOM     11  N   UNL d   1       9.459   6.425 -10.562  0.00  0.00     0.345 N 
BRANCH  11  12
ATOM     12  C   UNL d   1       9.564   6.896  -9.197  0.00  0.00     0.323 C 
BRANCH  12  13
ATOM     13  C   UNL d   1      10.777   7.833  -9.067  0.00  0.00     0.187 C 
BRANCH  13  14
ATOM     14  O   UNL d   1      10.605   8.766  -8.009  0.00  0.00    -0.326 OA
BRANCH  14  15
ATOM     15  C   UNL d   1      10.994   8.409  -6.738  0.00  0.00     0.121 A 
ATOM     16  C   UNL d   1      11.378   9.454  -5.873  0.00  0.00     0.162 A 
ATOM     17  C   UNL d   1      11.813   9.177  -4.563  0.00  0.00     0.032 A 
ATOM     18  F   UNL d   1      11.353  10.736  -6.309  0.00  0.00    -0.202 F 
ATOM     19  C   UNL d   1      11.861   7.849  -4.098  0.00  0.00     0.002 A 
ATOM     20  C   UNL d   1      11.454   6.802  -4.947  0.00  0.00     0.002 A 
ATOM     21  C   UNL d   1      11.034   7.074  -6.261  0.00  0.00     0.026 A 
ENDBRANCH  14  15
ENDBRANCH  13  14
ENDBRANCH  12  13
ENDBRANCH  11  12
ENDBRANCH  10  11
ENDBRANCH   6  10
BRANCH   2  22
ATOM     22  C   UNL d   1       6.775   0.862 -14.714  0.00  0.00     0.057 A 
ATOM     23  C   UNL d   1       6.451   0.284 -15.957  0.00  0.00     0.018 A 
ATOM     24  C   UNL d   1       5.237  -0.417 -16.134  0.00  0.00     0.085 A 
ATOM     25  C   UNL d   1       4.338  -0.545 -15.057  0.00  0.00     0.151 A 
ATOM     26 CL   UNL d   1       4.827  -1.064 -17.680  0.00  0.00    -0.080 Cl
ATOM     27  C   UNL d   1       4.679   0.021 -13.806  0.00  0.00     0.031 A 
ATOM     28  F   UNL d   1       3.139  -1.150 -15.217  0.00  0.00    -0.203 F 
ATOM     29  C   UNL d   1       5.884   0.679 -13.624  0.00  0.00     0.007 A 
ENDBRANCH   2  22
TORSDOF 7
