REMARK  8 active torsions:
REMARK  status: ('A' for Active; 'I' for Inactive)
REMARK    1  A    between atoms: C_3  and  S_4 
REMARK    2  A    between atoms: S_4  and  C_5 
REMARK    3  A    between atoms: C_5  and  C_6 
REMARK    4  A    between atoms: C_6  and  C_7 
REMARK    5  A    between atoms: C_7  and  N_8 
REMARK    6  A    between atoms: N_13  and  C_14 
REMARK    7  A    between atoms: C_19  and  C_20 
REMARK    8  A    between atoms: C_28  and  C_29 
ROOT
ATOM      1  N   UNL d   1      10.020   1.665 -15.863  0.00  0.00     0.138 N 
ATOM      2  C   UNL d   1      11.101   0.819 -16.365  0.00  0.00     0.252 C 
ATOM      3  C   UNL d   1      10.424  -0.051 -17.440  0.00  0.00     0.052 C 
ATOM      4  C   UNL d   1      10.437   0.533 -18.852  0.00  0.00     0.021 C 
ATOM      5  C   UNL d   1       9.032   0.311 -19.357  0.00  0.00     0.077 C 
ATOM      6  N   UNL d   1       8.187   0.451 -18.187  0.00  0.00    -0.252 NA
ATOM      7  C   UNL d   1       8.951  -0.073 -17.044  0.00  0.00     0.097 C 
ATOM      8  C   UNL d   1       8.859   0.779 -15.765  0.00  0.00     0.266 C 
ENDROOT
BRANCH   1   9
ATOM      9  C   UNL d   1      10.379   2.314 -14.610  0.00  0.00     0.251 C 
BRANCH   9  10
ATOM     10  C   UNL d   1       9.365   3.408 -14.239  0.00  0.00     0.047 C 
BRANCH  10  11
ATOM     11  C   UNL d   1       9.689   4.061 -12.892  0.00  0.00     0.067 C 
BRANCH  11  12
ATOM     12  S   UNL d   1       8.558   5.432 -12.518  0.00  0.00    -0.075 SA
BRANCH  12  13
ATOM     13  C   UNL d   1       9.042   5.717 -10.846  0.00  0.00     0.193 A 
ATOM     14  N   UNL d   1       9.483   6.905 -10.395  0.00  0.00    -0.289 N 
ATOM     15  C   UNL d   1       9.634   8.159 -11.107  0.00  0.00     0.134 C 
ATOM     16  C   UNL d   1       9.728   6.640  -9.093  0.00  0.00     0.168 A 
ATOM     17  N   UNL d   1       9.459   5.378  -8.759  0.00  0.00    -0.128 NA
ATOM     18  N   UNL d   1       9.004   4.779  -9.903  0.00  0.00    -0.122 NA
BRANCH  16  19
ATOM     19  C   UNL d   1      10.227   7.591  -8.120  0.00  0.00     0.055 A 
ATOM     20  C   UNL d   1       9.451   7.917  -6.984  0.00  0.00     0.102 A 
ATOM     21  N   UNL d   1       9.858   8.785  -6.038  0.00  0.00    -0.242 NA
ATOM     22  C   UNL d   1      11.067   9.364  -6.187  0.00  0.00     0.099 A 
ATOM     23  C   UNL d   1      11.921   9.095  -7.272  0.00  0.00     0.021 A 
ATOM     24  C   UNL d   1      11.493   8.194  -8.261  0.00  0.00     0.006 A 
ENDBRANCH  16  19
ENDBRANCH  12  13
ENDBRANCH  11  12
ENDBRANCH  10  11
ENDBRANCH   9  10
ENDBRANCH   1   9
BRANCH   6  25
ATOM     25  C   UNL d   1       6.808   0.108 -18.310  0.00  0.00     0.040 A 
ATOM     26  C   UNL d   1       6.045   0.395 -19.491  0.00  0.00     0.082 A 
ATOM     27  C   UNL d   1       4.705  -0.039 -19.578  0.00  0.00     0.005 A 
ATOM     28  C   UNL d   1       4.083  -0.737 -18.533  0.00  0.00     0.000 A 
ATOM     29  C   UNL d   1       4.803  -1.002 -17.363  0.00  0.00     0.001 A 
ATOM     30  C   UNL d   1       6.144  -0.573 -17.249  0.00  0.00     0.011 A 
BRANCH  26  31
ATOM     31  C   UNL d   1       6.590   1.152 -20.715  0.00  0.00     0.420 C 
ATOM     32  F   UNL d   1       7.323   2.216 -20.366  0.00  0.00    -0.166 F 
ATOM     33  F   UNL d   1       7.422   0.378 -21.404  0.00  0.00    -0.166 F 
ATOM     34  F   UNL d   1       5.598   1.575 -21.520  0.00  0.00    -0.166 F 
ENDBRANCH  26  31
ENDBRANCH   6  25
TORSDOF 8
