REMARK  9 active torsions:
REMARK  status: ('A' for Active; 'I' for Inactive)
REMARK    1  A    between atoms: N_7  and  C_8 
REMARK    2  A    between atoms: C_8  and  C_9 
REMARK    3  A    between atoms: C_9  and  C_10 
REMARK    4  A    between atoms: C_10  and  C_11 
REMARK    5  A    between atoms: C_11  and  N_12 
REMARK    6  A    between atoms: N_15  and  C_16 
REMARK    7  A    between atoms: C_21  and  O_22 
REMARK    8  A    between atoms: O_22  and  C_23 
REMARK    9  A    between atoms: C_23  and  C_24 
ROOT
ATOM      1  N   UNL d   1      11.720   4.228 -15.589  0.00  0.00     0.141 N 
ATOM      2  C   UNL d   1      11.505   3.430 -14.368  0.00  0.00     0.274 C 
ATOM      3  C   UNL d   1      10.091   2.801 -14.383  0.00  0.00     0.137 C 
ATOM      4  N   UNL d   1       9.089   3.829 -14.621  0.00  0.00    -0.343 N 
ATOM      5  C   UNL d   1       9.362   4.743 -15.712  0.00  0.00     0.137 C 
ATOM      6  C   UNL d   1      10.758   5.337 -15.600  0.00  0.00     0.274 C 
ENDROOT
BRANCH   1   7
ATOM      7  C   UNL d   1      13.075   4.753 -15.570  0.00  0.00     0.251 C 
BRANCH   7   8
ATOM      8  C   UNL d   1      13.629   5.068 -16.968  0.00  0.00     0.037 C 
BRANCH   8   9
ATOM      9  C   UNL d   1      12.871   6.176 -17.726  0.00  0.00     0.029 C 
BRANCH   9  10
ATOM     10  C   UNL d   1      13.420   6.536 -19.102  0.00  0.00     0.132 C 
BRANCH  10  11
ATOM     11  N   UNL d   1      14.618   7.370 -19.031  0.00  0.00    -0.202 N 
ATOM     12  N   UNL d   1      14.364   8.729 -19.083  0.00  0.00    -0.159 NA
ATOM     13  C   UNL d   1      15.332   9.574 -19.010  0.00  0.00     0.181 A 
ATOM     14  C   UNL d   1      16.723   9.082 -18.836  0.00  0.00     0.285 A 
ATOM     15  N   UNL d   1      16.887   7.719 -18.776  0.00  0.00    -0.244 N 
ATOM     16  O   UNL d   1      17.643   9.892 -18.754  0.00  0.00    -0.265 OA
ATOM     17  C   UNL d   1      18.225   7.148 -18.566  0.00  0.00     0.139 C 
ATOM     18  C   UNL d   1      15.859   6.829 -18.894  0.00  0.00     0.349 A 
ATOM     19  O   UNL d   1      16.034   5.603 -18.857  0.00  0.00    -0.245 OA
ENDBRANCH  10  11
ENDBRANCH   9  10
ENDBRANCH   8   9
ENDBRANCH   7   8
ENDBRANCH   1   7
BRANCH   4  20
ATOM     20  C   UNL d   1       8.016   4.056 -13.745  0.00  0.00     0.079 A 
ATOM     21  C   UNL d   1       7.978   5.203 -12.909  0.00  0.00     0.110 A 
ATOM     22  C   UNL d   1       6.822   5.412 -12.093  0.00  0.00     0.026 A 
ATOM     23  C   UNL d   1       5.796   4.467 -12.086  0.00  0.00     0.002 A 
ATOM     24  C   UNL d   1       5.819   3.353 -12.927  0.00  0.00     0.002 A 
ATOM     25  C   UNL d   1       6.931   3.155 -13.776  0.00  0.00     0.019 A 
BRANCH  21  26
ATOM     26  O   UNL d   1       9.054   6.054 -12.910  0.00  0.00    -0.326 OA
BRANCH  26  27
ATOM     27  C   UNL d   1       9.014   7.227 -12.095  0.00  0.00     0.187 C 
BRANCH  27  28
ATOM     28  C   UNL d   1       9.156   6.882 -10.589  0.00  0.00     0.226 C 
ATOM     29  F   UNL d   1      10.347   6.322 -10.363  0.00  0.00    -0.232 F 
ENDBRANCH  27  28
ENDBRANCH  26  27
ENDBRANCH  21  26
ENDBRANCH   4  20
TORSDOF 9
