REMARK  10 active torsions:
REMARK  status: ('A' for Active; 'I' for Inactive)
REMARK    1  A    between atoms: C_7  and  C_8 
REMARK    2  A    between atoms: C_8  and  C_9 
REMARK    3  A    between atoms: C_9  and  C_10 
REMARK    4  A    between atoms: C_10  and  N_11 
REMARK       I    between atoms: N_11  and  C_12 
REMARK       I    between atoms: N_14  and  C_15 
REMARK       I    between atoms: C_15  and  N_17 
REMARK    5  A    between atoms: N_17  and  C_18 
REMARK    6  A    between atoms: C_18  and  C_19 
REMARK    7  A    between atoms: C_19  and  C_21 
REMARK    8  A    between atoms: C_21  and  C_22 
REMARK    9  A    between atoms: C_22  and  C_23 
REMARK   10  A    between atoms: C_23  and  C_24 
ROOT
ATOM      1  N   UNL d   1       6.312   4.963 -12.652  0.00  0.00    -0.241 NA
ATOM      2  C   UNL d   1       7.064   6.071 -12.309  0.00  0.00     0.237 C 
ATOM      3  N   UNL d   1       6.323   7.235 -12.439  0.00  0.00    -0.060 NA
ATOM      4  N   UNL d   1       8.301   5.967 -11.934  0.00  0.00    -0.159 NA
ATOM      5  C   UNL d   1       9.066   7.091 -11.640  0.00  0.00     0.367 C 
ATOM      6  O   UNL d   1       8.975   8.225 -12.115  0.00  0.00    -0.243 OA
ATOM      7  N   UNL d   1      10.001   6.777 -10.736  0.00  0.00    -0.217 NA
ENDROOT
BRANCH   7   8
ATOM      8  C   UNL d   1      11.044   7.686 -10.243  0.00  0.00     0.131 C 
BRANCH   8   9
ATOM      9  C   UNL d   1      10.795   8.120  -8.793  0.00  0.00     0.025 C 
ATOM     10  C   UNL d   1       9.378   8.697  -8.636  0.00  0.00     0.002 C 
BRANCH   9  11
ATOM     11  C   UNL d   1      11.123   6.958  -7.826  0.00  0.00     0.002 C 
BRANCH  11  12
ATOM     12  C   UNL d   1      10.521   7.161  -6.433  0.00  0.00     0.005 C 
BRANCH  12  13
ATOM     13  C   UNL d   1      11.351   6.504  -5.306  0.00  0.00     0.026 C 
BRANCH  13  14
ATOM     14  C   UNL d   1      11.722   7.416  -4.142  0.00  0.00    -0.022 A 
ATOM     15  C   UNL d   1      12.256   6.810  -2.979  0.00  0.00    -0.004 A 
ATOM     16  C   UNL d   1      12.597   7.600  -1.869  0.00  0.00    -0.000 A 
ATOM     17  C   UNL d   1      12.398   8.987  -1.900  0.00  0.00    -0.000 A 
ATOM     18  C   UNL d   1      11.867   9.593  -3.044  0.00  0.00    -0.000 A 
ATOM     19  C   UNL d   1      11.546   8.826  -4.166  0.00  0.00    -0.004 A 
ENDBRANCH  13  14
ENDBRANCH  12  13
ENDBRANCH  11  12
ENDBRANCH   9  11
ENDBRANCH   8   9
ENDBRANCH   7   8
BRANCH   1  20
ATOM     20  C   UNL d   1       6.804   3.596 -12.617  0.00  0.00     0.129 C 
BRANCH  20  21
ATOM     21  C   UNL d   1       6.099   2.728 -13.663  0.00  0.00     0.032 C 
BRANCH  21  22
ATOM     22  C   UNL d   1       6.703   1.322 -13.786  0.00  0.00     0.036 C 
BRANCH  22  23
ATOM     23  C   UNL d   1       6.188   0.532 -14.939  0.00  0.00     0.024 A 
ATOM     24  C   UNL d   1       6.522   0.662 -16.266  0.00  0.00     0.064 A 
ATOM     25  C   UNL d   1       7.485   1.646 -16.860  0.00  0.00     0.052 C 
ATOM     26  N   UNL d   1       5.833  -0.226 -17.099  0.00  0.00    -0.224 NA
ATOM     27  C   UNL d   1       5.021  -1.031 -16.418  0.00  0.00     0.214 A 
ATOM     28  N   UNL d   1       4.232  -2.006 -16.989  0.00  0.00    -0.120 N 
ATOM     29  S   UNL d   1       5.000  -0.723 -14.693  0.00  0.00    -0.050 SA
ENDBRANCH  22  23
ENDBRANCH  21  22
ENDBRANCH  20  21
ENDBRANCH   1  20
TORSDOF 10
