REMARK  5 active torsions:
REMARK  status: ('A' for Active; 'I' for Inactive)
REMARK    1  A    between atoms: C_2  and  N_3 
REMARK    2  A    between atoms: C_7  and  C_8 
REMARK    3  A    between atoms: C_8  and  N_9 
REMARK       I    between atoms: N_9  and  C_10 
REMARK    4  A    between atoms: C_10  and  C_12 
REMARK    5  A    between atoms: C_20  and  O_21 
ROOT
ATOM      1  C   UNL d   1       8.825   5.203 -12.735  0.00  0.00     0.079 A 
ATOM      2  C   UNL d   1       7.475   4.766 -12.607  0.00  0.00    -0.005 A 
ATOM      3  C   UNL d   1       6.470   5.581 -11.787  0.00  0.00     0.032 C 
ATOM      4  C   UNL d   1       7.076   3.592 -13.271  0.00  0.00     0.056 A 
ATOM      5 CL   UNL d   1       5.457   3.014 -13.152  0.00  0.00    -0.083 Cl
ATOM      6  C   UNL d   1       7.998   2.841 -14.027  0.00  0.00     0.041 A 
ATOM      7  C   UNL d   1       9.341   3.244 -14.116  0.00  0.00     0.154 A 
ATOM      8  O   UNL d   1      10.229   2.437 -14.766  0.00  0.00    -0.188 OA
ATOM      9  C   UNL d   1       9.752   4.443 -13.507  0.00  0.00     0.124 A 
ENDROOT
BRANCH   1  10
ATOM     10  C   UNL d   1       9.237   6.488 -12.073  0.00  0.00     0.277 C 
ATOM     11  N   UNL d   1       9.376   6.442 -10.745  0.00  0.00    -0.232 NA
ATOM     12  O   UNL d   1       9.477   7.504 -12.738  0.00  0.00    -0.266 OA
BRANCH  11  13
ATOM     13  C   UNL d   1       9.919   7.554  -9.973  0.00  0.00     0.162 C 
BRANCH  13  14
ATOM     14  C   UNL d   1      10.309   7.049  -8.564  0.00  0.00     0.243 C 
ATOM     15  N   UNL d   1      11.103   7.996  -7.778  0.00  0.00     0.137 N 
ATOM     16  C   UNL d   1      10.931   7.551  -6.387  0.00  0.00     0.250 C 
ATOM     17  C   UNL d   1       9.454   7.196  -6.282  0.00  0.00     0.037 C 
ATOM     18  C   UNL d   1       9.052   6.844  -7.709  0.00  0.00     0.037 C 
BRANCH  15  19
ATOM     19  C   UNL d   1      12.535   8.036  -8.122  0.00  0.00     0.250 C 
ATOM     20  C   UNL d   1      12.847   8.013  -9.624  0.00  0.00     0.037 C 
ENDBRANCH  15  19
ENDBRANCH  13  14
ENDBRANCH  11  13
ENDBRANCH   1  10
BRANCH   9  21
ATOM     21  O   UNL d   1      11.061   4.862 -13.633  0.00  0.00    -0.326 OA
ATOM     22  C   UNL d   1      11.447   5.183 -14.963  0.00  0.00     0.181 C 
ENDBRANCH   9  21
TORSDOF 5
