REMARK  8 active torsions:
REMARK  status: ('A' for Active; 'I' for Inactive)
REMARK    1  A    between atoms: C_3  and  S_4 
REMARK    2  A    between atoms: S_4  and  C_5 
REMARK    3  A    between atoms: C_5  and  C_6 
REMARK    4  A    between atoms: C_6  and  C_7 
REMARK    5  A    between atoms: C_7  and  N_8 
REMARK    6  A    between atoms: N_13  and  C_14 
REMARK    7  A    between atoms: C_17  and  C_18 
REMARK    8  A    between atoms: C_28  and  C_29 
ROOT
ATOM      1  N   UNL d   1      10.184   4.700 -15.587  0.00  0.00     0.139 N 
ATOM      2  C   UNL d   1      11.332   5.186 -14.832  0.00  0.00     0.252 C 
ATOM      3  C   UNL d   1      11.793   6.414 -15.642  0.00  0.00     0.058 C 
ATOM      4  C   UNL d   1      13.288   6.526 -15.954  0.00  0.00     0.028 C 
ATOM      5  C   UNL d   1      13.329   7.041 -17.385  0.00  0.00     0.102 C 
ATOM      6  N   UNL d   1      12.143   6.474 -18.027  0.00  0.00    -0.348 N 
ATOM      7  C   UNL d   1      11.127   6.234 -17.008  0.00  0.00     0.117 C 
ATOM      8  C   UNL d   1      10.571   4.815 -16.981  0.00  0.00     0.272 C 
ENDROOT
BRANCH   1   9
ATOM      9  C   UNL d   1       9.754   3.361 -15.224  0.00  0.00     0.251 C 
BRANCH   9  10
ATOM     10  C   UNL d   1       9.039   3.328 -13.861  0.00  0.00     0.047 C 
BRANCH  10  11
ATOM     11  C   UNL d   1       7.792   4.234 -13.799  0.00  0.00     0.067 C 
BRANCH  11  12
ATOM     12  S   UNL d   1       7.215   4.490 -12.084  0.00  0.00    -0.075 SA
BRANCH  12  13
ATOM     13  C   UNL d   1       8.303   5.792 -11.546  0.00  0.00     0.193 A 
ATOM     14  N   UNL d   1       8.792   5.893 -10.293  0.00  0.00    -0.289 N 
ATOM     15  C   UNL d   1       8.601   5.033  -9.124  0.00  0.00     0.134 C 
ATOM     16  C   UNL d   1       9.488   7.046 -10.356  0.00  0.00     0.170 A 
ATOM     17  N   UNL d   1       9.457   7.606 -11.571  0.00  0.00    -0.128 NA
ATOM     18  N   UNL d   1       8.686   6.779 -12.352  0.00  0.00    -0.122 NA
BRANCH  16  19
ATOM     19  C   UNL d   1      10.212   7.649  -9.244  0.00  0.00     0.074 A 
ATOM     20  C   UNL d   1       9.603   7.910  -7.997  0.00  0.00     0.105 A 
ATOM     21  N   UNL d   1      10.290   8.484  -6.994  0.00  0.00    -0.223 NA
ATOM     22  C   UNL d   1      11.572   8.792  -7.231  0.00  0.00     0.199 A 
ATOM     23  N   UNL d   1      12.247   8.580  -8.367  0.00  0.00    -0.223 NA
ATOM     24  C   UNL d   1      11.554   8.034  -9.385  0.00  0.00     0.105 A 
ENDBRANCH  16  19
ENDBRANCH  12  13
ENDBRANCH  11  12
ENDBRANCH  10  11
ENDBRANCH   9  10
ENDBRANCH   1   9
BRANCH   6  25
ATOM     25  C   UNL d   1      11.782   6.919 -19.311  0.00  0.00     0.056 A 
ATOM     26  C   UNL d   1      10.464   6.762 -19.808  0.00  0.00     0.017 A 
ATOM     27  C   UNL d   1      10.126   7.179 -21.107  0.00  0.00     0.005 A 
ATOM     28  C   UNL d   1      11.095   7.765 -21.947  0.00  0.00     0.072 A 
ATOM     29  C   UNL d   1      12.402   7.956 -21.454  0.00  0.00     0.005 A 
ATOM     30  C   UNL d   1      12.741   7.534 -20.158  0.00  0.00     0.017 A 
BRANCH  28  31
ATOM     31  C   UNL d   1      10.698   8.187 -23.354  0.00  0.00     0.419 C 
ATOM     32  F   UNL d   1       9.825   9.187 -23.274  0.00  0.00    -0.166 F 
ATOM     33  F   UNL d   1      11.754   8.582 -24.071  0.00  0.00    -0.166 F 
ATOM     34  F   UNL d   1      10.122   7.163 -23.984  0.00  0.00    -0.166 F 
ENDBRANCH  28  31
ENDBRANCH   6  25
TORSDOF 8
