REMARK  13 active torsions:
REMARK  status: ('A' for Active; 'I' for Inactive)
REMARK    1  A    between atoms: O_2  and  C_3 
REMARK    2  A    between atoms: C_8  and  N_9 
REMARK    3  A    between atoms: N_12  and  C_13 
REMARK    4  A    between atoms: C_13  and  C_14 
REMARK    5  A    between atoms: C_15  and  C_16 
REMARK    6  A    between atoms: C_16  and  N_17 
REMARK       I    between atoms: N_17  and  C_18 
REMARK    7  A    between atoms: C_18  and  C_20 
REMARK    8  A    between atoms: C_24  and  O_25 
REMARK    9  A    between atoms: O_25  and  C_26 
REMARK   10  A    between atoms: C_26  and  C_27 
REMARK   11  A    between atoms: C_27  and  O_28 
REMARK   12  A    between atoms: O_28  and  C_29 
REMARK   13  A    between atoms: C_29  and  C_30 
ROOT
ATOM      1  N   UNL d   1       9.686   7.362 -10.377  0.00  0.00    -0.228 NA
ATOM      2  C   UNL d   1      10.521   8.268  -9.833  0.00  0.00     0.293 C 
ATOM      3  O   UNL d   1      11.140   9.146 -10.408  0.00  0.00    -0.264 OA
ENDROOT
BRANCH   1   4
ATOM      4  C   UNL d   1       9.303   7.269 -11.781  0.00  0.00     0.155 C 
BRANCH   4   5
ATOM      5  C   UNL d   1       8.255   6.198 -11.987  0.00  0.00    -0.003 C 
ATOM      6  C   UNL d   1       6.979   6.445 -12.332  0.00  0.00     0.006 C 
BRANCH   6   7
ATOM      7  C   UNL d   1       5.881   5.410 -12.536  0.00  0.00     0.276 C 
BRANCH   7   8
ATOM      8  N   UNL d   1       6.363   4.035 -12.698  0.00  0.00     0.145 N 
ATOM      9  C   UNL d   1       5.203   3.134 -12.664  0.00  0.00     0.275 C 
ATOM     10  C   UNL d   1       5.596   1.648 -12.883  0.00  0.00     0.137 C 
ATOM     11  N   UNL d   1       6.451   1.510 -14.058  0.00  0.00    -0.343 N 
ATOM     12  C   UNL d   1       7.582   2.445 -14.143  0.00  0.00     0.137 C 
ATOM     13  C   UNL d   1       7.009   3.868 -14.009  0.00  0.00     0.275 C 
BRANCH  11  14
ATOM     14  C   UNL d   1       6.153   0.532 -15.056  0.00  0.00     0.079 A 
ATOM     15  C   UNL d   1       6.328   0.786 -16.434  0.00  0.00     0.110 A 
ATOM     16  C   UNL d   1       6.062  -0.230 -17.392  0.00  0.00     0.026 A 
ATOM     17  C   UNL d   1       5.535  -1.468 -16.976  0.00  0.00     0.002 A 
ATOM     18  C   UNL d   1       5.307  -1.707 -15.614  0.00  0.00     0.002 A 
ATOM     19  C   UNL d   1       5.628  -0.719 -14.652  0.00  0.00     0.019 A 
BRANCH  15  20
ATOM     20  O   UNL d   1       6.678   2.046 -16.859  0.00  0.00    -0.327 OA
ATOM     21  C   UNL d   1       7.646   2.150 -17.868  0.00  0.00     0.181 C 
ENDBRANCH  15  20
ENDBRANCH  11  14
ENDBRANCH   7   8
ENDBRANCH   6   7
ENDBRANCH   4   5
ENDBRANCH   1   4
BRANCH   2  22
ATOM     22  C   UNL d   1      10.663   8.229  -8.399  0.00  0.00     0.139 A 
ATOM     23  N   UNL d   1      11.066   9.390  -7.763  0.00  0.00    -0.241 NA
ATOM     24  C   UNL d   1      11.259   9.156  -6.431  0.00  0.00     0.082 A 
ATOM     25  C   UNL d   1      10.996   7.772  -6.265  0.00  0.00     0.021 A 
ATOM     26  C   UNL d   1      11.635   9.987  -5.369  0.00  0.00     0.021 A 
ATOM     27  C   UNL d   1      10.616   7.203  -7.516  0.00  0.00     0.026 A 
ATOM     28  C   UNL d   1      11.147   7.226  -4.996  0.00  0.00     0.026 A 
ATOM     29  C   UNL d   1      11.536   8.054  -3.892  0.00  0.00     0.094 A 
ATOM     30  C   UNL d   1      11.748   9.425  -4.084  0.00  0.00     0.026 A 
BRANCH  29  31
ATOM     31  O   UNL d   1      11.650   7.639  -2.582  0.00  0.00    -0.328 OA
BRANCH  31  32
ATOM     32  C   UNL d   1      11.159   6.345  -2.219  0.00  0.00     0.181 C 
BRANCH  32  33
ATOM     33  C   UNL d   1       9.992   6.298  -1.219  0.00  0.00     0.175 C 
BRANCH  33  34
ATOM     34  O   UNL d   1       8.715   5.979  -1.662  0.00  0.00    -0.348 OA
BRANCH  34  35
ATOM     35  C   UNL d   1       7.911   5.269  -0.731  0.00  0.00     0.180 C 
BRANCH  35  36
ATOM     36  C   UNL d   1       6.473   5.369  -1.214  0.00  0.00     0.225 C 
ATOM     37  F   UNL d   1       6.233   4.451  -2.151  0.00  0.00    -0.232 F 
ENDBRANCH  35  36
ENDBRANCH  34  35
ENDBRANCH  33  34
ENDBRANCH  32  33
ENDBRANCH  31  32
ENDBRANCH  29  31
ENDBRANCH   2  22
TORSDOF 13
