REMARK  6 active torsions:
REMARK  status: ('A' for Active; 'I' for Inactive)
REMARK    1  A    between atoms: O_2  and  C_3 
REMARK    2  A    between atoms: N_11  and  C_12 
REMARK    3  A    between atoms: C_12  and  C_13 
REMARK    4  A    between atoms: C_18  and  C_19 
REMARK    5  A    between atoms: C_19  and  N_20 
REMARK       I    between atoms: N_20  and  C_21 
REMARK    6  A    between atoms: C_21  and  C_23 
ROOT
ATOM      1  C   UNL d   1       8.542   5.486 -12.635  0.00  0.00     0.009 A 
ATOM      2  C   UNL d   1       7.146   5.445 -12.438  0.00  0.00    -0.003 A 
ATOM      3  C   UNL d   1       6.371   4.361 -12.883  0.00  0.00    -0.000 A 
ATOM      4  C   UNL d   1       7.007   3.298 -13.575  0.00  0.00    -0.000 A 
ATOM      5  C   UNL d   1       8.404   3.316 -13.748  0.00  0.00    -0.003 A 
ATOM      6  C   UNL d   1       9.188   4.413 -13.333  0.00  0.00     0.000 A 
ENDROOT
BRANCH   1   7
ATOM      7  C   UNL d   1       9.318   6.634 -11.987  0.00  0.00     0.277 C 
BRANCH   7   8
ATOM      8  N   UNL d   1       9.765   6.432 -10.591  0.00  0.00     0.146 N 
ATOM      9  C   UNL d   1      10.169   7.747 -10.063  0.00  0.00     0.277 C 
ATOM     10  C   UNL d   1      10.501   7.759  -8.575  0.00  0.00     0.009 A 
ATOM     11  C   UNL d   1       9.998   6.757  -7.731  0.00  0.00    -0.020 A 
ATOM     12  C   UNL d   1      11.249   8.825  -8.014  0.00  0.00     0.027 A 
ATOM     13  C   UNL d   1      10.238   6.805  -6.351  0.00  0.00     0.022 A 
ATOM     14  C   UNL d   1       9.215   5.611  -8.316  0.00  0.00     0.061 C 
ATOM     15  C   UNL d   1      11.000   7.846  -5.797  0.00  0.00     0.119 A 
ATOM     16  C   UNL d   1      11.505   8.866  -6.627  0.00  0.00     0.153 A 
ATOM     17  O   UNL d   1      12.249   9.891  -6.080  0.00  0.00    -0.188 OA
ATOM     18  C   UNL d   1       8.719   5.863  -9.727  0.00  0.00     0.256 C 
BRANCH  15  19
ATOM     19  O   UNL d   1      11.184   7.870  -4.436  0.00  0.00    -0.326 OA
ATOM     20  C   UNL d   1      12.440   7.394  -4.005  0.00  0.00     0.181 C 
ENDBRANCH  15  19
ENDBRANCH   7   8
ENDBRANCH   1   7
BRANCH   6  21
ATOM     21  C   UNL d   1      10.693   4.382 -13.512  0.00  0.00     0.155 C 
BRANCH  21  22
ATOM     22  N   UNL d   1      11.151   3.503 -14.580  0.00  0.00    -0.229 NA
ATOM     23  C   UNL d   1      11.313   3.926 -15.847  0.00  0.00     0.276 C 
ATOM     24  O   UNL d   1      11.221   5.098 -16.175  0.00  0.00    -0.266 OA
BRANCH  23  25
ATOM     25  C   UNL d   1      11.736   2.891 -16.842  0.00  0.00     0.068 A 
ATOM     26  C   UNL d   1      11.206   1.571 -16.919  0.00  0.00     0.062 A 
ATOM     27  C   UNL d   1      11.612   0.695 -17.935  0.00  0.00     0.012 A 
ATOM     28 CL   UNL d   1      10.045   0.899 -15.816  0.00  0.00    -0.082 Cl
ATOM     29  C   UNL d   1      12.559   1.086 -18.896  0.00  0.00     0.001 A 
ATOM     30  C   UNL d   1      13.090   2.387 -18.847  0.00  0.00     0.000 A 
ATOM     31  C   UNL d   1      12.675   3.286 -17.844  0.00  0.00     0.006 A 
ENDBRANCH  23  25
ENDBRANCH  21  22
ENDBRANCH   6  21
TORSDOF 6
