REMARK  1 active torsions:
REMARK  status: ('A' for Active; 'I' for Inactive)
REMARK    1  A    between atoms: C_2  and  N_3 
ROOT
ATOM      1  N   UNL d   1      11.107   9.046  -5.811  0.00  0.00     0.141 N 
ATOM      2  C   UNL d   1      11.181   7.600  -5.606  0.00  0.00     0.274 C 
ATOM      3  C   UNL d   1      10.156   6.892  -6.490  0.00  0.00     0.137 C 
ATOM      4  N   UNL d   1      10.383   7.203  -7.893  0.00  0.00    -0.346 N 
ATOM      5  C   UNL d   1       9.677   6.451  -8.849  0.00  0.00     0.057 A 
ATOM      6  C   UNL d   1       9.053   5.213  -8.602  0.00  0.00     0.017 A 
ATOM      7  C   UNL d   1       8.276   4.592  -9.587  0.00  0.00     0.003 A 
ATOM      8  C   UNL d   1       8.159   5.156 -10.867  0.00  0.00     0.019 A 
ATOM      9  C   UNL d   1       8.768   6.358 -11.126  0.00  0.00     0.083 A 
ATOM     10  N   UNL d   1       8.731   7.170 -12.220  0.00  0.00    -0.244 NA
ATOM     11  C   UNL d   1       9.366   8.366 -11.935  0.00  0.00     0.095 A 
ATOM     12  C   UNL d   1       9.889   8.217 -10.672  0.00  0.00     0.002 A 
ATOM     13  C   UNL d   1       9.501   6.984 -10.133  0.00  0.00     0.031 A 
ATOM     14  C   UNL d   1      10.723   8.972  -9.656  0.00  0.00     0.052 C 
ATOM     15  C   UNL d   1      10.424   8.642  -8.163  0.00  0.00     0.119 C 
ATOM     16  C   UNL d   1      11.450   9.313  -7.214  0.00  0.00     0.273 C 
ENDROOT
BRANCH   1  17
ATOM     17  C   UNL d   1      12.074   9.699  -4.942  0.00  0.00     0.251 C 
ATOM     18  C   UNL d   1      11.576   9.758  -3.486  0.00  0.00     0.037 C 
ENDBRANCH   1  17
TORSDOF 1
