REMARK  3 active torsions:
REMARK  status: ('A' for Active; 'I' for Inactive)
REMARK    1  A    between atoms: C_2  and  N_3 
REMARK    2  A    between atoms: N_6  and  C_7 
REMARK    3  A    between atoms: C_9  and  C_10 
ROOT
ATOM      1  C   UNL d   1       8.535   4.540 -11.449  0.00  0.00     0.140 C 
ATOM      2  C   UNL d   1       9.612   4.488 -12.355  0.00  0.00     0.036 C 
ATOM      3  C   UNL d   1       9.451   3.967 -13.640  0.00  0.00     0.000 C 
ATOM      4  C   UNL d   1       8.171   3.441 -13.975  0.00  0.00    -0.009 C 
ATOM      5  C   UNL d   1       7.120   3.599 -13.020  0.00  0.00     0.057 C 
ATOM      6  N   UNL d   1       7.290   4.197 -11.816  0.00  0.00    -0.233 NA
ATOM      7  C   UNL d   1       5.720   3.028 -13.241  0.00  0.00     0.048 C 
ATOM      8  C   UNL d   1       5.574   1.498 -12.989  0.00  0.00     0.039 C 
ATOM      9  C   UNL d   1       6.108   0.472 -14.028  0.00  0.00     0.153 C 
ATOM     10  O   UNL d   1       5.444   0.549 -15.265  0.00  0.00    -0.223 OA
ATOM     11  C   UNL d   1       7.621   0.452 -14.290  0.00  0.00     0.033 C 
ATOM     12  C   UNL d   1       8.153   1.259 -15.487  0.00  0.00     0.007 C 
ATOM     13  C   UNL d   1       7.906   2.776 -15.323  0.00  0.00     0.028 C 
ENDROOT
BRANCH   1  14
ATOM     14  N   UNL d   1       8.751   4.908 -10.115  0.00  0.00    -0.330 N 
ATOM     15  C   UNL d   1       9.779   4.373  -9.246  0.00  0.00     0.138 C 
ATOM     16  C   UNL d   1      10.597   5.557  -8.684  0.00  0.00     0.274 C 
ATOM     17  N   UNL d   1       9.802   6.539  -7.958  0.00  0.00     0.141 N 
ATOM     18  C   UNL d   1       8.906   7.085  -8.954  0.00  0.00     0.274 C 
ATOM     19  C   UNL d   1       8.002   5.972  -9.500  0.00  0.00     0.138 C 
BRANCH  17  20
ATOM     20  C   UNL d   1      10.672   7.609  -7.472  0.00  0.00     0.251 C 
ATOM     21  C   UNL d   1      11.259   7.242  -6.106  0.00  0.00     0.037 C 
ENDBRANCH  17  20
ENDBRANCH   1  14
BRANCH   3  22
ATOM     22  C   UNL d   1      10.626   3.952 -14.549  0.00  0.00    -0.000 C 
ATOM     23  C   UNL d   1      11.265   5.174 -14.902  0.00  0.00     0.002 C 
ATOM     24  C   UNL d   1      12.366   5.182 -15.797  0.00  0.00     0.030 C 
ATOM     25  C   UNL d   1      12.786   3.982 -16.402  0.00  0.00     0.140 C 
ATOM     26  C   UNL d   1      12.153   2.771 -16.040  0.00  0.00     0.030 C 
ATOM     27  F   UNL d   1      13.844   3.984 -17.259  0.00  0.00    -0.204 F 
ATOM     28  C   UNL d   1      11.138   2.734 -15.049  0.00  0.00     0.002 C 
ENDBRANCH   3  22
TORSDOF 3
