REMARK  5 active torsions:
REMARK  status: ('A' for Active; 'I' for Inactive)
REMARK    1  A    between atoms: C_5  and  C_6 
REMARK    2  A    between atoms: N_11  and  C_12 
REMARK    3  A    between atoms: C_12  and  C_13 
REMARK    4  A    between atoms: C_13  and  N_14 
REMARK    5  A    between atoms: N_17  and  C_18 
ROOT
ATOM      1  C   UNL d   1       6.763   1.452 -15.121  0.00  0.00     0.083 A 
ATOM      2  C   UNL d   1       6.284   2.338 -14.177  0.00  0.00     0.027 A 
ATOM      3  C   UNL d   1       7.359   3.191 -13.779  0.00  0.00     0.094 A 
ATOM      4  C   UNL d   1       7.533   4.314 -12.837  0.00  0.00     0.267 A 
ATOM      5  O   UNL d   1       6.563   4.743 -12.214  0.00  0.00    -0.267 OA
ATOM      6  N   UNL d   1       8.808   4.807 -12.704  0.00  0.00    -0.245 N 
ATOM      7  C   UNL d   1       9.884   4.330 -13.416  0.00  0.00     0.354 A 
ATOM      8  O   UNL d   1      11.021   4.795 -13.326  0.00  0.00    -0.244 OA
ATOM      9  N   UNL d   1       9.669   3.299 -14.270  0.00  0.00    -0.173 NA
ATOM     10  C   UNL d   1       8.450   2.751 -14.449  0.00  0.00     0.172 A 
ATOM     11  N   UNL d   1       8.117   1.709 -15.277  0.00  0.00    -0.227 NA
ENDROOT
BRANCH   6  12
ATOM     12  C   UNL d   1       9.019   5.887 -11.716  0.00  0.00     0.149 C 
BRANCH  12  13
ATOM     13  C   UNL d   1       9.048   5.351 -10.269  0.00  0.00     0.275 C 
BRANCH  13  14
ATOM     14  N   UNL d   1       9.198   6.453  -9.324  0.00  0.00     0.143 N 
ATOM     15  C   UNL d   1      10.598   6.857  -9.226  0.00  0.00     0.274 C 
ATOM     16  C   UNL d   1      10.799   8.015  -8.233  0.00  0.00     0.137 C 
ATOM     17  N   UNL d   1      10.248   7.656  -6.934  0.00  0.00    -0.344 N 
ATOM     18  C   UNL d   1       8.877   7.165  -6.980  0.00  0.00     0.137 C 
ATOM     19  C   UNL d   1       8.741   6.020  -7.998  0.00  0.00     0.274 C 
BRANCH  17  20
ATOM     20  C   UNL d   1      10.965   7.806  -5.733  0.00  0.00     0.067 A 
ATOM     21  C   UNL d   1      11.587   9.021  -5.366  0.00  0.00     0.073 A 
ATOM     22  C   UNL d   1      12.328   9.098  -4.168  0.00  0.00     0.013 A 
ATOM     23 CL   UNL d   1      11.463  10.428  -6.349  0.00  0.00    -0.081 Cl
ATOM     24  C   UNL d   1      12.449   8.007  -3.307  0.00  0.00     0.001 A 
ATOM     25  C   UNL d   1      11.836   6.798  -3.652  0.00  0.00     0.002 A 
ATOM     26  C   UNL d   1      11.095   6.711  -4.852  0.00  0.00     0.018 A 
ENDBRANCH  17  20
ENDBRANCH  13  14
ENDBRANCH  12  13
ENDBRANCH   6  12
BRANCH   1  27
ATOM     27  C   UNL d   1       6.115   0.389 -15.887  0.00  0.00     0.018 A 
ATOM     28  C   UNL d   1       4.975  -0.263 -15.371  0.00  0.00     0.001 A 
ATOM     29  C   UNL d   1       4.322  -1.270 -16.110  0.00  0.00    -0.004 A 
ATOM     30  C   UNL d   1       4.801  -1.635 -17.384  0.00  0.00    -0.022 A 
ATOM     31  C   UNL d   1       4.110  -2.727 -18.174  0.00  0.00     0.031 C 
ATOM     32  C   UNL d   1       5.935  -0.987 -17.911  0.00  0.00    -0.004 A 
ATOM     33  C   UNL d   1       6.585   0.018 -17.169  0.00  0.00     0.001 A 
ENDBRANCH   1  27
TORSDOF 5
