REMARK  7 active torsions:
REMARK  status: ('A' for Active; 'I' for Inactive)
REMARK    1  A    between atoms: S_2  and  C_5 
REMARK    2  A    between atoms: C_5  and  C_6 
REMARK       I    between atoms: C_6  and  N_8 
REMARK    3  A    between atoms: N_8  and  C_9 
REMARK    4  A    between atoms: C_12  and  C_13 
REMARK    5  A    between atoms: C_13  and  C_14 
REMARK    6  A    between atoms: C_14  and  N_15 
REMARK    7  A    between atoms: N_18  and  C_19 
ROOT
ATOM      1  C   UNL d   1       9.335   4.986 -13.062  0.00  0.00     0.250 C 
ENDROOT
BRANCH   1   2
ATOM      2  C   UNL d   1       8.065   5.543 -12.399  0.00  0.00     0.035 C 
BRANCH   2   3
ATOM      3  C   UNL d   1       8.301   5.947 -10.937  0.00  0.00     0.002 C 
ATOM      4  C   UNL d   1       8.664   4.753 -10.039  0.00  0.00     0.002 C 
ATOM      5  C   UNL d   1       8.913   5.159  -8.586  0.00  0.00     0.024 C 
ATOM      6  C   UNL d   1       9.982   6.262  -8.497  0.00  0.00     0.106 C 
ATOM      7  C   UNL d   1       9.573   7.479  -9.338  0.00  0.00     0.024 C 
ATOM      8  C   UNL d   1       9.327   7.087 -10.799  0.00  0.00     0.002 C 
BRANCH   6   9
ATOM      9  N   UNL d   1      10.168   6.624  -7.099  0.00  0.00    -0.239 NA
ATOM     10  C   UNL d   1      11.135   7.432  -6.648  0.00  0.00     0.268 C 
ATOM     11  O   UNL d   1      11.863   8.071  -7.400  0.00  0.00    -0.269 OA
BRANCH  10  12
ATOM     12  C   UNL d   1      11.352   7.479  -5.141  0.00  0.00     0.212 C 
BRANCH  12  13
ATOM     13  S   UNL d   1      11.748   9.193  -4.569  0.00  0.00     0.180 S 
ATOM     14  C   UNL d   1      11.956   8.967  -2.770  0.00  0.00     0.140 C 
ATOM     15  O   UNL d   1      10.600  10.076  -4.801  0.00  0.00    -0.225 OA
ATOM     16  O   UNL d   1      13.061   9.590  -5.084  0.00  0.00    -0.225 OA
ENDBRANCH  12  13
ENDBRANCH  10  12
ENDBRANCH   6   9
ENDBRANCH   2   3
ENDBRANCH   1   2
BRANCH   1  17
ATOM     17  N   UNL d   1       9.041   4.397 -14.354  0.00  0.00     0.141 N 
ATOM     18  C   UNL d   1      10.270   4.421 -15.155  0.00  0.00     0.274 C 
ATOM     19  C   UNL d   1       9.990   3.827 -16.538  0.00  0.00     0.138 C 
ATOM     20  N   UNL d   1       9.449   2.466 -16.400  0.00  0.00    -0.330 N 
ATOM     21  C   UNL d   1       8.324   2.328 -15.476  0.00  0.00     0.138 C 
ATOM     22  C   UNL d   1       8.648   2.998 -14.146  0.00  0.00     0.274 C 
BRANCH  20  23
ATOM     23  C   UNL d   1       9.986   1.381 -17.084  0.00  0.00     0.138 A 
ATOM     24  C   UNL d   1       9.198   0.283 -17.512  0.00  0.00     0.036 A 
ATOM     25  C   UNL d   1       9.776  -0.782 -18.190  0.00  0.00     0.095 A 
ATOM     26  C   UNL d   1       7.727   0.043 -17.414  0.00  0.00     0.064 C 
ATOM     27  C   UNL d   1      11.152  -0.782 -18.436  0.00  0.00     0.045 A 
ATOM     28  O   UNL d   1       8.869  -1.727 -18.569  0.00  0.00    -0.331 OA
ATOM     29  C   UNL d   1      11.879   0.339 -17.998  0.00  0.00     0.103 A 
ATOM     30  N   UNL d   1      11.322   1.390 -17.344  0.00  0.00    -0.228 NA
ATOM     31  C   UNL d   1       7.555  -1.235 -18.259  0.00  0.00     0.154 C 
ENDBRANCH  20  23
ENDBRANCH   1  17
TORSDOF 7
