REMARK  1 active torsions:
REMARK  status: ('A' for Active; 'I' for Inactive)
REMARK    1  A    between atoms: C_3  and  C_4 
ROOT
ATOM      1  O   UNL d   1       9.151   8.794  -6.512  0.00  0.00    -0.289 OA
ATOM      2  C   UNL d   1       9.966   7.928  -6.809  0.00  0.00     0.200 A 
ATOM      3  C   UNL d   1      11.066   7.456  -6.014  0.00  0.00     0.061 A 
ATOM      4  C   UNL d   1      11.612   6.502  -6.772  0.00  0.00     0.119 A 
ATOM      5  O   UNL d   1      11.048   6.255  -7.989  0.00  0.00    -0.326 OA
ATOM      6  C   UNL d   1       9.956   7.139  -8.120  0.00  0.00     0.157 A 
ATOM      7  C   UNL d   1      10.113   7.999  -9.393  0.00  0.00     0.073 C 
ATOM      8  C   UNL d   1      10.001   7.120 -10.657  0.00  0.00     0.293 C 
ATOM      9  N   UNL d   1       8.745   6.383 -10.673  0.00  0.00     0.339 N 
ATOM     10  C   UNL d   1       8.718   5.450  -9.547  0.00  0.00     0.293 C 
ATOM     11  C   UNL d   1       8.737   6.231  -8.221  0.00  0.00     0.073 C 
ENDROOT
BRANCH   3  12
ATOM     12  C   UNL d   1      11.467   7.829  -4.641  0.00  0.00     0.005 A 
ATOM     13  C   UNL d   1      11.872   6.857  -3.694  0.00  0.00     0.000 A 
ATOM     14  C   UNL d   1      12.283   7.262  -2.412  0.00  0.00     0.000 A 
ATOM     15  C   UNL d   1      12.279   8.624  -2.071  0.00  0.00     0.000 A 
ATOM     16  C   UNL d   1      11.861   9.586  -3.005  0.00  0.00     0.000 A 
ATOM     17  C   UNL d   1      11.450   9.190  -4.289  0.00  0.00     0.000 A 
ENDBRANCH   3  12
TORSDOF 1
