REMARK  7 active torsions:
REMARK  status: ('A' for Active; 'I' for Inactive)
REMARK    1  A    between atoms: C_6  and  C_7 
REMARK    2  A    between atoms: C_10  and  S_11 
REMARK    3  A    between atoms: S_11  and  C_12 
REMARK    4  A    between atoms: C_12  and  C_13 
REMARK    5  A    between atoms: C_13  and  C_14 
REMARK    6  A    between atoms: C_14  and  C_15 
REMARK    7  A    between atoms: C_15  and  N_16 
ROOT
ATOM      1  C   UNL d   1       8.012   2.514 -14.327  0.00  0.00     0.065 C 
ENDROOT
BRANCH   1   2
ATOM      2  S   UNL d   1       8.642   0.871 -14.783  0.00  0.00    -0.076 SA
BRANCH   2   3
ATOM      3  C   UNL d   1       7.358   0.420 -15.896  0.00  0.00     0.193 A 
ATOM      4  N   UNL d   1       6.062   0.415 -15.597  0.00  0.00    -0.122 NA
ATOM      5  N   UNL d   1       5.431   0.078 -16.775  0.00  0.00    -0.128 NA
ATOM      6  C   UNL d   1       6.393  -0.133 -17.682  0.00  0.00     0.167 A 
ATOM      7  N   UNL d   1       7.627   0.087 -17.170  0.00  0.00    -0.289 N 
ATOM      8  C   UNL d   1       8.939   0.007 -17.789  0.00  0.00     0.134 C 
BRANCH   6   9
ATOM      9  C   UNL d   1       6.122  -0.534 -19.074  0.00  0.00     0.037 A 
ATOM     10  C   UNL d   1       5.361  -1.692 -19.408  0.00  0.00     0.021 A 
ATOM     11  C   UNL d   1       4.796  -2.542 -18.427  0.00  0.00     0.003 A 
ATOM     12  C   UNL d   1       5.150  -2.048 -20.777  0.00  0.00     0.081 A 
ATOM     13  C   UNL d   1       4.033  -3.647 -18.825  0.00  0.00     0.015 A 
ATOM     14  C   UNL d   1       3.872  -3.903 -20.191  0.00  0.00     0.059 A 
ATOM     15  C   UNL d   1       3.052  -5.082 -20.653  0.00  0.00     0.052 C 
ATOM     16  N   UNL d   1       4.433  -3.135 -21.146  0.00  0.00    -0.250 NA
ATOM     17  C   UNL d   1       5.726  -1.246 -21.780  0.00  0.00     0.019 A 
ATOM     18  C   UNL d   1       6.486  -0.108 -21.462  0.00  0.00     0.002 A 
ATOM     19  C   UNL d   1       6.674   0.246 -20.115  0.00  0.00     0.003 A 
ENDBRANCH   6   9
ENDBRANCH   2   3
ENDBRANCH   1   2
BRANCH   1  20
ATOM     20  C   UNL d   1       9.120   3.385 -13.707  0.00  0.00     0.014 C 
BRANCH  20  21
ATOM     21  C   UNL d   1       8.584   4.473 -12.773  0.00  0.00     0.036 C 
BRANCH  21  22
ATOM     22  C   UNL d   1       9.694   5.404 -12.291  0.00  0.00     0.250 C 
BRANCH  22  23
ATOM     23  N   UNL d   1       9.352   6.193 -11.108  0.00  0.00     0.138 N 
ATOM     24  C   UNL d   1       9.455   5.375  -9.893  0.00  0.00     0.255 C 
ATOM     25  C   UNL d   1       8.830   6.009  -8.652  0.00  0.00     0.061 C 
ATOM     26  C   UNL d   1       9.694   7.047  -7.955  0.00  0.00    -0.024 A 
ATOM     27  C   UNL d   1      10.176   8.210  -8.624  0.00  0.00    -0.024 A 
ATOM     28  C   UNL d   1      10.023   6.820  -6.593  0.00  0.00    -0.000 A 
ATOM     29  C   UNL d   1       9.838   8.512 -10.081  0.00  0.00     0.061 C 
ATOM     30  C   UNL d   1      11.006   9.133  -7.945  0.00  0.00    -0.007 A 
ATOM     31  C   UNL d   1      10.219   7.379 -11.030  0.00  0.00     0.255 C 
ATOM     32  C   UNL d   1      11.345   8.851  -6.610  0.00  0.00     0.004 A 
ATOM     33  C   UNL d   1      12.191   9.629  -5.647  0.00  0.00     0.131 A 
ATOM     34  C   UNL d   1      10.900   7.717  -5.974  0.00  0.00     0.053 A 
ATOM     35  N   UNL d   1      12.136   8.789  -4.436  0.00  0.00    -0.311 N 
ATOM     36  C   UNL d   1      11.481   7.640  -4.620  0.00  0.00     0.257 A 
ATOM     37  C   UNL d   1      12.803   9.157  -3.213  0.00  0.00     0.129 C 
ATOM     38  O   UNL d   1      11.434   6.685  -3.846  0.00  0.00    -0.267 OA
ENDBRANCH  22  23
ENDBRANCH  21  22
ENDBRANCH  20  21
ENDBRANCH   1  20
TORSDOF 7
