REMARK  11 active torsions:
REMARK  status: ('A' for Active; 'I' for Inactive)
REMARK    1  A    between atoms: C_2  and  C_3 
REMARK       I    between atoms: C_2  and  N_26 
REMARK    2  A    between atoms: C_3  and  C_4 
REMARK    3  A    between atoms: C_4  and  O_5 
REMARK    4  A    between atoms: O_5  and  C_6 
REMARK    5  A    between atoms: C_6  and  C_7 
REMARK    6  A    between atoms: C_7  and  N_8 
REMARK    7  A    between atoms: N_11  and  C_12 
REMARK    8  A    between atoms: C_17  and  C_18 
REMARK    9  A    between atoms: N_26  and  C_27 
REMARK   10  A    between atoms: C_27  and  C_28 
REMARK   11  A    between atoms: C_31  and  C_32 
ROOT
ATOM      1  C   UNL d   1       9.942   3.801 -13.633  0.00  0.00     0.282 C 
ENDROOT
BRANCH   1   2
ATOM      2  C   UNL d   1       9.162   4.399 -12.454  0.00  0.00     0.178 C 
BRANCH   2   3
ATOM      3  O   UNL d   1       9.825   5.583 -12.084  0.00  0.00    -0.352 OA
BRANCH   3   4
ATOM      4  C   UNL d   1       9.542   6.011 -10.767  0.00  0.00     0.152 C 
BRANCH   4   5
ATOM      5  C   UNL d   1      10.505   7.161 -10.405  0.00  0.00     0.122 C 
BRANCH   5   6
ATOM      6  C   UNL d   1      10.223   7.754  -9.031  0.00  0.00     0.254 C 
ATOM      7  O   UNL d   1       9.321   7.313  -8.317  0.00  0.00    -0.270 OA
ATOM      8  N   UNL d   1      11.026   8.747  -8.640  0.00  0.00    -0.233 NA
BRANCH   8   9
ATOM      9  C   UNL d   1      10.857   9.512  -7.419  0.00  0.00     0.155 C 
BRANCH   9  10
ATOM     10  C   UNL d   1      11.194   8.860  -6.097  0.00  0.00     0.002 A 
ATOM     11  C   UNL d   1      11.181   7.458  -5.938  0.00  0.00    -0.002 A 
ATOM     12  C   UNL d   1      11.500   6.901  -4.697  0.00  0.00     0.004 A 
ATOM     13  C   UNL d   1      11.863   7.724  -3.617  0.00  0.00     0.071 A 
ATOM     14  C   UNL d   1      11.876   9.130  -3.765  0.00  0.00     0.004 A 
ATOM     15  C   UNL d   1      11.515   9.690  -5.005  0.00  0.00    -0.002 A 
BRANCH  13  16
ATOM     16  C   UNL d   1      12.181   7.078  -2.292  0.00  0.00     0.419 C 
ATOM     17  F   UNL d   1      11.032   6.585  -1.847  0.00  0.00    -0.166 F 
ATOM     18  F   UNL d   1      13.058   6.080  -2.434  0.00  0.00    -0.166 F 
ATOM     19  F   UNL d   1      12.661   7.972  -1.420  0.00  0.00    -0.166 F 
ENDBRANCH  13  16
ENDBRANCH   9  10
ENDBRANCH   8   9
ENDBRANCH   5   6
ENDBRANCH   4   5
ENDBRANCH   3   4
ENDBRANCH   2   3
ENDBRANCH   1   2
BRANCH   1  20
ATOM     20  N   UNL d   1       9.371   2.567 -14.140  0.00  0.00     0.144 N 
ATOM     21  C   UNL d   1       8.167   2.849 -14.916  0.00  0.00     0.274 C 
ATOM     22  C   UNL d   1       7.521   1.581 -15.431  0.00  0.00     0.137 C 
ATOM     23  N   UNL d   1       8.489   0.783 -16.176  0.00  0.00    -0.344 N 
ATOM     24  C   UNL d   1       9.737   0.513 -15.503  0.00  0.00     0.137 C 
ATOM     25  C   UNL d   1      10.327   1.836 -14.975  0.00  0.00     0.274 C 
BRANCH  23  26
ATOM     26  C   UNL d   1       8.184   0.223 -17.458  0.00  0.00     0.056 A 
ATOM     27  C   UNL d   1       6.968  -0.437 -17.750  0.00  0.00     0.015 A 
ATOM     28  C   UNL d   1       6.779  -0.882 -19.092  0.00  0.00     0.001 A 
ATOM     29  C   UNL d   1       7.746  -0.686 -20.088  0.00  0.00     0.000 A 
ATOM     30  C   UNL d   1       8.959  -0.067 -19.769  0.00  0.00     0.002 A 
ATOM     31  C   UNL d   1       9.178   0.390 -18.448  0.00  0.00     0.017 A 
BRANCH  27  32
ATOM     32  C   UNL d   1       5.892  -0.744 -16.757  0.00  0.00     0.001 C 
ATOM     33  C   UNL d   1       4.529  -0.904 -17.131  0.00  0.00     0.000 C 
ATOM     34  C   UNL d   1       3.543  -1.204 -16.172  0.00  0.00     0.000 C 
ATOM     35  C   UNL d   1       3.841  -1.217 -14.806  0.00  0.00     0.000 C 
ATOM     36  C   UNL d   1       5.205  -1.102 -14.423  0.00  0.00     0.000 C 
ATOM     37  C   UNL d   1       6.169  -0.903 -15.380  0.00  0.00     0.000 C 
ENDBRANCH  27  32
ENDBRANCH  23  26
ENDBRANCH   1  20
TORSDOF 11
