REMARK  3 active torsions:
REMARK  status: ('A' for Active; 'I' for Inactive)
REMARK    1  A    between atoms: C_2  and  C_4 
REMARK    2  A    between atoms: C_4  and  C_5 
REMARK    3  A    between atoms: C_5  and  N_6 
ROOT
ATOM      1  N   UNL d   1       8.026   6.281 -11.786  0.00  0.00     0.141 N 
ATOM      2  C   UNL d   1       9.057   6.452 -12.797  0.00  0.00     0.274 C 
ATOM      3  C   UNL d   1       9.637   5.116 -13.272  0.00  0.00     0.137 C 
ATOM      4  N   UNL d   1       8.569   4.245 -13.754  0.00  0.00    -0.346 N 
ATOM      5  C   UNL d   1       8.957   3.045 -14.390  0.00  0.00     0.057 A 
ATOM      6  C   UNL d   1      10.235   2.772 -14.932  0.00  0.00     0.017 A 
ATOM      7  C   UNL d   1      10.519   1.529 -15.529  0.00  0.00     0.003 A 
ATOM      8  C   UNL d   1       9.515   0.542 -15.588  0.00  0.00     0.019 A 
ATOM      9  C   UNL d   1       8.266   0.789 -15.060  0.00  0.00     0.083 A 
ATOM     10  N   UNL d   1       7.134   0.018 -14.977  0.00  0.00    -0.244 NA
ATOM     11  C   UNL d   1       6.115   0.730 -14.351  0.00  0.00     0.095 A 
ATOM     12  C   UNL d   1       6.658   1.961 -14.063  0.00  0.00     0.002 A 
ATOM     13  C   UNL d   1       8.001   2.019 -14.488  0.00  0.00     0.031 A 
ATOM     14  C   UNL d   1       6.247   3.259 -13.411  0.00  0.00     0.052 C 
ATOM     15  C   UNL d   1       7.421   4.108 -12.834  0.00  0.00     0.119 C 
ATOM     16  C   UNL d   1       6.932   5.492 -12.357  0.00  0.00     0.273 C 
ENDROOT
BRANCH   1  17
ATOM     17  C   UNL d   1       8.479   5.787 -10.487  0.00  0.00     0.250 C 
BRANCH  17  18
ATOM     18  C   UNL d   1       9.473   6.746  -9.799  0.00  0.00     0.035 C 
BRANCH  18  19
ATOM     19  C   UNL d   1       9.867   6.322  -8.372  0.00  0.00     0.002 C 
ATOM     20  C   UNL d   1       8.674   6.340  -7.404  0.00  0.00     0.000 C 
ATOM     21  C   UNL d   1      10.985   7.229  -7.836  0.00  0.00     0.000 C 
ENDBRANCH  18  19
ENDBRANCH  17  18
ENDBRANCH   1  17
TORSDOF 3
