REMARK  5 active torsions:
REMARK  status: ('A' for Active; 'I' for Inactive)
REMARK    1  A    between atoms: O_2  and  C_3 
REMARK    2  A    between atoms: C_8  and  N_9 
REMARK    3  A    between atoms: N_12  and  C_13 
REMARK    4  A    between atoms: C_13  and  C_14 
REMARK    5  A    between atoms: C_21  and  N_22 
ROOT
ATOM      1  C   UNL d   1      12.216   1.757 -18.244  0.00  0.00     0.112 A 
ATOM      2  C   UNL d   1      12.195   3.136 -18.228  0.00  0.00     0.098 A 
ATOM      3  N   UNL d   1      13.062   3.531 -19.228  0.00  0.00    -0.287 N 
ATOM      4  C   UNL d   1      13.442   4.773 -19.639  0.00  0.00     0.077 A 
ATOM      5  C   UNL d   1      14.355   4.904 -20.661  0.00  0.00    -0.003 A 
ATOM      6  C   UNL d   1      14.729   6.293 -21.149  0.00  0.00     0.033 C 
ATOM      7  C   UNL d   1      14.924   3.754 -21.270  0.00  0.00     0.017 A 
ATOM      8  C   UNL d   1      14.558   2.477 -20.873  0.00  0.00     0.091 A 
ATOM      9  C   UNL d   1      13.579   2.339 -19.834  0.00  0.00     0.163 A 
ATOM     10  N   UNL d   1      13.026   1.285 -19.242  0.00  0.00    -0.228 NA
ENDROOT
BRANCH   1  11
ATOM     11  C   UNL d   1      11.529   0.792 -17.340  0.00  0.00     0.297 C 
BRANCH  11  12
ATOM     12  N   UNL d   1      10.262   1.161 -16.734  0.00  0.00     0.147 N 
ATOM     13  C   UNL d   1       9.215   1.130 -17.762  0.00  0.00     0.275 C 
ATOM     14  C   UNL d   1       7.870   1.573 -17.154  0.00  0.00     0.137 C 
ATOM     15  N   UNL d   1       7.564   0.768 -15.982  0.00  0.00    -0.343 N 
ATOM     16  C   UNL d   1       8.621   0.676 -14.985  0.00  0.00     0.137 C 
ATOM     17  C   UNL d   1       9.932   0.226 -15.658  0.00  0.00     0.275 C 
BRANCH  15  18
ATOM     18  C   UNL d   1       6.336   0.120 -15.808  0.00  0.00     0.079 A 
ATOM     19  C   UNL d   1       5.587   0.314 -14.621  0.00  0.00     0.110 A 
ATOM     20  C   UNL d   1       4.346  -0.361 -14.473  0.00  0.00     0.026 A 
ATOM     21  C   UNL d   1       3.871  -1.211 -15.485  0.00  0.00     0.002 A 
ATOM     22  C   UNL d   1       4.619  -1.403 -16.653  0.00  0.00     0.002 A 
ATOM     23  C   UNL d   1       5.845  -0.732 -16.821  0.00  0.00     0.019 A 
BRANCH  19  24
ATOM     24  O   UNL d   1       6.100   1.181 -13.677  0.00  0.00    -0.327 OA
ATOM     25  C   UNL d   1       5.311   1.495 -12.543  0.00  0.00     0.181 C 
ENDBRANCH  19  24
ENDBRANCH  15  18
ENDBRANCH  11  12
ENDBRANCH   1  11
BRANCH   8  26
ATOM     26  N   UNL d   1      15.165   1.347 -21.481  0.00  0.00    -0.341 N 
ATOM     27  C   UNL d   1      14.504   0.044 -21.415  0.00  0.00     0.134 C 
ATOM     28  C   UNL d   1      14.952  -0.730 -20.154  0.00  0.00     0.167 C 
ATOM     29  O   UNL d   1      16.375  -0.812 -20.179  0.00  0.00    -0.350 OA
ATOM     30  C   UNL d   1      16.991   0.461 -20.104  0.00  0.00     0.167 C 
ATOM     31  C   UNL d   1      16.616   1.239 -21.377  0.00  0.00     0.134 C 
ENDBRANCH   8  26
TORSDOF 5
