REMARK  6 active torsions:
REMARK  status: ('A' for Active; 'I' for Inactive)
REMARK       I    between atoms: C_2  and  N_3 
REMARK    1  A    between atoms: C_2  and  C_26 
REMARK    2  A    between atoms: N_3  and  C_4 
REMARK    3  A    between atoms: C_7  and  C_8 
REMARK    4  A    between atoms: C_8  and  C_9 
REMARK    5  A    between atoms: C_9  and  N_10 
REMARK    6  A    between atoms: N_13  and  C_14 
ROOT
ATOM      1  C   UNL d   1       9.608   5.319  -8.949  0.00  0.00     0.035 C 
ENDROOT
BRANCH   1   2
ATOM      2  C   UNL d   1       9.662   6.844  -8.793  0.00  0.00     0.002 C 
ATOM      3  C   UNL d   1       8.925   7.289  -7.512  0.00  0.00     0.002 C 
ATOM      4  C   UNL d   1       9.025   8.810  -7.327  0.00  0.00     0.024 C 
ATOM      5  C   UNL d   1      10.485   9.306  -7.288  0.00  0.00     0.107 C 
ATOM      6  C   UNL d   1      11.215   8.872  -8.569  0.00  0.00     0.024 C 
ATOM      7  C   UNL d   1      11.116   7.347  -8.768  0.00  0.00     0.002 C 
BRANCH   5   8
ATOM      8  N   UNL d   1      11.177   8.758  -6.146  0.00  0.00    -0.236 NA
ATOM      9  C   UNL d   1      11.328   9.389  -4.978  0.00  0.00     0.281 C 
ATOM     10  O   UNL d   1      10.986  10.553  -4.789  0.00  0.00    -0.265 OA
BRANCH   9  11
ATOM     11  C   UNL d   1      11.859   8.580  -3.885  0.00  0.00     0.087 A 
ATOM     12  S   UNL d   1      11.857   6.841  -4.082  0.00  0.00    -0.082 SA
ATOM     13  C   UNL d   1      12.489   6.630  -2.479  0.00  0.00     0.036 A 
ATOM     14  C   UNL d   1      12.655   7.835  -1.844  0.00  0.00     0.008 A 
ATOM     15  C   UNL d   1      12.262   8.948  -2.628  0.00  0.00     0.012 A 
ENDBRANCH   9  11
ENDBRANCH   5   8
ENDBRANCH   1   2
BRANCH   1  16
ATOM     16  C   UNL d   1       8.294   4.873  -9.644  0.00  0.00     0.250 C 
BRANCH  16  17
ATOM     17  N   UNL d   1       8.263   4.965 -11.110  0.00  0.00     0.141 N 
ATOM     18  C   UNL d   1       9.405   4.259 -11.700  0.00  0.00     0.274 C 
ATOM     19  C   UNL d   1       9.500   4.399 -13.203  0.00  0.00     0.137 C 
ATOM     20  N   UNL d   1       8.272   3.955 -13.819  0.00  0.00    -0.344 N 
ATOM     21  C   UNL d   1       7.063   4.519 -13.220  0.00  0.00     0.137 C 
ATOM     22  C   UNL d   1       7.038   4.394 -11.675  0.00  0.00     0.274 C 
BRANCH  20  23
ATOM     23  C   UNL d   1       8.299   2.974 -14.821  0.00  0.00     0.068 A 
ATOM     24  C   UNL d   1       9.204   3.048 -15.929  0.00  0.00     0.084 A 
ATOM     25  C   UNL d   1       9.140   2.071 -16.930  0.00  0.00     0.070 A 
ATOM     26 CL   UNL d   1      10.293   4.384 -16.179  0.00  0.00    -0.080 Cl
ATOM     27  C   UNL d   1       8.194   1.037 -16.861  0.00  0.00     0.012 A 
ATOM     28 CL   UNL d   1      10.191   2.163 -18.296  0.00  0.00    -0.081 Cl
ATOM     29  C   UNL d   1       7.305   0.957 -15.775  0.00  0.00     0.002 A 
ATOM     30  C   UNL d   1       7.362   1.915 -14.757  0.00  0.00     0.018 A 
ENDBRANCH  20  23
ENDBRANCH  16  17
ENDBRANCH   1  16
TORSDOF 6
