REMARK  3 active torsions:
REMARK  status: ('A' for Active; 'I' for Inactive)
REMARK    1  A    between atoms: O_2  and  C_3 
REMARK    2  A    between atoms: C_8  and  O_9 
REMARK    3  A    between atoms: C_18  and  O_19 
ROOT
ATOM      1  C   UNL d   1       8.252   5.509 -11.833  0.00  0.00     0.116 A 
ATOM      2  C   UNL d   1       7.845   5.205 -10.545  0.00  0.00     0.022 A 
ATOM      3  C   UNL d   1       8.573   5.603  -9.397  0.00  0.00    -0.020 A 
ATOM      4  C   UNL d   1       9.745   6.330  -9.530  0.00  0.00     0.007 A 
ATOM      5  C   UNL d   1      10.209   6.583 -10.800  0.00  0.00     0.024 A 
ATOM      6  C   UNL d   1       9.473   6.146 -11.947  0.00  0.00     0.116 A 
ATOM      7  C   UNL d   1      10.467   6.798  -8.296  0.00  0.00     0.246 C 
ATOM      8  C   UNL d   1      10.314   8.298  -8.078  0.00  0.00     0.064 C 
ATOM      9  C   UNL d   1      10.821   8.714  -6.715  0.00  0.00    -0.020 C 
ATOM     10  C   UNL d   1      11.036  10.056  -6.458  0.00  0.00    -0.002 C 
ATOM     11  C   UNL d   1      11.289  10.487  -5.176  0.00  0.00     0.029 C 
ATOM     12  C   UNL d   1      11.537   9.595  -4.119  0.00  0.00     0.153 C 
ATOM     13  O   UNL d   1      11.830  10.087  -2.874  0.00  0.00    -0.188 OA
ATOM     14  C   UNL d   1      11.462   8.217  -4.378  0.00  0.00     0.117 C 
ATOM     15  C   UNL d   1      11.046   7.802  -5.672  0.00  0.00     0.031 C 
ATOM     16  C   UNL d   1      10.894   6.358  -5.933  0.00  0.00     0.279 C 
ATOM     17  N   UNL d   1      10.089   6.063  -7.106  0.00  0.00     0.144 N 
ATOM     18  C   UNL d   1       8.665   6.144  -6.882  0.00  0.00     0.256 C 
ATOM     19  C   UNL d   1       8.105   5.273  -8.011  0.00  0.00     0.061 C 
ENDROOT
BRANCH   1  20
ATOM     20  O   UNL d   1       7.543   5.279 -13.007  0.00  0.00    -0.326 OA
ATOM     21  C   UNL d   1       6.252   4.734 -12.931  0.00  0.00     0.181 C 
ENDBRANCH   1  20
BRANCH   6  22
ATOM     22  O   UNL d   1       9.856   6.420 -13.199  0.00  0.00    -0.326 OA
ATOM     23  C   UNL d   1      10.303   5.301 -13.985  0.00  0.00     0.181 C 
ENDBRANCH   6  22
BRANCH  14  24
ATOM     24  O   UNL d   1      11.667   7.297  -3.376  0.00  0.00    -0.326 OA
ATOM     25  C   UNL d   1      12.958   7.339  -2.796  0.00  0.00     0.181 C 
ENDBRANCH  14  24
TORSDOF 3
