REMARK  2 active torsions:
REMARK  status: ('A' for Active; 'I' for Inactive)
REMARK    1  A    between atoms: C_2  and  O_3 
REMARK    2  A    between atoms: O_3  and  C_4 
REMARK       I    between atoms: C_4  and  N_6 
ROOT
ATOM      1  C   UNL d   1       9.282   5.998 -10.150  0.00  0.00     0.375 C 
ATOM      2  O   UNL d   1       9.858   6.284 -11.198  0.00  0.00    -0.237 OA
ATOM      3  N   UNL d   1       9.534   6.520  -8.863  0.00  0.00    -0.229 N 
ATOM      4  C   UNL d   1       8.843   6.109  -7.726  0.00  0.00     0.106 A 
ATOM      5  C   UNL d   1       9.307   6.790  -6.688  0.00  0.00     0.097 A 
ATOM      6  N   UNL d   1      10.270   7.642  -7.159  0.00  0.00    -0.301 N 
ATOM      7  C   UNL d   1      10.984   8.555  -6.266  0.00  0.00     0.133 C 
ATOM      8  C   UNL d   1      10.419   7.513  -8.511  0.00  0.00     0.191 A 
ATOM      9  S   UNL d   1      11.473   8.404  -9.456  0.00  0.00    -0.040 SA
ENDROOT
BRANCH   1  10
ATOM     10  O   UNL d   1       8.265   5.111 -10.123  0.00  0.00    -0.284 OA
BRANCH  10  11
ATOM     11  C   UNL d   1       7.687   4.633 -11.326  0.00  0.00     0.154 C 
ATOM     12  C   UNL d   1       6.771   5.702 -11.947  0.00  0.00     0.035 C 
ENDBRANCH  10  11
ENDBRANCH   1  10
TORSDOF 2
