REMARK  10 active torsions:
REMARK  status: ('A' for Active; 'I' for Inactive)
REMARK    1  A    between atoms: C_9  and  C_10 
REMARK    2  A    between atoms: C_11  and  C_12 
REMARK       I    between atoms: C_12  and  N_14 
REMARK    3  A    between atoms: N_14  and  C_15 
REMARK    4  A    between atoms: C_15  and  C_16 
REMARK    5  A    between atoms: C_16  and  C_17 
REMARK    6  A    between atoms: C_17  and  C_18 
REMARK    7  A    between atoms: C_18  and  N_19 
REMARK    8  A    between atoms: C_25  and  O_26 
REMARK    9  A    between atoms: O_26  and  S_27 
REMARK   10  A    between atoms: S_27  and  C_30 
ROOT
ATOM      1  C   UNL d   1       7.723   0.369 -17.930  0.00  0.00     0.037 C 
ENDROOT
BRANCH   1   2
ATOM      2  C   UNL d   1       8.428  -0.535 -18.947  0.00  0.00     0.029 C 
BRANCH   2   3
ATOM      3  C   UNL d   1       8.949   0.233 -20.183  0.00  0.00     0.129 C 
BRANCH   3   4
ATOM      4  N   UNL d   1      10.037   1.160 -19.866  0.00  0.00    -0.234 NA
ATOM      5  C   UNL d   1       9.898   2.452 -19.526  0.00  0.00     0.275 C 
ATOM      6  O   UNL d   1       8.803   3.009 -19.426  0.00  0.00    -0.266 OA
BRANCH   5   7
ATOM      7  C   UNL d   1      11.187   3.078 -19.294  0.00  0.00     0.062 C 
ATOM      8  C   UNL d   1      11.290   4.421 -19.262  0.00  0.00     0.005 C 
BRANCH   8   9
ATOM      9  C   UNL d   1      12.522   5.191 -19.030  0.00  0.00     0.000 A 
ATOM     10  C   UNL d   1      12.537   6.558 -19.373  0.00  0.00     0.001 A 
ATOM     11  C   UNL d   1      13.702   7.328 -19.199  0.00  0.00     0.016 A 
ATOM     12  C   UNL d   1      13.737   8.741 -19.553  0.00  0.00     0.006 A 
ATOM     13  C   UNL d   1      14.881   6.754 -18.673  0.00  0.00     0.063 A 
ATOM     14  C   UNL d   1      14.850   9.473 -19.384  0.00  0.00     0.061 A 
ATOM     15  C   UNL d   1      16.083   8.906 -18.837  0.00  0.00     0.261 A 
ATOM     16  N   UNL d   1      16.050   7.578 -18.500  0.00  0.00    -0.294 N 
ATOM     17  O   UNL d   1      17.090   9.598 -18.694  0.00  0.00    -0.267 OA
ATOM     18  C   UNL d   1      17.256   6.957 -17.929  0.00  0.00     0.134 C 
ATOM     19  C   UNL d   1      14.866   5.378 -18.336  0.00  0.00     0.017 A 
ATOM     20  C   UNL d   1      13.702   4.605 -18.519  0.00  0.00     0.002 A 
ENDBRANCH   8   9
ENDBRANCH   5   7
ENDBRANCH   3   4
ENDBRANCH   2   3
ENDBRANCH   1   2
BRANCH   1  21
ATOM     21  C   UNL d   1       7.299  -0.351 -16.644  0.00  0.00     0.251 C 
BRANCH  21  22
ATOM     22  N   UNL d   1       6.630   0.538 -15.689  0.00  0.00     0.142 N 
ATOM     23  C   UNL d   1       7.508   1.642 -15.285  0.00  0.00     0.277 C 
ATOM     24  C   UNL d   1       6.928   2.529 -14.207  0.00  0.00     0.009 A 
ATOM     25  C   UNL d   1       5.896   2.042 -13.371  0.00  0.00    -0.022 A 
ATOM     26  C   UNL d   1       7.452   3.820 -14.014  0.00  0.00     0.023 A 
ATOM     27  C   UNL d   1       5.367   0.635 -13.583  0.00  0.00     0.061 C 
ATOM     28  C   UNL d   1       5.413   2.849 -12.332  0.00  0.00    -0.002 A 
ATOM     29  C   UNL d   1       6.278  -0.223 -14.488  0.00  0.00     0.255 C 
ATOM     30  C   UNL d   1       5.925   4.150 -12.149  0.00  0.00     0.025 A 
ATOM     31  C   UNL d   1       6.941   4.640 -12.988  0.00  0.00     0.113 A 
BRANCH  31  32
ATOM     32  O   UNL d   1       7.411   5.910 -12.803  0.00  0.00    -0.224 OA
BRANCH  32  33
ATOM     33  S   UNL d   1       8.878   6.045 -11.992  0.00  0.00     0.374 S 
ATOM     34  O   UNL d   1       8.715   5.460 -10.654  0.00  0.00    -0.189 OA
ATOM     35  O   UNL d   1       9.913   5.532 -12.910  0.00  0.00    -0.189 OA
BRANCH  33  36
ATOM     36  C   UNL d   1       9.017   7.883 -11.896  0.00  0.00     0.524 C 
ATOM     37  F   UNL d   1       9.473   8.229 -10.695  0.00  0.00    -0.155 F 
ATOM     38  F   UNL d   1       9.851   8.289 -12.837  0.00  0.00    -0.155 F 
ATOM     39  F   UNL d   1       7.832   8.443 -12.114  0.00  0.00    -0.155 F 
ENDBRANCH  33  36
ENDBRANCH  32  33
ENDBRANCH  31  32
ENDBRANCH  21  22
ENDBRANCH   1  21
TORSDOF 10
