REMARK  6 active torsions:
REMARK  status: ('A' for Active; 'I' for Inactive)
REMARK    1  A    between atoms: C_6  and  C_7 
REMARK    2  A    between atoms: C_10  and  S_11 
REMARK    3  A    between atoms: S_11  and  C_12 
REMARK    4  A    between atoms: C_12  and  C_13 
REMARK    5  A    between atoms: C_13  and  C_14 
REMARK    6  A    between atoms: C_14  and  N_15 
ROOT
ATOM      1  C   UNL d   1       6.847  -0.059 -16.478  0.00  0.00     0.251 C 
ENDROOT
BRANCH   1   2
ATOM      2  C   UNL d   1       7.383   1.319 -16.854  0.00  0.00     0.047 C 
BRANCH   2   3
ATOM      3  C   UNL d   1       8.165   1.976 -15.722  0.00  0.00     0.067 C 
BRANCH   3   4
ATOM      4  S   UNL d   1       7.083   2.663 -14.438  0.00  0.00    -0.075 SA
BRANCH   4   5
ATOM      5  C   UNL d   1       8.217   3.772 -13.662  0.00  0.00     0.193 A 
ATOM      6  N   UNL d   1       9.409   4.099 -14.168  0.00  0.00    -0.122 NA
ATOM      7  N   UNL d   1       9.954   5.000 -13.286  0.00  0.00    -0.126 NA
ATOM      8  C   UNL d   1       9.055   5.135 -12.306  0.00  0.00     0.191 A 
ATOM      9  N   UNL d   1       7.942   4.396 -12.500  0.00  0.00    -0.287 N 
ATOM     10  C   UNL d   1       6.759   4.304 -11.663  0.00  0.00     0.134 C 
BRANCH   8  11
ATOM     11  C   UNL d   1       9.309   6.024 -11.187  0.00  0.00     0.151 A 
ATOM     12  C   UNL d   1       9.453   5.829  -9.838  0.00  0.00     0.087 A 
ATOM     13  C   UNL d   1       9.311   4.586  -9.014  0.00  0.00     0.054 C 
ATOM     14  N   UNL d   1       9.857   7.027  -9.263  0.00  0.00    -0.221 NA
ATOM     15  C   UNL d   1       9.862   7.895 -10.274  0.00  0.00     0.225 A 
ATOM     16  O   UNL d   1       9.544   7.340 -11.475  0.00  0.00    -0.282 OA
ENDBRANCH   8  11
ENDBRANCH   4   5
ENDBRANCH   3   4
ENDBRANCH   2   3
ENDBRANCH   1   2
BRANCH   1  17
ATOM     17  N   UNL d   1       6.357  -0.737 -17.671  0.00  0.00     0.137 N 
ATOM     18  C   UNL d   1       5.443  -1.803 -17.310  0.00  0.00     0.254 C 
ATOM     19  C   UNL d   1       5.363  -2.657 -18.597  0.00  0.00     0.052 C 
ATOM     20  C   UNL d   1       6.712  -2.403 -19.294  0.00  0.00     0.041 C 
ATOM     21  C   UNL d   1       5.145  -4.153 -18.307  0.00  0.00    -0.024 A 
ATOM     22  C   UNL d   1       4.214  -2.084 -19.468  0.00  0.00     0.006 C 
ATOM     23  C   UNL d   1       7.436  -1.425 -18.378  0.00  0.00     0.251 C 
ATOM     24  C   UNL d   1       4.226  -4.945 -19.067  0.00  0.00    -0.026 A 
ATOM     25  C   UNL d   1       5.874  -4.790 -17.279  0.00  0.00     0.002 A 
ATOM     26  C   UNL d   1       3.404  -4.343 -20.188  0.00  0.00     0.026 C 
ATOM     27  C   UNL d   1       4.040  -6.303 -18.748  0.00  0.00    -0.004 A 
ATOM     28  C   UNL d   1       3.895  -2.975 -20.659  0.00  0.00     0.005 C 
ATOM     29  C   UNL d   1       4.748  -6.907 -17.693  0.00  0.00     0.006 A 
ATOM     30  C   UNL d   1       5.669  -6.140 -16.964  0.00  0.00     0.034 A 
ATOM     31 BR   UNL d   1       6.655  -6.940 -15.538  0.00  0.00    -0.049 Br
ENDBRANCH   1  17
TORSDOF 6
