REMARK  3 active torsions:
REMARK  status: ('A' for Active; 'I' for Inactive)
REMARK    1  A    between atoms: C_2  and  C_3 
REMARK    2  A    between atoms: C_3  and  N_4 
REMARK    3  A    between atoms: N_4  and  C_5 
ROOT
ATOM      1  C   UNL d   1       9.098   6.539 -10.847  0.00  0.00     0.265 C 
ATOM      2  C   UNL d   1       8.868   5.983  -9.439  0.00  0.00     0.062 C 
ATOM      3  C   UNL d   1       9.647   6.949  -8.595  0.00  0.00    -0.022 A 
ATOM      4  C   UNL d   1       9.869   6.823  -7.234  0.00  0.00     0.015 A 
ATOM      5  C   UNL d   1      10.562   7.840  -6.549  0.00  0.00     0.089 A 
ATOM      6  N   UNL d   1      10.854   7.823  -5.207  0.00  0.00    -0.219 NA
ATOM      7  C   UNL d   1      11.487   8.942  -4.873  0.00  0.00     0.215 A 
ATOM      8  N   UNL d   1      11.866   9.189  -3.569  0.00  0.00    -0.120 N 
ATOM      9  S   UNL d   1      11.816  10.080  -6.190  0.00  0.00    -0.045 SA
ATOM     10  C   UNL d   1      11.016   8.972  -7.300  0.00  0.00     0.050 A 
ATOM     11  C   UNL d   1      10.803   9.083  -8.697  0.00  0.00     0.004 A 
ATOM     12  C   UNL d   1      10.087   8.038  -9.324  0.00  0.00    -0.023 A 
ATOM     13  C   UNL d   1       9.662   7.968 -10.765  0.00  0.00     0.062 C 
ENDROOT
BRANCH   1  14
ATOM     14  N   UNL d   1       7.955   6.393 -11.729  0.00  0.00     0.338 N 
BRANCH  14  15
ATOM     15  C   UNL d   1       7.525   5.002 -11.914  0.00  0.00     0.290 C 
BRANCH  15  16
ATOM     16  C   UNL d   1       8.361   4.297 -13.014  0.00  0.00     0.038 C 
ATOM     17  C   UNL d   1       9.836   4.009 -12.666  0.00  0.00     0.002 C 
ENDBRANCH  15  16
ENDBRANCH  14  15
ENDBRANCH   1  14
TORSDOF 3
