REMARK  3 active torsions:
REMARK  status: ('A' for Active; 'I' for Inactive)
REMARK    1  A    between atoms: C_2  and  C_3 
REMARK    2  A    between atoms: C_3  and  N_4 
REMARK    3  A    between atoms: C_8  and  C_9 
ROOT
ATOM      1  C   UNL d   1       7.337   2.849 -14.040  0.00  0.00    -0.020 A 
ATOM      2  C   UNL d   1       6.793   3.885 -13.232  0.00  0.00    -0.004 A 
ATOM      3  C   UNL d   1       7.617   4.923 -12.756  0.00  0.00     0.000 A 
ATOM      4  C   UNL d   1       8.986   4.944 -13.098  0.00  0.00     0.010 A 
ATOM      5  C   UNL d   1       9.527   3.921 -13.910  0.00  0.00     0.068 A 
ATOM      6  C   UNL d   1      10.931   3.929 -14.281  0.00  0.00     0.101 C 
ATOM      7  N   UNL d   1      12.047   3.937 -14.577  0.00  0.00    -0.191 NA
ATOM      8  C   UNL d   1       8.704   2.873 -14.363  0.00  0.00     0.006 A 
ENDROOT
BRANCH   1   9
ATOM      9  C   UNL d   1       6.464   1.711 -14.539  0.00  0.00     0.056 C 
ATOM     10  C   UNL d   1       6.586   0.446 -13.681  0.00  0.00     0.008 C 
ATOM     11  C   UNL d   1       5.714  -0.667 -14.273  0.00  0.00     0.036 C 
ATOM     12  C   UNL d   1       5.983  -0.846 -15.772  0.00  0.00     0.250 C 
ATOM     13  N   UNL d   1       5.738   0.387 -16.508  0.00  0.00     0.137 N 
ATOM     14  C   UNL d   1       6.677   1.407 -16.045  0.00  0.00     0.255 C 
BRANCH  13  15
ATOM     15  C   UNL d   1       5.963   0.161 -17.929  0.00  0.00     0.250 C 
BRANCH  15  16
ATOM     16  C   UNL d   1       4.679  -0.351 -18.588  0.00  0.00     0.035 C 
ATOM     17  C   UNL d   1       4.846  -0.591 -20.086  0.00  0.00     0.002 C 
ENDBRANCH  15  16
ENDBRANCH  13  15
ENDBRANCH   1   9
TORSDOF 3
