REMARK  7 active torsions:
REMARK  status: ('A' for Active; 'I' for Inactive)
REMARK    1  A    between atoms: C_2  and  C_5 
REMARK    2  A    between atoms: C_8  and  C_9 
REMARK       I    between atoms: C_9  and  N_11 
REMARK    3  A    between atoms: N_11  and  C_12 
REMARK    4  A    between atoms: C_15  and  C_16 
REMARK    5  A    between atoms: C_16  and  C_17 
REMARK    6  A    between atoms: C_17  and  N_18 
REMARK    7  A    between atoms: C_21  and  C_22 
ROOT
ATOM      1  C   UNL d   1      10.722   1.727 -18.334  0.00  0.00     0.106 C 
ATOM      2  C   UNL d   1      11.947   2.626 -17.990  0.00  0.00     0.024 C 
ATOM      3  C   UNL d   1      11.971   2.966 -16.486  0.00  0.00     0.002 C 
ATOM      4  C   UNL d   1      10.661   3.609 -16.000  0.00  0.00     0.002 C 
ATOM      5  C   UNL d   1       9.462   2.720 -16.390  0.00  0.00     0.002 C 
ATOM      6  C   UNL d   1       9.416   2.466 -17.900  0.00  0.00     0.024 C 
ENDROOT
BRANCH   4   7
ATOM      7  C   UNL d   1      10.671   3.844 -14.480  0.00  0.00     0.035 C 
BRANCH   7   8
ATOM      8  C   UNL d   1       9.443   4.642 -13.992  0.00  0.00     0.250 C 
BRANCH   8   9
ATOM      9  N   UNL d   1       9.640   5.109 -12.624  0.00  0.00     0.137 N 
ATOM     10  C   UNL d   1       9.082   6.454 -12.505  0.00  0.00     0.251 C 
ATOM     11  C   UNL d   1       9.383   7.002 -11.117  0.00  0.00     0.040 C 
ATOM     12  C   UNL d   1       8.782   6.123 -10.001  0.00  0.00     0.028 C 
ATOM     13  C   UNL d   1       9.231   4.668 -10.216  0.00  0.00     0.040 C 
ATOM     14  C   UNL d   1       8.958   4.226 -11.674  0.00  0.00     0.251 C 
BRANCH  12  15
ATOM     15  C   UNL d   1       9.199   6.598  -8.632  0.00  0.00     0.004 A 
ATOM     16  C   UNL d   1      10.326   7.408  -8.222  0.00  0.00     0.021 A 
ATOM     17  C   UNL d   1      10.201   7.585  -6.829  0.00  0.00     0.100 A 
ATOM     18  C   UNL d   1      11.451   8.035  -8.854  0.00  0.00     0.002 A 
ATOM     19  O   UNL d   1       9.078   6.930  -6.368  0.00  0.00    -0.305 OA
ATOM     20  C   UNL d   1      11.106   8.331  -6.051  0.00  0.00     0.025 A 
ATOM     21  C   UNL d   1       8.511   6.348  -7.455  0.00  0.00     0.118 A 
ATOM     22  C   UNL d   1      12.189   8.947  -6.709  0.00  0.00     0.002 A 
ATOM     23  C   UNL d   1      12.362   8.775  -8.083  0.00  0.00     0.000 A 
ENDBRANCH  12  15
ENDBRANCH   8   9
ENDBRANCH   7   8
ENDBRANCH   4   7
BRANCH   1  24
ATOM     24  N   UNL d   1      10.746   1.366 -19.775  0.00  0.00    -0.240 NA
ATOM     25  C   UNL d   1       9.920   0.534 -20.384  0.00  0.00     0.251 C 
ATOM     26  O   UNL d   1      10.106   0.223 -21.601  0.00  0.00    -0.271 OA
BRANCH  25  27
ATOM     27  C   UNL d   1       8.705   0.018 -19.600  0.00  0.00     0.081 C 
ATOM     28  C   UNL d   1       8.695  -1.504 -19.530  0.00  0.00     0.009 C 
ATOM     29  C   UNL d   1       7.471  -1.951 -18.731  0.00  0.00     0.001 C 
ATOM     30  C   UNL d   1       6.131  -1.446 -19.337  0.00  0.00     0.000 C 
ATOM     31  C   UNL d   1       6.160   0.092 -19.504  0.00  0.00     0.001 C 
ATOM     32  C   UNL d   1       7.410   0.556 -20.252  0.00  0.00     0.009 C 
BRANCH  30  33
ATOM     33  C   UNL d   1       4.902  -1.914 -18.511  0.00  0.00     0.000 C 
ATOM     34  C   UNL d   1       3.577  -1.518 -19.207  0.00  0.00     0.000 C 
ATOM     35  C   UNL d   1       4.910  -1.292 -17.086  0.00  0.00     0.000 C 
ATOM     36  C   UNL d   1       4.907  -3.459 -18.363  0.00  0.00     0.000 C 
ENDBRANCH  30  33
ENDBRANCH  25  27
ENDBRANCH   1  24
TORSDOF 7
