REMARK  4 active torsions:
REMARK  status: ('A' for Active; 'I' for Inactive)
REMARK    1  A    between atoms: O_2  and  C_3 
REMARK    2  A    between atoms: C_8  and  N_9 
REMARK    3  A    between atoms: N_12  and  C_13 
REMARK    4  A    between atoms: C_13  and  C_14 
ROOT
ATOM      1  N   UNL d   1       7.736   5.501 -11.900  0.00  0.00    -0.343 N 
ATOM      2  C   UNL d   1       8.071   6.798 -12.467  0.00  0.00     0.137 C 
ATOM      3  C   UNL d   1       9.453   7.252 -11.955  0.00  0.00     0.275 C 
ATOM      4  N   UNL d   1       9.495   7.255 -10.491  0.00  0.00     0.147 N 
ATOM      5  C   UNL d   1       9.235   5.894 -10.008  0.00  0.00     0.275 C 
ATOM      6  C   UNL d   1       7.860   5.392 -10.463  0.00  0.00     0.137 C 
ENDROOT
BRANCH   4   7
ATOM      7  C   UNL d   1      10.782   7.757 -10.018  0.00  0.00     0.297 C 
BRANCH   7   8
ATOM      8  C   UNL d   1      11.017   7.927  -8.545  0.00  0.00     0.112 A 
ATOM      9  N   UNL d   1      11.192   9.184  -7.972  0.00  0.00    -0.229 NA
ATOM     10  C   UNL d   1      11.370   8.972  -6.669  0.00  0.00     0.148 A 
ATOM     11  N   UNL d   1      11.301   7.587  -6.385  0.00  0.00    -0.287 N 
ATOM     12  C   UNL d   1      11.604   9.850  -5.578  0.00  0.00     0.038 A 
ATOM     13  C   UNL d   1      11.091   6.950  -7.588  0.00  0.00     0.098 A 
ATOM     14  C   UNL d   1      11.456   7.079  -5.133  0.00  0.00     0.088 A 
ATOM     15  C   UNL d   1      11.708   7.936  -4.092  0.00  0.00     0.052 A 
ATOM     16 BR   UNL d   1      11.949   7.219  -2.357  0.00  0.00    -0.048 Br
ATOM     17  C   UNL d   1      11.771   9.332  -4.310  0.00  0.00     0.011 A 
ENDBRANCH   7   8
ENDBRANCH   4   7
BRANCH   1  18
ATOM     18  C   UNL d   1       7.401   4.396 -12.685  0.00  0.00     0.079 A 
ATOM     19  C   UNL d   1       8.289   3.915 -13.681  0.00  0.00     0.110 A 
ATOM     20  C   UNL d   1       7.901   2.789 -14.448  0.00  0.00     0.026 A 
ATOM     21  C   UNL d   1       6.661   2.163 -14.234  0.00  0.00     0.002 A 
ATOM     22  C   UNL d   1       5.799   2.638 -13.234  0.00  0.00     0.002 A 
ATOM     23  C   UNL d   1       6.168   3.748 -12.457  0.00  0.00     0.019 A 
BRANCH  19  24
ATOM     24  O   UNL d   1       9.498   4.561 -13.829  0.00  0.00    -0.327 OA
ATOM     25  C   UNL d   1      10.394   4.085 -14.820  0.00  0.00     0.181 C 
ENDBRANCH  19  24
ENDBRANCH   1  18
TORSDOF 4
