REMARK  4 active torsions:
REMARK  status: ('A' for Active; 'I' for Inactive)
REMARK       I    between atoms: N_10  and  C_11 
REMARK    1  A    between atoms: C_11  and  C_13 
REMARK    2  A    between atoms: C_13  and  N_14 
REMARK    3  A    between atoms: N_17  and  C_18 
REMARK    4  A    between atoms: C_18  and  C_19 
ROOT
ATOM      1  N   UNL d   1       9.600   6.072 -11.581  0.00  0.00     0.151 N 
ATOM      2  C   UNL d   1       9.302   7.496 -11.766  0.00  0.00     0.286 C 
ATOM      3  C   UNL d   1      10.194   8.403 -10.884  0.00  0.00     0.286 C 
ATOM      4  N   UNL d   1      10.105   8.064  -9.456  0.00  0.00     0.146 N 
ATOM      5  C   UNL d   1      10.368   6.642  -9.336  0.00  0.00     0.286 C 
ATOM      6  C   UNL d   1       9.479   5.765 -10.168  0.00  0.00     0.286 C 
ENDROOT
BRANCH   1   7
ATOM      7  C   UNL d   1       8.743   5.219 -12.377  0.00  0.00     0.337 C 
BRANCH   7   8
ATOM      8  C   UNL d   1       9.448   4.626 -13.601  0.00  0.00     0.271 C 
ATOM      9  N   UNL d   1       8.942   3.515 -14.183  0.00  0.00    -0.299 N 
ATOM     10  C   UNL d   1       9.721   2.689 -15.120  0.00  0.00     0.093 C 
ATOM     11  C   UNL d   1       7.668   2.885 -13.961  0.00  0.00     0.058 A 
ATOM     12  C   UNL d   1       9.859   3.383 -16.489  0.00  0.00     0.025 C 
ATOM     13  C   UNL d   1       8.953   1.346 -15.259  0.00  0.00     0.051 C 
ATOM     14  C   UNL d   1       7.673   1.613 -14.530  0.00  0.00    -0.004 A 
ATOM     15  C   UNL d   1       6.562   0.749 -14.387  0.00  0.00    -0.003 A 
ATOM     16  C   UNL d   1       5.444   1.199 -13.638  0.00  0.00    -0.000 A 
ATOM     17  C   UNL d   1       5.455   2.494 -13.069  0.00  0.00     0.002 A 
ATOM     18  C   UNL d   1       6.533   3.354 -13.260  0.00  0.00     0.017 A 
ATOM     19  O   UNL d   1      10.478   5.210 -14.013  0.00  0.00    -0.270 OA
ENDBRANCH   7   8
ENDBRANCH   1   7
BRANCH   4  20
ATOM     20  C   UNL d   1      11.026   8.900  -8.658  0.00  0.00     0.277 C 
BRANCH  20  21
ATOM     21  C   UNL d   1      11.166   8.521  -7.177  0.00  0.00     0.013 C 
ATOM     22  C   UNL d   1      10.962   9.498  -6.166  0.00  0.00     0.027 C 
ATOM     23  C   UNL d   1      11.088   9.121  -4.796  0.00  0.00     0.140 C 
ATOM     24  C   UNL d   1      11.344   7.779  -4.432  0.00  0.00     0.030 C 
ATOM     25  F   UNL d   1      10.930  10.049  -3.827  0.00  0.00    -0.204 F 
ATOM     26  C   UNL d   1      11.466   6.808  -5.449  0.00  0.00     0.002 C 
ATOM     27  C   UNL d   1      11.463   7.199  -6.768  0.00  0.00    -0.002 C 
ENDBRANCH  20  21
ENDBRANCH   4  20
TORSDOF 4
