REMARK  7 active torsions:
REMARK  status: ('A' for Active; 'I' for Inactive)
REMARK    1  A    between atoms: C_9  and  O_10 
REMARK    2  A    between atoms: O_10  and  C_11 
REMARK    3  A    between atoms: C_11  and  C_12 
REMARK    4  A    between atoms: C_12  and  C_13 
REMARK    5  A    between atoms: C_13  and  C_14 
REMARK    6  A    between atoms: C_14  and  N_15 
REMARK    7  A    between atoms: N_18  and  C_19 
ROOT
ATOM      1  N   UNL d   1      12.161   4.385 -14.424  0.00  0.00    -0.191 NA
ATOM      2  C   UNL d   1      11.427   3.521 -14.652  0.00  0.00     0.104 C 
ATOM      3  C   UNL d   1      10.519   2.455 -14.917  0.00  0.00     0.107 A 
ATOM      4  C   UNL d   1      10.837   1.190 -15.459  0.00  0.00     0.132 A 
ATOM      5  N   UNL d   1       9.793   0.396 -15.557  0.00  0.00    -0.163 NA
ATOM      6  N   UNL d   1       8.743   1.159 -15.088  0.00  0.00    -0.228 N 
ATOM      7  C   UNL d   1       7.446   0.762 -15.003  0.00  0.00     0.102 A 
ATOM      8  C   UNL d   1       6.516   1.645 -14.499  0.00  0.00     0.045 A 
ATOM      9  C   UNL d   1       6.887   2.947 -14.078  0.00  0.00     0.097 A 
ATOM     10  C   UNL d   1       8.204   3.349 -14.207  0.00  0.00     0.044 A 
ATOM     11  C   UNL d   1       9.174   2.447 -14.700  0.00  0.00     0.096 A 
ENDROOT
BRANCH   9  12
ATOM     12  O   UNL d   1       5.897   3.735 -13.530  0.00  0.00    -0.331 OA
BRANCH  12  13
ATOM     13  C   UNL d   1       6.277   4.830 -12.704  0.00  0.00     0.149 C 
BRANCH  13  14
ATOM     14  C   UNL d   1       7.045   4.362 -11.457  0.00  0.00     0.035 C 
BRANCH  14  15
ATOM     15  C   UNL d   1       7.615   5.524 -10.653  0.00  0.00     0.038 C 
BRANCH  15  16
ATOM     16  C   UNL d   1       8.574   5.005  -9.567  0.00  0.00     0.251 C 
BRANCH  16  17
ATOM     17  N   UNL d   1       9.204   6.121  -8.894  0.00  0.00     0.141 N 
ATOM     18  C   UNL d   1       8.557   6.382  -7.596  0.00  0.00     0.274 C 
ATOM     19  C   UNL d   1       9.166   7.630  -6.931  0.00  0.00     0.137 C 
ATOM     20  N   UNL d   1      10.566   7.351  -6.728  0.00  0.00    -0.344 N 
ATOM     21  C   UNL d   1      11.313   6.922  -7.862  0.00  0.00     0.137 C 
ATOM     22  C   UNL d   1      10.586   5.778  -8.613  0.00  0.00     0.274 C 
BRANCH  20  23
ATOM     23  C   UNL d   1      11.160   7.441  -5.455  0.00  0.00     0.068 C 
ATOM     24  C   UNL d   1      11.252   8.643  -4.791  0.00  0.00     0.084 C 
ATOM     25  C   UNL d   1      11.855   8.650  -3.515  0.00  0.00     0.070 C 
ATOM     26 CL   UNL d   1      10.771  10.142  -5.490  0.00  0.00    -0.080 Cl
ATOM     27  C   UNL d   1      12.357   7.557  -2.834  0.00  0.00     0.012 C 
ATOM     28 CL   UNL d   1      11.874  10.098  -2.746  0.00  0.00    -0.081 Cl
ATOM     29  C   UNL d   1      12.274   6.384  -3.520  0.00  0.00     0.002 C 
ATOM     30  C   UNL d   1      11.756   6.361  -4.837  0.00  0.00     0.018 C 
ENDBRANCH  20  23
ENDBRANCH  16  17
ENDBRANCH  15  16
ENDBRANCH  14  15
ENDBRANCH  13  14
ENDBRANCH  12  13
ENDBRANCH   9  12
TORSDOF 7
