REMARK  5 active torsions:
REMARK  status: ('A' for Active; 'I' for Inactive)
REMARK    1  A    between atoms: C_2  and  C_3 
REMARK    2  A    between atoms: C_3  and  C_4 
REMARK    3  A    between atoms: C_4  and  C_5 
REMARK    4  A    between atoms: N_8  and  C_9 
REMARK    5  A    between atoms: N_15  and  C_16 
ROOT
ATOM      1  C   UNL d   1      11.161   2.329 -15.023  0.00  0.00     0.162 A 
ATOM      2  C   UNL d   1      10.133   1.222 -15.222  0.00  0.00     0.264 A 
ATOM      3  O   UNL d   1      10.421   0.127 -15.702  0.00  0.00    -0.270 OA
ATOM      4  N   UNL d   1       8.925   1.602 -14.787  0.00  0.00    -0.211 N 
ATOM      5  N   UNL d   1       8.980   2.934 -14.297  0.00  0.00    -0.211 N 
ATOM      6  C   UNL d   1      10.240   3.389 -14.429  0.00  0.00     0.264 A 
ATOM      7  O   UNL d   1      10.653   4.506 -14.113  0.00  0.00    -0.270 OA
ENDROOT
BRANCH   4   8
ATOM      8  C   UNL d   1       7.723   0.896 -15.052  0.00  0.00     0.084 A 
ATOM      9  C   UNL d   1       7.092   1.032 -16.305  0.00  0.00     0.019 A 
ATOM     10  C   UNL d   1       5.877   0.368 -16.560  0.00  0.00     0.002 A 
ATOM     11  C   UNL d   1       5.298  -0.444 -15.565  0.00  0.00     0.000 A 
ATOM     12  C   UNL d   1       5.934  -0.588 -14.317  0.00  0.00     0.002 A 
ATOM     13  C   UNL d   1       7.140   0.088 -14.056  0.00  0.00     0.019 A 
ENDBRANCH   4   8
BRANCH   5  14
ATOM     14  C   UNL d   1       7.925   3.602 -13.586  0.00  0.00     0.084 A 
ATOM     15  C   UNL d   1       8.216   4.390 -12.440  0.00  0.00     0.019 A 
ATOM     16  C   UNL d   1       7.191   5.051 -11.737  0.00  0.00     0.002 A 
ATOM     17  C   UNL d   1       5.858   4.908 -12.147  0.00  0.00     0.000 A 
ATOM     18  C   UNL d   1       5.546   4.121 -13.270  0.00  0.00     0.002 A 
ATOM     19  C   UNL d   1       6.571   3.491 -13.996  0.00  0.00     0.019 A 
ENDBRANCH   5  14
BRANCH   1  20
ATOM     20  C   UNL d   1      11.869   2.744 -16.335  0.00  0.00     0.019 C 
BRANCH  20  21
ATOM     21  C   UNL d   1      12.816   3.953 -16.207  0.00  0.00     0.001 C 
BRANCH  21  22
ATOM     22  C   UNL d   1      13.677   4.166 -17.456  0.00  0.00     0.000 C 
ATOM     23  C   UNL d   1      14.640   5.347 -17.305  0.00  0.00     0.000 C 
ENDBRANCH  21  22
ENDBRANCH  20  21
ENDBRANCH   1  20
TORSDOF 5
