REMARK  8 active torsions:
REMARK  status: ('A' for Active; 'I' for Inactive)
REMARK    1  A    between atoms: C_5  and  N_6 
REMARK    2  A    between atoms: N_9  and  C_10 
REMARK    3  A    between atoms: C_10  and  C_11 
REMARK    4  A    between atoms: C_11  and  C_12 
REMARK    5  A    between atoms: C_12  and  C_13 
REMARK    6  A    between atoms: C_13  and  N_14 
REMARK    7  A    between atoms: N_14  and  C_15 
REMARK    8  A    between atoms: C_18  and  C_19 
ROOT
ATOM      1  C   UNL d   1       9.456   5.773 -10.649  0.00  0.00     0.251 C 
ENDROOT
BRANCH   1   2
ATOM      2  N   UNL d   1       9.640   6.879  -9.721  0.00  0.00     0.141 N 
ATOM      3  C   UNL d   1      11.052   7.009  -9.384  0.00  0.00     0.274 C 
ATOM      4  C   UNL d   1      11.332   8.166  -8.408  0.00  0.00     0.137 C 
ATOM      5  N   UNL d   1      10.494   8.005  -7.229  0.00  0.00    -0.344 N 
ATOM      6  C   UNL d   1       9.079   7.783  -7.488  0.00  0.00     0.137 C 
ATOM      7  C   UNL d   1       8.924   6.612  -8.465  0.00  0.00     0.274 C 
BRANCH   5   8
ATOM      8  C   UNL d   1      11.012   8.060  -5.937  0.00  0.00     0.067 A 
ATOM      9  C   UNL d   1      11.061   6.892  -5.137  0.00  0.00     0.019 A 
ATOM     10  C   UNL d   1      11.587   6.933  -3.826  0.00  0.00     0.013 A 
ATOM     11  C   UNL d   1      12.045   8.160  -3.295  0.00  0.00     0.059 A 
ATOM     12 CL   UNL d   1      12.655   8.300  -1.697  0.00  0.00    -0.082 Cl
ATOM     13  C   UNL d   1      11.978   9.318  -4.074  0.00  0.00     0.024 A 
ATOM     14  C   UNL d   1      11.496   9.277  -5.389  0.00  0.00     0.074 A 
ATOM     15 CL   UNL d   1      11.468  10.718  -6.323  0.00  0.00    -0.081 Cl
ENDBRANCH   5   8
ENDBRANCH   1   2
BRANCH   1  16
ATOM     16  C   UNL d   1       8.033   5.766 -11.231  0.00  0.00     0.037 C 
BRANCH  16  17
ATOM     17  C   UNL d   1       7.827   4.590 -12.160  0.00  0.00     0.029 C 
BRANCH  17  18
ATOM     18  C   UNL d   1       6.404   4.515 -12.761  0.00  0.00     0.145 C 
BRANCH  18  19
ATOM     19  N   UNL d   1       5.999   3.180 -13.205  0.00  0.00    -0.084 NA
BRANCH  19  20
ATOM     20  C   UNL d   1       6.768   2.407 -14.102  0.00  0.00     0.770 A 
ATOM     21  N   UNL d   1       7.909   2.870 -14.670  0.00  0.00    -0.032 NA
ATOM     22  C   UNL d   1       8.365   1.808 -15.315  0.00  0.00     0.225 A 
ATOM     23  O   UNL d   1       7.532   0.744 -15.210  0.00  0.00    -0.177 OA
ATOM     24  N   UNL d   1       6.457   1.153 -14.404  0.00  0.00     0.072 NA
BRANCH  22  25
ATOM     25  C   UNL d   1       9.598   1.708 -16.081  0.00  0.00     0.044 A 
ATOM     26  C   UNL d   1      10.529   2.775 -16.086  0.00  0.00     0.004 A 
ATOM     27  C   UNL d   1      11.706   2.688 -16.855  0.00  0.00     0.000 A 
ATOM     28  C   UNL d   1      11.960   1.534 -17.620  0.00  0.00     0.000 A 
ATOM     29  C   UNL d   1      11.042   0.463 -17.607  0.00  0.00     0.000 A 
ATOM     30  C   UNL d   1       9.869   0.550 -16.834  0.00  0.00     0.004 A 
ENDBRANCH  22  25
ENDBRANCH  19  20
ENDBRANCH  18  19
ENDBRANCH  17  18
ENDBRANCH  16  17
ENDBRANCH   1  16
TORSDOF 8
