REMARK  7 active torsions:
REMARK  status: ('A' for Active; 'I' for Inactive)
REMARK    1  A    between atoms: O_2  and  C_3 
REMARK    2  A    between atoms: C_8  and  N_9 
REMARK    3  A    between atoms: N_12  and  C_13 
REMARK    4  A    between atoms: C_13  and  C_14 
REMARK    5  A    between atoms: C_14  and  C_16 
REMARK    6  A    between atoms: C_16  and  N_17 
REMARK    7  A    between atoms: C_21  and  C_23 
ROOT
ATOM      1  C   UNL d   1       9.979  -0.606 -17.921  0.00  0.00     0.208 C 
ATOM      2  O   UNL d   1      11.002  -1.534 -18.165  0.00  0.00    -0.219 OA
ENDROOT
BRANCH   1   3
ATOM      3  C   UNL d   1      10.441   0.052 -16.620  0.00  0.00     0.285 C 
BRANCH   3   4
ATOM      4  N   UNL d   1       9.858   1.360 -16.393  0.00  0.00     0.144 N 
ATOM      5  C   UNL d   1       8.479   1.258 -15.958  0.00  0.00     0.274 C 
ATOM      6  C   UNL d   1       7.895   2.670 -15.917  0.00  0.00     0.137 C 
ATOM      7  N   UNL d   1       8.656   3.468 -14.958  0.00  0.00    -0.343 N 
ATOM      8  C   UNL d   1      10.062   3.588 -15.280  0.00  0.00     0.137 C 
ATOM      9  C   UNL d   1      10.643   2.171 -15.451  0.00  0.00     0.274 C 
BRANCH   7  10
ATOM     10  C   UNL d   1       8.062   4.133 -13.846  0.00  0.00     0.079 A 
ATOM     11  C   UNL d   1       6.952   3.594 -13.160  0.00  0.00     0.110 A 
ATOM     12  C   UNL d   1       6.420   4.275 -12.035  0.00  0.00     0.026 A 
ATOM     13  C   UNL d   1       6.951   5.514 -11.629  0.00  0.00     0.002 A 
ATOM     14  C   UNL d   1       8.037   6.074 -12.329  0.00  0.00     0.002 A 
ATOM     15  C   UNL d   1       8.592   5.373 -13.423  0.00  0.00     0.019 A 
BRANCH  11  16
ATOM     16  O   UNL d   1       6.448   2.360 -13.559  0.00  0.00    -0.327 OA
ATOM     17  C   UNL d   1       5.399   1.754 -12.830  0.00  0.00     0.181 C 
ENDBRANCH  11  16
ENDBRANCH   7  10
ENDBRANCH   3   4
ENDBRANCH   1   3
BRANCH   1  18
ATOM     18  C   UNL d   1       9.881   0.293 -19.178  0.00  0.00     0.148 C 
BRANCH  18  19
ATOM     19  N   UNL d   1       8.724  -0.078 -19.995  0.00  0.00    -0.247 N 
ATOM     20  C   UNL d   1       7.459   0.295 -19.722  0.00  0.00     0.265 A 
ATOM     21  C   UNL d   1       6.520  -0.355 -20.739  0.00  0.00     0.181 A 
ATOM     22  O   UNL d   1       7.085   1.081 -18.852  0.00  0.00    -0.269 OA
ATOM     23  N   UNL d   1       7.530  -0.962 -21.589  0.00  0.00    -0.209 NA
ATOM     24  C   UNL d   1       5.767   0.737 -21.526  0.00  0.00     0.039 C 
ATOM     25  C   UNL d   1       8.774  -0.816 -21.110  0.00  0.00     0.348 A 
ATOM     26  O   UNL d   1       9.795  -1.287 -21.625  0.00  0.00    -0.245 OA
BRANCH  21  27
ATOM     27  C   UNL d   1       5.590  -1.390 -20.070  0.00  0.00     0.034 A 
ATOM     28  C   UNL d   1       4.550  -0.986 -19.183  0.00  0.00     0.138 A 
ATOM     29  C   UNL d   1       3.705  -1.940 -18.589  0.00  0.00     0.029 A 
ATOM     30  F   UNL d   1       4.364   0.317 -18.891  0.00  0.00    -0.204 F 
ATOM     31  C   UNL d   1       3.862  -3.310 -18.868  0.00  0.00     0.002 A 
ATOM     32  C   UNL d   1       4.884  -3.728 -19.735  0.00  0.00    -0.000 A 
ATOM     33  C   UNL d   1       5.737  -2.774 -20.330  0.00  0.00     0.000 A 
ENDBRANCH  21  27
ENDBRANCH  18  19
ENDBRANCH   1  18
TORSDOF 7
