REMARK  9 active torsions:
REMARK  status: ('A' for Active; 'I' for Inactive)
REMARK    1  A    between atoms: C_4  and  C_5 
REMARK    2  A    between atoms: C_8  and  C_9 
REMARK    3  A    between atoms: C_12  and  S_13 
REMARK    4  A    between atoms: S_13  and  C_14 
REMARK    5  A    between atoms: C_14  and  C_15 
REMARK    6  A    between atoms: C_15  and  C_16 
REMARK    7  A    between atoms: C_16  and  N_17 
REMARK    8  A    between atoms: C_21  and  C_22 
REMARK    9  A    between atoms: C_25  and  C_26 
ROOT
ATOM      1  S   UNL d   1       8.149  -1.646 -20.235  0.00  0.00    -0.075 SA
ENDROOT
BRANCH   1   2
ATOM      2  C   UNL d   1       8.379   0.036 -19.742  0.00  0.00     0.193 A 
ATOM      3  N   UNL d   1       7.371   0.898 -19.578  0.00  0.00    -0.122 NA
ATOM      4  N   UNL d   1       7.951   2.039 -19.114  0.00  0.00    -0.128 NA
ATOM      5  C   UNL d   1       9.271   1.820 -19.090  0.00  0.00     0.167 A 
ATOM      6  N   UNL d   1       9.585   0.550 -19.473  0.00  0.00    -0.289 N 
ATOM      7  C   UNL d   1      10.892  -0.106 -19.608  0.00  0.00     0.134 C 
BRANCH   5   8
ATOM      8  C   UNL d   1      10.181   2.897 -18.723  0.00  0.00     0.036 A 
ATOM      9  C   UNL d   1       9.932   4.218 -19.157  0.00  0.00     0.003 A 
ATOM     10  C   UNL d   1      10.823   5.260 -18.833  0.00  0.00     0.003 A 
ATOM     11  C   UNL d   1      12.001   4.998 -18.090  0.00  0.00     0.038 A 
ATOM     12  C   UNL d   1      12.242   3.673 -17.662  0.00  0.00     0.003 A 
ATOM     13  C   UNL d   1      11.325   2.631 -17.927  0.00  0.00     0.003 A 
BRANCH  11  14
ATOM     14  C   UNL d   1      12.946   6.071 -17.736  0.00  0.00     0.191 A 
ATOM     15  N   UNL d   1      12.817   7.327 -18.231  0.00  0.00    -0.203 NA
ATOM     16  C   UNL d   1      13.853   7.924 -17.652  0.00  0.00     0.185 A 
ATOM     17  C   UNL d   1      14.257   9.342 -17.806  0.00  0.00     0.083 C 
ATOM     18  O   UNL d   1      14.584   7.111 -16.847  0.00  0.00    -0.195 OA
ATOM     19  N   UNL d   1      13.964   5.859 -16.904  0.00  0.00    -0.105 NA
ENDBRANCH  11  14
ENDBRANCH   5   8
ENDBRANCH   1   2
BRANCH   1  20
ATOM     20  C   UNL d   1       6.458  -1.924 -19.618  0.00  0.00     0.067 C 
BRANCH  20  21
ATOM     21  C   UNL d   1       6.376  -1.798 -18.088  0.00  0.00     0.047 C 
BRANCH  21  22
ATOM     22  C   UNL d   1       4.944  -1.565 -17.573  0.00  0.00     0.251 C 
BRANCH  22  23
ATOM     23  N   UNL d   1       4.839  -1.294 -16.136  0.00  0.00     0.143 N 
ATOM     24  C   UNL d   1       5.516  -0.066 -15.739  0.00  0.00     0.284 C 
ATOM     25  C   UNL d   1       5.396   0.238 -14.230  0.00  0.00     0.171 C 
ATOM     26  O   UNL d   1       4.015   0.261 -13.870  0.00  0.00    -0.348 OA
ATOM     27  C   UNL d   1       3.314  -0.921 -14.222  0.00  0.00     0.178 C 
ATOM     28  C   UNL d   1       3.449  -1.216 -15.715  0.00  0.00     0.282 C 
BRANCH  25  29
ATOM     29  C   UNL d   1       6.083   1.546 -13.860  0.00  0.00     0.007 A 
ATOM     30  C   UNL d   1       7.328   1.906 -14.425  0.00  0.00    -0.002 A 
ATOM     31  C   UNL d   1       7.944   3.119 -14.091  0.00  0.00     0.004 A 
ATOM     32  C   UNL d   1       7.332   4.004 -13.178  0.00  0.00     0.071 A 
ATOM     33  C   UNL d   1       6.092   3.649 -12.597  0.00  0.00     0.004 A 
ATOM     34  C   UNL d   1       5.493   2.434 -12.932  0.00  0.00    -0.002 A 
BRANCH  32  35
ATOM     35  C   UNL d   1       8.012   5.299 -12.787  0.00  0.00     0.419 C 
ATOM     36  F   UNL d   1       9.013   5.586 -13.621  0.00  0.00    -0.166 F 
ATOM     37  F   UNL d   1       7.133   6.299 -12.819  0.00  0.00    -0.166 F 
ATOM     38  F   UNL d   1       8.499   5.182 -11.552  0.00  0.00    -0.166 F 
ENDBRANCH  32  35
ENDBRANCH  25  29
ENDBRANCH  22  23
ENDBRANCH  21  22
ENDBRANCH  20  21
ENDBRANCH   1  20
TORSDOF 9
