REMARK  5 active torsions:
REMARK  status: ('A' for Active; 'I' for Inactive)
REMARK    1  A    between atoms: C_2  and  C_4 
REMARK    2  A    between atoms: C_7  and  C_8 
REMARK    3  A    between atoms: C_8  and  N_9 
REMARK    4  A    between atoms: C_13  and  C_14 
REMARK    5  A    between atoms: C_13  and  C_20 
ROOT
ATOM      1  N   UNL d   1       8.669   5.923 -10.280  0.00  0.00     0.140 N 
ATOM      2  C   UNL d   1       8.238   4.588 -10.543  0.00  0.00     0.255 C 
ATOM      3  C   UNL d   1       7.733   4.364 -11.963  0.00  0.00     0.057 C 
ATOM      4  C   UNL d   1       8.791   4.715 -13.004  0.00  0.00    -0.040 C 
ATOM      5  C   UNL d   1       9.018   4.007 -14.146  0.00  0.00    -0.008 C 
ATOM      6  C   UNL d   1       9.519   6.004 -12.620  0.00  0.00     0.057 C 
ATOM      7  C   UNL d   1       9.822   6.124 -11.114  0.00  0.00     0.255 C 
ENDROOT
BRANCH   5   8
ATOM      8  C   UNL d   1      10.105   4.396 -15.085  0.00  0.00    -0.001 A 
ATOM      9  C   UNL d   1       9.808   4.670 -16.436  0.00  0.00    -0.000 A 
ATOM     10  C   UNL d   1      10.817   5.027 -17.348  0.00  0.00    -0.000 A 
ATOM     11  C   UNL d   1      12.152   5.109 -16.913  0.00  0.00    -0.000 A 
ATOM     12  C   UNL d   1      12.468   4.822 -15.572  0.00  0.00    -0.000 A 
ATOM     13  C   UNL d   1      11.456   4.449 -14.666  0.00  0.00    -0.000 A 
ENDBRANCH   5   8
BRANCH   5  14
ATOM     14  C   UNL d   1       8.202   2.822 -14.541  0.00  0.00    -0.001 C 
ATOM     15  C   UNL d   1       8.773   1.792 -15.327  0.00  0.00     0.002 C 
ATOM     16  C   UNL d   1       8.032   0.658 -15.702  0.00  0.00     0.030 C 
ATOM     17  C   UNL d   1       6.705   0.515 -15.264  0.00  0.00     0.140 C 
ATOM     18  C   UNL d   1       6.123   1.524 -14.469  0.00  0.00     0.030 C 
ATOM     19  F   UNL d   1       5.973  -0.568 -15.617  0.00  0.00    -0.204 F 
ATOM     20  C   UNL d   1       6.832   2.707 -14.181  0.00  0.00     0.002 C 
ENDBRANCH   5  14
BRANCH   1  21
ATOM     21  C   UNL d   1       9.015   6.005  -8.877  0.00  0.00     0.280 C 
BRANCH  21  22
ATOM     22  C   UNL d   1       9.380   7.415  -8.441  0.00  0.00     0.149 C 
ATOM     23  C   UNL d   1       8.767   7.773  -7.098  0.00  0.00     0.035 C 
ATOM     24  C   UNL d   1       9.787   8.719  -6.563  0.00  0.00     0.042 C 
ATOM     25  C   UNL d   1      11.077   8.078  -7.007  0.00  0.00     0.197 C 
ATOM     26  O   UNL d   1      10.793   7.506  -8.285  0.00  0.00    -0.348 OA
BRANCH  25  27
ATOM     27  C   UNL d   1      12.169   9.053  -7.170  0.00  0.00     0.300 C 
ATOM     28  N   UNL d   1      13.070   8.781  -8.107  0.00  0.00    -0.105 N 
ATOM     29  O   UNL d   1      12.238  10.084  -6.451  0.00  0.00    -0.266 OA
ENDBRANCH  25  27
ENDBRANCH  21  22
ENDBRANCH   1  21
TORSDOF 5
