REMARK  4 active torsions:
REMARK  status: ('A' for Active; 'I' for Inactive)
REMARK    1  A    between atoms: C_5  and  N_6 
REMARK    2  A    between atoms: N_9  and  C_10 
REMARK    3  A    between atoms: C_10  and  C_11 
REMARK    4  A    between atoms: C_11  and  C_12 
ROOT
ATOM      1  N   UNL d   1       8.573   4.638 -12.538  0.00  0.00    -0.344 N 
ATOM      2  C   UNL d   1       8.334   6.054 -12.637  0.00  0.00     0.137 C 
ATOM      3  C   UNL d   1       8.401   6.704 -11.256  0.00  0.00     0.274 C 
ATOM      4  N   UNL d   1       9.633   6.381 -10.537  0.00  0.00     0.141 N 
ATOM      5  C   UNL d   1       9.639   4.929 -10.329  0.00  0.00     0.274 C 
ATOM      6  C   UNL d   1       9.713   4.246 -11.733  0.00  0.00     0.137 C 
ENDROOT
BRANCH   4   7
ATOM      7  C   UNL d   1       9.611   7.108  -9.268  0.00  0.00     0.255 C 
BRANCH   7   8
ATOM      8  C   UNL d   1      10.942   6.972  -8.510  0.00  0.00     0.062 C 
BRANCH   8   9
ATOM      9  C   UNL d   1      11.051   7.798  -7.255  0.00  0.00    -0.018 A 
ATOM     10  C   UNL d   1      11.325   7.191  -6.003  0.00  0.00     0.018 A 
ATOM     11  C   UNL d   1      11.499   7.995  -4.857  0.00  0.00     0.124 A 
ATOM     12  C   UNL d   1      11.316   9.389  -4.990  0.00  0.00     0.124 A 
ATOM     13  N   UNL d   1      11.900   7.692  -3.563  0.00  0.00    -0.127 NA
ATOM     14  C   UNL d   1      11.057  10.001  -6.232  0.00  0.00     0.022 A 
ATOM     15  N   UNL d   1      11.505   9.805  -3.693  0.00  0.00    -0.127 NA
ATOM     16  C   UNL d   1      10.957   9.190  -7.375  0.00  0.00    -0.003 A 
ATOM     17  N   UNL d   1      11.912   8.795  -2.879  0.00  0.00    -0.042 NA
ENDBRANCH   8   9
ENDBRANCH   7   8
ENDBRANCH   4   7
BRANCH   1  18
ATOM     18  C   UNL d   1       7.699   3.714 -13.114  0.00  0.00     0.056 A 
ATOM     19  C   UNL d   1       8.138   2.773 -14.077  0.00  0.00     0.015 A 
ATOM     20  C   UNL d   1       9.475   2.766 -14.566  0.00  0.00     0.001 A 
ATOM     21  C   UNL d   1       7.237   1.802 -14.567  0.00  0.00     0.001 A 
ATOM     22  C   UNL d   1       9.877   1.819 -15.521  0.00  0.00     0.000 A 
ATOM     23  C   UNL d   1       8.957   0.895 -16.045  0.00  0.00     0.000 A 
ATOM     24  C   UNL d   1       7.634   0.885 -15.560  0.00  0.00     0.000 A 
ATOM     25  C   UNL d   1       5.923   1.758 -14.063  0.00  0.00     0.000 A 
ATOM     26  C   UNL d   1       5.474   2.706 -13.126  0.00  0.00     0.002 A 
ATOM     27  C   UNL d   1       6.357   3.689 -12.651  0.00  0.00     0.017 A 
ENDBRANCH   1  18
TORSDOF 4
