REMARK  9 active torsions:
REMARK  status: ('A' for Active; 'I' for Inactive)
REMARK    1  A    between atoms: C_2  and  O_4 
REMARK    2  A    between atoms: O_4  and  C_5 
REMARK    3  A    between atoms: C_10  and  N_11 
REMARK    4  A    between atoms: N_16  and  C_17 
REMARK    5  A    between atoms: C_17  and  C_18 
REMARK    6  A    between atoms: C_18  and  C_19 
REMARK    7  A    between atoms: C_19  and  S_20 
REMARK    8  A    between atoms: S_20  and  C_21 
REMARK    9  A    between atoms: C_24  and  C_25 
ROOT
ATOM      1  N   UNL d   1       9.589   3.458 -14.900  0.00  0.00    -0.250 NA
ATOM      2  C   UNL d   1      10.729   3.010 -14.120  0.00  0.00     0.077 C 
ATOM      3  C   UNL d   1      11.934   3.687 -14.771  0.00  0.00     0.021 C 
ATOM      4  C   UNL d   1      11.366   5.037 -15.224  0.00  0.00     0.052 C 
ATOM      5  C   UNL d   1      11.852   5.535 -16.582  0.00  0.00     0.252 C 
ATOM      6  N   UNL d   1      10.964   4.868 -17.535  0.00  0.00     0.138 N 
ATOM      7  C   UNL d   1       9.637   4.908 -16.933  0.00  0.00     0.266 C 
ATOM      8  C   UNL d   1       9.880   4.789 -15.427  0.00  0.00     0.097 C 
ENDROOT
BRANCH   6   9
ATOM      9  C   UNL d   1      10.953   5.469 -18.866  0.00  0.00     0.251 C 
BRANCH   9  10
ATOM     10  C   UNL d   1      12.310   5.268 -19.556  0.00  0.00     0.047 C 
BRANCH  10  11
ATOM     11  C   UNL d   1      12.492   6.138 -20.808  0.00  0.00     0.067 C 
BRANCH  11  12
ATOM     12  S   UNL d   1      14.025   5.752 -21.712  0.00  0.00    -0.075 SA
BRANCH  12  13
ATOM     13  C   UNL d   1      15.229   6.155 -20.479  0.00  0.00     0.193 A 
ATOM     14  N   UNL d   1      15.914   7.318 -20.459  0.00  0.00    -0.287 N 
ATOM     15  C   UNL d   1      16.709   7.170 -19.364  0.00  0.00     0.186 A 
ATOM     16  C   UNL d   1      15.833   8.425 -21.404  0.00  0.00     0.134 C 
ATOM     17  N   UNL d   1      16.521   5.987 -18.767  0.00  0.00    -0.127 NA
ATOM     18  N   UNL d   1      15.575   5.319 -19.501  0.00  0.00    -0.122 NA
BRANCH  15  19
ATOM     19  C   UNL d   1      17.699   8.123 -18.842  0.00  0.00     0.136 A 
ATOM     20  N   UNL d   1      17.827   9.339 -19.426  0.00  0.00    -0.238 NA
ATOM     21  C   UNL d   1      18.758  10.180 -18.925  0.00  0.00     0.120 A 
ATOM     22  C   UNL d   1      19.567   9.821 -17.831  0.00  0.00     0.120 A 
ATOM     23  N   UNL d   1      19.453   8.615 -17.233  0.00  0.00    -0.239 NA
ATOM     24  C   UNL d   1      18.533   7.768 -17.746  0.00  0.00     0.121 A 
ENDBRANCH  15  19
ENDBRANCH  12  13
ENDBRANCH  11  12
ENDBRANCH  10  11
ENDBRANCH   9  10
ENDBRANCH   6   9
BRANCH   1  25
ATOM     25  C   UNL d   1       8.334   3.262 -14.301  0.00  0.00     0.059 A 
ATOM     26  C   UNL d   1       7.840   4.091 -13.256  0.00  0.00     0.104 A 
ATOM     27  C   UNL d   1       6.526   3.864 -12.765  0.00  0.00     0.025 A 
ATOM     28  C   UNL d   1       5.766   2.775 -13.239  0.00  0.00     0.002 A 
ATOM     29  C   UNL d   1       6.275   1.943 -14.251  0.00  0.00     0.001 A 
ATOM     30  C   UNL d   1       7.548   2.197 -14.790  0.00  0.00     0.013 A 
BRANCH  26  31
ATOM     31  O   UNL d   1       8.674   5.076 -12.760  0.00  0.00    -0.332 OA
BRANCH  31  32
ATOM     32  C   UNL d   1       8.241   5.952 -11.724  0.00  0.00     0.122 C 
ATOM     33  C   UNL d   1       9.253   7.107 -11.698  0.00  0.00     0.033 C 
ATOM     34  C   UNL d   1       8.220   5.224 -10.369  0.00  0.00     0.033 C 
ENDBRANCH  31  32
ENDBRANCH  26  31
ENDBRANCH   1  25
TORSDOF 9
