REMARK  4 active torsions:
REMARK  status: ('A' for Active; 'I' for Inactive)
REMARK    1  A    between atoms: C_3  and  C_4 
REMARK    2  A    between atoms: N_16  and  C_17 
REMARK    3  A    between atoms: C_17  and  C_18 
REMARK    4  A    between atoms: C_18  and  C_19 
ROOT
ATOM      1  O   UNL d   1       8.505   6.001  -7.902  0.00  0.00    -0.289 OA
ATOM      2  C   UNL d   1       9.327   6.427  -8.748  0.00  0.00     0.200 A 
ATOM      3  C   UNL d   1      10.498   7.252  -8.469  0.00  0.00     0.061 A 
ATOM      4  C   UNL d   1      11.134   7.360  -9.618  0.00  0.00     0.119 A 
ATOM      5  O   UNL d   1      10.588   6.666 -10.670  0.00  0.00    -0.326 OA
ATOM      6  C   UNL d   1       9.407   6.003 -10.226  0.00  0.00     0.157 A 
ATOM      7  C   UNL d   1       8.295   6.422 -11.188  0.00  0.00     0.071 C 
ATOM      8  C   UNL d   1       8.480   5.852 -12.611  0.00  0.00     0.253 C 
ATOM      9  N   UNL d   1       8.549   4.386 -12.564  0.00  0.00     0.138 N 
ATOM     10  C   UNL d   1       9.716   3.996 -11.761  0.00  0.00     0.253 C 
ATOM     11  C   UNL d   1       9.521   4.485 -10.303  0.00  0.00     0.071 C 
ENDROOT
BRANCH   3  12
ATOM     12  C   UNL d   1      10.892   7.822  -7.162  0.00  0.00     0.005 A 
ATOM     13  C   UNL d   1      11.370   9.135  -7.107  0.00  0.00     0.003 A 
ATOM     14  C   UNL d   1      11.807   9.655  -5.872  0.00  0.00     0.030 A 
ATOM     15  C   UNL d   1      11.783   8.861  -4.722  0.00  0.00     0.140 A 
ATOM     16  C   UNL d   1      11.329   7.529  -4.784  0.00  0.00     0.030 A 
ATOM     17  F   UNL d   1      12.177   9.384  -3.536  0.00  0.00    -0.204 F 
ATOM     18  C   UNL d   1      10.863   7.017  -6.016  0.00  0.00     0.003 A 
ENDBRANCH   3  12
BRANCH   9  19
ATOM     19  C   UNL d   1       8.665   3.885 -13.929  0.00  0.00     0.255 C 
BRANCH  19  20
ATOM     20  C   UNL d   1       8.414   2.371 -13.994  0.00  0.00     0.062 C 
BRANCH  20  21
ATOM     21  C   UNL d   1       8.673   1.802 -15.362  0.00  0.00    -0.020 A 
ATOM     22  C   UNL d   1       9.991   1.474 -15.744  0.00  0.00    -0.004 A 
ATOM     23  C   UNL d   1      10.236   0.945 -17.024  0.00  0.00    -0.000 A 
ATOM     24  C   UNL d   1       9.163   0.742 -17.915  0.00  0.00    -0.000 A 
ATOM     25  C   UNL d   1       7.846   1.059 -17.526  0.00  0.00    -0.000 A 
ATOM     26  C   UNL d   1       7.601   1.588 -16.248  0.00  0.00    -0.004 A 
ENDBRANCH  20  21
ENDBRANCH  19  20
ENDBRANCH   9  19
TORSDOF 4
