REMARK  8 active torsions:
REMARK  status: ('A' for Active; 'I' for Inactive)
REMARK    1  A    between atoms: C_2  and  C_3 
REMARK    2  A    between atoms: C_7  and  N_8 
REMARK    3  A    between atoms: N_11  and  C_12 
REMARK    4  A    between atoms: C_12  and  C_13 
REMARK    5  A    between atoms: C_13  and  C_14 
REMARK    6  A    between atoms: C_14  and  C_15 
REMARK    7  A    between atoms: C_15  and  N_16 
REMARK       I    between atoms: N_16  and  C_17 
REMARK    8  A    between atoms: C_17  and  C_19 
ROOT
ATOM      1  C   UNL d   1       7.846   6.626 -12.635  0.00  0.00     0.251 C 
ENDROOT
BRANCH   1   2
ATOM      2  N   UNL d   1       7.809   5.165 -12.721  0.00  0.00     0.141 N 
ATOM      3  C   UNL d   1       8.732   4.655 -13.753  0.00  0.00     0.274 C 
ATOM      4  C   UNL d   1       8.675   3.128 -13.814  0.00  0.00     0.137 C 
ATOM      5  N   UNL d   1       7.304   2.692 -14.042  0.00  0.00    -0.344 N 
ATOM      6  C   UNL d   1       6.309   3.242 -13.115  0.00  0.00     0.137 C 
ATOM      7  C   UNL d   1       6.427   4.766 -13.037  0.00  0.00     0.274 C 
BRANCH   5   8
ATOM      8  C   UNL d   1       6.990   1.759 -15.040  0.00  0.00     0.067 A 
ATOM      9  C   UNL d   1       7.529   1.948 -16.331  0.00  0.00     0.018 A 
ATOM     10  C   UNL d   1       7.205   1.078 -17.389  0.00  0.00     0.001 A 
ATOM     11  C   UNL d   1       6.359  -0.015 -17.156  0.00  0.00    -0.003 A 
ATOM     12  C   UNL d   1       5.844  -0.249 -15.867  0.00  0.00    -0.010 A 
ATOM     13  C   UNL d   1       6.152   0.638 -14.807  0.00  0.00     0.069 A 
ATOM     14 CL   UNL d   1       5.501   0.302 -13.238  0.00  0.00    -0.081 Cl
BRANCH  12  15
ATOM     15  C   UNL d   1       4.953  -1.460 -15.639  0.00  0.00     0.027 C 
ATOM     16  C   UNL d   1       3.476  -1.138 -15.892  0.00  0.00     0.005 C 
ENDBRANCH  12  15
ENDBRANCH   5   8
ENDBRANCH   1   2
BRANCH   1  17
ATOM     17  C   UNL d   1       9.193   7.163 -12.127  0.00  0.00     0.037 C 
BRANCH  17  18
ATOM     18  C   UNL d   1       9.493   6.759 -10.675  0.00  0.00     0.029 C 
BRANCH  18  19
ATOM     19  C   UNL d   1      10.774   7.390 -10.117  0.00  0.00     0.129 C 
BRANCH  19  20
ATOM     20  N   UNL d   1      10.791   7.388  -8.662  0.00  0.00    -0.233 NA
ATOM     21  C   UNL d   1      10.243   8.359  -7.925  0.00  0.00     0.293 C 
ATOM     22  O   UNL d   1       9.461   9.188  -8.382  0.00  0.00    -0.264 OA
BRANCH  21  23
ATOM     23  C   UNL d   1      10.734   8.476  -6.543  0.00  0.00     0.139 A 
ATOM     24  N   UNL d   1      11.042   7.315  -5.849  0.00  0.00    -0.241 NA
ATOM     25  C   UNL d   1      11.472   7.610  -4.581  0.00  0.00     0.082 A 
ATOM     26  C   UNL d   1      11.454   9.032  -4.476  0.00  0.00     0.019 A 
ATOM     27  C   UNL d   1      11.866   6.788  -3.518  0.00  0.00     0.019 A 
ATOM     28  C   UNL d   1      10.971   9.554  -5.723  0.00  0.00     0.025 A 
ATOM     29  C   UNL d   1      11.857   9.587  -3.239  0.00  0.00     0.002 A 
ATOM     30  C   UNL d   1      12.264   8.770  -2.171  0.00  0.00     0.000 A 
ATOM     31  C   UNL d   1      12.264   7.370  -2.308  0.00  0.00     0.002 A 
ENDBRANCH  21  23
ENDBRANCH  19  20
ENDBRANCH  18  19
ENDBRANCH  17  18
ENDBRANCH   1  17
TORSDOF 8
