REMARK  7 active torsions:
REMARK  status: ('A' for Active; 'I' for Inactive)
REMARK    1  A    between atoms: C_7  and  N_8 
REMARK    2  A    between atoms: N_11  and  C_12 
REMARK    3  A    between atoms: C_12  and  C_13 
REMARK    4  A    between atoms: C_13  and  C_14 
REMARK    5  A    between atoms: C_14  and  C_15 
REMARK    6  A    between atoms: C_15  and  C_16 
REMARK    7  A    between atoms: C_18  and  C_19 
ROOT
ATOM      1  C   UNL d   1       8.827   5.824  -9.415  0.00  0.00     0.250 C 
ENDROOT
BRANCH   1   2
ATOM      2  N   UNL d   1       9.877   6.646  -8.823  0.00  0.00     0.141 N 
ATOM      3  C   UNL d   1      10.620   5.844  -7.858  0.00  0.00     0.274 C 
ATOM      4  C   UNL d   1      11.738   6.654  -7.169  0.00  0.00     0.137 C 
ATOM      5  N   UNL d   1      11.136   7.811  -6.523  0.00  0.00    -0.344 N 
ATOM      6  C   UNL d   1      10.287   8.610  -7.402  0.00  0.00     0.137 C 
ATOM      7  C   UNL d   1       9.250   7.732  -8.079  0.00  0.00     0.274 C 
BRANCH   5   8
ATOM      8  C   UNL d   1      11.430   8.155  -5.176  0.00  0.00     0.052 A 
ATOM      9  C   UNL d   1      11.494   9.501  -4.722  0.00  0.00    -0.006 A 
ATOM     10  C   UNL d   1      11.298  10.702  -5.653  0.00  0.00     0.033 C 
ATOM     11  C   UNL d   1      11.762   9.751  -3.355  0.00  0.00    -0.003 A 
ATOM     12  C   UNL d   1      11.989   8.710  -2.442  0.00  0.00    -0.000 A 
ATOM     13  C   UNL d   1      11.937   7.381  -2.883  0.00  0.00     0.002 A 
ATOM     14  C   UNL d   1      11.662   7.109  -4.238  0.00  0.00     0.017 A 
ENDBRANCH   5   8
ENDBRANCH   1   2
BRANCH   1  15
ATOM     15  C   UNL d   1       8.869   5.958 -10.944  0.00  0.00     0.036 C 
BRANCH  15  16
ATOM     16  C   UNL d   1       8.540   4.623 -11.628  0.00  0.00     0.009 C 
BRANCH  16  17
ATOM     17  C   UNL d   1       7.857   4.796 -12.993  0.00  0.00     0.054 C 
BRANCH  17  18
ATOM     18  C   UNL d   1       7.109   3.584 -13.423  0.00  0.00     0.104 A 
ATOM     19  O   UNL d   1       6.019   3.249 -12.687  0.00  0.00    -0.215 OA
ATOM     20  N   UNL d   1       5.489   2.059 -13.196  0.00  0.00    -0.126 NA
ATOM     21  C   UNL d   1       6.241   1.732 -14.240  0.00  0.00     0.116 A 
ATOM     22  C   UNL d   1       7.285   2.679 -14.437  0.00  0.00     0.044 A 
BRANCH  21  23
ATOM     23  C   UNL d   1       5.894   0.567 -15.059  0.00  0.00     0.049 A 
ATOM     24  S   UNL d   1       4.542  -0.454 -14.611  0.00  0.00    -0.085 SA
ATOM     25  C   UNL d   1       4.795  -1.478 -15.998  0.00  0.00     0.035 A 
ATOM     26  C   UNL d   1       5.838  -1.028 -16.765  0.00  0.00     0.007 A 
ATOM     27  C   UNL d   1       6.461   0.143 -16.234  0.00  0.00     0.009 A 
ENDBRANCH  21  23
ENDBRANCH  17  18
ENDBRANCH  16  17
ENDBRANCH  15  16
ENDBRANCH   1  15
TORSDOF 7
