REMARK  9 active torsions:
REMARK  status: ('A' for Active; 'I' for Inactive)
REMARK    1  A    between atoms: C_2  and  C_3 
REMARK    2  A    between atoms: C_3  and  N_4 
REMARK    3  A    between atoms: N_4  and  C_5 
REMARK    4  A    between atoms: N_4  and  C_24 
REMARK    5  A    between atoms: C_5  and  C_6 
REMARK    6  A    between atoms: C_6  and  N_7 
REMARK    7  A    between atoms: N_10  and  C_11 
REMARK    8  A    between atoms: C_11  and  C_12 
REMARK    9  A    between atoms: C_12  and  C_13 
ROOT
ATOM      1  N   UNL d   1       9.680   5.607 -11.963  0.00  0.00     0.143 N 
ATOM      2  C   UNL d   1       9.058   6.933 -11.932  0.00  0.00     0.286 C 
ATOM      3  C   UNL d   1       9.628   7.806 -10.806  0.00  0.00     0.285 C 
ATOM      4  N   UNL d   1       9.466   7.175  -9.491  0.00  0.00     0.142 N 
ATOM      5  C   UNL d   1      10.053   5.845  -9.532  0.00  0.00     0.285 C 
ATOM      6  C   UNL d   1       9.471   4.993 -10.659  0.00  0.00     0.286 C 
ENDROOT
BRANCH   1   7
ATOM      7  C   UNL d   1       9.095   4.785 -13.003  0.00  0.00     0.274 C 
BRANCH   7   8
ATOM      8  C   UNL d   1       9.884   3.514 -13.370  0.00  0.00     0.137 C 
BRANCH   8   9
ATOM      9  N   UNL d   1       9.424   2.897 -14.617  0.00  0.00    -0.346 N 
BRANCH   9  10
ATOM     10  C   UNL d   1       9.712   3.547 -15.895  0.00  0.00     0.102 C 
BRANCH  10  11
ATOM     11  C   UNL d   1      11.175   4.010 -16.073  0.00  0.00     0.024 C 
ATOM     12  C   UNL d   1      12.161   2.843 -16.208  0.00  0.00     0.002 C 
ENDBRANCH  10  11
ENDBRANCH   9  10
BRANCH   9  13
ATOM     13  C   UNL d   1       8.209   2.181 -14.552  0.00  0.00     0.056 A 
ATOM     14  C   UNL d   1       7.024   2.784 -14.060  0.00  0.00     0.017 A 
ATOM     15  C   UNL d   1       5.864   2.009 -13.840  0.00  0.00     0.008 A 
ATOM     16  C   UNL d   1       5.826   0.656 -14.217  0.00  0.00     0.035 A 
ATOM     17  C   UNL d   1       6.972   0.064 -14.776  0.00  0.00     0.008 A 
ATOM     18 BR   UNL d   1       4.209  -0.340 -14.042  0.00  0.00    -0.049 Br
ATOM     19  C   UNL d   1       8.164   0.816 -14.928  0.00  0.00     0.017 A 
ENDBRANCH   9  13
ENDBRANCH   8   9
ENDBRANCH   7   8
ENDBRANCH   1   7
BRANCH   4  20
ATOM     20  C   UNL d   1      10.038   8.010  -8.445  0.00  0.00     0.255 C 
BRANCH  20  21
ATOM     21  C   UNL d   1      10.010   7.401  -7.036  0.00  0.00     0.063 C 
BRANCH  21  22
ATOM     22  C   UNL d   1      10.616   8.309  -6.022  0.00  0.00     0.000 A 
ATOM     23  C   UNL d   1      11.255   7.925  -4.794  0.00  0.00     0.015 A 
ATOM     24  C   UNL d   1      11.649   9.109  -4.110  0.00  0.00     0.081 A 
ATOM     25  C   UNL d   1      11.511   6.701  -4.141  0.00  0.00     0.001 A 
ATOM     26  N   UNL d   1      11.272  10.147  -4.928  0.00  0.00    -0.244 NA
ATOM     27  C   UNL d   1      12.275   9.078  -2.856  0.00  0.00     0.019 A 
ATOM     28  C   UNL d   1      10.673   9.675  -6.075  0.00  0.00     0.095 A 
ATOM     29  C   UNL d   1      12.523   7.844  -2.237  0.00  0.00     0.002 A 
ATOM     30  C   UNL d   1      12.138   6.656  -2.880  0.00  0.00     0.000 A 
ENDBRANCH  21  22
ENDBRANCH  20  21
ENDBRANCH   4  20
TORSDOF 9
