REMARK  2 active torsions:
REMARK  status: ('A' for Active; 'I' for Inactive)
REMARK    1  A    between atoms: C_6  and  C_7 
REMARK    2  A    between atoms: C_13  and  N_14 
ROOT
ATOM      1  C   UNL d   1       9.207   2.098 -15.572  0.00  0.00    -0.001 A 
ATOM      2  C   UNL d   1      10.602   1.915 -15.370  0.00  0.00     0.001 A 
ATOM      3  C   UNL d   1      11.354   1.199 -16.307  0.00  0.00     0.006 A 
ATOM      4  C   UNL d   1      10.739   0.541 -17.386  0.00  0.00     0.027 A 
ATOM      5  C   UNL d   1       9.330   0.658 -17.585  0.00  0.00     0.015 A 
ATOM      6  C   UNL d   1       8.605   1.497 -16.700  0.00  0.00    -0.002 A 
ATOM      7  C   UNL d   1       8.501  -0.090 -18.664  0.00  0.00     0.246 C 
ATOM      8  C   UNL d   1       9.234  -0.547 -19.945  0.00  0.00     0.065 C 
ATOM      9  C   UNL d   1      10.219   0.428 -20.526  0.00  0.00    -0.014 A 
ATOM     10  C   UNL d   1       9.912   1.148 -21.699  0.00  0.00    -0.004 A 
ATOM     11  C   UNL d   1      10.871   2.009 -22.260  0.00  0.00    -0.000 A 
ATOM     12  C   UNL d   1      12.131   2.155 -21.637  0.00  0.00     0.001 A 
ATOM     13  C   UNL d   1      12.439   1.432 -20.464  0.00  0.00     0.006 A 
ATOM     14  C   UNL d   1      11.481   0.560 -19.925  0.00  0.00     0.025 A 
ATOM     15  S   UNL d   1      11.807  -0.364 -18.470  0.00  0.00    -0.087 SA
ENDROOT
BRANCH   1  16
ATOM     16  C   UNL d   1       8.393   2.884 -14.615  0.00  0.00    -0.004 A 
ATOM     17  C   UNL d   1       7.095   2.417 -14.279  0.00  0.00    -0.000 A 
ATOM     18  C   UNL d   1       6.259   3.115 -13.382  0.00  0.00    -0.000 A 
ATOM     19  C   UNL d   1       6.723   4.296 -12.781  0.00  0.00    -0.005 A 
ATOM     20  C   UNL d   1       8.005   4.789 -13.093  0.00  0.00    -0.026 A 
ATOM     21  C   UNL d   1       8.480   6.062 -12.416  0.00  0.00     0.031 C 
ATOM     22  C   UNL d   1       8.839   4.104 -14.022  0.00  0.00    -0.026 A 
ATOM     23  C   UNL d   1      10.202   4.702 -14.378  0.00  0.00     0.031 C 
ENDBRANCH   1  16
BRANCH   7  24
ATOM     24  N   UNL d   1       7.709  -1.188 -18.057  0.00  0.00     0.144 N 
ATOM     25  C   UNL d   1       6.638  -0.739 -17.129  0.00  0.00     0.286 C 
ATOM     26  C   UNL d   1       5.498  -0.041 -17.933  0.00  0.00     0.286 C 
ATOM     27  N   UNL d   1       4.931  -0.933 -18.960  0.00  0.00     0.143 N 
ATOM     28  C   UNL d   1       5.989  -1.433 -19.836  0.00  0.00     0.286 C 
ATOM     29  C   UNL d   1       3.889  -0.274 -19.734  0.00  0.00     0.285 C 
ATOM     30  C   UNL d   1       7.097  -2.130 -19.028  0.00  0.00     0.286 C 
ENDBRANCH   7  24
TORSDOF 2
