REMARK  7 active torsions:
REMARK  status: ('A' for Active; 'I' for Inactive)
REMARK       I    between atoms: C_2  and  N_3 
REMARK    1  A    between atoms: C_2  and  C_27 
REMARK    2  A    between atoms: N_3  and  C_4 
REMARK    3  A    between atoms: C_7  and  C_8 
REMARK    4  A    between atoms: C_8  and  C_9 
REMARK    5  A    between atoms: C_9  and  N_10 
REMARK    6  A    between atoms: C_13  and  C_14 
REMARK    7  A    between atoms: C_30  and  C_31 
ROOT
ATOM      1  C   UNL d   1       8.149   4.622 -12.849  0.00  0.00     0.107 C 
ATOM      2  C   UNL d   1       9.258   3.646 -13.271  0.00  0.00     0.024 C 
ATOM      3  C   UNL d   1       8.876   2.893 -14.551  0.00  0.00     0.002 C 
ATOM      4  C   UNL d   1       7.529   2.159 -14.396  0.00  0.00     0.002 C 
ATOM      5  C   UNL d   1       6.417   3.128 -13.932  0.00  0.00     0.002 C 
ATOM      6  C   UNL d   1       6.803   3.902 -12.668  0.00  0.00     0.024 C 
ENDROOT
BRANCH   4   7
ATOM      7  C   UNL d   1       7.147   1.471 -15.712  0.00  0.00     0.035 C 
BRANCH   7   8
ATOM      8  C   UNL d   1       6.045   0.410 -15.552  0.00  0.00     0.250 C 
BRANCH   8   9
ATOM      9  N   UNL d   1       5.915  -0.398 -16.754  0.00  0.00     0.137 N 
ATOM     10  C   UNL d   1       5.015  -1.515 -16.473  0.00  0.00     0.251 C 
ATOM     11  C   UNL d   1       4.966  -2.470 -17.669  0.00  0.00     0.040 C 
ATOM     12  C   UNL d   1       4.498  -1.756 -18.952  0.00  0.00     0.026 C 
ATOM     13  C   UNL d   1       5.359  -0.488 -19.130  0.00  0.00     0.040 C 
ATOM     14  C   UNL d   1       5.398   0.380 -17.875  0.00  0.00     0.251 C 
BRANCH  12  15
ATOM     15  C   UNL d   1       4.539  -2.679 -20.177  0.00  0.00    -0.024 A 
ATOM     16  C   UNL d   1       3.731  -3.840 -20.266  0.00  0.00    -0.001 A 
ATOM     17  C   UNL d   1       3.773  -4.684 -21.369  0.00  0.00     0.090 A 
ATOM     18  C   UNL d   1       2.735  -4.383 -19.288  0.00  0.00     0.061 A 
ATOM     19  C   UNL d   1       4.631  -4.423 -22.452  0.00  0.00     0.024 A 
ATOM     20  O   UNL d   1       2.917  -5.742 -21.263  0.00  0.00    -0.331 OA
ATOM     21  C   UNL d   1       5.442  -3.269 -22.401  0.00  0.00     0.002 A 
ATOM     22  C   UNL d   1       5.394  -2.408 -21.283  0.00  0.00    -0.004 A 
ATOM     23  C   UNL d   1       2.179  -5.609 -20.038  0.00  0.00     0.154 A 
ENDBRANCH  12  15
ENDBRANCH   8   9
ENDBRANCH   7   8
ENDBRANCH   4   7
BRANCH   1  24
ATOM     24  N   UNL d   1       8.533   5.271 -11.605  0.00  0.00    -0.236 NA
ATOM     25  C   UNL d   1       9.060   6.496 -11.484  0.00  0.00     0.275 C 
ATOM     26  O   UNL d   1       9.191   7.269 -12.432  0.00  0.00    -0.266 OA
BRANCH  25  27
ATOM     27  C   UNL d   1       9.574   6.835 -10.106  0.00  0.00     0.058 A 
ATOM     28  C   UNL d   1       9.077   6.183  -8.952  0.00  0.00     0.005 A 
ATOM     29  C   UNL d   1       9.556   6.521  -7.674  0.00  0.00     0.000 A 
ATOM     30  C   UNL d   1      10.527   7.531  -7.506  0.00  0.00     0.002 A 
ATOM     31  C   UNL d   1      11.015   8.191  -8.654  0.00  0.00     0.000 A 
ATOM     32  C   UNL d   1      10.540   7.854  -9.939  0.00  0.00     0.005 A 
BRANCH  30  33
ATOM     33  C   UNL d   1      11.015   7.881  -6.159  0.00  0.00     0.019 A 
ATOM     34  C   UNL d   1      11.126   9.224  -5.738  0.00  0.00     0.099 A 
ATOM     35  N   UNL d   1      11.562   9.591  -4.514  0.00  0.00    -0.242 NA
ATOM     36  C   UNL d   1      11.925   8.622  -3.648  0.00  0.00     0.099 A 
ATOM     37  C   UNL d   1      11.859   7.253  -3.962  0.00  0.00     0.021 A 
ATOM     38  C   UNL d   1      11.393   6.885  -5.235  0.00  0.00     0.003 A 
ENDBRANCH  30  33
ENDBRANCH  25  27
ENDBRANCH   1  24
TORSDOF 7
