REMARK  13 active torsions:
REMARK  status: ('A' for Active; 'I' for Inactive)
REMARK    1  A    between atoms: C_2  and  C_3 
REMARK    2  A    between atoms: C_3  and  N_4 
REMARK    3  A    between atoms: N_4  and  C_5 
REMARK    4  A    between atoms: N_4  and  C_24 
REMARK    5  A    between atoms: C_5  and  C_6 
REMARK    6  A    between atoms: C_6  and  C_7 
REMARK    7  A    between atoms: C_7  and  C_8 
REMARK    8  A    between atoms: C_8  and  N_9 
REMARK       I    between atoms: N_9  and  C_10 
REMARK    9  A    between atoms: C_10  and  C_12 
REMARK   10  A    between atoms: C_15  and  C_16 
REMARK   11  A    between atoms: C_24  and  C_25 
REMARK   12  A    between atoms: C_27  and  C_28 
REMARK   13  A    between atoms: C_34  and  O_35 
ROOT
ATOM      1  C   UNL d   1       7.302   1.754 -14.367  0.00  0.00     0.250 C 
ENDROOT
BRANCH   1   2
ATOM      2  N   UNL d   1       6.632   1.183 -15.541  0.00  0.00     0.137 N 
BRANCH   2   3
ATOM      3  C   UNL d   1       5.594   0.247 -15.094  0.00  0.00     0.250 C 
BRANCH   3   4
ATOM      4  C   UNL d   1       4.844  -0.426 -16.265  0.00  0.00     0.035 C 
ATOM      5  C   UNL d   1       3.545  -1.121 -15.856  0.00  0.00     0.002 C 
ENDBRANCH   3   4
ENDBRANCH   2   3
BRANCH   2   6
ATOM      6  C   UNL d   1       7.592   0.507 -16.430  0.00  0.00     0.251 C 
BRANCH   6   7
ATOM      7  C   UNL d   1       8.630   1.432 -17.017  0.00  0.00     0.038 A 
ATOM      8  C   UNL d   1      10.101   1.144 -16.829  0.00  0.00     0.026 A 
ATOM      9  C   UNL d   1       9.458   0.905 -18.171  0.00  0.00     0.007 A 
BRANCH   8  10
ATOM     10  C   UNL d   1      11.079   2.262 -16.614  0.00  0.00     0.002 A 
ATOM     11  C   UNL d   1      12.186   2.384 -17.478  0.00  0.00     0.090 A 
ATOM     12  C   UNL d   1      13.078   3.477 -17.296  0.00  0.00     0.026 A 
ATOM     13  C   UNL d   1      12.861   4.409 -16.268  0.00  0.00     0.032 A 
ATOM     14  C   UNL d   1      11.757   4.277 -15.418  0.00  0.00     0.140 A 
ATOM     15  C   UNL d   1      10.867   3.202 -15.590  0.00  0.00     0.027 A 
ATOM     16  F   UNL d   1      11.539   5.190 -14.449  0.00  0.00    -0.204 F 
BRANCH  11  17
ATOM     17  O   UNL d   1      12.359   1.415 -18.445  0.00  0.00    -0.328 OA
ATOM     18  C   UNL d   1      13.417   1.566 -19.372  0.00  0.00     0.181 C 
ENDBRANCH  11  17
ENDBRANCH   8  10
ENDBRANCH   6   7
ENDBRANCH   2   6
ENDBRANCH   1   2
BRANCH   1  19
ATOM     19  C   UNL d   1       6.454   2.857 -13.690  0.00  0.00     0.037 C 
BRANCH  19  20
ATOM     20  C   UNL d   1       7.216   3.647 -12.609  0.00  0.00     0.029 C 
BRANCH  20  21
ATOM     21  C   UNL d   1       7.011   5.163 -12.657  0.00  0.00     0.129 C 
BRANCH  21  22
ATOM     22  N   UNL d   1       7.683   5.821 -11.540  0.00  0.00    -0.234 NA
ATOM     23  C   UNL d   1       9.014   5.937 -11.402  0.00  0.00     0.275 C 
ATOM     24  O   UNL d   1       9.822   5.576 -12.253  0.00  0.00    -0.266 OA
BRANCH  23  25
ATOM     25  C   UNL d   1       9.476   6.503 -10.093  0.00  0.00     0.058 A 
ATOM     26  C   UNL d   1      10.341   7.620 -10.063  0.00  0.00     0.005 A 
ATOM     27  C   UNL d   1      10.791   8.142  -8.834  0.00  0.00     0.002 A 
ATOM     28  C   UNL d   1      10.389   7.562  -7.609  0.00  0.00     0.018 A 
ATOM     29  C   UNL d   1       9.519   6.453  -7.648  0.00  0.00     0.002 A 
ATOM     30  C   UNL d   1       9.059   5.929  -8.874  0.00  0.00     0.005 A 
BRANCH  28  31
ATOM     31  C   UNL d   1      10.864   8.098  -6.321  0.00  0.00     0.081 A 
ATOM     32  N   UNL d   1      10.739   9.433  -6.156  0.00  0.00    -0.244 NA
ATOM     33  C   UNL d   1      11.148   9.983  -4.997  0.00  0.00     0.099 A 
ATOM     34  C   UNL d   1      11.716   9.238  -3.944  0.00  0.00     0.021 A 
ATOM     35  C   UNL d   1      11.857   7.847  -4.112  0.00  0.00     0.003 A 
ATOM     36  C   UNL d   1      11.407   7.266  -5.312  0.00  0.00     0.019 A 
ENDBRANCH  28  31
ENDBRANCH  23  25
ENDBRANCH  21  22
ENDBRANCH  20  21
ENDBRANCH  19  20
ENDBRANCH   1  19
TORSDOF 13
