REMARK  7 active torsions:
REMARK  status: ('A' for Active; 'I' for Inactive)
REMARK    1  A    between atoms: C_4  and  N_5 
REMARK    2  A    between atoms: N_5  and  S_6 
REMARK    3  A    between atoms: S_6  and  C_9 
REMARK    4  A    between atoms: N_20  and  C_21 
REMARK    5  A    between atoms: C_21  and  C_22 
REMARK    6  A    between atoms: C_22  and  C_23 
REMARK    7  A    between atoms: C_23  and  C_24 
ROOT
ATOM      1  C   UNL d   1       5.200   1.765 -13.178  0.00  0.00     0.035 C 
ATOM      2  C   UNL d   1       6.002   3.053 -13.398  0.00  0.00     0.221 C 
ATOM      3  C   UNL d   1       6.124   3.869 -12.111  0.00  0.00     0.060 C 
ATOM      4  C   UNL d   1       7.505   4.485 -12.207  0.00  0.00     0.151 C 
ATOM      5  C   UNL d   1       8.054   4.063 -13.556  0.00  0.00     0.275 C 
ATOM      6  N   UNL d   1       7.387   2.789 -13.787  0.00  0.00     0.137 N 
ENDROOT
BRANCH   4   7
ATOM      7  N   UNL d   1       7.441   5.954 -12.077  0.00  0.00    -0.185 NA
BRANCH   7   8
ATOM      8  S   UNL d   1       8.873   6.914 -12.044  0.00  0.00     0.281 S 
ATOM      9  O   UNL d   1       9.847   6.172 -12.867  0.00  0.00    -0.199 OA
ATOM     10  O   UNL d   1       8.518   8.288 -12.423  0.00  0.00    -0.199 OA
BRANCH   8  11
ATOM     11  C   UNL d   1       9.457   6.871 -10.354  0.00  0.00     0.105 A 
ATOM     12  C   UNL d   1      10.158   7.995  -9.845  0.00  0.00     0.013 A 
ATOM     13  C   UNL d   1      10.515   7.997  -8.473  0.00  0.00     0.001 A 
ATOM     14  C   UNL d   1      10.193   6.882  -7.655  0.00  0.00     0.000 A 
ATOM     15  C   UNL d   1      11.170   9.100  -7.902  0.00  0.00     0.000 A 
ATOM     16  C   UNL d   1       9.513   5.789  -8.203  0.00  0.00     0.001 A 
ATOM     17  C   UNL d   1      10.536   6.867  -6.289  0.00  0.00     0.000 A 
ATOM     18  C   UNL d   1       9.118   5.777  -9.530  0.00  0.00     0.013 A 
ATOM     19  C   UNL d   1      11.195   7.970  -5.728  0.00  0.00     0.000 A 
ATOM     20  C   UNL d   1      11.511   9.084  -6.533  0.00  0.00     0.000 A 
ENDBRANCH   8  11
ENDBRANCH   7   8
ENDBRANCH   4   7
BRANCH   6  21
ATOM     21  C   UNL d   1       7.575   2.339 -15.156  0.00  0.00     0.251 C 
BRANCH  21  22
ATOM     22  C   UNL d   1       7.589   0.796 -15.247  0.00  0.00     0.042 C 
BRANCH  22  23
ATOM     23  C   UNL d   1       8.031   0.322 -16.634  0.00  0.00     0.050 C 
BRANCH  23  24
ATOM     24  C   UNL d   1       6.889   0.331 -17.619  0.00  0.00     0.088 A 
ATOM     25  C   UNL d   1       5.996  -0.693 -18.015  0.00  0.00     0.041 A 
ATOM     26  C   UNL d   1       5.122  -0.205 -18.982  0.00  0.00     0.129 A 
ATOM     27  C   UNL d   1       5.872  -2.033 -17.603  0.00  0.00     0.006 A 
ATOM     28  O   UNL d   1       5.494   1.122 -19.153  0.00  0.00    -0.211 OA
ATOM     29  C   UNL d   1       4.127  -1.006 -19.576  0.00  0.00     0.057 A 
ATOM     30  N   UNL d   1       6.593   1.435 -18.299  0.00  0.00    -0.131 NA
ATOM     31  C   UNL d   1       4.029  -2.362 -19.170  0.00  0.00     0.142 A 
ATOM     32  F   UNL d   1       3.122  -3.211 -19.713  0.00  0.00    -0.204 F 
ATOM     33  C   UNL d   1       4.896  -2.864 -18.182  0.00  0.00     0.030 A 
ENDBRANCH  23  24
ENDBRANCH  22  23
ENDBRANCH  21  22
ENDBRANCH   6  21
TORSDOF 7
