REMARK  2 active torsions:
REMARK  status: ('A' for Active; 'I' for Inactive)
REMARK    1  A    between atoms: O_2  and  C_3 
REMARK    2  A    between atoms: C_3  and  C_5 
ROOT
ATOM      1  C   UNL d   1       6.419  -0.514 -19.136  0.00  0.00     0.117 C 
ATOM      2  C   UNL d   1       6.048  -1.875 -19.791  0.00  0.00     0.162 C 
ATOM      3  O   UNL d   1       7.019  -2.889 -19.514  0.00  0.00    -0.223 OA
ATOM      4  C   UNL d   1       4.684  -2.360 -19.265  0.00  0.00     0.034 C 
ATOM      5  C   UNL d   1       4.660  -2.431 -17.731  0.00  0.00     0.005 C 
ATOM      6  C   UNL d   1       5.033  -1.079 -17.099  0.00  0.00     0.034 C 
ATOM      7  C   UNL d   1       4.988  -1.144 -15.561  0.00  0.00     0.251 C 
ATOM      8  N   UNL d   1       5.254   0.183 -15.003  0.00  0.00     0.141 N 
ATOM      9  C   UNL d   1       5.073   0.166 -13.547  0.00  0.00     0.255 C 
ATOM     10  C   UNL d   1       5.119   1.604 -12.972  0.00  0.00     0.063 C 
ATOM     11  C   UNL d   1       6.255   2.370 -13.549  0.00  0.00    -0.003 A 
ATOM     12  C   UNL d   1       6.937   1.915 -14.642  0.00  0.00     0.086 A 
ATOM     13  N   UNL d   1       7.981   2.775 -14.917  0.00  0.00    -0.248 NA
ATOM     14  C   UNL d   1       7.976   3.837 -14.024  0.00  0.00     0.081 A 
ATOM     15  C   UNL d   1       8.799   4.965 -13.895  0.00  0.00     0.019 A 
ATOM     16  C   UNL d   1       8.554   5.887 -12.857  0.00  0.00     0.002 A 
ATOM     17  C   UNL d   1       7.489   5.667 -11.962  0.00  0.00     0.000 A 
ATOM     18  C   UNL d   1       6.662   4.536 -12.104  0.00  0.00     0.001 A 
ATOM     19  C   UNL d   1       6.880   3.599 -13.142  0.00  0.00     0.015 A 
ATOM     20  C   UNL d   1       6.614   0.636 -15.360  0.00  0.00     0.259 C 
ATOM     21  C   UNL d   1       6.702   0.768 -16.892  0.00  0.00     0.040 C 
ATOM     22  C   UNL d   1       6.419  -0.587 -17.579  0.00  0.00     0.016 C 
ENDROOT
BRANCH   1  23
ATOM     23  C   UNL d   1       7.694   0.063 -19.780  0.00  0.00     0.274 C 
ATOM     24  O   UNL d   1       8.780  -0.026 -19.207  0.00  0.00    -0.264 OA
BRANCH  23  25
ATOM     25  O   UNL d   1       7.535   0.634 -20.990  0.00  0.00    -0.299 OA
ATOM     26  C   UNL d   1       6.258   0.755 -21.596  0.00  0.00     0.184 C 
ENDBRANCH  23  25
ENDBRANCH   1  23
TORSDOF 2
