REMARK  4 active torsions:
REMARK  status: ('A' for Active; 'I' for Inactive)
REMARK    1  A    between atoms: C_8  and  C_9 
REMARK    2  A    between atoms: C_9  and  C_10 
REMARK    3  A    between atoms: C_10  and  N_11 
REMARK    4  A    between atoms: C_14  and  C_15 
ROOT
ATOM      1  N   UNL d   1       9.813   2.462 -14.731  0.00  0.00     0.137 N 
ATOM      2  C   UNL d   1      11.260   2.284 -14.897  0.00  0.00     0.251 C 
ATOM      3  C   UNL d   1      11.985   3.606 -14.565  0.00  0.00     0.041 C 
ATOM      4  C   UNL d   1      11.548   4.753 -15.494  0.00  0.00     0.047 C 
ATOM      5  C   UNL d   1      10.022   4.849 -15.333  0.00  0.00     0.041 C 
ATOM      6  C   UNL d   1       9.369   3.490 -15.664  0.00  0.00     0.251 C 
ENDROOT
BRANCH   1   7
ATOM      7  C   UNL d   1       9.124   1.218 -15.059  0.00  0.00     0.255 C 
BRANCH   7   8
ATOM      8  C   UNL d   1       7.611   1.306 -14.721  0.00  0.00     0.068 C 
BRANCH   8   9
ATOM      9  C   UNL d   1       6.739   0.515 -15.690  0.00  0.00     0.050 A 
ATOM     10  C   UNL d   1       5.998  -0.548 -15.285  0.00  0.00     0.061 A 
ATOM     11  C   UNL d   1       6.048  -1.079 -13.870  0.00  0.00     0.052 C 
ATOM     12  N   UNL d   1       5.144  -1.211 -16.163  0.00  0.00    -0.234 NA
ATOM     13  C   UNL d   1       5.046  -0.824 -17.387  0.00  0.00     0.155 A 
ATOM     14  C   UNL d   1       4.104  -1.562 -18.344  0.00  0.00     0.217 C 
ATOM     15  N   UNL d   1       5.762   0.302 -17.888  0.00  0.00    -0.282 N 
ATOM     16  C   UNL d   1       4.307  -1.280 -19.829  0.00  0.00     0.045 C 
ATOM     17  F   UNL d   1       4.210  -2.881 -18.185  0.00  0.00    -0.229 F 
ATOM     18  C   UNL d   1       4.387   0.216 -20.041  0.00  0.00     0.028 C 
ATOM     19  C   UNL d   1       5.612   0.751 -19.293  0.00  0.00     0.111 C 
ATOM     20  C   UNL d   1       6.639   0.974 -17.087  0.00  0.00     0.259 A 
ATOM     21  O   UNL d   1       7.293   1.933 -17.524  0.00  0.00    -0.267 OA
ENDBRANCH   8   9
ENDBRANCH   7   8
ENDBRANCH   1   7
BRANCH   4  22
ATOM     22  C   UNL d   1      11.959   4.519 -16.942  0.00  0.00     0.087 A 
ATOM     23  C   UNL d   1      11.247   4.575 -18.183  0.00  0.00     0.041 A 
ATOM     24  C   UNL d   1      12.114   4.233 -19.228  0.00  0.00     0.129 A 
ATOM     25  C   UNL d   1       9.894   4.892 -18.497  0.00  0.00     0.006 A 
ATOM     26  O   UNL d   1      13.340   3.984 -18.617  0.00  0.00    -0.211 OA
ATOM     27  C   UNL d   1      11.733   4.183 -20.582  0.00  0.00     0.057 A 
ATOM     28  N   UNL d   1      13.231   4.199 -17.218  0.00  0.00    -0.131 NA
ATOM     29  C   UNL d   1      10.392   4.503 -20.882  0.00  0.00     0.142 A 
ATOM     30  F   UNL d   1       9.966   4.471 -22.178  0.00  0.00    -0.204 F 
ATOM     31  C   UNL d   1       9.483   4.849 -19.846  0.00  0.00     0.030 A 
ENDBRANCH   4  22
TORSDOF 4
