REMARK  6 active torsions:
REMARK  status: ('A' for Active; 'I' for Inactive)
REMARK    1  A    between atoms: C_2  and  C_5 
REMARK    2  A    between atoms: C_9  and  N_10 
REMARK    3  A    between atoms: N_13  and  C_14 
REMARK    4  A    between atoms: C_14  and  C_15 
REMARK    5  A    between atoms: C_15  and  O_16 
REMARK    6  A    between atoms: O_16  and  C_17 
ROOT
ATOM      1  N   UNL d   1      10.986   7.364  -7.438  0.00  0.00    -0.344 N 
ATOM      2  C   UNL d   1      10.595   5.968  -7.411  0.00  0.00     0.137 C 
ATOM      3  C   UNL d   1       9.385   5.702  -8.316  0.00  0.00     0.274 C 
ATOM      4  N   UNL d   1       9.666   6.149  -9.679  0.00  0.00     0.144 N 
ATOM      5  C   UNL d   1       9.932   7.596  -9.642  0.00  0.00     0.274 C 
ATOM      6  C   UNL d   1      11.165   7.911  -8.782  0.00  0.00     0.137 C 
ENDROOT
BRANCH   4   7
ATOM      7  C   UNL d   1       8.502   5.837 -10.506  0.00  0.00     0.283 C 
BRANCH   7   8
ATOM      8  C   UNL d   1       8.757   6.214 -11.976  0.00  0.00     0.184 C 
BRANCH   8   9
ATOM      9  O   UNL d   1       7.786   5.586 -12.807  0.00  0.00    -0.329 OA
BRANCH   9  10
ATOM     10  C   UNL d   1       8.053   4.361 -13.379  0.00  0.00     0.096 A 
ATOM     11  C   UNL d   1       9.363   3.881 -13.625  0.00  0.00     0.047 A 
ATOM     12  C   UNL d   1       9.524   2.646 -14.265  0.00  0.00     0.126 A 
ATOM     13  C   UNL d   1       8.438   1.845 -14.681  0.00  0.00     0.124 A 
ATOM     14  N   UNL d   1      10.595   1.877 -14.662  0.00  0.00    -0.127 NA
ATOM     15  C   UNL d   1       7.130   2.332 -14.440  0.00  0.00     0.025 A 
ATOM     16  N   UNL d   1       8.911   0.683 -15.277  0.00  0.00    -0.127 NA
ATOM     17  C   UNL d   1       6.947   3.576 -13.788  0.00  0.00     0.026 A 
ATOM     18  N   UNL d   1      10.212   0.712 -15.247  0.00  0.00    -0.042 NA
ENDBRANCH   9  10
ENDBRANCH   8   9
ENDBRANCH   7   8
ENDBRANCH   4   7
BRANCH   1  19
ATOM     19  C   UNL d   1      11.118   8.093  -6.255  0.00  0.00     0.056 A 
ATOM     20  C   UNL d   1      10.901   9.486  -6.243  0.00  0.00     0.017 A 
ATOM     21  C   UNL d   1      11.064  10.224  -5.058  0.00  0.00     0.001 A 
ATOM     22  C   UNL d   1      11.460   9.591  -3.869  0.00  0.00     0.004 A 
ATOM     23  C   UNL d   1      11.690   8.205  -3.853  0.00  0.00     0.073 A 
ATOM     24  C   UNL d   1      11.490   7.463  -5.035  0.00  0.00     0.021 A 
BRANCH  23  25
ATOM     25  C   UNL d   1      12.117   7.503  -2.573  0.00  0.00     0.419 C 
ATOM     26  F   UNL d   1      13.042   6.592  -2.836  0.00  0.00    -0.166 F 
ATOM     27  F   UNL d   1      11.065   6.880  -2.043  0.00  0.00    -0.166 F 
ATOM     28  F   UNL d   1      12.619   8.355  -1.673  0.00  0.00    -0.166 F 
ENDBRANCH  23  25
ENDBRANCH   1  19
TORSDOF 6
