REMARK  0 active torsions:
REMARK  status: ('A' for Active; 'I' for Inactive)
ROOT
ATOM      1  C   UNL d   1       5.363   0.699 -14.363  0.00  0.00     0.286 C 
ATOM      2  N   UNL d   1       6.174   1.673 -13.641  0.00  0.00     0.142 N 
ATOM      3  C   UNL d   1       5.343   2.803 -13.235  0.00  0.00     0.255 C 
ATOM      4  C   UNL d   1       6.093   3.669 -12.227  0.00  0.00     0.061 C 
ATOM      5  C   UNL d   1       7.432   4.159 -12.745  0.00  0.00    -0.022 A 
ATOM      6  C   UNL d   1       8.122   5.301 -12.323  0.00  0.00    -0.003 A 
ATOM      7  C   UNL d   1       9.367   5.604 -12.900  0.00  0.00     0.019 A 
ATOM      8  C   UNL d   1       9.989   4.784 -13.874  0.00  0.00     0.081 A 
ATOM      9  N   UNL d   1      11.164   5.139 -14.438  0.00  0.00    -0.244 NA
ATOM     10  C   UNL d   1      11.737   4.350 -15.360  0.00  0.00     0.099 A 
ATOM     11  C   UNL d   1      11.220   3.109 -15.762  0.00  0.00     0.019 A 
ATOM     12  C   UNL d   1      11.860   2.283 -16.707  0.00  0.00     0.002 A 
ATOM     13  C   UNL d   1      11.334   1.028 -17.045  0.00  0.00    -0.000 A 
ATOM     14  C   UNL d   1      10.166   0.577 -16.412  0.00  0.00    -0.004 A 
ATOM     15  C   UNL d   1       9.509   1.397 -15.475  0.00  0.00    -0.020 A 
ATOM     16  C   UNL d   1      10.004   2.689 -15.162  0.00  0.00    -0.001 A 
ATOM     17  C   UNL d   1       9.340   3.572 -14.261  0.00  0.00     0.015 A 
ATOM     18  C   UNL d   1       8.056   3.338 -13.707  0.00  0.00     0.006 A 
ATOM     19  C   UNL d   1       7.340   2.154 -14.389  0.00  0.00     0.246 C 
ATOM     20  C   UNL d   1       8.299   0.986 -14.673  0.00  0.00     0.064 C 
ENDROOT
TORSDOF 0
