REMARK  8 active torsions:
REMARK  status: ('A' for Active; 'I' for Inactive)
REMARK    1  A    between atoms: C_3  and  S_4 
REMARK    2  A    between atoms: S_4  and  C_5 
REMARK    3  A    between atoms: C_5  and  C_6 
REMARK    4  A    between atoms: C_6  and  C_7 
REMARK    5  A    between atoms: C_7  and  N_8 
REMARK    6  A    between atoms: C_13  and  C_14 
REMARK    7  A    between atoms: C_17  and  C_18 
REMARK    8  A    between atoms: C_27  and  C_28 
ROOT
ATOM      1  N   UNL d   1       7.865   2.173 -14.363  0.00  0.00     0.137 N 
ATOM      2  C   UNL d   1       7.041   1.593 -15.415  0.00  0.00     0.250 C 
ATOM      3  C   UNL d   1       8.028   0.715 -16.188  0.00  0.00     0.038 C 
ATOM      4  C   UNL d   1       9.388   1.319 -15.933  0.00  0.00     0.037 A 
ATOM      5  C   UNL d   1      10.613   0.428 -15.729  0.00  0.00     0.007 A 
ATOM      6  C   UNL d   1      10.543   1.357 -16.933  0.00  0.00     0.024 A 
ATOM      7  C   UNL d   1       9.095   2.496 -15.049  0.00  0.00     0.251 C 
ENDROOT
BRANCH   1   8
ATOM      8  C   UNL d   1       7.282   3.338 -13.693  0.00  0.00     0.251 C 
BRANCH   8   9
ATOM      9  C   UNL d   1       8.306   4.132 -12.838  0.00  0.00     0.047 C 
BRANCH   9  10
ATOM     10  C   UNL d   1       7.687   5.393 -12.222  0.00  0.00     0.067 C 
BRANCH  10  11
ATOM     11  S   UNL d   1       8.934   6.704 -12.071  0.00  0.00    -0.075 SA
BRANCH  11  12
ATOM     12  C   UNL d   1       9.402   6.504 -10.388  0.00  0.00     0.193 A 
ATOM     13  N   UNL d   1       9.876   7.538  -9.661  0.00  0.00    -0.289 N 
ATOM     14  C   UNL d   1      10.107   8.915 -10.069  0.00  0.00     0.134 C 
ATOM     15  C   UNL d   1      10.047   6.961  -8.442  0.00  0.00     0.169 A 
ATOM     16  N   UNL d   1       9.699   5.674  -8.434  0.00  0.00    -0.128 NA
ATOM     17  N   UNL d   1       9.308   5.361  -9.713  0.00  0.00    -0.122 NA
BRANCH  15  18
ATOM     18  C   UNL d   1      10.572   7.625  -7.256  0.00  0.00     0.063 A 
ATOM     19  C   UNL d   1      10.405   7.209  -5.957  0.00  0.00     0.126 A 
ATOM     20  O   UNL d   1      11.059   8.053  -5.117  0.00  0.00    -0.303 OA
ATOM     21  C   UNL d   1      11.635   9.017  -5.899  0.00  0.00     0.123 A 
ATOM     22  C   UNL d   1      11.384   8.787  -7.220  0.00  0.00     0.032 A 
ENDBRANCH  15  18
ENDBRANCH  11  12
ENDBRANCH  10  11
ENDBRANCH   9  10
ENDBRANCH   8   9
ENDBRANCH   1   8
BRANCH   6  23
ATOM     23  C   UNL d   1      11.411   2.596 -17.041  0.00  0.00    -0.022 A 
ATOM     24  C   UNL d   1      11.661   3.184 -18.302  0.00  0.00    -0.004 A 
ATOM     25  C   UNL d   1      12.449   4.355 -18.401  0.00  0.00     0.004 A 
ATOM     26  C   UNL d   1      12.966   4.966 -17.235  0.00  0.00     0.071 A 
ATOM     27  C   UNL d   1      12.704   4.384 -15.979  0.00  0.00     0.004 A 
ATOM     28  C   UNL d   1      11.966   3.199 -15.885  0.00  0.00    -0.004 A 
BRANCH  26  29
ATOM     29  C   UNL d   1      13.830   6.210 -17.294  0.00  0.00     0.419 C 
ATOM     30  F   UNL d   1      13.486   7.058 -16.323  0.00  0.00    -0.166 F 
ATOM     31  F   UNL d   1      15.106   5.862 -17.121  0.00  0.00    -0.166 F 
ATOM     32  F   UNL d   1      13.698   6.824 -18.470  0.00  0.00    -0.166 F 
ENDBRANCH  26  29
ENDBRANCH   6  23
TORSDOF 8
