REMARK  7 active torsions:
REMARK  status: ('A' for Active; 'I' for Inactive)
REMARK    1  A    between atoms: O_2  and  C_3 
REMARK    2  A    between atoms: C_6  and  O_7 
REMARK    3  A    between atoms: O_7  and  C_8 
REMARK    4  A    between atoms: C_8  and  C_10 
REMARK    5  A    between atoms: C_10  and  N_11 
REMARK       I    between atoms: N_14  and  C_15 
REMARK    6  A    between atoms: C_15  and  C_17 
REMARK    7  A    between atoms: C_20  and  O_21 
ROOT
ATOM      1  N   UNL d   1      10.123   4.590 -14.031  0.00  0.00     0.144 N 
ATOM      2  C   UNL d   1      11.223   3.691 -14.379  0.00  0.00     0.274 C 
ATOM      3  C   UNL d   1      11.835   4.115 -15.725  0.00  0.00     0.140 C 
ATOM      4  N   UNL d   1      10.811   4.130 -16.783  0.00  0.00    -0.312 N 
ATOM      5  C   UNL d   1      10.866   3.485 -17.967  0.00  0.00     0.257 C 
ATOM      6  O   UNL d   1       9.887   3.320 -18.699  0.00  0.00    -0.267 OA
ATOM      7  C   UNL d   1       9.640   4.922 -16.421  0.00  0.00     0.140 C 
ATOM      8  C   UNL d   1       9.092   4.460 -15.067  0.00  0.00     0.274 C 
ENDROOT
BRANCH   1   9
ATOM      9  C   UNL d   1       9.557   4.202 -12.741  0.00  0.00     0.280 C 
BRANCH   9  10
ATOM     10  C   UNL d   1       8.876   5.346 -11.955  0.00  0.00     0.155 C 
ATOM     11  C   UNL d   1       7.616   5.946 -12.587  0.00  0.00     0.035 C 
BRANCH  10  12
ATOM     12  O   UNL d   1       9.802   6.406 -11.630  0.00  0.00    -0.331 OA
BRANCH  12  13
ATOM     13  C   UNL d   1      10.041   6.763 -10.317  0.00  0.00     0.094 A 
ATOM     14  C   UNL d   1      10.811   7.924 -10.019  0.00  0.00     0.026 A 
ATOM     15  C   UNL d   1      11.111   8.285  -8.687  0.00  0.00     0.026 A 
ATOM     16  C   UNL d   1      10.641   7.497  -7.612  0.00  0.00     0.094 A 
ATOM     17  C   UNL d   1       9.865   6.350  -7.927  0.00  0.00     0.026 A 
ATOM     18  C   UNL d   1       9.579   5.979  -9.236  0.00  0.00     0.026 A 
BRANCH  16  19
ATOM     19  O   UNL d   1      10.966   7.870  -6.324  0.00  0.00    -0.328 OA
ATOM     20  C   UNL d   1      10.680   6.918  -5.310  0.00  0.00     0.181 C 
ENDBRANCH  16  19
ENDBRANCH  12  13
ENDBRANCH  10  12
ENDBRANCH   9  10
ENDBRANCH   1   9
BRANCH   5  21
ATOM     21  C   UNL d   1      12.184   2.931 -18.403  0.00  0.00     0.056 A 
ATOM     22  C   UNL d   1      13.351   3.736 -18.429  0.00  0.00     0.007 A 
ATOM     23  C   UNL d   1      14.575   3.188 -18.869  0.00  0.00     0.024 A 
ATOM     24  C   UNL d   1      14.642   1.843 -19.299  0.00  0.00     0.094 A 
ATOM     25  C   UNL d   1      13.458   1.063 -19.279  0.00  0.00     0.024 A 
ATOM     26  C   UNL d   1      12.250   1.602 -18.841  0.00  0.00     0.007 A 
BRANCH  24  27
ATOM     27  O   UNL d   1      15.862   1.330 -19.708  0.00  0.00    -0.328 OA
ATOM     28  C   UNL d   1      15.895  -0.043 -20.093  0.00  0.00     0.181 C 
ENDBRANCH  24  27
ENDBRANCH   5  21
TORSDOF 7
