REMARK  4 active torsions:
REMARK  status: ('A' for Active; 'I' for Inactive)
REMARK    1  A    between atoms: C_2  and  C_3 
REMARK       I    between atoms: C_2  and  N_16 
REMARK    2  A    between atoms: C_3  and  N_4 
REMARK    3  A    between atoms: N_7  and  C_8 
REMARK    4  A    between atoms: N_16  and  C_17 
ROOT
ATOM      1  N   UNL d   1      10.344   7.222  -8.360  0.00  0.00     0.151 N 
ATOM      2  C   UNL d   1      10.496   8.598  -7.857  0.00  0.00     0.275 C 
ATOM      3  C   UNL d   1      11.709   8.658  -6.934  0.00  0.00     0.138 C 
ATOM      4  N   UNL d   1      11.451   7.713  -5.850  0.00  0.00    -0.330 N 
ATOM      5  C   UNL d   1      11.333   6.349  -6.304  0.00  0.00     0.138 C 
ATOM      6  C   UNL d   1      10.128   6.310  -7.220  0.00  0.00     0.275 C 
ENDROOT
BRANCH   1   7
ATOM      7  C   UNL d   1       9.162   7.148  -9.222  0.00  0.00     0.339 C 
BRANCH   7   8
ATOM      8  C   UNL d   1       9.062   5.928 -10.155  0.00  0.00     0.290 C 
ATOM      9  O   UNL d   1       9.831   4.975 -10.083  0.00  0.00    -0.268 OA
ATOM     10  N   UNL d   1       8.063   5.979 -11.041  0.00  0.00    -0.208 NA
BRANCH  10  11
ATOM     11  C   UNL d   1       7.718   5.034 -12.028  0.00  0.00     0.103 A 
ATOM     12  C   UNL d   1       6.359   4.839 -12.347  0.00  0.00     0.118 A 
ATOM     13  N   UNL d   1       5.928   3.973 -13.290  0.00  0.00    -0.241 NA
ATOM     14  C   UNL d   1       6.861   3.278 -13.977  0.00  0.00     0.099 A 
ATOM     15  C   UNL d   1       8.246   3.419 -13.761  0.00  0.00     0.022 A 
ATOM     16  C   UNL d   1       8.685   4.306 -12.760  0.00  0.00     0.022 A 
ENDBRANCH  10  11
ENDBRANCH   7   8
ENDBRANCH   1   7
BRANCH   4  17
ATOM     17  C   UNL d   1      11.779   8.030  -4.512  0.00  0.00     0.140 A 
ATOM     18  N   UNL d   1      11.669   9.330  -4.187  0.00  0.00    -0.227 NA
ATOM     19  C   UNL d   1      11.902   9.684  -2.913  0.00  0.00     0.101 A 
ATOM     20  C   UNL d   1      12.259   8.789  -1.907  0.00  0.00     0.021 A 
ATOM     21  C   UNL d   1      12.354   7.430  -2.229  0.00  0.00     0.005 A 
ATOM     22  C   UNL d   1      12.141   7.045  -3.560  0.00  0.00     0.037 A 
ENDBRANCH   4  17
TORSDOF 4
