REMARK  8 active torsions:
REMARK  status: ('A' for Active; 'I' for Inactive)
REMARK    1  A    between atoms: C_3  and  S_4 
REMARK    2  A    between atoms: S_4  and  C_5 
REMARK    3  A    between atoms: C_5  and  C_6 
REMARK    4  A    between atoms: C_6  and  C_7 
REMARK    5  A    between atoms: C_7  and  N_8 
REMARK    6  A    between atoms: C_13  and  C_14 
REMARK    7  A    between atoms: C_17  and  C_18 
REMARK    8  A    between atoms: C_27  and  C_28 
ROOT
ATOM      1  N   UNL d   1       9.170   5.589 -10.260  0.00  0.00     0.137 N 
ATOM      2  C   UNL d   1       8.156   5.643  -9.233  0.00  0.00     0.250 C 
ATOM      3  C   UNL d   1       8.664   6.671  -8.264  0.00  0.00     0.038 C 
ATOM      4  C   UNL d   1       9.550   7.585  -9.062  0.00  0.00     0.037 A 
ATOM      5  C   UNL d   1       9.581   9.091  -8.844  0.00  0.00     0.007 A 
ATOM      6  C   UNL d   1      10.783   8.261  -8.486  0.00  0.00     0.024 A 
ATOM      7  C   UNL d   1       9.494   7.001 -10.455  0.00  0.00     0.251 C 
ENDROOT
BRANCH   1   8
ATOM      8  C   UNL d   1       8.654   4.966 -11.478  0.00  0.00     0.251 C 
BRANCH   8   9
ATOM      9  C   UNL d   1       9.803   4.275 -12.225  0.00  0.00     0.047 C 
BRANCH   9  10
ATOM     10  C   UNL d   1       9.352   3.585 -13.529  0.00  0.00     0.067 C 
BRANCH  10  11
ATOM     11  S   UNL d   1      10.658   2.641 -14.373  0.00  0.00    -0.075 SA
BRANCH  11  12
ATOM     12  C   UNL d   1      11.503   3.937 -15.216  0.00  0.00     0.193 A 
ATOM     13  N   UNL d   1      12.121   3.720 -16.398  0.00  0.00    -0.289 N 
ATOM     14  C   UNL d   1      12.184   2.493 -17.157  0.00  0.00     0.134 C 
ATOM     15  C   UNL d   1      12.627   4.951 -16.670  0.00  0.00     0.168 A 
ATOM     16  N   UNL d   1      12.333   5.854 -15.736  0.00  0.00    -0.128 NA
ATOM     17  N   UNL d   1      11.596   5.184 -14.791  0.00  0.00    -0.122 NA
BRANCH  15  18
ATOM     18  C   UNL d   1      13.405   5.299 -17.852  0.00  0.00     0.055 A 
ATOM     19  C   UNL d   1      14.383   4.434 -18.369  0.00  0.00     0.102 A 
ATOM     20  N   UNL d   1      15.113   4.695 -19.474  0.00  0.00    -0.242 NA
ATOM     21  C   UNL d   1      14.894   5.870 -20.101  0.00  0.00     0.099 A 
ATOM     22  C   UNL d   1      13.957   6.819 -19.660  0.00  0.00     0.021 A 
ATOM     23  C   UNL d   1      13.192   6.535 -18.512  0.00  0.00     0.006 A 
ENDBRANCH  15  18
ENDBRANCH  11  12
ENDBRANCH  10  11
ENDBRANCH   9  10
ENDBRANCH   8   9
ENDBRANCH   1   8
BRANCH   6  24
ATOM     24  C   UNL d   1      11.179   8.070  -7.060  0.00  0.00    -0.022 A 
ATOM     25  C   UNL d   1      11.216   9.169  -6.179  0.00  0.00    -0.004 A 
ATOM     26  C   UNL d   1      11.519   8.987  -4.821  0.00  0.00     0.004 A 
ATOM     27  C   UNL d   1      11.803   7.698  -4.316  0.00  0.00     0.071 A 
ATOM     28  C   UNL d   1      11.747   6.597  -5.198  0.00  0.00     0.004 A 
ATOM     29  C   UNL d   1      11.464   6.785  -6.561  0.00  0.00    -0.004 A 
BRANCH  27  30
ATOM     30  C   UNL d   1      12.165   7.488  -2.855  0.00  0.00     0.419 C 
ATOM     31  F   UNL d   1      11.104   7.139  -2.134  0.00  0.00    -0.166 F 
ATOM     32  F   UNL d   1      13.054   6.499  -2.743  0.00  0.00    -0.166 F 
ATOM     33  F   UNL d   1      12.700   8.592  -2.330  0.00  0.00    -0.166 F 
ENDBRANCH  27  30
ENDBRANCH   6  24
TORSDOF 8
