REMARK  9 active torsions:
REMARK  status: ('A' for Active; 'I' for Inactive)
REMARK    1  A    between atoms: O_2  and  C_3 
REMARK    2  A    between atoms: C_8  and  N_9 
REMARK    3  A    between atoms: N_12  and  C_13 
REMARK    4  A    between atoms: C_13  and  C_14 
REMARK    5  A    between atoms: C_14  and  C_15 
REMARK    6  A    between atoms: C_15  and  C_16 
REMARK    7  A    between atoms: C_16  and  N_17 
REMARK       I    between atoms: N_17  and  C_18 
REMARK    8  A    between atoms: C_18  and  C_20 
REMARK    9  A    between atoms: C_21  and  C_22 
ROOT
ATOM      1  N   UNL d   1       8.783   2.437 -16.542  0.00  0.00    -0.343 N 
ATOM      2  C   UNL d   1       7.586   2.128 -15.766  0.00  0.00     0.137 C 
ATOM      3  C   UNL d   1       7.859   2.359 -14.261  0.00  0.00     0.274 C 
ATOM      4  N   UNL d   1       8.368   3.717 -14.014  0.00  0.00     0.141 N 
ATOM      5  C   UNL d   1       9.636   3.869 -14.742  0.00  0.00     0.274 C 
ATOM      6  C   UNL d   1       9.412   3.719 -16.257  0.00  0.00     0.137 C 
ENDROOT
BRANCH   4   7
ATOM      7  C   UNL d   1       8.567   3.909 -12.574  0.00  0.00     0.251 C 
BRANCH   7   8
ATOM      8  C   UNL d   1       8.882   5.371 -12.199  0.00  0.00     0.037 C 
BRANCH   8   9
ATOM      9  C   UNL d   1       9.013   5.585 -10.683  0.00  0.00     0.029 C 
BRANCH   9  10
ATOM     10  C   UNL d   1       9.687   6.926 -10.339  0.00  0.00     0.129 C 
BRANCH  10  11
ATOM     11  N   UNL d   1       9.999   7.002  -8.921  0.00  0.00    -0.234 NA
ATOM     12  C   UNL d   1      10.610   8.042  -8.340  0.00  0.00     0.275 C 
ATOM     13  O   UNL d   1      10.861   9.095  -8.927  0.00  0.00    -0.266 OA
BRANCH  12  14
ATOM     14  C   UNL d   1      10.962   7.733  -6.969  0.00  0.00     0.063 C 
ATOM     15  C   UNL d   1      11.149   8.713  -6.066  0.00  0.00     0.011 C 
BRANCH  15  16
ATOM     16  C   UNL d   1      11.512   8.581  -4.690  0.00  0.00     0.030 A 
ATOM     17  S   UNL d   1      11.864   7.022  -3.979  0.00  0.00    -0.086 SA
ATOM     18  C   UNL d   1      12.195   7.755  -2.440  0.00  0.00     0.035 A 
ATOM     19  C   UNL d   1      12.028   9.114  -2.483  0.00  0.00     0.007 A 
ATOM     20  C   UNL d   1      11.626   9.586  -3.766  0.00  0.00     0.007 A 
ENDBRANCH  15  16
ENDBRANCH  12  14
ENDBRANCH  10  11
ENDBRANCH   9  10
ENDBRANCH   8   9
ENDBRANCH   7   8
ENDBRANCH   4   7
BRANCH   1  21
ATOM     21  C   UNL d   1       9.355   1.491 -17.416  0.00  0.00     0.079 A 
ATOM     22  C   UNL d   1      10.753   1.235 -17.438  0.00  0.00     0.110 A 
ATOM     23  C   UNL d   1      11.277   0.295 -18.355  0.00  0.00     0.026 A 
ATOM     24  C   UNL d   1      10.431  -0.384 -19.247  0.00  0.00     0.002 A 
ATOM     25  C   UNL d   1       9.047  -0.134 -19.226  0.00  0.00     0.002 A 
ATOM     26  C   UNL d   1       8.516   0.803 -18.316  0.00  0.00     0.019 A 
BRANCH  22  27
ATOM     27  O   UNL d   1      11.575   1.830 -16.513  0.00  0.00    -0.327 OA
ATOM     28  C   UNL d   1      12.673   2.556 -17.050  0.00  0.00     0.181 C 
ENDBRANCH  22  27
ENDBRANCH   1  21
TORSDOF 9
