REMARK  7 active torsions:
REMARK  status: ('A' for Active; 'I' for Inactive)
REMARK    1  A    between atoms: S_2  and  N_4 
REMARK    2  A    between atoms: S_2  and  C_27 
REMARK    3  A    between atoms: N_4  and  C_5 
REMARK    4  A    between atoms: C_8  and  N_9 
REMARK    5  A    between atoms: C_12  and  C_13 
REMARK    6  A    between atoms: C_18  and  O_19 
REMARK    7  A    between atoms: O_19  and  C_20 
ROOT
ATOM      1  C   UNL d   1       5.470  -2.424 -19.958  0.00  0.00     0.116 C 
ATOM      2  C   UNL d   1       6.872  -3.005 -19.676  0.00  0.00     0.027 C 
ATOM      3  C   UNL d   1       7.691  -2.042 -18.814  0.00  0.00     0.035 C 
ATOM      4  C   UNL d   1       7.774  -0.641 -19.463  0.00  0.00     0.219 C 
ATOM      5  C   UNL d   1       6.372  -0.087 -19.822  0.00  0.00     0.035 C 
ATOM      6  C   UNL d   1       5.569  -1.066 -20.669  0.00  0.00     0.027 C 
ENDROOT
BRANCH   4   7
ATOM      7  N   UNL d   1       8.535   0.242 -18.592  0.00  0.00     0.135 N 
ATOM      8  C   UNL d   1       9.044   1.403 -19.323  0.00  0.00     0.251 C 
ATOM      9  C   UNL d   1      10.006   2.161 -18.427  0.00  0.00     0.040 C 
ATOM     10  C   UNL d   1       9.392   2.616 -17.071  0.00  0.00     0.028 C 
ATOM     11  C   UNL d   1       8.719   1.384 -16.428  0.00  0.00     0.040 C 
ATOM     12  C   UNL d   1       7.803   0.690 -17.407  0.00  0.00     0.251 C 
BRANCH  10  13
ATOM     13  C   UNL d   1      10.397   3.297 -16.131  0.00  0.00    -0.000 A 
ATOM     14  C   UNL d   1       9.996   3.744 -14.836  0.00  0.00     0.090 A 
ATOM     15  C   UNL d   1      10.971   4.302 -13.967  0.00  0.00     0.024 A 
ATOM     16  C   UNL d   1      12.309   4.415 -14.368  0.00  0.00     0.002 A 
ATOM     17  C   UNL d   1      12.685   4.013 -15.660  0.00  0.00    -0.000 A 
ATOM     18  C   UNL d   1      11.752   3.453 -16.526  0.00  0.00    -0.002 A 
BRANCH  14  19
ATOM     19  O   UNL d   1       8.670   3.611 -14.464  0.00  0.00    -0.334 OA
BRANCH  19  20
ATOM     20  C   UNL d   1       8.293   3.996 -13.150  0.00  0.00     0.121 A 
ATOM     21  C   UNL d   1       7.850   5.429 -13.058  0.00  0.00     0.033 A 
ATOM     22  C   UNL d   1       6.823   4.311 -13.040  0.00  0.00     0.033 A 
ENDBRANCH  19  20
ENDBRANCH  14  19
ENDBRANCH  10  13
ENDBRANCH   4   7
BRANCH   1  23
ATOM     23  N   UNL d   1       4.705  -3.351 -20.789  0.00  0.00    -0.187 NA
BRANCH  23  24
ATOM     24  S   UNL d   1       3.548  -4.419 -20.091  0.00  0.00     0.281 S 
ATOM     25  O   UNL d   1       2.659  -3.619 -19.237  0.00  0.00    -0.199 OA
ATOM     26  O   UNL d   1       3.000  -5.224 -21.192  0.00  0.00    -0.199 OA
BRANCH  24  27
ATOM     27  C   UNL d   1       4.564  -5.472 -19.061  0.00  0.00     0.107 A 
ATOM     28  C   UNL d   1       4.866  -5.060 -17.745  0.00  0.00     0.039 A 
ATOM     29  C   UNL d   1       5.667  -5.901 -16.964  0.00  0.00     0.120 A 
ATOM     30  C   UNL d   1       6.164  -7.087 -17.455  0.00  0.00     0.119 A 
ATOM     31  O   UNL d   1       6.080  -5.732 -15.683  0.00  0.00    -0.299 OA
ATOM     32  C   UNL d   1       5.897  -7.511 -18.771  0.00  0.00     0.027 A 
ATOM     33  O   UNL d   1       6.891  -7.700 -16.484  0.00  0.00    -0.300 OA
ATOM     34  C   UNL d   1       5.087  -6.681 -19.583  0.00  0.00     0.015 A 
ATOM     35  C   UNL d   1       6.827  -6.868 -15.359  0.00  0.00     0.304 A 
ENDBRANCH  24  27
ENDBRANCH  23  24
ENDBRANCH   1  23
TORSDOF 7
