REMARK  11 active torsions:
REMARK  status: ('A' for Active; 'I' for Inactive)
REMARK    1  A    between atoms: C_2  and  C_5 
REMARK    2  A    between atoms: C_7  and  N_8 
REMARK    3  A    between atoms: N_11  and  C_12 
REMARK    4  A    between atoms: C_12  and  C_13 
REMARK    5  A    between atoms: C_13  and  C_14 
REMARK    6  A    between atoms: C_14  and  C_15 
REMARK    7  A    between atoms: C_15  and  N_16 
REMARK       I    between atoms: N_16  and  C_17 
REMARK    8  A    between atoms: C_17  and  C_19 
REMARK    9  A    between atoms: C_19  and  C_20 
REMARK   10  A    between atoms: C_20  and  C_21 
REMARK   11  A    between atoms: C_30  and  C_31 
ROOT
ATOM      1  N   UNL d   1       7.104   2.130 -14.436  0.00  0.00    -0.330 N 
ATOM      2  C   UNL d   1       8.480   2.546 -14.129  0.00  0.00     0.138 C 
ATOM      3  C   UNL d   1       8.522   4.058 -13.854  0.00  0.00     0.274 C 
ATOM      4  N   UNL d   1       7.581   4.425 -12.793  0.00  0.00     0.141 N 
ATOM      5  C   UNL d   1       6.218   4.066 -13.183  0.00  0.00     0.274 C 
ATOM      6  C   UNL d   1       6.102   2.548 -13.444  0.00  0.00     0.138 C 
ENDROOT
BRANCH   4   7
ATOM      7  C   UNL d   1       7.654   5.878 -12.566  0.00  0.00     0.251 C 
BRANCH   7   8
ATOM      8  C   UNL d   1       8.815   6.223 -11.634  0.00  0.00     0.037 C 
BRANCH   8   9
ATOM      9  C   UNL d   1       9.223   7.700 -11.737  0.00  0.00     0.029 C 
BRANCH   9  10
ATOM     10  C   UNL d   1      10.277   8.112 -10.695  0.00  0.00     0.129 C 
BRANCH  10  11
ATOM     11  N   UNL d   1       9.856   8.011  -9.306  0.00  0.00    -0.238 NA
ATOM     12  C   UNL d   1       9.931   6.907  -8.551  0.00  0.00     0.252 C 
ATOM     13  O   UNL d   1      10.166   5.788  -9.014  0.00  0.00    -0.271 OA
BRANCH  12  14
ATOM     14  C   UNL d   1       9.819   7.108  -7.047  0.00  0.00     0.094 C 
BRANCH  14  15
ATOM     15  C   UNL d   1      11.197   6.814  -6.406  0.00  0.00     0.036 C 
BRANCH  15  16
ATOM     16  C   UNL d   1      11.436   7.545  -5.104  0.00  0.00    -0.022 A 
ATOM     17  C   UNL d   1      11.842   6.849  -3.945  0.00  0.00    -0.004 A 
ATOM     18  C   UNL d   1      12.077   7.553  -2.748  0.00  0.00    -0.000 A 
ATOM     19  C   UNL d   1      11.886   8.946  -2.707  0.00  0.00    -0.000 A 
ATOM     20  C   UNL d   1      11.462   9.636  -3.857  0.00  0.00    -0.000 A 
ATOM     21  C   UNL d   1      11.266   8.943  -5.062  0.00  0.00    -0.004 A 
ENDBRANCH  15  16
ENDBRANCH  14  15
ENDBRANCH  12  14
ENDBRANCH  10  11
ENDBRANCH   9  10
ENDBRANCH   8   9
ENDBRANCH   7   8
ENDBRANCH   4   7
BRANCH   1  22
ATOM     22  C   UNL d   1       6.806   1.392 -15.549  0.00  0.00     0.143 A 
ATOM     23  N   UNL d   1       5.868   0.406 -15.459  0.00  0.00    -0.214 NA
ATOM     24  C   UNL d   1       5.538  -0.263 -16.559  0.00  0.00     0.140 A 
ATOM     25  N   UNL d   1       6.103  -0.096 -17.762  0.00  0.00    -0.227 NA
ATOM     26  C   UNL d   1       7.035   0.871 -17.893  0.00  0.00     0.157 A 
ATOM     27  C   UNL d   1       7.425   1.660 -16.796  0.00  0.00     0.060 A 
BRANCH  24  28
ATOM     28  C   UNL d   1       4.561  -1.440 -16.419  0.00  0.00     0.052 C 
ATOM     29  C   UNL d   1       3.751  -1.672 -17.718  0.00  0.00     0.008 C 
ATOM     30  C   UNL d   1       3.566  -1.184 -15.273  0.00  0.00     0.008 C 
ATOM     31  C   UNL d   1       5.342  -2.724 -16.109  0.00  0.00     0.008 C 
ENDBRANCH  24  28
BRANCH  26  32
ATOM     32  C   UNL d   1       7.634   1.059 -19.278  0.00  0.00     0.435 C 
ATOM     33  F   UNL d   1       8.416   2.139 -19.312  0.00  0.00    -0.165 F 
ATOM     34  F   UNL d   1       8.365  -0.007 -19.607  0.00  0.00    -0.165 F 
ATOM     35  F   UNL d   1       6.668   1.221 -20.183  0.00  0.00    -0.165 F 
ENDBRANCH  26  32
ENDBRANCH   1  22
TORSDOF 11
