REMARK  3 active torsions:
REMARK  status: ('A' for Active; 'I' for Inactive)
REMARK    1  A    between atoms: C_2  and  C_3 
REMARK    2  A    between atoms: N_12  and  C_13 
REMARK    3  A    between atoms: C_13  and  C_14 
ROOT
ATOM      1  O   UNL d   1       9.081   9.009 -10.630  0.00  0.00    -0.221 OA
ATOM      2  C   UNL d   1       9.747   7.837 -10.206  0.00  0.00     0.149 C 
ATOM      3  C   UNL d   1      11.242   8.128 -10.213  0.00  0.00     0.070 C 
ATOM      4  C   UNL d   1      11.604   9.214  -9.219  0.00  0.00     0.254 C 
ATOM      5  N   UNL d   1      11.225   8.847  -7.867  0.00  0.00     0.142 N 
ATOM      6  C   UNL d   1       9.778   8.709  -7.812  0.00  0.00     0.254 C 
ATOM      7  C   UNL d   1       9.349   7.571  -8.732  0.00  0.00     0.070 C 
ENDROOT
BRANCH   5   8
ATOM      8  C   UNL d   1      11.651   9.872  -6.942  0.00  0.00     0.278 C 
BRANCH   8   9
ATOM      9  C   UNL d   1      11.439   9.643  -5.509  0.00  0.00     0.032 C 
ATOM     10  C   UNL d   1      11.552   8.450  -4.745  0.00  0.00     0.017 A 
ATOM     11  C   UNL d   1      11.464   8.804  -3.350  0.00  0.00     0.081 A 
ATOM     12  C   UNL d   1      11.832   7.148  -5.061  0.00  0.00     0.001 A 
ATOM     13  N   UNL d   1      11.075  10.081  -3.367  0.00  0.00    -0.244 NA
ATOM     14  C   UNL d   1      11.621   7.817  -2.346  0.00  0.00     0.019 A 
ATOM     15  C   UNL d   1      11.022  10.579  -4.652  0.00  0.00     0.097 C 
ATOM     16  C   UNL d   1      11.885   6.522  -2.697  0.00  0.00     0.002 A 
ATOM     17  C   UNL d   1      12.027   6.225  -4.061  0.00  0.00     0.000 A 
ENDBRANCH   8   9
ENDBRANCH   5   8
BRANCH   2  18
ATOM     18  C   UNL d   1       9.438   6.624 -11.087  0.00  0.00     0.005 A 
ATOM     19  C   UNL d   1       8.765   6.769 -12.321  0.00  0.00    -0.001 A 
ATOM     20  C   UNL d   1       8.470   5.662 -13.123  0.00  0.00     0.011 A 
ATOM     21  C   UNL d   1       8.855   4.386 -12.727  0.00  0.00     0.058 A 
ATOM     22  C   UNL d   1       9.490   4.222 -11.494  0.00  0.00     0.011 A 
ATOM     23 CL   UNL d   1       8.572   3.075 -13.797  0.00  0.00    -0.082 Cl
ATOM     24  C   UNL d   1       9.751   5.322 -10.655  0.00  0.00    -0.001 A 
ENDBRANCH   2  18
TORSDOF 3
