REMARK  8 active torsions:
REMARK  status: ('A' for Active; 'I' for Inactive)
REMARK    1  A    between atoms: C_2  and  C_3 
REMARK    2  A    between atoms: C_3  and  N_4 
REMARK    3  A    between atoms: N_4  and  C_5 
REMARK    4  A    between atoms: N_4  and  C_8 
REMARK    5  A    between atoms: C_5  and  C_6 
REMARK    6  A    between atoms: C_13  and  C_14 
REMARK    7  A    between atoms: C_14  and  C_15 
REMARK    8  A    between atoms: C_15  and  C_16 
ROOT
ATOM      1  C   UNL d   1       7.965   4.861 -12.605  0.00  0.00     0.224 C 
ATOM      2  C   UNL d   1       8.829   5.831 -13.353  0.00  0.00     0.038 C 
ATOM      3  C   UNL d   1       9.111   7.096 -12.557  0.00  0.00     0.028 C 
ATOM      4  C   UNL d   1       9.474   6.834 -11.120  0.00  0.00    -0.026 A 
ATOM      5  C   UNL d   1      10.121   7.861 -10.407  0.00  0.00    -0.009 A 
ATOM      6  C   UNL d   1      10.476   7.667  -9.068  0.00  0.00    -0.022 A 
ATOM      7  C   UNL d   1      10.159   6.420  -8.507  0.00  0.00    -0.005 A 
ATOM      8  C   UNL d   1       9.491   5.400  -9.165  0.00  0.00    -0.005 A 
ATOM      9  C   UNL d   1       9.171   5.597 -10.506  0.00  0.00    -0.024 A 
ATOM     10  C   UNL d   1       8.546   4.447 -11.242  0.00  0.00     0.059 C 
ENDROOT
BRANCH   6  11
ATOM     11  C   UNL d   1      11.175   8.754  -8.262  0.00  0.00     0.031 C 
BRANCH  11  12
ATOM     12  C   UNL d   1      10.362   9.204  -7.029  0.00  0.00     0.031 C 
BRANCH  12  13
ATOM     13  C   UNL d   1      10.951   8.711  -5.715  0.00  0.00    -0.022 A 
ATOM     14  C   UNL d   1      11.484   9.606  -4.773  0.00  0.00    -0.002 A 
ATOM     15  C   UNL d   1      12.016   9.110  -3.565  0.00  0.00     0.027 A 
ATOM     16  C   UNL d   1      12.037   7.731  -3.284  0.00  0.00     0.131 A 
ATOM     17  C   UNL d   1      11.515   6.834  -4.212  0.00  0.00     0.027 A 
ATOM     18  O   UNL d   1      12.527   7.244  -2.119  0.00  0.00    -0.190 OA
ATOM     19  C   UNL d   1      10.963   7.348  -5.374  0.00  0.00    -0.002 A 
ENDBRANCH  12  13
ENDBRANCH  11  12
ENDBRANCH   6  11
BRANCH   1  20
ATOM     20  N   UNL d   1       7.468   3.680 -13.335  0.00  0.00     0.135 N 
BRANCH  20  21
ATOM     21  C   UNL d   1       6.072   3.785 -13.794  0.00  0.00     0.250 C 
BRANCH  21  22
ATOM     22  C   UNL d   1       5.047   3.796 -12.670  0.00  0.00     0.035 C 
ATOM     23  C   UNL d   1       5.230   4.904 -11.647  0.00  0.00     0.002 C 
ENDBRANCH  21  22
ENDBRANCH  20  21
BRANCH  20  24
ATOM     24  C   UNL d   1       8.432   3.338 -14.374  0.00  0.00     0.250 C 
BRANCH  24  25
ATOM     25  C   UNL d   1       8.039   2.167 -15.255  0.00  0.00     0.035 C 
ATOM     26  C   UNL d   1       8.172   0.835 -14.531  0.00  0.00     0.002 C 
ENDBRANCH  24  25
ENDBRANCH  20  24
ENDBRANCH   1  20
TORSDOF 8
