REMARK  5 active torsions:
REMARK  status: ('A' for Active; 'I' for Inactive)
REMARK    1  A    between atoms: O_2  and  C_3 
REMARK    2  A    between atoms: C_8  and  C_9 
REMARK    3  A    between atoms: C_9  and  N_10 
REMARK    4  A    between atoms: N_13  and  C_14 
REMARK    5  A    between atoms: C_14  and  C_15 
REMARK       I    between atoms: C_15  and  N_17 
ROOT
ATOM      1  N   UNL d   1       8.970   5.869 -10.710  0.00  0.00     0.146 N 
ATOM      2  C   UNL d   1       9.771   5.614 -11.877  0.00  0.00     0.286 C 
ATOM      3  C   UNL d   1       8.976   5.885 -13.165  0.00  0.00     0.286 C 
ATOM      4  N   UNL d   1       7.802   5.051 -13.257  0.00  0.00     0.151 N 
ATOM      5  C   UNL d   1       6.960   5.367 -12.078  0.00  0.00     0.286 C 
ATOM      6  C   UNL d   1       7.734   5.103 -10.787  0.00  0.00     0.286 C 
ENDROOT
BRANCH   4   7
ATOM      7  C   UNL d   1       8.139   3.622 -13.479  0.00  0.00     0.337 C 
BRANCH   7   8
ATOM      8  C   UNL d   1       6.873   2.814 -13.956  0.00  0.00     0.271 C 
ATOM      9  O   UNL d   1       5.765   3.341 -13.772  0.00  0.00    -0.270 OA
ATOM     10  N   UNL d   1       7.028   1.640 -14.540  0.00  0.00    -0.299 N 
ATOM     11  C   UNL d   1       8.074   1.338 -15.557  0.00  0.00     0.093 A 
ATOM     12  C   UNL d   1       6.008   0.625 -14.582  0.00  0.00     0.058 A 
ATOM     13  C   UNL d   1       7.564   0.080 -16.292  0.00  0.00     0.051 A 
ATOM     14  C   UNL d   1       8.283   2.503 -16.574  0.00  0.00     0.025 C 
ATOM     15  C   UNL d   1       6.239  -0.230 -15.614  0.00  0.00    -0.004 A 
ATOM     16  C   UNL d   1       5.267  -1.198 -16.016  0.00  0.00    -0.003 C 
ATOM     17  C   UNL d   1       4.053  -1.281 -15.300  0.00  0.00    -0.000 C 
ATOM     18  C   UNL d   1       3.865  -0.458 -14.166  0.00  0.00     0.002 C 
ATOM     19  C   UNL d   1       4.869   0.475 -13.767  0.00  0.00     0.017 C 
ENDBRANCH   7   8
ENDBRANCH   4   7
BRANCH   1  20
ATOM     20  C   UNL d   1       9.692   5.618  -9.472  0.00  0.00     0.279 C 
BRANCH  20  21
ATOM     21  C   UNL d   1       9.870   6.862  -8.636  0.00  0.00     0.033 A 
ATOM     22  C   UNL d   1      10.963   7.737  -8.850  0.00  0.00     0.092 A 
ATOM     23  C   UNL d   1      11.101   8.869  -8.008  0.00  0.00     0.024 A 
ATOM     24  C   UNL d   1      10.172   9.118  -6.983  0.00  0.00     0.002 A 
ATOM     25  C   UNL d   1       9.087   8.252  -6.802  0.00  0.00    -0.000 A 
ATOM     26  C   UNL d   1       8.948   7.116  -7.612  0.00  0.00    -0.000 A 
BRANCH  22  27
ATOM     27  O   UNL d   1      11.853   7.427  -9.852  0.00  0.00    -0.328 OA
ATOM     28  C   UNL d   1      12.879   8.357 -10.110  0.00  0.00     0.181 C 
ENDBRANCH  22  27
ENDBRANCH  20  21
ENDBRANCH   1  20
TORSDOF 5
