REMARK  8 active torsions:
REMARK  status: ('A' for Active; 'I' for Inactive)
REMARK    1  A    between atoms: C_6  and  S_7 
REMARK    2  A    between atoms: S_7  and  N_10 
REMARK    3  A    between atoms: N_10  and  C_11 
REMARK    4  A    between atoms: C_11  and  C_12 
REMARK    5  A    between atoms: C_12  and  C_13 
REMARK    6  A    between atoms: C_13  and  C_14 
REMARK    7  A    between atoms: C_14  and  N_15 
REMARK    8  A    between atoms: C_18  and  C_19 
ROOT
ATOM      1  N   UNL d   1       9.493   5.768 -11.878  0.00  0.00     0.142 N 
ATOM      2  C   UNL d   1       8.203   5.063 -11.799  0.00  0.00     0.276 C 
ATOM      3  C   UNL d   1       8.079   3.955 -12.819  0.00  0.00     0.005 C 
ATOM      4  C   UNL d   1       8.894   3.808 -13.880  0.00  0.00    -0.021 C 
ATOM      5  C   UNL d   1       9.963   4.870 -14.072  0.00  0.00     0.061 C 
ATOM      6  C   UNL d   1       9.672   6.120 -13.265  0.00  0.00     0.255 C 
ENDROOT
BRANCH   1   7
ATOM      7  C   UNL d   1       9.406   6.989 -11.099  0.00  0.00     0.251 C 
BRANCH   7   8
ATOM      8  C   UNL d   1       9.375   6.674  -9.607  0.00  0.00     0.037 C 
BRANCH   8   9
ATOM      9  C   UNL d   1       9.436   7.937  -8.763  0.00  0.00     0.029 C 
BRANCH   9  10
ATOM     10  C   UNL d   1       9.264   7.554  -7.304  0.00  0.00     0.139 C 
BRANCH  10  11
ATOM     11  N   UNL d   1       9.420   8.787  -6.486  0.00  0.00    -0.185 NA
BRANCH  11  12
ATOM     12  S   UNL d   1      10.943   9.464  -6.091  0.00  0.00     0.281 S 
ATOM     13  O   UNL d   1      10.694  10.788  -5.499  0.00  0.00    -0.199 OA
ATOM     14  O   UNL d   1      11.837   9.259  -7.236  0.00  0.00    -0.199 OA
BRANCH  12  15
ATOM     15  C   UNL d   1      11.559   8.453  -4.788  0.00  0.00     0.105 A 
ATOM     16  C   UNL d   1      11.558   7.060  -4.911  0.00  0.00     0.013 A 
ATOM     17  C   UNL d   1      12.071   6.344  -3.854  0.00  0.00     0.000 A 
ATOM     18  C   UNL d   1      12.543   6.900  -2.672  0.00  0.00    -0.004 A 
ATOM     19  C   UNL d   1      12.508   8.288  -2.544  0.00  0.00    -0.021 A 
ATOM     20  C   UNL d   1      13.028   8.863  -1.271  0.00  0.00     0.031 C 
ATOM     21  C   UNL d   1      12.047   9.088  -3.616  0.00  0.00     0.009 A 
ENDBRANCH  12  15
ENDBRANCH  11  12
ENDBRANCH  10  11
ENDBRANCH   9  10
ENDBRANCH   8   9
ENDBRANCH   7   8
ENDBRANCH   1   7
BRANCH   4  22
ATOM     22  C   UNL d   1       8.784   2.681 -14.841  0.00  0.00     0.011 A 
ATOM     23  C   UNL d   1       7.687   1.729 -14.886  0.00  0.00     0.019 A 
ATOM     24  C   UNL d   1       7.995   0.831 -15.965  0.00  0.00     0.081 A 
ATOM     25  C   UNL d   1       6.454   1.487 -14.195  0.00  0.00     0.013 A 
ATOM     26  N   UNL d   1       9.207   1.234 -16.489  0.00  0.00    -0.250 NA
ATOM     27  C   UNL d   1       7.149  -0.236 -16.327  0.00  0.00     0.020 A 
ATOM     28  C   UNL d   1       9.697   2.351 -15.831  0.00  0.00     0.059 A 
ATOM     29  C   UNL d   1      11.000   2.955 -16.283  0.00  0.00     0.052 C 
ATOM     30  C   UNL d   1       5.972  -0.467 -15.585  0.00  0.00     0.013 A 
ATOM     31  C   UNL d   1       5.612   0.399 -14.536  0.00  0.00     0.058 A 
ATOM     32 CL   UNL d   1       4.113   0.096 -13.718  0.00  0.00    -0.082 Cl
ENDBRANCH   4  22
TORSDOF 8
