REMARK  8 active torsions:
REMARK  status: ('A' for Active; 'I' for Inactive)
REMARK    1  A    between atoms: N_2  and  C_3 
REMARK    2  A    between atoms: N_2  and  C_16 
REMARK    3  A    between atoms: C_3  and  C_4 
REMARK    4  A    between atoms: C_4  and  C_5 
REMARK    5  A    between atoms: C_9  and  O_10 
REMARK    6  A    between atoms: O_10  and  C_11 
REMARK    7  A    between atoms: C_16  and  C_17 
REMARK    8  A    between atoms: C_17  and  N_18 
ROOT
ATOM      1  C   UNL d   1       6.324   4.128 -13.149  0.00  0.00     0.062 C 
ENDROOT
BRANCH   1   2
ATOM      2  C   UNL d   1       7.638   4.656 -12.531  0.00  0.00     0.255 C 
BRANCH   2   3
ATOM      3  N   UNL d   1       7.528   5.961 -11.885  0.00  0.00     0.142 N 
ATOM      4  C   UNL d   1       7.080   6.986 -12.817  0.00  0.00     0.285 C 
BRANCH   3   5
ATOM      5  C   UNL d   1       8.785   6.381 -11.263  0.00  0.00     0.285 C 
BRANCH   5   6
ATOM      6  C   UNL d   1       9.079   5.791  -9.868  0.00  0.00     0.285 C 
BRANCH   6   7
ATOM      7  N   UNL d   1       9.993   6.596  -9.041  0.00  0.00     0.139 N 
ATOM      8  C   UNL d   1       9.391   7.872  -8.635  0.00  0.00     0.250 C 
ATOM      9  C   UNL d   1      10.348   8.750  -7.822  0.00  0.00     0.035 C 
ATOM     10  C   UNL d   1      10.827   8.016  -6.567  0.00  0.00     0.004 C 
ATOM     11  C   UNL d   1      11.398   6.651  -6.968  0.00  0.00     0.035 C 
ATOM     12  C   UNL d   1      10.393   5.870  -7.839  0.00  0.00     0.250 C 
ENDBRANCH   6   7
ENDBRANCH   5   6
ENDBRANCH   3   5
ENDBRANCH   2   3
ENDBRANCH   1   2
BRANCH   1  13
ATOM     13  C   UNL d   1       6.426   2.697 -13.639  0.00  0.00    -0.018 A 
ATOM     14  C   UNL d   1       7.489   2.303 -14.478  0.00  0.00     0.020 A 
ATOM     15  C   UNL d   1       7.609   0.958 -14.913  0.00  0.00     0.102 A 
ATOM     16  C   UNL d   1       6.627   0.031 -14.506  0.00  0.00     0.025 A 
ATOM     17  C   UNL d   1       5.560   0.421 -13.678  0.00  0.00     0.002 A 
ATOM     18  C   UNL d   1       5.465   1.752 -13.232  0.00  0.00    -0.004 A 
BRANCH  15  19
ATOM     19  O   UNL d   1       8.626   0.484 -15.714  0.00  0.00    -0.254 OA
BRANCH  19  20
ATOM     20  C   UNL d   1       9.676   1.276 -16.067  0.00  0.00     0.530 C 
ATOM     21  F   UNL d   1      10.551   0.558 -16.812  0.00  0.00    -0.144 F 
ATOM     22  F   UNL d   1       9.283   2.329 -16.826  0.00  0.00    -0.144 F 
ATOM     23  F   UNL d   1      10.359   1.727 -14.983  0.00  0.00    -0.144 F 
ENDBRANCH  19  20
ENDBRANCH  15  19
ENDBRANCH   1  13
TORSDOF 8
