REMARK  8 active torsions:
REMARK  status: ('A' for Active; 'I' for Inactive)
REMARK    1  A    between atoms: O_2  and  C_3 
REMARK    2  A    between atoms: C_9  and  C_10 
REMARK       I    between atoms: C_10  and  N_12 
REMARK    3  A    between atoms: N_12  and  C_13 
REMARK    4  A    between atoms: C_13  and  C_14 
REMARK    5  A    between atoms: C_14  and  C_15 
REMARK    6  A    between atoms: C_18  and  S_19 
REMARK    7  A    between atoms: S_19  and  N_22 
REMARK       I    between atoms: N_22  and  C_23 
REMARK       I    between atoms: C_23  and  N_25 
REMARK    8  A    between atoms: N_25  and  C_26 
ROOT
ATOM      1  C   UNL d   1       7.614   2.174 -14.124  0.00  0.00    -0.020 A 
ATOM      2  C   UNL d   1       6.499   3.015 -13.922  0.00  0.00    -0.004 A 
ATOM      3  C   UNL d   1       6.660   4.283 -13.348  0.00  0.00     0.013 A 
ATOM      4  C   UNL d   1       7.950   4.712 -12.992  0.00  0.00     0.105 A 
ATOM      5  C   UNL d   1       9.081   3.911 -13.213  0.00  0.00     0.013 A 
ATOM      6  C   UNL d   1       8.912   2.641 -13.800  0.00  0.00    -0.004 A 
ENDROOT
BRANCH   1   7
ATOM      7  C   UNL d   1       7.382   0.754 -14.658  0.00  0.00     0.053 C 
BRANCH   7   8
ATOM      8  C   UNL d   1       6.345  -0.075 -13.827  0.00  0.00     0.134 C 
BRANCH   8   9
ATOM      9  N   UNL d   1       5.925  -1.274 -14.584  0.00  0.00    -0.234 NA
ATOM     10  C   UNL d   1       4.972  -1.280 -15.534  0.00  0.00     0.277 C 
ATOM     11  O   UNL d   1       4.116  -0.435 -15.623  0.00  0.00    -0.266 OA
BRANCH  10  12
ATOM     12  C   UNL d   1       5.100  -2.368 -16.585  0.00  0.00     0.081 A 
ATOM     13  C   UNL d   1       4.901  -2.088 -17.972  0.00  0.00     0.099 A 
ATOM     14  C   UNL d   1       5.052  -3.150 -18.901  0.00  0.00     0.025 A 
ATOM     15  C   UNL d   1       5.376  -4.455 -18.480  0.00  0.00     0.013 A 
ATOM     16  C   UNL d   1       5.573  -4.710 -17.111  0.00  0.00     0.058 A 
ATOM     17 CL   UNL d   1       6.015  -6.288 -16.560  0.00  0.00    -0.082 Cl
ATOM     18  C   UNL d   1       5.420  -3.661 -16.191  0.00  0.00     0.018 A 
BRANCH  13  19
ATOM     19  O   UNL d   1       4.624  -0.786 -18.364  0.00  0.00    -0.328 OA
ATOM     20  C   UNL d   1       4.529  -0.502 -19.750  0.00  0.00     0.181 C 
ENDBRANCH  13  19
ENDBRANCH  10  12
ENDBRANCH   8   9
ENDBRANCH   7   8
ENDBRANCH   1   7
BRANCH   4  21
ATOM     21  S   UNL d   1       8.139   6.281 -12.246  0.00  0.00     0.289 S 
ATOM     22  O   UNL d   1       9.394   6.845 -12.753  0.00  0.00    -0.198 OA
ATOM     23  O   UNL d   1       6.873   6.999 -12.437  0.00  0.00    -0.198 OA
BRANCH  21  24
ATOM     24  N   UNL d   1       8.353   5.886 -10.584  0.00  0.00    -0.101 NA
ATOM     25  C   UNL d   1       9.418   6.425  -9.848  0.00  0.00     0.374 C 
ATOM     26  O   UNL d   1      10.505   6.666 -10.361  0.00  0.00    -0.242 OA
ATOM     27  N   UNL d   1       9.115   6.835  -8.607  0.00  0.00    -0.219 NA
BRANCH  27  28
ATOM     28  C   UNL d   1       9.708   8.009  -7.939  0.00  0.00     0.108 C 
ATOM     29  C   UNL d   1       9.231   8.049  -6.484  0.00  0.00     0.025 C 
ATOM     30  C   UNL d   1       9.798   6.822  -5.744  0.00  0.00     0.002 C 
ATOM     31  C   UNL d   1      11.336   6.776  -5.777  0.00  0.00     0.000 C 
ATOM     32  C   UNL d   1      11.790   6.808  -7.232  0.00  0.00     0.002 C 
ATOM     33  C   UNL d   1      11.264   8.081  -7.924  0.00  0.00     0.025 C 
ENDBRANCH  27  28
ENDBRANCH  21  24
ENDBRANCH   4  21
TORSDOF 8
