REMARK  10 active torsions:
REMARK  status: ('A' for Active; 'I' for Inactive)
REMARK       I    between atoms: C_2  and  N_4 
REMARK    1  A    between atoms: N_4  and  C_5 
REMARK    2  A    between atoms: C_9  and  N_10 
REMARK    3  A    between atoms: N_13  and  C_14 
REMARK    4  A    between atoms: C_14  and  C_15 
REMARK    5  A    between atoms: C_15  and  C_16 
REMARK    6  A    between atoms: C_16  and  C_17 
REMARK    7  A    between atoms: C_17  and  N_18 
REMARK    8  A    between atoms: N_18  and  S_19 
REMARK    9  A    between atoms: S_19  and  C_22 
REMARK   10  A    between atoms: C_22  and  C_23 
ROOT
ATOM      1  N   UNL d   1       6.525   1.262 -14.199  0.00  0.00    -0.344 N 
ATOM      2  C   UNL d   1       7.979   1.433 -14.232  0.00  0.00     0.137 C 
ATOM      3  C   UNL d   1       8.334   2.938 -14.195  0.00  0.00     0.274 C 
ATOM      4  N   UNL d   1       7.677   3.629 -13.074  0.00  0.00     0.141 N 
ATOM      5  C   UNL d   1       6.214   3.486 -13.196  0.00  0.00     0.274 C 
ATOM      6  C   UNL d   1       5.795   2.002 -13.173  0.00  0.00     0.137 C 
ENDROOT
BRANCH   4   7
ATOM      7  C   UNL d   1       8.100   5.031 -13.046  0.00  0.00     0.251 C 
BRANCH   7   8
ATOM      8  C   UNL d   1       7.730   5.733 -11.718  0.00  0.00     0.037 C 
BRANCH   8   9
ATOM      9  C   UNL d   1       8.921   5.955 -10.763  0.00  0.00     0.029 C 
BRANCH   9  10
ATOM     10  C   UNL d   1       8.672   5.388  -9.356  0.00  0.00     0.139 C 
BRANCH  10  11
ATOM     11  N   UNL d   1       9.818   5.648  -8.486  0.00  0.00    -0.188 NA
BRANCH  11  12
ATOM     12  S   UNL d   1       9.900   7.149  -7.644  0.00  0.00     0.261 S 
ATOM     13  O   UNL d   1      10.266   8.191  -8.618  0.00  0.00    -0.203 OA
ATOM     14  O   UNL d   1       8.678   7.282  -6.846  0.00  0.00    -0.203 OA
BRANCH  12  15
ATOM     15  C   UNL d   1      11.331   6.872  -6.531  0.00  0.00     0.146 C 
BRANCH  15  16
ATOM     16  C   UNL d   1      11.120   7.532  -5.149  0.00  0.00     0.018 C 
ATOM     17  C   UNL d   1      12.021   6.901  -4.073  0.00  0.00     0.001 C 
ATOM     18  C   UNL d   1      11.901   7.567  -2.695  0.00  0.00     0.000 C 
ATOM     19  C   UNL d   1      12.169   9.077  -2.810  0.00  0.00     0.000 C 
ATOM     20  C   UNL d   1      11.264   9.726  -3.855  0.00  0.00     0.000 C 
ATOM     21  C   UNL d   1      11.355   9.059  -5.231  0.00  0.00     0.001 C 
ENDBRANCH  15  16
ENDBRANCH  12  15
ENDBRANCH  11  12
ENDBRANCH  10  11
ENDBRANCH   9  10
ENDBRANCH   8   9
ENDBRANCH   7   8
ENDBRANCH   4   7
BRANCH   1  22
ATOM     22  C   UNL d   1       5.853   0.461 -15.137  0.00  0.00     0.058 A 
ATOM     23  C   UNL d   1       4.767  -0.349 -14.743  0.00  0.00     0.017 A 
ATOM     24  C   UNL d   1       4.099  -1.153 -15.687  0.00  0.00     0.003 A 
ATOM     25  C   UNL d   1       4.514  -1.153 -17.032  0.00  0.00     0.019 A 
ATOM     26  C   UNL d   1       5.600  -0.352 -17.446  0.00  0.00     0.086 A 
ATOM     27  C   UNL d   1       6.268   0.450 -16.485  0.00  0.00     0.036 A 
BRANCH  26  28
ATOM     28  N   UNL d   1       5.982  -0.412 -18.815  0.00  0.00    -0.212 NA
ATOM     29  C   UNL d   1       6.647   0.499 -19.554  0.00  0.00     0.256 C 
ATOM     30  C   UNL d   1       6.888   0.126 -21.014  0.00  0.00     0.100 C 
ATOM     31  O   UNL d   1       7.051   1.589 -19.144  0.00  0.00    -0.270 OA
ENDBRANCH  26  28
ENDBRANCH   1  22
TORSDOF 10
