REMARK  12 active torsions:
REMARK  status: ('A' for Active; 'I' for Inactive)
REMARK    1  A    between atoms: C_2  and  C_3 
REMARK    2  A    between atoms: C_3  and  N_4 
REMARK    3  A    between atoms: N_4  and  C_5 
REMARK    4  A    between atoms: N_4  and  C_21 
REMARK    5  A    between atoms: C_5  and  C_6 
REMARK    6  A    between atoms: C_6  and  C_7 
REMARK    7  A    between atoms: C_7  and  C_8 
REMARK    8  A    between atoms: C_8  and  N_9 
REMARK       I    between atoms: N_9  and  C_10 
REMARK    9  A    between atoms: C_10  and  C_12 
REMARK   10  A    between atoms: C_21  and  C_22 
REMARK   11  A    between atoms: C_24  and  C_25 
REMARK   12  A    between atoms: C_31  and  O_32 
ROOT
ATOM      1  N   UNL d   1       8.348   4.000 -12.844  0.00  0.00     0.137 N 
ENDROOT
BRANCH   1   2
ATOM      2  C   UNL d   1       7.440   5.035 -13.312  0.00  0.00     0.250 C 
BRANCH   2   3
ATOM      3  C   UNL d   1       6.400   5.481 -12.268  0.00  0.00     0.035 C 
ATOM      4  C   UNL d   1       5.376   4.382 -12.048  0.00  0.00     0.002 C 
ENDBRANCH   2   3
ENDBRANCH   1   2
BRANCH   1   5
ATOM      5  C   UNL d   1       9.023   4.332 -11.585  0.00  0.00     0.250 C 
BRANCH   5   6
ATOM      6  C   UNL d   1       9.489   5.802 -11.517  0.00  0.00     0.037 C 
BRANCH   6   7
ATOM      7  C   UNL d   1       9.896   6.215 -10.097  0.00  0.00     0.029 C 
BRANCH   7   8
ATOM      8  C   UNL d   1      10.303   7.692 -10.047  0.00  0.00     0.129 C 
BRANCH   8   9
ATOM      9  N   UNL d   1      10.860   8.010  -8.752  0.00  0.00    -0.233 NA
ATOM     10  C   UNL d   1      10.161   8.537  -7.741  0.00  0.00     0.293 C 
ATOM     11  O   UNL d   1       9.126   9.187  -7.880  0.00  0.00    -0.264 OA
BRANCH  10  12
ATOM     12  C   UNL d   1      10.734   8.292  -6.425  0.00  0.00     0.139 A 
ATOM     13  N   UNL d   1      10.956   9.359  -5.578  0.00  0.00    -0.241 NA
ATOM     14  C   UNL d   1      11.476   8.918  -4.386  0.00  0.00     0.082 A 
ATOM     15  C   UNL d   1      11.538   7.493  -4.485  0.00  0.00     0.019 A 
ATOM     16  C   UNL d   1      11.857   9.589  -3.216  0.00  0.00     0.019 A 
ATOM     17  C   UNL d   1      11.074   7.125  -5.791  0.00  0.00     0.025 A 
ATOM     18  C   UNL d   1      12.006   6.785  -3.360  0.00  0.00     0.002 A 
ATOM     19  C   UNL d   1      12.390   7.453  -2.184  0.00  0.00     0.000 A 
ATOM     20  C   UNL d   1      12.330   8.853  -2.117  0.00  0.00     0.002 A 
ENDBRANCH  10  12
ENDBRANCH   8   9
ENDBRANCH   7   8
ENDBRANCH   6   7
ENDBRANCH   5   6
ENDBRANCH   1   5
BRANCH   1  21
ATOM     21  C   UNL d   1       9.308   3.638 -13.871  0.00  0.00     0.251 C 
BRANCH  21  22
ATOM     22  C   UNL d   1       8.694   2.885 -15.053  0.00  0.00     0.038 A 
ATOM     23  C   UNL d   1       9.411   2.925 -16.385  0.00  0.00     0.026 A 
ATOM     24  C   UNL d   1       9.351   1.635 -15.577  0.00  0.00     0.007 A 
BRANCH  23  25
ATOM     25  C   UNL d   1      10.702   3.675 -16.554  0.00  0.00     0.002 C 
ATOM     26  C   UNL d   1      11.847   3.041 -17.080  0.00  0.00     0.090 C 
ATOM     27  C   UNL d   1      13.072   3.747 -17.151  0.00  0.00     0.026 C 
ATOM     28  C   UNL d   1      13.153   5.071 -16.685  0.00  0.00     0.032 C 
ATOM     29  C   UNL d   1      12.005   5.714 -16.195  0.00  0.00     0.140 C 
ATOM     30  C   UNL d   1      10.763   5.039 -16.196  0.00  0.00     0.027 C 
ATOM     31  F   UNL d   1      12.105   6.961 -15.691  0.00  0.00    -0.204 F 
BRANCH  26  32
ATOM     32  O   UNL d   1      11.716   1.726 -17.475  0.00  0.00    -0.328 OA
ATOM     33  C   UNL d   1      12.641   1.220 -18.428  0.00  0.00     0.181 C 
ENDBRANCH  26  32
ENDBRANCH  23  25
ENDBRANCH  21  22
ENDBRANCH   1  21
TORSDOF 12
