REMARK  8 active torsions:
REMARK  status: ('A' for Active; 'I' for Inactive)
REMARK    1  A    between atoms: O_2  and  C_3 
REMARK    2  A    between atoms: C_8  and  N_9 
REMARK    3  A    between atoms: N_12  and  C_13 
REMARK    4  A    between atoms: C_13  and  C_14 
REMARK    5  A    between atoms: C_14  and  C_16 
REMARK    6  A    between atoms: C_16  and  C_17 
REMARK    7  A    between atoms: C_17  and  N_18 
REMARK    8  A    between atoms: C_20  and  C_21 
ROOT
ATOM      1  C   UNL d   1       8.988   4.201 -12.631  0.00  0.00     0.132 C 
ENDROOT
BRANCH   1   2
ATOM      2  C   UNL d   1       9.692   4.337 -14.003  0.00  0.00     0.061 C 
BRANCH   2   3
ATOM      3  C   UNL d   1       9.742   3.020 -14.801  0.00  0.00     0.188 C 
ATOM      4  O   UNL d   1      10.615   2.125 -14.139  0.00  0.00    -0.221 OA
BRANCH   3   5
ATOM      5  C   UNL d   1       8.351   2.388 -15.012  0.00  0.00     0.283 C 
BRANCH   5   6
ATOM      6  N   UNL d   1       8.180   1.717 -16.296  0.00  0.00     0.144 N 
ATOM      7  C   UNL d   1       6.761   1.564 -16.629  0.00  0.00     0.274 C 
ATOM      8  C   UNL d   1       6.527   0.890 -17.987  0.00  0.00     0.137 C 
ATOM      9  N   UNL d   1       7.230  -0.382 -18.009  0.00  0.00    -0.343 N 
ATOM     10  C   UNL d   1       8.641  -0.347 -17.650  0.00  0.00     0.137 C 
ATOM     11  C   UNL d   1       8.812   0.389 -16.306  0.00  0.00     0.274 C 
BRANCH   9  12
ATOM     12  C   UNL d   1       6.591  -1.589 -18.351  0.00  0.00     0.079 A 
ATOM     13  C   UNL d   1       5.322  -1.935 -17.811  0.00  0.00     0.110 A 
ATOM     14  C   UNL d   1       4.727  -3.158 -18.220  0.00  0.00     0.026 A 
ATOM     15  C   UNL d   1       5.376  -4.017 -19.123  0.00  0.00     0.002 A 
ATOM     16  C   UNL d   1       6.631  -3.675 -19.640  0.00  0.00     0.002 A 
ATOM     17  C   UNL d   1       7.236  -2.464 -19.253  0.00  0.00     0.019 A 
BRANCH  13  18
ATOM     18  O   UNL d   1       4.737  -1.082 -16.889  0.00  0.00    -0.327 OA
ATOM     19  C   UNL d   1       3.505  -1.458 -16.298  0.00  0.00     0.181 C 
ENDBRANCH  13  18
ENDBRANCH   9  12
ENDBRANCH   5   6
ENDBRANCH   3   5
ENDBRANCH   2   3
ENDBRANCH   1   2
BRANCH   1  20
ATOM     20  N   UNL d   1       9.217   5.324 -11.749  0.00  0.00    -0.230 N 
ATOM     21  N   UNL d   1       9.071   6.593 -12.187  0.00  0.00    -0.064 NA
ATOM     22  N   UNL d   1       9.458   7.364 -11.223  0.00  0.00    -0.129 NA
ATOM     23  C   UNL d   1       9.731   6.605 -10.080  0.00  0.00     0.123 C 
ATOM     24  C   UNL d   1       9.569   5.290 -10.418  0.00  0.00     0.118 C 
BRANCH  23  25
ATOM     25  C   UNL d   1      10.153   7.205  -8.807  0.00  0.00     0.021 A 
ATOM     26  C   UNL d   1      10.651   6.386  -7.761  0.00  0.00    -0.002 A 
ATOM     27  C   UNL d   1      11.017   6.990  -6.543  0.00  0.00    -0.018 A 
ATOM     28  C   UNL d   1      10.892   8.361  -6.349  0.00  0.00    -0.004 A 
ATOM     29  C   UNL d   1      11.579   6.320  -5.302  0.00  0.00     0.053 A 
ATOM     30  C   UNL d   1      10.411   9.188  -7.367  0.00  0.00    -0.000 A 
ATOM     31  C   UNL d   1      11.343   8.682  -5.011  0.00  0.00    -0.004 A 
ATOM     32  C   UNL d   1      10.041   8.604  -8.600  0.00  0.00     0.002 A 
ATOM     33  C   UNL d   1      11.757   7.503  -4.384  0.00  0.00    -0.018 A 
ATOM     34  C   UNL d   1      11.378   9.903  -4.326  0.00  0.00    -0.000 A 
ATOM     35  C   UNL d   1      12.219   7.483  -3.058  0.00  0.00    -0.004 A 
ATOM     36  C   UNL d   1      12.266   8.706  -2.364  0.00  0.00    -0.000 A 
ATOM     37  C   UNL d   1      11.846   9.897  -2.999  0.00  0.00    -0.000 A 
ENDBRANCH  23  25
ENDBRANCH   1  20
TORSDOF 8
