REMARK  6 active torsions:
REMARK  status: ('A' for Active; 'I' for Inactive)
REMARK    1  A    between atoms: C_5  and  C_6 
REMARK    2  A    between atoms: C_6  and  O_7 
REMARK    3  A    between atoms: C_6  and  C_27 
REMARK    4  A    between atoms: O_7  and  C_8 
REMARK    5  A    between atoms: N_15  and  C_16 
REMARK    6  A    between atoms: C_16  and  C_17 
ROOT
ATOM      1  C   UNL d   1       9.528   3.463 -14.939  0.00  0.00     0.120 C 
ATOM      2  C   UNL d   1       9.273   4.950 -15.107  0.00  0.00     0.063 C 
ATOM      3  C   UNL d   1       8.303   5.431 -13.987  0.00  0.00     0.222 C 
ATOM      4  C   UNL d   1       7.012   4.592 -13.776  0.00  0.00     0.035 C 
ATOM      5  C   UNL d   1       7.408   3.587 -12.792  0.00  0.00     0.035 C 
ATOM      6  C   UNL d   1       8.900   3.906 -12.519  0.00  0.00     0.222 C 
ATOM      7  C   UNL d   1       9.891   3.200 -13.473  0.00  0.00     0.063 C 
ATOM      8  N   UNL d   1       9.035   5.344 -12.741  0.00  0.00     0.138 N 
ENDROOT
BRANCH   1   9
ATOM      9  O   UNL d   1      10.553   3.080 -15.835  0.00  0.00    -0.350 OA
BRANCH   9  10
ATOM     10  C   UNL d   1      10.569   1.736 -16.310  0.00  0.00     0.160 C 
BRANCH  10  11
ATOM     11  C   UNL d   1       9.191   1.383 -16.883  0.00  0.00     0.009 A 
ATOM     12  C   UNL d   1       8.191   0.886 -16.035  0.00  0.00     0.001 A 
ATOM     13  C   UNL d   1       6.898   0.575 -16.555  0.00  0.00     0.029 A 
ATOM     14  C   UNL d   1       6.618   0.757 -17.919  0.00  0.00     0.140 A 
ATOM     15  F   UNL d   1       5.376   0.514 -18.405  0.00  0.00    -0.204 F 
ATOM     16  C   UNL d   1       7.626   1.244 -18.777  0.00  0.00     0.029 A 
ATOM     17  C   UNL d   1       8.898   1.557 -18.267  0.00  0.00     0.001 A 
ENDBRANCH  10  11
BRANCH  10  18
ATOM     18  C   UNL d   1      11.683   1.552 -17.348  0.00  0.00     0.009 A 
ATOM     19  C   UNL d   1      12.514   2.641 -17.713  0.00  0.00     0.001 A 
ATOM     20  C   UNL d   1      13.483   2.490 -18.721  0.00  0.00     0.029 A 
ATOM     21  C   UNL d   1      13.639   1.248 -19.366  0.00  0.00     0.140 A 
ATOM     22  C   UNL d   1      12.817   0.161 -19.015  0.00  0.00     0.029 A 
ATOM     23  F   UNL d   1      14.605   1.090 -20.303  0.00  0.00    -0.204 F 
ATOM     24  C   UNL d   1      11.850   0.312 -18.000  0.00  0.00     0.001 A 
ENDBRANCH  10  18
ENDBRANCH   9  10
ENDBRANCH   1   9
BRANCH   8  25
ATOM     25  C   UNL d   1       8.371   6.185 -11.731  0.00  0.00     0.277 C 
BRANCH  25  26
ATOM     26  C   UNL d   1       9.028   6.095 -10.382  0.00  0.00     0.011 A 
ATOM     27  C   UNL d   1       9.961   7.056  -9.884  0.00  0.00    -0.002 A 
ATOM     28  C   UNL d   1      10.551   6.853  -8.613  0.00  0.00    -0.000 A 
ATOM     29  C   UNL d   1      10.332   8.187 -10.620  0.00  0.00    -0.000 A 
ATOM     30  C   UNL d   1      10.215   5.744  -7.860  0.00  0.00    -0.000 A 
ATOM     31  C   UNL d   1      11.517   7.708  -8.079  0.00  0.00    -0.000 A 
ATOM     32  C   UNL d   1       9.289   4.827  -8.361  0.00  0.00    -0.000 A 
ATOM     33  C   UNL d   1       8.669   5.018  -9.589  0.00  0.00    -0.002 A 
ATOM     34  C   UNL d   1      11.904   8.807  -8.848  0.00  0.00    -0.000 A 
ATOM     35  C   UNL d   1      11.298   9.047 -10.094  0.00  0.00    -0.000 A 
ENDBRANCH  25  26
ENDBRANCH   8  25
TORSDOF 6
