REMARK  8 active torsions:
REMARK  status: ('A' for Active; 'I' for Inactive)
REMARK    1  A    between atoms: C_2  and  C_3 
REMARK    2  A    between atoms: C_3  and  C_4 
REMARK    3  A    between atoms: C_3  and  C_22 
REMARK    4  A    between atoms: C_4  and  N_5 
REMARK       I    between atoms: N_5  and  C_6 
REMARK       I    between atoms: C_6  and  N_8 
REMARK       I    between atoms: C_9  and  N_11 
REMARK    5  A    between atoms: N_11  and  C_12 
REMARK    6  A    between atoms: C_12  and  C_13 
REMARK    7  A    between atoms: C_13  and  C_14 
REMARK    8  A    between atoms: C_14  and  C_15 
ROOT
ATOM      1  N   UNL d   1      10.996   7.235  -8.906  0.00  0.00    -0.216 NA
ATOM      2  C   UNL d   1      10.418   7.897  -9.919  0.00  0.00     0.380 C 
ATOM      3  O   UNL d   1      10.357   9.130  -9.929  0.00  0.00    -0.242 OA
ATOM      4  N   UNL d   1       9.934   6.983 -10.854  0.00  0.00     0.001 NA
ATOM      5  C   UNL d   1       9.123   7.354 -11.799  0.00  0.00     0.768 C 
ATOM      6  N   UNL d   1       8.713   8.643 -12.065  0.00  0.00     0.062 N 
ATOM      7  N   UNL d   1       8.565   6.422 -12.649  0.00  0.00    -0.084 NA
ENDROOT
BRANCH   1   8
ATOM      8  C   UNL d   1      11.424   7.794  -7.634  0.00  0.00     0.135 C 
BRANCH   8   9
ATOM      9  C   UNL d   1      10.847   7.004  -6.437  0.00  0.00     0.047 C 
BRANCH   9  10
ATOM     10  C   UNL d   1       9.297   6.796  -6.452  0.00  0.00     0.006 C 
ATOM     11  C   UNL d   1       8.683   5.991  -7.635  0.00  0.00     0.000 C 
ENDBRANCH   9  10
BRANCH   9  12
ATOM     12  C   UNL d   1      11.307   7.646  -5.115  0.00  0.00    -0.021 A 
ATOM     13  C   UNL d   1      11.135   9.032  -4.897  0.00  0.00    -0.004 A 
ATOM     14  C   UNL d   1      11.543   9.623  -3.692  0.00  0.00    -0.000 A 
ATOM     15  C   UNL d   1      12.143   8.857  -2.679  0.00  0.00    -0.000 A 
ATOM     16  C   UNL d   1      12.279   7.470  -2.859  0.00  0.00    -0.000 A 
ATOM     17  C   UNL d   1      11.861   6.867  -4.069  0.00  0.00    -0.004 A 
ENDBRANCH   9  12
ENDBRANCH   8   9
ENDBRANCH   1   8
BRANCH   7  18
ATOM     18  C   UNL d   1       9.052   5.061 -12.806  0.00  0.00     0.145 C 
BRANCH  18  19
ATOM     19  C   UNL d   1       8.292   4.296 -13.899  0.00  0.00     0.032 C 
BRANCH  19  20
ATOM     20  C   UNL d   1       8.912   2.917 -14.182  0.00  0.00     0.036 C 
BRANCH  20  21
ATOM     21  C   UNL d   1       8.084   2.067 -15.095  0.00  0.00     0.023 A 
ATOM     22  C   UNL d   1       8.162   1.971 -16.467  0.00  0.00     0.063 A 
ATOM     23  N   UNL d   1       7.226   1.091 -17.021  0.00  0.00    -0.230 NA
ATOM     24  C   UNL d   1       9.111   2.702 -17.369  0.00  0.00     0.052 C 
ATOM     25  C   UNL d   1       6.457   0.522 -16.092  0.00  0.00     0.180 A 
ATOM     26  S   UNL d   1       6.818   1.046 -14.456  0.00  0.00    -0.057 SA
ATOM     27  N   UNL d   1       5.442  -0.377 -16.361  0.00  0.00    -0.072 NA
ENDBRANCH  20  21
ENDBRANCH  19  20
ENDBRANCH  18  19
ENDBRANCH   7  18
TORSDOF 8
