REMARK  7 active torsions:
REMARK  status: ('A' for Active; 'I' for Inactive)
REMARK    1  A    between atoms: N_2  and  C_3 
REMARK    2  A    between atoms: C_3  and  C_4 
REMARK    3  A    between atoms: C_4  and  C_5 
REMARK    4  A    between atoms: C_5  and  O_6 
REMARK    5  A    between atoms: C_5  and  C_17 
REMARK    6  A    between atoms: O_6  and  C_7 
REMARK    7  A    between atoms: C_10  and  C_11 
ROOT
ATOM      1  C   UNL d   1       9.439   5.389 -11.890  0.00  0.00     0.146 C 
ENDROOT
BRANCH   1   2
ATOM      2  C   UNL d   1       8.951   6.832 -12.165  0.00  0.00     0.073 C 
BRANCH   2   3
ATOM      3  C   UNL d   1       7.704   7.055 -12.954  0.00  0.00     0.293 C 
BRANCH   3   4
ATOM      4  N   UNL d   1       6.900   8.136 -12.465  0.00  0.00     0.341 N 
ATOM      5  C   UNL d   1       5.535   7.996 -12.943  0.00  0.00     0.328 C 
ENDBRANCH   3   4
ENDBRANCH   2   3
ENDBRANCH   1   2
BRANCH   1   6
ATOM      6  O   UNL d   1       9.392   5.120 -10.482  0.00  0.00    -0.329 OA
BRANCH   6   7
ATOM      7  C   UNL d   1       9.923   6.025  -9.571  0.00  0.00     0.094 A 
ATOM      8  C   UNL d   1       9.781   5.720  -8.211  0.00  0.00     0.024 A 
ATOM      9  C   UNL d   1      10.270   6.598  -7.225  0.00  0.00     0.006 A 
ATOM     10  C   UNL d   1      10.888   7.815  -7.583  0.00  0.00     0.072 A 
ATOM     11  C   UNL d   1      11.020   8.145  -8.936  0.00  0.00     0.006 A 
ATOM     12  C   UNL d   1      10.589   7.239  -9.900  0.00  0.00     0.024 A 
BRANCH  10  13
ATOM     13  C   UNL d   1      11.421   8.769  -6.535  0.00  0.00     0.419 C 
ATOM     14  F   UNL d   1      12.646   9.191  -6.846  0.00  0.00    -0.166 F 
ATOM     15  F   UNL d   1      10.632   9.832  -6.452  0.00  0.00    -0.166 F 
ATOM     16  F   UNL d   1      11.463   8.171  -5.347  0.00  0.00    -0.166 F 
ENDBRANCH  10  13
ENDBRANCH   6   7
ENDBRANCH   1   6
BRANCH   1  17
ATOM     17  C   UNL d   1       8.621   4.354 -12.669  0.00  0.00     0.005 C 
ATOM     18  C   UNL d   1       9.238   3.531 -13.630  0.00  0.00    -0.002 C 
ATOM     19  C   UNL d   1       8.458   2.638 -14.390  0.00  0.00    -0.000 C 
ATOM     20  C   UNL d   1       7.057   2.609 -14.245  0.00  0.00    -0.000 C 
ATOM     21  C   UNL d   1       6.428   3.445 -13.313  0.00  0.00    -0.000 C 
ATOM     22  C   UNL d   1       7.224   4.213 -12.459  0.00  0.00    -0.002 C 
ENDBRANCH   1  17
TORSDOF 7
