REMARK  7 active torsions:
REMARK  status: ('A' for Active; 'I' for Inactive)
REMARK    1  A    between atoms: C_4  and  C_5 
REMARK    2  A    between atoms: N_17  and  C_18 
REMARK    3  A    between atoms: C_18  and  C_19 
REMARK    4  A    between atoms: C_19  and  C_20 
REMARK    5  A    between atoms: C_20  and  C_21 
REMARK    6  A    between atoms: C_21  and  N_22 
REMARK    7  A    between atoms: C_25  and  C_26 
ROOT
ATOM      1  C   UNL d   1       6.465   4.278 -12.103  0.00  0.00     0.027 C 
ENDROOT
BRANCH   1   2
ATOM      2  C   UNL d   1       6.824   4.175 -13.600  0.00  0.00     0.112 C 
BRANCH   2   3
ATOM      3  N   UNL d   1       8.043   3.409 -13.892  0.00  0.00    -0.270 N 
ATOM      4  C   UNL d   1       8.029   2.175 -14.439  0.00  0.00     0.240 A 
ATOM      5  O   UNL d   1       7.032   1.551 -14.765  0.00  0.00    -0.272 OA
ATOM      6  C   UNL d   1       9.450   1.628 -14.606  0.00  0.00     0.102 A 
ATOM      7  C   UNL d   1      10.309   2.809 -14.128  0.00  0.00     0.113 A 
ATOM      8  C   UNL d   1       9.294   3.849 -13.691  0.00  0.00     0.243 A 
ATOM      9  O   UNL d   1       9.628   4.957 -13.266  0.00  0.00    -0.272 OA
BRANCH   7  10
ATOM     10  C   UNL d   1      11.185   3.429 -15.192  0.00  0.00     0.008 A 
ATOM     11  C   UNL d   1      10.858   3.629 -16.580  0.00  0.00     0.018 A 
ATOM     12  C   UNL d   1      11.980   4.249 -17.213  0.00  0.00     0.081 A 
ATOM     13  C   UNL d   1       9.737   3.346 -17.395  0.00  0.00     0.031 A 
ATOM     14  N   UNL d   1      12.907   4.452 -16.208  0.00  0.00    -0.244 NA
ATOM     15  C   UNL d   1      11.995   4.526 -18.595  0.00  0.00     0.021 A 
ATOM     16  C   UNL d   1      12.422   3.987 -14.998  0.00  0.00     0.095 A 
ATOM     17  C   UNL d   1      10.874   4.190 -19.382  0.00  0.00     0.031 A 
ATOM     18  C   UNL d   1       9.747   3.596 -18.779  0.00  0.00     0.140 A 
ATOM     19  F   UNL d   1       8.669   3.251 -19.521  0.00  0.00    -0.204 F 
ENDBRANCH   7  10
ENDBRANCH   2   3
ENDBRANCH   1   2
BRANCH   1  20
ATOM     20  C   UNL d   1       7.261   5.356 -11.330  0.00  0.00     0.037 C 
BRANCH  20  21
ATOM     21  C   UNL d   1       8.176   4.730 -10.272  0.00  0.00     0.250 C 
BRANCH  21  22
ATOM     22  N   UNL d   1       8.674   5.760  -9.364  0.00  0.00     0.137 N 
ATOM     23  C   UNL d   1       8.512   5.312  -7.986  0.00  0.00     0.251 C 
ATOM     24  C   UNL d   1       8.947   6.410  -6.999  0.00  0.00     0.040 C 
ATOM     25  C   UNL d   1      10.399   6.838  -7.250  0.00  0.00     0.028 C 
ATOM     26  C   UNL d   1      10.567   7.185  -8.740  0.00  0.00     0.040 C 
ATOM     27  C   UNL d   1      10.069   6.054  -9.642  0.00  0.00     0.251 C 
BRANCH  25  28
ATOM     28  C   UNL d   1      10.787   8.001  -6.359  0.00  0.00    -0.002 A 
ATOM     29  C   UNL d   1      11.347   7.949  -5.033  0.00  0.00     0.017 A 
ATOM     30  C   UNL d   1      11.511   9.291  -4.570  0.00  0.00     0.081 A 
ATOM     31  C   UNL d   1      11.722   6.912  -4.148  0.00  0.00     0.031 A 
ATOM     32  N   UNL d   1      11.079  10.099  -5.602  0.00  0.00    -0.244 NA
ATOM     33  C   UNL d   1      12.014   9.580  -3.288  0.00  0.00     0.021 A 
ATOM     34  C   UNL d   1      10.650   9.326  -6.664  0.00  0.00     0.095 A 
ATOM     35  C   UNL d   1      12.406   8.527  -2.449  0.00  0.00     0.031 A 
ATOM     36  C   UNL d   1      12.260   7.194  -2.875  0.00  0.00     0.140 A 
ATOM     37  F   UNL d   1      12.638   6.191  -2.052  0.00  0.00    -0.204 F 
ENDBRANCH  25  28
ENDBRANCH  21  22
ENDBRANCH  20  21
ENDBRANCH   1  20
TORSDOF 7
