REMARK  4 active torsions:
REMARK  status: ('A' for Active; 'I' for Inactive)
REMARK    1  A    between atoms: N_4  and  C_5 
REMARK    2  A    between atoms: C_5  and  C_6 
REMARK    3  A    between atoms: C_6  and  C_7 
REMARK    4  A    between atoms: C_10  and  N_11 
ROOT
ATOM      1  C   UNL d   1      14.204   4.778 -17.374  0.00  0.00     0.002 C 
ATOM      2  C   UNL d   1      14.819   4.445 -18.750  0.00  0.00     0.002 C 
ATOM      3  C   UNL d   1      16.001   5.367 -19.073  0.00  0.00     0.023 C 
ATOM      4  C   UNL d   1      15.627   6.860 -18.984  0.00  0.00     0.091 C 
ATOM      5  C   UNL d   1      14.952   7.188 -17.638  0.00  0.00     0.023 C 
ATOM      6  C   UNL d   1      13.779   6.264 -17.337  0.00  0.00     0.002 C 
ENDROOT
BRANCH   1   7
ATOM      7  C   UNL d   1      13.040   3.820 -17.069  0.00  0.00     0.035 C 
BRANCH   7   8
ATOM      8  C   UNL d   1      12.450   3.967 -15.651  0.00  0.00     0.250 C 
BRANCH   8   9
ATOM      9  N   UNL d   1      10.997   3.834 -15.670  0.00  0.00     0.138 N 
ATOM     10  C   UNL d   1      10.650   2.418 -15.766  0.00  0.00     0.255 C 
ATOM     11  C   UNL d   1       9.202   2.158 -16.228  0.00  0.00     0.055 C 
ATOM     12  C   UNL d   1       8.843   2.919 -17.517  0.00  0.00     0.007 C 
ATOM     13  C   UNL d   1       8.149   2.335 -15.134  0.00  0.00    -0.024 A 
ATOM     14  C   UNL d   1       8.019   3.529 -14.371  0.00  0.00    -0.024 A 
ATOM     15  C   UNL d   1       7.231   1.284 -14.919  0.00  0.00     0.007 A 
ATOM     16  C   UNL d   1       8.930   4.735 -14.567  0.00  0.00     0.061 C 
ATOM     17  C   UNL d   1       6.959   3.648 -13.445  0.00  0.00    -0.004 A 
ATOM     18  C   UNL d   1      10.432   4.449 -14.473  0.00  0.00     0.255 C 
ATOM     19  C   UNL d   1       6.040   2.604 -13.255  0.00  0.00     0.011 A 
ATOM     20  C   UNL d   1       6.187   1.412 -13.984  0.00  0.00     0.057 A 
ATOM     21 CL   UNL d   1       5.084   0.108 -13.731  0.00  0.00    -0.082 Cl
ENDBRANCH   8   9
ENDBRANCH   7   8
ENDBRANCH   1   7
BRANCH   4  22
ATOM     22  N   UNL d   1      16.817   7.706 -19.192  0.00  0.00    -0.272 N 
ATOM     23  C   UNL d   1      16.929   8.587 -20.198  0.00  0.00     0.239 A 
ATOM     24  C   UNL d   1      18.273   9.310 -20.155  0.00  0.00     0.088 A 
ATOM     25  O   UNL d   1      16.088   8.811 -21.063  0.00  0.00    -0.272 OA
ATOM     26  C   UNL d   1      18.956   8.686 -18.941  0.00  0.00     0.088 A 
ATOM     27  C   UNL d   1      19.278   9.014 -21.298  0.00  0.00     0.009 C 
ATOM     28  C   UNL d   1      17.931   7.691 -18.437  0.00  0.00     0.239 A 
ATOM     29  C   UNL d   1      20.255   8.075 -19.523  0.00  0.00     0.009 C 
ATOM     30  O   UNL d   1      18.164   6.980 -17.455  0.00  0.00    -0.272 OA
ATOM     31  C   UNL d   1      20.600   9.158 -20.539  0.00  0.00     0.001 C 
ATOM     32  C   UNL d   1      20.012   6.867 -20.462  0.00  0.00     0.001 C 
ATOM     33  C   UNL d   1      19.345   7.516 -21.689  0.00  0.00     0.001 C 
ENDBRANCH   4  22
TORSDOF 4
