REMARK  8 active torsions:
REMARK  status: ('A' for Active; 'I' for Inactive)
REMARK    1  A    between atoms: C_6  and  C_7 
REMARK    2  A    between atoms: C_10  and  S_11 
REMARK    3  A    between atoms: S_11  and  C_12 
REMARK    4  A    between atoms: C_12  and  C_13 
REMARK    5  A    between atoms: C_13  and  C_14 
REMARK    6  A    between atoms: C_14  and  N_15 
REMARK    7  A    between atoms: C_18  and  C_19 
REMARK    8  A    between atoms: C_22  and  C_23 
ROOT
ATOM      1  N   UNL d   1      10.581   2.653 -15.810  0.00  0.00     0.137 N 
ATOM      2  C   UNL d   1      11.036   1.275 -15.984  0.00  0.00     0.251 C 
ATOM      3  C   UNL d   1      12.130   1.204 -17.059  0.00  0.00     0.039 C 
ATOM      4  C   UNL d   1      11.731   1.890 -18.352  0.00  0.00     0.023 A 
ATOM      5  C   UNL d   1      11.998   3.379 -18.494  0.00  0.00     0.006 A 
ATOM      6  C   UNL d   1      10.591   2.888 -18.295  0.00  0.00     0.037 A 
ATOM      7  C   UNL d   1       9.825   3.082 -16.993  0.00  0.00     0.251 C 
ENDROOT
BRANCH   1   8
ATOM      8  C   UNL d   1       9.752   2.722 -14.609  0.00  0.00     0.251 C 
BRANCH   8   9
ATOM      9  C   UNL d   1       9.385   4.166 -14.239  0.00  0.00     0.047 C 
BRANCH   9  10
ATOM     10  C   UNL d   1       8.951   4.272 -12.777  0.00  0.00     0.067 C 
BRANCH  10  11
ATOM     11  S   UNL d   1       8.433   5.956 -12.369  0.00  0.00    -0.075 SA
BRANCH  11  12
ATOM     12  C   UNL d   1       8.963   5.999 -10.690  0.00  0.00     0.193 A 
ATOM     13  N   UNL d   1       8.901   4.973  -9.844  0.00  0.00    -0.122 NA
ATOM     14  N   UNL d   1       9.458   5.430  -8.670  0.00  0.00    -0.126 NA
ATOM     15  C   UNL d   1       9.832   6.693  -8.906  0.00  0.00     0.191 A 
ATOM     16  N   UNL d   1       9.514   7.100 -10.155  0.00  0.00    -0.287 N 
ATOM     17  C   UNL d   1       9.698   8.406 -10.777  0.00  0.00     0.134 C 
BRANCH  15  18
ATOM     18  C   UNL d   1      10.451   7.493  -7.868  0.00  0.00     0.151 A 
ATOM     19  C   UNL d   1      11.595   8.269  -7.811  0.00  0.00     0.087 A 
ATOM     20  C   UNL d   1      12.666   8.531  -8.825  0.00  0.00     0.054 C 
ATOM     21  N   UNL d   1      11.684   8.816  -6.546  0.00  0.00    -0.221 NA
ATOM     22  C   UNL d   1      10.648   8.315  -5.889  0.00  0.00     0.225 A 
ATOM     23  O   UNL d   1       9.858   7.512  -6.642  0.00  0.00    -0.282 OA
ENDBRANCH  15  18
ENDBRANCH  11  12
ENDBRANCH  10  11
ENDBRANCH   9  10
ENDBRANCH   8   9
ENDBRANCH   1   8
BRANCH   4  24
ATOM     24  C   UNL d   1      11.878   0.978 -19.538  0.00  0.00    -0.023 A 
ATOM     25  C   UNL d   1      13.148   0.649 -20.045  0.00  0.00    -0.004 A 
ATOM     26  C   UNL d   1      13.280  -0.221 -21.150  0.00  0.00     0.004 A 
ATOM     27  C   UNL d   1      12.121  -0.769 -21.762  0.00  0.00     0.071 A 
ATOM     28  C   UNL d   1      10.859  -0.431 -21.262  0.00  0.00     0.004 A 
ATOM     29  C   UNL d   1      10.730   0.426 -20.149  0.00  0.00    -0.004 A 
BRANCH  27  30
ATOM     30  C   UNL d   1      12.276  -1.725 -22.939  0.00  0.00     0.419 C 
ATOM     31  F   UNL d   1      13.064  -2.741 -22.592  0.00  0.00    -0.166 F 
ATOM     32  F   UNL d   1      11.104  -2.227 -23.345  0.00  0.00    -0.166 F 
ATOM     33  F   UNL d   1      12.831  -1.071 -23.954  0.00  0.00    -0.166 F 
ENDBRANCH  27  30
ENDBRANCH   4  24
TORSDOF 8
