REMARK  8 active torsions:
REMARK  status: ('A' for Active; 'I' for Inactive)
REMARK    1  A    between atoms: C_3  and  S_4 
REMARK    2  A    between atoms: S_4  and  C_5 
REMARK    3  A    between atoms: C_5  and  C_6 
REMARK    4  A    between atoms: C_6  and  C_7 
REMARK    5  A    between atoms: C_7  and  N_8 
REMARK    6  A    between atoms: C_13  and  C_14 
REMARK    7  A    between atoms: C_17  and  C_18 
REMARK    8  A    between atoms: C_28  and  C_29 
ROOT
ATOM      1  N   UNL d   1       9.620   4.680 -14.552  0.00  0.00     0.137 N 
ATOM      2  C   UNL d   1       8.862   3.437 -14.392  0.00  0.00     0.250 C 
ATOM      3  C   UNL d   1       7.633   3.887 -13.598  0.00  0.00     0.038 C 
ATOM      4  C   UNL d   1       8.072   5.116 -12.851  0.00  0.00     0.038 A 
ATOM      5  C   UNL d   1       7.092   6.249 -12.612  0.00  0.00     0.007 A 
ATOM      6  C   UNL d   1       7.636   5.462 -11.440  0.00  0.00     0.026 A 
ATOM      7  C   UNL d   1       9.523   5.299 -13.255  0.00  0.00     0.251 C 
ENDROOT
BRANCH   1   8
ATOM      8  C   UNL d   1      11.010   4.505 -14.937  0.00  0.00     0.251 C 
BRANCH   8   9
ATOM      9  C   UNL d   1      11.157   3.862 -16.327  0.00  0.00     0.047 C 
BRANCH   9  10
ATOM     10  C   UNL d   1      11.606   2.401 -16.213  0.00  0.00     0.067 C 
BRANCH  10  11
ATOM     11  S   UNL d   1      11.204   1.439 -17.703  0.00  0.00    -0.075 SA
BRANCH  11  12
ATOM     12  C   UNL d   1       9.448   1.321 -17.517  0.00  0.00     0.193 A 
ATOM     13  N   UNL d   1       8.855   0.684 -16.483  0.00  0.00    -0.289 N 
ATOM     14  C   UNL d   1       9.463  -0.017 -15.363  0.00  0.00     0.134 C 
ATOM     15  C   UNL d   1       7.542   0.858 -16.761  0.00  0.00     0.168 A 
ATOM     16  N   UNL d   1       7.335   1.535 -17.895  0.00  0.00    -0.128 NA
ATOM     17  N   UNL d   1       8.583   1.840 -18.391  0.00  0.00    -0.122 NA
BRANCH  15  18
ATOM     18  C   UNL d   1       6.442   0.385 -15.927  0.00  0.00     0.055 A 
ATOM     19  C   UNL d   1       5.379  -0.361 -16.483  0.00  0.00     0.102 A 
ATOM     20  N   UNL d   1       4.333  -0.812 -15.762  0.00  0.00    -0.242 NA
ATOM     21  C   UNL d   1       4.305  -0.541 -14.438  0.00  0.00     0.099 A 
ATOM     22  C   UNL d   1       5.314   0.190 -13.783  0.00  0.00     0.021 A 
ATOM     23  C   UNL d   1       6.401   0.654 -14.544  0.00  0.00     0.006 A 
ENDBRANCH  15  18
ENDBRANCH  11  12
ENDBRANCH  10  11
ENDBRANCH   9  10
ENDBRANCH   8   9
ENDBRANCH   1   8
BRANCH   6  24
ATOM     24  C   UNL d   1       8.629   6.014 -10.455  0.00  0.00     0.005 A 
ATOM     25  C   UNL d   1       9.465   7.119 -10.792  0.00  0.00     0.136 A 
ATOM     26  C   UNL d   1      10.407   7.601  -9.894  0.00  0.00     0.033 A 
ATOM     27  F   UNL d   1       9.382   7.739 -11.997  0.00  0.00    -0.205 F 
ATOM     28  C   UNL d   1      10.487   7.076  -8.587  0.00  0.00     0.074 A 
ATOM     29  C   UNL d   1       9.611   6.037  -8.199  0.00  0.00     0.004 A 
ATOM     30  C   UNL d   1       8.701   5.504  -9.130  0.00  0.00    -0.002 A 
BRANCH  28  31
ATOM     31  C   UNL d   1      11.481   7.680  -7.623  0.00  0.00     0.419 C 
ATOM     32  F   UNL d   1      12.561   8.120  -8.282  0.00  0.00    -0.166 F 
ATOM     33  F   UNL d   1      10.916   8.709  -6.989  0.00  0.00    -0.166 F 
ATOM     34  F   UNL d   1      11.849   6.753  -6.732  0.00  0.00    -0.166 F 
ENDBRANCH  28  31
ENDBRANCH   6  24
TORSDOF 8
