REMARK  7 active torsions:
REMARK  status: ('A' for Active; 'I' for Inactive)
REMARK    1  A    between atoms: C_8  and  O_9 
REMARK    2  A    between atoms: O_9  and  C_10 
REMARK    3  A    between atoms: C_10  and  C_11 
REMARK    4  A    between atoms: C_11  and  C_12 
REMARK    5  A    between atoms: C_12  and  C_13 
REMARK    6  A    between atoms: C_13  and  N_14 
REMARK    7  A    between atoms: N_17  and  C_18 
ROOT
ATOM      1  N   UNL d   1       8.859   5.194 -12.543  0.00  0.00     0.141 N 
ATOM      2  C   UNL d   1       8.596   3.767 -12.383  0.00  0.00     0.274 C 
ATOM      3  C   UNL d   1       8.117   3.205 -13.700  0.00  0.00     0.137 C 
ATOM      4  N   UNL d   1       9.069   3.422 -14.775  0.00  0.00    -0.344 N 
ATOM      5  C   UNL d   1       9.505   4.794 -14.902  0.00  0.00     0.137 C 
ATOM      6  C   UNL d   1       9.937   5.340 -13.526  0.00  0.00     0.274 C 
ENDROOT
BRANCH   1   7
ATOM      7  C   UNL d   1       9.225   5.722 -11.235  0.00  0.00     0.251 C 
BRANCH   7   8
ATOM      8  C   UNL d   1       9.240   7.258 -11.239  0.00  0.00     0.038 C 
BRANCH   8   9
ATOM      9  C   UNL d   1       9.540   7.838  -9.843  0.00  0.00     0.035 C 
BRANCH   9  10
ATOM     10  C   UNL d   1      10.986   7.582  -9.367  0.00  0.00     0.149 C 
BRANCH  10  11
ATOM     11  O   UNL d   1      10.994   6.976  -8.075  0.00  0.00    -0.331 OA
BRANCH  11  12
ATOM     12  C   UNL d   1      11.137   7.760  -6.952  0.00  0.00     0.094 A 
ATOM     13  C   UNL d   1      11.043   9.184  -6.958  0.00  0.00     0.024 A 
ATOM     14  C   UNL d   1      11.286   9.938  -5.788  0.00  0.00    -0.000 A 
ATOM     15  C   UNL d   1      11.595   9.233  -4.615  0.00  0.00     0.007 A 
ATOM     16  C   UNL d   1      11.894   9.750  -3.236  0.00  0.00     0.155 A 
ATOM     17  C   UNL d   1      11.671   7.856  -4.592  0.00  0.00     0.057 A 
ATOM     18  N   UNL d   1      12.160   8.521  -2.488  0.00  0.00    -0.229 NA
ATOM     19  C   UNL d   1      12.069   7.413  -3.233  0.00  0.00     0.275 A 
ATOM     20  O   UNL d   1      12.288   6.271  -2.864  0.00  0.00    -0.266 OA
ATOM     21  C   UNL d   1      11.430   7.083  -5.742  0.00  0.00     0.029 A 
ENDBRANCH  11  12
ENDBRANCH  10  11
ENDBRANCH   9  10
ENDBRANCH   8   9
ENDBRANCH   7   8
ENDBRANCH   1   7
BRANCH   4  22
ATOM     22  C   UNL d   1       9.558   2.383 -15.616  0.00  0.00     0.058 A 
ATOM     23  C   UNL d   1       8.730   1.455 -16.330  0.00  0.00     0.043 A 
ATOM     24  C   UNL d   1       9.334   0.458 -17.155  0.00  0.00     0.004 A 
ATOM     25  C   UNL d   1       7.317   1.484 -16.305  0.00  0.00     0.141 A 
ATOM     26  C   UNL d   1      10.733   0.385 -17.249  0.00  0.00     0.000 A 
ATOM     27  C   UNL d   1       8.543  -0.461 -17.899  0.00  0.00     0.000 A 
ATOM     28  C   UNL d   1      11.536   1.298 -16.555  0.00  0.00     0.002 A 
ATOM     29  C   UNL d   1      10.955   2.290 -15.740  0.00  0.00     0.017 A 
ATOM     30  C   UNL d   1       7.132  -0.413 -17.831  0.00  0.00     0.002 A 
ATOM     31  C   UNL d   1       6.536   0.563 -17.021  0.00  0.00     0.030 A 
ATOM     32  F   UNL d   1       6.653   2.399 -15.606  0.00  0.00    -0.204 F 
ENDBRANCH   4  22
TORSDOF 7
