REMARK  7 active torsions:
REMARK  status: ('A' for Active; 'I' for Inactive)
REMARK    1  A    between atoms: C_4  and  C_5 
REMARK    2  A    between atoms: N_13  and  C_14 
REMARK    3  A    between atoms: C_14  and  C_15 
REMARK    4  A    between atoms: C_15  and  C_16 
REMARK    5  A    between atoms: C_16  and  S_17 
REMARK    6  A    between atoms: S_17  and  C_18 
REMARK    7  A    between atoms: C_21  and  C_22 
ROOT
ATOM      1  C   UNL d   1       9.801   6.669  -8.990  0.00  0.00     0.017 A 
ATOM      2  C   UNL d   1       8.973   5.597  -8.579  0.00  0.00     0.001 A 
ATOM      3  C   UNL d   1       8.281   4.804  -9.519  0.00  0.00    -0.004 A 
ATOM      4  C   UNL d   1       8.341   5.130 -10.895  0.00  0.00    -0.024 A 
ATOM      5  C   UNL d   1       9.157   6.197 -11.314  0.00  0.00    -0.024 A 
ATOM      6  C   UNL d   1       9.918   6.920 -10.384  0.00  0.00    -0.003 A 
ATOM      7  C   UNL d   1       9.236   6.598 -12.772  0.00  0.00     0.061 C 
ATOM      8  C   UNL d   1       9.876   5.502 -13.624  0.00  0.00     0.255 C 
ATOM      9  N   UNL d   1       8.915   4.477 -14.024  0.00  0.00     0.138 N 
ATOM     10  C   UNL d   1       8.476   3.618 -12.924  0.00  0.00     0.255 C 
ATOM     11  C   UNL d   1       7.551   4.321 -11.909  0.00  0.00     0.061 C 
ENDROOT
BRANCH   9  12
ATOM     12  C   UNL d   1       9.475   3.666 -15.104  0.00  0.00     0.251 C 
BRANCH  12  13
ATOM     13  C   UNL d   1      10.799   2.947 -14.732  0.00  0.00     0.047 C 
BRANCH  13  14
ATOM     14  C   UNL d   1      11.373   2.148 -15.890  0.00  0.00     0.067 C 
BRANCH  14  15
ATOM     15  S   UNL d   1      11.891   3.220 -17.255  0.00  0.00    -0.075 SA
BRANCH  15  16
ATOM     16  C   UNL d   1      12.550   1.965 -18.294  0.00  0.00     0.193 A 
ATOM     17  N   UNL d   1      13.639   2.161 -19.060  0.00  0.00    -0.287 N 
ATOM     18  C   UNL d   1      13.795   0.945 -19.632  0.00  0.00     0.191 A 
ATOM     19  C   UNL d   1      14.443   3.366 -19.208  0.00  0.00     0.134 C 
ATOM     20  N   UNL d   1      12.856   0.069 -19.259  0.00  0.00    -0.126 NA
ATOM     21  N   UNL d   1      12.038   0.737 -18.388  0.00  0.00    -0.122 NA
BRANCH  18  22
ATOM     22  C   UNL d   1      14.856   0.569 -20.559  0.00  0.00     0.151 A 
ATOM     23  C   UNL d   1      15.066  -0.567 -21.303  0.00  0.00     0.087 A 
ATOM     24  N   UNL d   1      16.227  -0.391 -22.038  0.00  0.00    -0.221 NA
ATOM     25  C   UNL d   1      14.257  -1.825 -21.401  0.00  0.00     0.054 C 
ATOM     26  C   UNL d   1      16.659   0.819 -21.705  0.00  0.00     0.225 A 
ATOM     27  O   UNL d   1      15.874   1.455 -20.800  0.00  0.00    -0.282 OA
ENDBRANCH  18  22
ENDBRANCH  15  16
ENDBRANCH  14  15
ENDBRANCH  13  14
ENDBRANCH  12  13
ENDBRANCH   9  12
BRANCH   1  28
ATOM     28  C   UNL d   1      10.503   7.490  -7.987  0.00  0.00     0.079 A 
ATOM     29  C   UNL d   1      10.672   7.268  -6.638  0.00  0.00     0.035 A 
ATOM     30  C   UNL d   1      11.450   8.373  -6.189  0.00  0.00     0.081 A 
ATOM     31  C   UNL d   1      11.954   8.680  -4.808  0.00  0.00     0.054 C 
ATOM     32  N   UNL d   1      11.734   9.211  -7.165  0.00  0.00    -0.174 NA
ATOM     33  N   UNL d   1      11.137   8.696  -8.259  0.00  0.00    -0.249 N 
ATOM     34  C   UNL d   1      11.241   9.455  -9.495  0.00  0.00     0.154 C 
ENDBRANCH   1  28
TORSDOF 7
