REMARK  6 active torsions:
REMARK  status: ('A' for Active; 'I' for Inactive)
REMARK    1  A    between atoms: C_2  and  C_3 
REMARK       I    between atoms: C_3  and  N_5 
REMARK    2  A    between atoms: N_5  and  C_6 
REMARK    3  A    between atoms: C_9  and  C_10 
REMARK    4  A    between atoms: C_10  and  C_11 
REMARK    5  A    between atoms: C_11  and  N_12 
REMARK    6  A    between atoms: C_15  and  C_16 
ROOT
ATOM      1  N   UNL d   1       7.530   4.092 -12.250  0.00  0.00     0.137 N 
ATOM      2  C   UNL d   1       8.414   3.864 -13.405  0.00  0.00     0.251 C 
ATOM      3  C   UNL d   1       8.124   2.541 -14.164  0.00  0.00     0.040 C 
ATOM      4  C   UNL d   1       6.619   2.415 -14.458  0.00  0.00     0.028 C 
ATOM      5  C   UNL d   1       5.734   2.839 -13.238  0.00  0.00     0.040 C 
ATOM      6  C   UNL d   1       6.138   4.185 -12.662  0.00  0.00     0.251 C 
ENDROOT
BRANCH   1   7
ATOM      7  C   UNL d   1       7.853   5.307 -11.514  0.00  0.00     0.250 C 
BRANCH   7   8
ATOM      8  C   UNL d   1       9.103   5.112 -10.645  0.00  0.00     0.035 C 
BRANCH   8   9
ATOM      9  C   UNL d   1       9.291   6.245  -9.611  0.00  0.00     0.002 C 
ATOM     10  C   UNL d   1       8.445   5.987  -8.375  0.00  0.00     0.002 C 
ATOM     11  C   UNL d   1       8.586   7.073  -7.298  0.00  0.00     0.024 C 
ATOM     12  C   UNL d   1      10.035   7.169  -6.852  0.00  0.00     0.106 C 
ATOM     13  C   UNL d   1      10.923   7.436  -8.070  0.00  0.00     0.024 C 
ATOM     14  C   UNL d   1      10.720   6.367  -9.138  0.00  0.00     0.002 C 
BRANCH  12  15
ATOM     15  N   UNL d   1      10.204   8.283  -5.938  0.00  0.00    -0.240 NA
ATOM     16  C   UNL d   1      11.138   8.325  -4.990  0.00  0.00     0.251 C 
ATOM     17  O   UNL d   1      11.861   7.372  -4.724  0.00  0.00    -0.271 OA
BRANCH  16  18
ATOM     18  C   UNL d   1      11.248   9.638  -4.217  0.00  0.00     0.090 C 
ATOM     19  C   UNL d   1      11.997   9.489  -2.891  0.00  0.00     0.010 C 
ENDBRANCH  16  18
ENDBRANCH  12  15
ENDBRANCH   8   9
ENDBRANCH   7   8
ENDBRANCH   1   7
BRANCH   4  20
ATOM     20  C   UNL d   1       6.263   1.046 -15.054  0.00  0.00     0.002 A 
ATOM     21  C   UNL d   1       6.395   0.795 -16.436  0.00  0.00     0.115 A 
ATOM     22  C   UNL d   1       6.030  -0.428 -16.997  0.00  0.00     0.119 A 
ATOM     23  O   UNL d   1       6.839   1.612 -17.426  0.00  0.00    -0.300 OA
ATOM     24  C   UNL d   1       5.509  -1.464 -16.221  0.00  0.00     0.026 A 
ATOM     25  O   UNL d   1       6.280  -0.408 -18.333  0.00  0.00    -0.300 OA
ATOM     26  C   UNL d   1       5.413  -1.252 -14.832  0.00  0.00     0.002 A 
ATOM     27  C   UNL d   1       5.793  -0.022 -14.248  0.00  0.00    -0.002 A 
ATOM     28  C   UNL d   1       6.758   0.875 -18.622  0.00  0.00     0.304 A 
ENDBRANCH   4  20
TORSDOF 6
