REMARK  6 active torsions:
REMARK  status: ('A' for Active; 'I' for Inactive)
REMARK    1  A    between atoms: C_6  and  C_7 
REMARK    2  A    between atoms: C_10  and  S_11 
REMARK    3  A    between atoms: S_11  and  C_12 
REMARK    4  A    between atoms: C_12  and  C_13 
REMARK    5  A    between atoms: C_13  and  C_14 
REMARK    6  A    between atoms: C_14  and  N_16 
ROOT
ATOM      1  C   UNL d   1       6.960  -0.883 -22.481  0.00  0.00     0.067 C 
ENDROOT
BRANCH   1   2
ATOM      2  S   UNL d   1       5.777  -2.147 -21.945  0.00  0.00    -0.075 SA
BRANCH   2   3
ATOM      3  C   UNL d   1       6.219  -2.190 -20.247  0.00  0.00     0.193 A 
ATOM      4  N   UNL d   1       7.402  -2.580 -19.791  0.00  0.00    -0.122 NA
ATOM      5  N   UNL d   1       7.389  -2.242 -18.452  0.00  0.00    -0.128 NA
ATOM      6  C   UNL d   1       6.204  -1.662 -18.224  0.00  0.00     0.167 A 
ATOM      7  N   UNL d   1       5.418  -1.630 -19.323  0.00  0.00    -0.289 N 
ATOM      8  C   UNL d   1       4.082  -1.087 -19.529  0.00  0.00     0.134 C 
BRANCH   6   9
ATOM      9  C   UNL d   1       5.814  -1.096 -16.927  0.00  0.00     0.037 A 
ATOM     10  C   UNL d   1       6.545  -0.041 -16.309  0.00  0.00     0.021 A 
ATOM     11  C   UNL d   1       7.721   0.503 -16.875  0.00  0.00     0.003 A 
ATOM     12  C   UNL d   1       6.095   0.499 -15.066  0.00  0.00     0.081 A 
ATOM     13  C   UNL d   1       8.397   1.539 -16.207  0.00  0.00     0.015 A 
ATOM     14  C   UNL d   1       7.863   2.014 -14.997  0.00  0.00     0.059 A 
ATOM     15  C   UNL d   1       8.528   3.156 -14.264  0.00  0.00     0.052 C 
ATOM     16  N   UNL d   1       6.740   1.509 -14.444  0.00  0.00    -0.250 NA
ATOM     17  C   UNL d   1       4.920  -0.018 -14.484  0.00  0.00     0.019 A 
ATOM     18  C   UNL d   1       4.200  -1.059 -15.094  0.00  0.00     0.002 A 
ATOM     19  C   UNL d   1       4.660  -1.607 -16.305  0.00  0.00     0.003 A 
ENDBRANCH   6   9
ENDBRANCH   2   3
ENDBRANCH   1   2
BRANCH   1  20
ATOM     20  C   UNL d   1       7.043   0.380 -21.583  0.00  0.00     0.045 C 
BRANCH  20  21
ATOM     21  C   UNL d   1       8.042   1.482 -21.977  0.00  0.00     0.220 C 
ATOM     22  C   UNL d   1       8.014   1.840 -23.474  0.00  0.00     0.035 C 
BRANCH  21  23
ATOM     23  N   UNL d   1       9.384   1.223 -21.422  0.00  0.00     0.136 N 
ATOM     24  C   UNL d   1      10.239   0.384 -22.260  0.00  0.00     0.255 C 
ATOM     25  C   UNL d   1      11.330  -0.343 -21.467  0.00  0.00     0.062 C 
ATOM     26  C   UNL d   1      12.597   0.481 -21.324  0.00  0.00    -0.016 A 
ATOM     27  C   UNL d   1      12.542   1.744 -20.675  0.00  0.00    -0.022 A 
ATOM     28  C   UNL d   1      13.835   0.007 -21.836  0.00  0.00     0.055 A 
ATOM     29  C   UNL d   1      11.241   2.271 -20.074  0.00  0.00     0.061 C 
ATOM     30  C   UNL d   1      13.711   2.534 -20.553  0.00  0.00     0.017 A 
ATOM     31  C   UNL d   1      10.075   2.472 -21.068  0.00  0.00     0.255 C 
ATOM     32  C   UNL d   1      14.944   2.077 -21.067  0.00  0.00     0.106 A 
ATOM     33  C   UNL d   1      14.973   0.818 -21.697  0.00  0.00     0.125 A 
ATOM     34  N   UNL d   1      16.211   2.625 -21.073  0.00  0.00    -0.224 NA
ATOM     35  O   UNL d   1      16.273   0.574 -22.108  0.00  0.00    -0.291 OA
ATOM     36  C   UNL d   1      16.944   1.697 -21.703  0.00  0.00     0.159 A 
ATOM     37  C   UNL d   1      18.402   1.786 -21.992  0.00  0.00     0.080 C 
ATOM     38 BR   UNL d   1      14.030  -1.683 -22.702  0.00  0.00    -0.047 Br
ENDBRANCH  21  23
ENDBRANCH  20  21
ENDBRANCH   1  20
TORSDOF 6
