REMARK  5 active torsions:
REMARK  status: ('A' for Active; 'I' for Inactive)
REMARK    1  A    between atoms: C_2  and  C_3 
REMARK    2  A    between atoms: C_7  and  N_8 
REMARK       I    between atoms: N_8  and  C_9 
REMARK    3  A    between atoms: C_9  and  C_11 
REMARK    4  A    between atoms: C_11  and  N_12 
REMARK    5  A    between atoms: C_15  and  C_16 
ROOT
ATOM      1  N   UNL d   1      10.212   7.521  -9.607  0.00  0.00     0.147 N 
ATOM      2  C   UNL d   1       9.104   7.612  -8.649  0.00  0.00     0.251 C 
ATOM      3  C   UNL d   1       9.565   7.453  -7.202  0.00  0.00     0.041 C 
ATOM      4  C   UNL d   1      10.629   8.511  -6.860  0.00  0.00     0.044 C 
ATOM      5  C   UNL d   1      11.735   8.495  -7.927  0.00  0.00     0.041 C 
ATOM      6  C   UNL d   1      11.147   8.624  -9.347  0.00  0.00     0.251 C 
ENDROOT
BRANCH   1   7
ATOM      7  C   UNL d   1       9.676   7.638 -10.989  0.00  0.00     0.339 C 
BRANCH   7   8
ATOM      8  C   UNL d   1       9.306   6.296 -11.640  0.00  0.00     0.290 C 
ATOM      9  N   UNL d   1       7.995   5.985 -11.642  0.00  0.00    -0.210 NA
ATOM     10  O   UNL d   1      10.202   5.595 -12.131  0.00  0.00    -0.268 OA
BRANCH   9  11
ATOM     11  C   UNL d   1       7.381   4.915 -12.338  0.00  0.00     0.084 A 
ATOM     12  C   UNL d   1       6.029   4.673 -12.049  0.00  0.00     0.019 A 
ATOM     13  C   UNL d   1       5.331   3.648 -12.719  0.00  0.00     0.001 A 
ATOM     14  C   UNL d   1       5.984   2.856 -13.676  0.00  0.00    -0.004 A 
ATOM     15  C   UNL d   1       7.322   3.104 -14.011  0.00  0.00    -0.021 A 
ATOM     16  C   UNL d   1       8.019   4.124 -13.337  0.00  0.00     0.015 A 
BRANCH  15  17
ATOM     17  C   UNL d   1       7.992   2.252 -15.073  0.00  0.00     0.026 C 
ATOM     18  C   UNL d   1       8.362   0.862 -14.541  0.00  0.00     0.005 C 
ENDBRANCH  15  17
ENDBRANCH   9  11
ENDBRANCH   7   8
ENDBRANCH   1   7
BRANCH   4  19
ATOM     19  C   UNL d   1      11.175   8.316  -5.455  0.00  0.00     0.059 A 
ATOM     20  N   UNL d   1      11.463   7.040  -5.108  0.00  0.00    -0.248 NA
ATOM     21  C   UNL d   1      11.953   6.801  -3.884  0.00  0.00     0.099 A 
ATOM     22  C   UNL d   1      12.249   7.823  -2.963  0.00  0.00     0.021 A 
ATOM     23  C   UNL d   1      11.983   9.156  -3.336  0.00  0.00     0.003 A 
ATOM     24  C   UNL d   1      11.436   9.412  -4.608  0.00  0.00     0.015 A 
ENDBRANCH   4  19
TORSDOF 5
