REMARK  5 active torsions:
REMARK  status: ('A' for Active; 'I' for Inactive)
REMARK    1  A    between atoms: C_12  and  C_13 
REMARK    2  A    between atoms: C_13  and  N_14 
REMARK    3  A    between atoms: N_14  and  C_15 
REMARK    4  A    between atoms: C_15  and  C_16 
REMARK    5  A    between atoms: C_16  and  C_17 
ROOT
ATOM      1  N   UNL d   1       8.507   4.567 -11.325  0.00  0.00     0.342 N 
ENDROOT
BRANCH   1   2
ATOM      2  C   UNL d   1       9.343   5.008 -12.436  0.00  0.00     0.323 C 
BRANCH   2   3
ATOM      3  C   UNL d   1       9.717   3.811 -13.306  0.00  0.00     0.188 C 
ATOM      4  C   UNL d   1       8.454   3.270 -13.999  0.00  0.00     0.181 C 
ATOM      5  O   UNL d   1       8.788   2.093 -14.680  0.00  0.00    -0.326 OA
ATOM      6  C   UNL d   1       9.913   2.205 -15.438  0.00  0.00     0.114 A 
ATOM      7  C   UNL d   1      10.152   1.254 -16.414  0.00  0.00     0.029 A 
ATOM      8  C   UNL d   1      10.857   3.248 -15.280  0.00  0.00     0.116 A 
ATOM      9  C   UNL d   1       9.278   0.092 -16.720  0.00  0.00     0.120 A 
ATOM     10  C   UNL d   1      11.252   1.306 -17.240  0.00  0.00     0.083 A 
ATOM     11  C   UNL d   1      10.106  -0.497 -17.866  0.00  0.00     0.260 A 
ATOM     12  O   UNL d   1       9.801  -1.501 -18.479  0.00  0.00    -0.270 OA
ATOM     13  N   UNL d   1      11.211   0.238 -18.107  0.00  0.00    -0.212 NA
ATOM     14  C   UNL d   1      12.200   2.324 -17.148  0.00  0.00     0.021 A 
ATOM     15  C   UNL d   1      11.980   3.291 -16.154  0.00  0.00     0.028 A 
ATOM     16  O   UNL d   1      10.684   4.187 -14.302  0.00  0.00    -0.327 OA
ENDBRANCH   2   3
ENDBRANCH   1   2
BRANCH   1  17
ATOM     17  C   UNL d   1       8.390   5.598 -10.313  0.00  0.00     0.290 C 
BRANCH  17  18
ATOM     18  C   UNL d   1       9.620   5.573  -9.387  0.00  0.00     0.038 C 
BRANCH  18  19
ATOM     19  C   UNL d   1       9.688   6.801  -8.474  0.00  0.00     0.007 C 
ATOM     20  C   UNL d   1      10.536   6.466  -7.243  0.00  0.00     0.028 C 
ATOM     21  C   UNL d   1      10.904   7.657  -6.456  0.00  0.00    -0.007 A 
ATOM     22  C   UNL d   1      10.852   8.928  -6.912  0.00  0.00     0.055 A 
ATOM     23  C   UNL d   1      11.360   7.693  -5.114  0.00  0.00     0.017 A 
ATOM     24  C   UNL d   1      10.388   9.259  -8.292  0.00  0.00     0.045 C 
ATOM     25  N   UNL d   1      11.258   9.801  -5.902  0.00  0.00    -0.250 NA
ATOM     26  C   UNL d   1      10.275   8.030  -9.201  0.00  0.00     0.007 C 
ATOM     27  C   UNL d   1      11.581   9.063  -4.762  0.00  0.00     0.081 A 
ATOM     28  C   UNL d   1      12.023   9.385  -3.484  0.00  0.00     0.021 A 
ATOM     29  C   UNL d   1      12.274   8.374  -2.536  0.00  0.00     0.031 A 
ATOM     30  C   UNL d   1      12.071   7.027  -2.874  0.00  0.00     0.140 A 
ATOM     31  F   UNL d   1      12.345   6.078  -1.960  0.00  0.00    -0.204 F 
ATOM     32  C   UNL d   1      11.604   6.697  -4.149  0.00  0.00     0.031 A 
ENDBRANCH  18  19
ENDBRANCH  17  18
ENDBRANCH   1  17
TORSDOF 5
