REMARK  3 active torsions:
REMARK  status: ('A' for Active; 'I' for Inactive)
REMARK    1  A    between atoms: O_2  and  C_3 
REMARK    2  A    between atoms: C_8  and  O_9 
REMARK    3  A    between atoms: O_9  and  C_10 
ROOT
ATOM      1  C   UNL d   1      11.294   4.852 -15.397  0.00  0.00     0.117 A 
ATOM      2  C   UNL d   1      11.586   4.083 -16.546  0.00  0.00     0.026 A 
ATOM      3  C   UNL d   1      10.701   3.076 -16.965  0.00  0.00    -0.002 A 
ATOM      4  C   UNL d   1       9.513   2.841 -16.249  0.00  0.00    -0.020 A 
ATOM      5  C   UNL d   1       9.206   3.598 -15.090  0.00  0.00     0.032 A 
ATOM      6  C   UNL d   1      10.115   4.600 -14.656  0.00  0.00     0.123 A 
ATOM      7  C   UNL d   1       7.890   3.344 -14.368  0.00  0.00     0.279 C 
ATOM      8  N   UNL d   1       7.346   2.019 -14.625  0.00  0.00     0.144 N 
ATOM      9  C   UNL d   1       6.095   1.939 -13.900  0.00  0.00     0.256 C 
ATOM     10  C   UNL d   1       5.552   0.507 -13.997  0.00  0.00     0.061 C 
ATOM     11  C   UNL d   1       5.494   0.013 -15.430  0.00  0.00    -0.020 A 
ATOM     12  C   UNL d   1       4.645  -1.069 -15.759  0.00  0.00     0.022 A 
ATOM     13  C   UNL d   1       4.596  -1.462 -17.104  0.00  0.00     0.119 A 
ATOM     14  C   UNL d   1       5.345  -0.844 -18.079  0.00  0.00     0.119 A 
ATOM     15  C   UNL d   1       6.192   0.230 -17.781  0.00  0.00     0.024 A 
ATOM     16  C   UNL d   1       6.280   0.652 -16.432  0.00  0.00     0.007 A 
ATOM     17  C   UNL d   1       7.158   1.848 -16.071  0.00  0.00     0.246 C 
ATOM     18  C   UNL d   1       8.569   1.739 -16.698  0.00  0.00     0.064 C 
ATOM     19  O   UNL d   1       5.108  -1.427 -19.280  0.00  0.00    -0.300 OA
ATOM     20  C   UNL d   1       4.189  -2.453 -19.025  0.00  0.00     0.304 A 
ATOM     21  O   UNL d   1       3.851  -2.442 -17.666  0.00  0.00    -0.300 OA
ENDROOT
BRANCH   6  22
ATOM     22  O   UNL d   1       9.856   5.370 -13.543  0.00  0.00    -0.275 OA
BRANCH  22  23
ATOM     23  C   UNL d   1       9.724   4.805 -12.331  0.00  0.00     0.277 C 
ATOM     24  C   UNL d   1       9.432   5.822 -11.225  0.00  0.00     0.107 C 
ATOM     25  O   UNL d   1       9.846   3.606 -12.071  0.00  0.00    -0.264 OA
ENDBRANCH  22  23
ENDBRANCH   6  22
BRANCH   1  26
ATOM     26  O   UNL d   1      12.123   5.854 -14.940  0.00  0.00    -0.326 OA
ATOM     27  C   UNL d   1      13.105   6.397 -15.813  0.00  0.00     0.181 C 
ENDBRANCH   1  26
TORSDOF 3
