REMARK  0 active torsions:
REMARK  status: ('A' for Active; 'I' for Inactive)
ROOT
ATOM      1  C   UNL d   1       9.550   5.910 -10.812  0.00  0.00     0.285 C 
ATOM      2  N   UNL d   1       8.689   5.500 -11.915  0.00  0.00     0.140 N 
ATOM      3  C   UNL d   1       9.412   4.567 -12.774  0.00  0.00     0.255 C 
ATOM      4  C   UNL d   1       8.704   4.324 -14.117  0.00  0.00     0.061 C 
ATOM      5  C   UNL d   1       7.604   3.286 -14.033  0.00  0.00    -0.022 A 
ATOM      6  C   UNL d   1       7.695   2.107 -14.802  0.00  0.00     0.015 A 
ATOM      7  C   UNL d   1       6.699   1.110 -14.754  0.00  0.00     0.089 A 
ATOM      8  N   UNL d   1       6.630  -0.057 -15.515  0.00  0.00    -0.225 NA
ATOM      9  C   UNL d   1       5.508  -0.724 -15.239  0.00  0.00     0.181 A 
ATOM     10  N   UNL d   1       5.161  -1.905 -15.868  0.00  0.00    -0.072 NA
ATOM     11  S   UNL d   1       4.462  -0.018 -14.014  0.00  0.00    -0.052 SA
ATOM     12  C   UNL d   1       5.612   1.313 -13.859  0.00  0.00     0.049 A 
ATOM     13  C   UNL d   1       5.504   2.489 -13.084  0.00  0.00     0.004 A 
ATOM     14  C   UNL d   1       6.488   3.491 -13.182  0.00  0.00    -0.024 A 
ATOM     15  C   UNL d   1       6.334   4.753 -12.351  0.00  0.00     0.061 C 
ATOM     16  C   UNL d   1       7.465   4.948 -11.330  0.00  0.00     0.255 C 
ENDROOT
TORSDOF 0
