REMARK  3 active torsions:
REMARK  status: ('A' for Active; 'I' for Inactive)
REMARK    1  A    between atoms: C_8  and  C_9 
REMARK    2  A    between atoms: C_9  and  C_11 
REMARK    3  A    between atoms: C_11  and  C_12 
ROOT
ATOM      1  C   UNL d   1       9.833   6.976  -7.441  0.00  0.00     0.159 C 
ATOM      2  O   UNL d   1       8.896   6.990  -6.423  0.00  0.00    -0.223 OA
ENDROOT
BRANCH   1   3
ATOM      3  C   UNL d   1      11.328   7.010  -6.992  0.00  0.00     0.088 C 
ATOM      4  C   UNL d   1      11.983   8.367  -7.249  0.00  0.00     0.152 C 
ATOM      5  C   UNL d   1      11.927   9.407  -6.128  0.00  0.00     0.058 C 
ATOM      6  O   UNL d   1      12.575   8.565  -8.314  0.00  0.00    -0.296 OA
ATOM      7  C   UNL d   1      12.241   8.834  -4.731  0.00  0.00     0.007 C 
ATOM      8  C   UNL d   1      10.536  10.041  -6.160  0.00  0.00     0.008 C 
ATOM      9  C   UNL d   1      11.475   7.527  -4.474  0.00  0.00     0.001 C 
ATOM     10  C   UNL d   1      11.704   6.950  -3.078  0.00  0.00     0.000 C 
ATOM     11  C   UNL d   1      11.637   6.467  -5.576  0.00  0.00     0.010 C 
ENDBRANCH   1   3
BRANCH   1  12
ATOM     12  C   UNL d   1       9.479   5.708  -8.242  0.00  0.00     0.034 C 
BRANCH  12  13
ATOM     13  C   UNL d   1       8.828   6.001  -9.591  0.00  0.00     0.021 C 
ATOM     14  C   UNL d   1       9.598   7.041 -10.442  0.00  0.00     0.091 C 
ATOM     15  C   UNL d   1       9.050   7.121 -11.853  0.00  0.00     0.258 C 
ATOM     16  N   UNL d   1       8.451   6.080 -12.405  0.00  0.00    -0.177 NA
ATOM     17  O   UNL d   1       9.199   8.203 -12.443  0.00  0.00    -0.270 OA
ATOM     18  C   UNL d   1       8.151   4.920 -11.803  0.00  0.00     0.258 C 
ATOM     19  C   UNL d   1       8.614   4.691 -10.350  0.00  0.00     0.091 C 
ATOM     20  O   UNL d   1       7.542   4.040 -12.401  0.00  0.00    -0.270 OA
ENDBRANCH  12  13
ENDBRANCH   1  12
TORSDOF 3
