REMARK  1 active torsions:
REMARK  status: ('A' for Active; 'I' for Inactive)
REMARK    1  A    between atoms: C_4  and  N_5 
ROOT
ATOM      1  N   UNL d   1      11.244   7.562  -5.636  0.00  0.00    -0.251 N 
ATOM      2  C   UNL d   1      11.532   6.809  -4.491  0.00  0.00     0.117 A 
ATOM      3  C   UNL d   1      11.893   7.357  -3.301  0.00  0.00     0.215 A 
ATOM      4  F   UNL d   1      12.154   6.592  -2.235  0.00  0.00    -0.198 F 
ATOM      5  C   UNL d   1      11.986   8.824  -3.173  0.00  0.00     0.312 A 
ATOM      6  O   UNL d   1      12.257   9.434  -2.161  0.00  0.00    -0.263 OA
ATOM      7  N   UNL d   1      11.714   9.516  -4.379  0.00  0.00    -0.151 NA
ATOM      8  C   UNL d   1      11.369   8.970  -5.578  0.00  0.00     0.355 A 
ATOM      9  O   UNL d   1      11.180   9.760  -6.533  0.00  0.00    -0.244 OA
ENDROOT
BRANCH   1  10
ATOM     10  C   UNL d   1      10.826   6.843  -6.924  0.00  0.00     0.242 C 
ATOM     11  O   UNL d   1      11.709   7.246  -7.929  0.00  0.00    -0.334 OA
ATOM     12  C   UNL d   1      11.015   7.571  -9.152  0.00  0.00     0.150 C 
ATOM     13  C   UNL d   1      11.030   9.098  -9.415  0.00  0.00     0.035 C 
ATOM     14  C   UNL d   1       9.600   7.075  -8.889  0.00  0.00     0.214 C 
ATOM     15  C   UNL d   1       9.415   7.219  -7.378  0.00  0.00     0.234 C 
ATOM     16  O   UNL d   1       9.447   5.739  -9.350  0.00  0.00    -0.218 OA
ATOM     17  O   UNL d   1       8.377   6.383  -6.916  0.00  0.00    -0.216 OA
ENDBRANCH   1  10
TORSDOF 1
