REMARK  7 active torsions:
REMARK  status: ('A' for Active; 'I' for Inactive)
REMARK    1  A    between atoms: O_2  and  C_3 
REMARK    2  A    between atoms: C_7  and  C_8 
REMARK       I    between atoms: C_8  and  N_10 
REMARK    3  A    between atoms: N_10  and  C_11 
REMARK    4  A    between atoms: C_11  and  C_12 
REMARK    5  A    between atoms: C_12  and  C_13 
REMARK    6  A    between atoms: C_13  and  N_14 
REMARK    7  A    between atoms: N_17  and  C_18 
ROOT
ATOM      1  N   UNL d   1       8.281   5.321 -11.792  0.00  0.00     0.141 N 
ATOM      2  C   UNL d   1       7.286   4.582 -12.581  0.00  0.00     0.274 C 
ATOM      3  C   UNL d   1       7.780   4.410 -14.033  0.00  0.00     0.137 C 
ATOM      4  N   UNL d   1       9.104   3.813 -14.073  0.00  0.00    -0.344 N 
ATOM      5  C   UNL d   1      10.087   4.429 -13.212  0.00  0.00     0.137 C 
ATOM      6  C   UNL d   1       9.531   4.566 -11.802  0.00  0.00     0.274 C 
ENDROOT
BRANCH   1   7
ATOM      7  C   UNL d   1       7.806   5.440 -10.418  0.00  0.00     0.253 C 
BRANCH   7   8
ATOM      8  C   UNL d   1       8.771   6.191  -9.459  0.00  0.00     0.062 C 
BRANCH   8   9
ATOM      9  C   UNL d   1       8.514   5.865  -7.990  0.00  0.00     0.131 C 
BRANCH   9  10
ATOM     10  N   UNL d   1       9.162   6.838  -7.123  0.00  0.00    -0.234 NA
ATOM     11  C   UNL d   1      10.460   6.823  -6.804  0.00  0.00     0.275 C 
ATOM     12  O   UNL d   1      11.271   6.012  -7.232  0.00  0.00    -0.266 OA
BRANCH  11  13
ATOM     13  C   UNL d   1      10.864   7.801  -5.760  0.00  0.00     0.059 A 
ATOM     14  C   UNL d   1      10.638   9.178  -5.939  0.00  0.00     0.005 A 
ATOM     15  C   UNL d   1      11.029  10.069  -4.924  0.00  0.00     0.002 A 
ATOM     16  C   UNL d   1      11.629   9.592  -3.740  0.00  0.00     0.024 A 
ATOM     17  C   UNL d   1      11.858   8.210  -3.555  0.00  0.00     0.094 A 
ATOM     18  C   UNL d   1      11.463   7.317  -4.587  0.00  0.00     0.029 A 
BRANCH  17  19
ATOM     19  O   UNL d   1      12.420   7.795  -2.373  0.00  0.00    -0.328 OA
ATOM     20  C   UNL d   1      12.436   6.395  -2.136  0.00  0.00     0.181 C 
ENDBRANCH  17  19
ENDBRANCH  11  13
ENDBRANCH   9  10
ENDBRANCH   8   9
ENDBRANCH   7   8
ENDBRANCH   1   7
BRANCH   4  21
ATOM     21  C   UNL d   1       9.414   2.700 -14.872  0.00  0.00     0.068 A 
ATOM     22  C   UNL d   1      10.544   2.691 -15.732  0.00  0.00     0.084 A 
ATOM     23  C   UNL d   1      10.800   1.554 -16.527  0.00  0.00     0.070 A 
ATOM     24 CL   UNL d   1      11.593   4.065 -15.892  0.00  0.00    -0.080 Cl
ATOM     25  C   UNL d   1       9.950   0.438 -16.459  0.00  0.00     0.012 A 
ATOM     26 CL   UNL d   1      12.114   1.546 -17.646  0.00  0.00    -0.081 Cl
ATOM     27  C   UNL d   1       8.835   0.448 -15.607  0.00  0.00     0.002 A 
ATOM     28  C   UNL d   1       8.568   1.573 -14.811  0.00  0.00     0.018 A 
ENDBRANCH   4  21
TORSDOF 7
