REMARK  9 active torsions:
REMARK  status: ('A' for Active; 'I' for Inactive)
REMARK    1  A    between atoms: C_2  and  C_3 
REMARK    2  A    between atoms: C_3  and  O_5 
REMARK    3  A    between atoms: O_5  and  C_6 
REMARK    4  A    between atoms: C_6  and  C_7 
REMARK    5  A    between atoms: N_16  and  C_17 
REMARK    6  A    between atoms: C_17  and  C_18 
REMARK    7  A    between atoms: C_18  and  C_19 
REMARK    8  A    between atoms: C_19  and  C_20 
REMARK    9  A    between atoms: C_20  and  C_22 
ROOT
ATOM      1  C   UNL d   1       9.150   1.170 -16.103  0.00  0.00     0.124 C 
ATOM      2  C   UNL d   1       9.107   2.177 -17.284  0.00  0.00     0.068 C 
ATOM      3  C   UNL d   1      10.514   2.576 -17.732  0.00  0.00     0.253 C 
ATOM      4  N   UNL d   1      11.265   1.401 -18.156  0.00  0.00     0.137 N 
ATOM      5  C   UNL d   1      11.431   0.474 -17.038  0.00  0.00     0.253 C 
ATOM      6  C   UNL d   1      10.068  -0.003 -16.510  0.00  0.00     0.068 C 
ENDROOT
BRANCH   1   7
ATOM      7  O   UNL d   1       9.753   1.835 -14.985  0.00  0.00    -0.302 OA
BRANCH   7   8
ATOM      8  C   UNL d   1       9.174   2.870 -14.306  0.00  0.00     0.272 C 
ATOM      9  O   UNL d   1       8.032   3.297 -14.461  0.00  0.00    -0.264 OA
BRANCH   8  10
ATOM     10  C   UNL d   1      10.091   3.525 -13.283  0.00  0.00     0.096 C 
ATOM     11  C   UNL d   1      11.400   3.976 -13.942  0.00  0.00     0.011 C 
ENDBRANCH   8  10
ENDBRANCH   7   8
ENDBRANCH   1   7
BRANCH   1  12
ATOM     12  C   UNL d   1       7.766   0.613 -15.732  0.00  0.00     0.003 A 
ATOM     13  C   UNL d   1       6.769   0.346 -16.707  0.00  0.00    -0.001 A 
ATOM     14  C   UNL d   1       5.477  -0.100 -16.341  0.00  0.00     0.011 A 
ATOM     15  C   UNL d   1       5.158  -0.306 -14.983  0.00  0.00     0.058 A 
ATOM     16  C   UNL d   1       6.153  -0.088 -14.005  0.00  0.00     0.011 A 
ATOM     17 CL   UNL d   1       3.569  -0.791 -14.518  0.00  0.00    -0.082 Cl
ATOM     18  C   UNL d   1       7.444   0.331 -14.377  0.00  0.00    -0.001 A 
ENDBRANCH   1  12
BRANCH   4  19
ATOM     19  C   UNL d   1      12.572   1.826 -18.651  0.00  0.00     0.251 C 
BRANCH  19  20
ATOM     20  C   UNL d   1      12.431   2.322 -20.107  0.00  0.00     0.043 C 
BRANCH  20  21
ATOM     21  C   UNL d   1      13.779   2.560 -20.817  0.00  0.00     0.071 C 
BRANCH  21  22
ATOM     22  C   UNL d   1      14.739   1.371 -20.838  0.00  0.00     0.173 C 
ATOM     23  O   UNL d   1      15.847   1.500 -20.297  0.00  0.00    -0.291 OA
BRANCH  22  24
ATOM     24  C   UNL d   1      14.311   0.105 -21.510  0.00  0.00     0.035 A 
ATOM     25  C   UNL d   1      13.073   0.020 -22.197  0.00  0.00     0.005 A 
ATOM     26  C   UNL d   1      12.653  -1.210 -22.737  0.00  0.00     0.030 A 
ATOM     27  C   UNL d   1      13.480  -2.351 -22.665  0.00  0.00     0.140 A 
ATOM     28  C   UNL d   1      14.738  -2.266 -22.030  0.00  0.00     0.030 A 
ATOM     29  F   UNL d   1      13.088  -3.530 -23.228  0.00  0.00    -0.204 F 
ATOM     30  C   UNL d   1      15.133  -1.045 -21.448  0.00  0.00     0.005 A 
ENDBRANCH  22  24
ENDBRANCH  21  22
ENDBRANCH  20  21
ENDBRANCH  19  20
ENDBRANCH   4  19
TORSDOF 9
