REMARK  5 active torsions:
REMARK  status: ('A' for Active; 'I' for Inactive)
REMARK    1  A    between atoms: N_11  and  C_12 
REMARK    2  A    between atoms: C_12  and  C_13 
REMARK    3  A    between atoms: C_13  and  C_14 
REMARK    4  A    between atoms: C_14  and  C_15 
REMARK    5  A    between atoms: C_15  and  N_16 
ROOT
ATOM      1  C   UNL d   1       8.528   3.866 -14.006  0.00  0.00     0.027 C 
ENDROOT
BRANCH   1   2
ATOM      2  C   UNL d   1       9.374   3.230 -15.136  0.00  0.00     0.112 C 
BRANCH   2   3
ATOM      3  N   UNL d   1      10.206   4.163 -15.911  0.00  0.00    -0.264 N 
ATOM      4  C   UNL d   1      11.306   4.781 -15.404  0.00  0.00     0.263 A 
ATOM      5  O   UNL d   1      11.805   4.627 -14.293  0.00  0.00    -0.267 OA
ATOM      6  C   UNL d   1      11.771   5.719 -16.448  0.00  0.00     0.061 A 
ATOM      7  C   UNL d   1      10.971   5.552 -17.556  0.00  0.00     0.061 A 
ATOM      8  C   UNL d   1      12.812   6.664 -16.413  0.00  0.00     0.005 A 
ATOM      9  C   UNL d   1      11.193   6.242 -18.758  0.00  0.00     0.005 A 
ATOM     10  C   UNL d   1       9.957   4.523 -17.196  0.00  0.00     0.263 A 
ATOM     11  C   UNL d   1      12.278   7.159 -18.765  0.00  0.00     0.000 A 
ATOM     12  C   UNL d   1      13.069   7.386 -17.602  0.00  0.00     0.000 A 
ATOM     13  O   UNL d   1       9.074   4.100 -17.948  0.00  0.00    -0.267 OA
ENDBRANCH   2   3
ENDBRANCH   1   2
BRANCH   1  14
ATOM     14  C   UNL d   1       9.377   4.578 -12.933  0.00  0.00     0.037 C 
BRANCH  14  15
ATOM     15  C   UNL d   1       8.538   5.200 -11.785  0.00  0.00     0.250 C 
BRANCH  15  16
ATOM     16  N   UNL d   1       9.448   5.957 -10.921  0.00  0.00     0.137 N 
ATOM     17  C   UNL d   1       8.908   5.944  -9.570  0.00  0.00     0.250 C 
ATOM     18  C   UNL d   1       9.829   6.693  -8.590  0.00  0.00     0.033 C 
ATOM     19  C   UNL d   1      10.024   8.154  -9.020  0.00  0.00     0.004 C 
ATOM     20  C   UNL d   1       9.281   6.642  -7.161  0.00  0.00     0.002 C 
ATOM     21  C   UNL d   1      10.540   8.161 -10.457  0.00  0.00     0.035 C 
ATOM     22  C   UNL d   1      10.970   8.893  -8.058  0.00  0.00     0.000 C 
ATOM     23  C   UNL d   1       9.599   7.347 -11.382  0.00  0.00     0.250 C 
ATOM     24  C   UNL d   1      10.442   8.822  -6.620  0.00  0.00     0.000 C 
ATOM     25  C   UNL d   1      10.216   7.371  -6.189  0.00  0.00     0.000 C 
ENDBRANCH  15  16
ENDBRANCH  14  15
ENDBRANCH   1  14
TORSDOF 5
