REMARK  9 active torsions:
REMARK  status: ('A' for Active; 'I' for Inactive)
REMARK    1  A    between atoms: C_2  and  C_3 
REMARK       I    between atoms: C_2  and  N_26 
REMARK    2  A    between atoms: C_3  and  C_4 
REMARK    3  A    between atoms: C_4  and  C_5 
REMARK    4  A    between atoms: C_5  and  C_6 
REMARK    5  A    between atoms: C_6  and  C_7 
REMARK    6  A    between atoms: C_7  and  N_8 
REMARK    7  A    between atoms: N_11  and  C_12 
REMARK    8  A    between atoms: C_17  and  C_18 
REMARK    9  A    between atoms: N_26  and  C_27 
ROOT
ATOM      1  N   UNL d   1       9.761   0.301 -18.313  0.00  0.00     0.141 N 
ATOM      2  C   UNL d   1       9.187   1.375 -17.504  0.00  0.00     0.274 C 
ATOM      3  C   UNL d   1       7.629   1.379 -17.613  0.00  0.00     0.137 C 
ATOM      4  N   UNL d   1       7.093   0.066 -17.265  0.00  0.00    -0.344 N 
ATOM      5  C   UNL d   1       7.685  -1.047 -17.995  0.00  0.00     0.137 C 
ATOM      6  C   UNL d   1       9.225  -0.995 -17.849  0.00  0.00     0.274 C 
ENDROOT
BRANCH   1   7
ATOM      7  C   UNL d   1      11.203   0.307 -18.100  0.00  0.00     0.250 C 
BRANCH   7   8
ATOM      8  C   UNL d   1      11.917   0.315 -19.451  0.00  0.00     0.035 C 
BRANCH   8   9
ATOM      9  C   UNL d   1      12.150   1.738 -19.976  0.00  0.00     0.003 C 
BRANCH   9  10
ATOM     10  C   UNL d   1      13.080   1.755 -21.204  0.00  0.00     0.010 C 
BRANCH  10  11
ATOM     11  C   UNL d   1      13.648   3.146 -21.550  0.00  0.00     0.090 C 
BRANCH  11  12
ATOM     12  C   UNL d   1      14.491   3.761 -20.425  0.00  0.00     0.252 C 
ATOM     13  O   UNL d   1      15.076   3.034 -19.621  0.00  0.00    -0.271 OA
ATOM     14  N   UNL d   1      14.553   5.101 -20.378  0.00  0.00    -0.235 NA
BRANCH  14  15
ATOM     15  C   UNL d   1      15.289   5.884 -19.379  0.00  0.00     0.128 C 
ATOM     16  C   UNL d   1      14.403   6.358 -18.224  0.00  0.00    -0.004 A 
ATOM     17  C   UNL d   1      14.101   7.732 -18.027  0.00  0.00    -0.024 A 
ATOM     18  C   UNL d   1      13.884   5.402 -17.322  0.00  0.00    -0.003 A 
ATOM     19  C   UNL d   1      14.643   8.813 -18.950  0.00  0.00     0.026 C 
ATOM     20  C   UNL d   1      13.296   8.121 -16.932  0.00  0.00    -0.004 A 
ATOM     21  C   UNL d   1      15.170   8.265 -20.283  0.00  0.00     0.007 C 
ATOM     22  C   UNL d   1      16.047   7.025 -20.078  0.00  0.00     0.029 C 
ATOM     23  C   UNL d   1      12.788   7.163 -16.040  0.00  0.00    -0.000 A 
ATOM     24  C   UNL d   1      13.079   5.801 -16.236  0.00  0.00    -0.000 A 
ENDBRANCH  14  15
ENDBRANCH  11  12
ENDBRANCH  10  11
ENDBRANCH   9  10
ENDBRANCH   8   9
ENDBRANCH   7   8
ENDBRANCH   1   7
BRANCH   4  25
ATOM     25  C   UNL d   1       6.070  -0.144 -16.288  0.00  0.00     0.056 A 
ATOM     26  C   UNL d   1       6.105   0.487 -15.009  0.00  0.00     0.015 A 
ATOM     27  C   UNL d   1       5.034   0.251 -14.101  0.00  0.00     0.001 A 
ATOM     28  C   UNL d   1       3.963  -0.588 -14.442  0.00  0.00     0.000 A 
ATOM     29  C   UNL d   1       3.940  -1.233 -15.686  0.00  0.00     0.002 A 
ATOM     30  C   UNL d   1       4.988  -0.999 -16.611  0.00  0.00     0.017 A 
BRANCH  26  31
ATOM     31  C   UNL d   1       7.164   1.408 -14.575  0.00  0.00     0.001 C 
ATOM     32  C   UNL d   1       6.887   2.705 -14.085  0.00  0.00     0.000 C 
ATOM     33  C   UNL d   1       7.919   3.601 -13.741  0.00  0.00     0.000 C 
ATOM     34  C   UNL d   1       9.257   3.195 -13.876  0.00  0.00     0.000 C 
ATOM     35  C   UNL d   1       9.555   1.902 -14.347  0.00  0.00     0.000 C 
ATOM     36  C   UNL d   1       8.504   1.006 -14.616  0.00  0.00     0.000 C 
ENDBRANCH  26  31
ENDBRANCH   4  25
TORSDOF 9
