REMARK  8 active torsions:
REMARK  status: ('A' for Active; 'I' for Inactive)
REMARK    1  A    between atoms: O_2  and  C_3 
REMARK    2  A    between atoms: C_8  and  N_9 
REMARK    3  A    between atoms: N_15  and  C_16 
REMARK    4  A    between atoms: C_16  and  C_17 
REMARK    5  A    between atoms: C_17  and  C_18 
REMARK    6  A    between atoms: C_18  and  S_19 
REMARK    7  A    between atoms: S_19  and  C_20 
REMARK    8  A    between atoms: C_23  and  C_24 
ROOT
ATOM      1  N   UNL d   1       7.059  -0.660 -19.036  0.00  0.00    -0.347 N 
ATOM      2  C   UNL d   1       8.442  -0.920 -19.442  0.00  0.00     0.102 C 
ATOM      3  C   UNL d   1       9.367  -1.010 -18.212  0.00  0.00     0.024 C 
ATOM      4  C   UNL d   1       9.206   0.207 -17.266  0.00  0.00     0.008 C 
ATOM      5  C   UNL d   1       9.755   1.500 -17.933  0.00  0.00     0.035 C 
ATOM      6  C   UNL d   1       9.744   2.703 -16.977  0.00  0.00     0.250 C 
ATOM      7  N   UNL d   1      10.534   2.403 -15.784  0.00  0.00     0.137 N 
ATOM      8  C   UNL d   1      10.062   1.189 -15.083  0.00  0.00     0.250 C 
ATOM      9  C   UNL d   1      10.073  -0.024 -16.005  0.00  0.00     0.035 C 
ATOM     10  C   UNL d   1       7.700   0.353 -16.896  0.00  0.00     0.024 C 
ATOM     11  C   UNL d   1       6.815   0.470 -18.148  0.00  0.00     0.102 C 
ENDROOT
BRANCH   7  12
ATOM     12  C   UNL d   1      10.580   3.567 -14.887  0.00  0.00     0.251 C 
BRANCH  12  13
ATOM     13  C   UNL d   1       9.351   3.717 -13.960  0.00  0.00     0.047 C 
BRANCH  13  14
ATOM     14  C   UNL d   1       9.363   4.956 -13.071  0.00  0.00     0.067 C 
BRANCH  14  15
ATOM     15  S   UNL d   1       7.863   5.004 -12.050  0.00  0.00    -0.075 SA
BRANCH  15  16
ATOM     16  C   UNL d   1       8.590   5.397 -10.497  0.00  0.00     0.193 A 
ATOM     17  N   UNL d   1       9.175   6.576 -10.230  0.00  0.00    -0.289 N 
ATOM     18  C   UNL d   1       9.522   6.423  -8.933  0.00  0.00     0.167 A 
ATOM     19  C   UNL d   1       9.302   7.757 -11.068  0.00  0.00     0.134 C 
ATOM     20  N   UNL d   1       9.202   5.229  -8.437  0.00  0.00    -0.128 NA
ATOM     21  N   UNL d   1       8.602   4.556  -9.461  0.00  0.00    -0.122 NA
BRANCH  18  22
ATOM     22  C   UNL d   1      10.206   7.418  -8.134  0.00  0.00     0.036 A 
ATOM     23  C   UNL d   1       9.621   7.923  -6.954  0.00  0.00     0.005 A 
ATOM     24  C   UNL d   1      10.314   8.873  -6.181  0.00  0.00     0.030 A 
ATOM     25  C   UNL d   1      11.594   9.309  -6.569  0.00  0.00     0.140 A 
ATOM     26  C   UNL d   1      12.191   8.788  -7.735  0.00  0.00     0.030 A 
ATOM     27  F   UNL d   1      12.254  10.224  -5.830  0.00  0.00    -0.204 F 
ATOM     28  C   UNL d   1      11.493   7.860  -8.521  0.00  0.00     0.005 A 
ENDBRANCH  18  22
ENDBRANCH  15  16
ENDBRANCH  14  15
ENDBRANCH  13  14
ENDBRANCH  12  13
ENDBRANCH   7  12
BRANCH   1  29
ATOM     29  C   UNL d   1       6.019  -1.537 -19.391  0.00  0.00     0.079 A 
ATOM     30  C   UNL d   1       5.071  -1.985 -18.438  0.00  0.00     0.110 A 
ATOM     31  C   UNL d   1       4.011  -2.837 -18.866  0.00  0.00     0.026 A 
ATOM     32  C   UNL d   1       3.913  -3.227 -20.212  0.00  0.00     0.002 A 
ATOM     33  C   UNL d   1       4.862  -2.792 -21.148  0.00  0.00     0.002 A 
ATOM     34  C   UNL d   1       5.918  -1.946 -20.731  0.00  0.00     0.019 A 
BRANCH  30  35
ATOM     35  O   UNL d   1       5.218  -1.583 -17.127  0.00  0.00    -0.327 OA
ATOM     36  C   UNL d   1       4.416  -2.166 -16.123  0.00  0.00     0.181 C 
ENDBRANCH  30  35
ENDBRANCH   1  29
TORSDOF 8
