REMARK  7 active torsions:
REMARK  status: ('A' for Active; 'I' for Inactive)
REMARK    1  A    between atoms: C_2  and  C_3 
REMARK    2  A    between atoms: C_3  and  N_4 
REMARK    3  A    between atoms: N_7  and  C_8 
REMARK    4  A    between atoms: C_8  and  C_9 
REMARK    5  A    between atoms: C_9  and  C_10 
REMARK    6  A    between atoms: C_10  and  N_11 
REMARK    7  A    between atoms: C_22  and  C_23 
ROOT
ATOM      1  N   UNL d   1       8.355   4.252 -14.027  0.00  0.00    -0.327 N 
ATOM      2  C   UNL d   1       7.270   3.392 -13.739  0.00  0.00     0.066 A 
ATOM      3  C   UNL d   1       6.471   3.584 -12.586  0.00  0.00     0.018 A 
ATOM      4  C   UNL d   1       5.456   2.682 -12.272  0.00  0.00     0.002 A 
ATOM      5  C   UNL d   1       5.184   1.587 -13.100  0.00  0.00     0.001 A 
ATOM      6  C   UNL d   1       5.925   1.395 -14.264  0.00  0.00     0.008 A 
ATOM      7  C   UNL d   1       6.963   2.286 -14.584  0.00  0.00     0.045 A 
ATOM      8  S   UNL d   1       7.834   1.919 -16.057  0.00  0.00    -0.084 SA
ATOM      9  C   UNL d   1       9.217   2.996 -15.997  0.00  0.00     0.045 A 
ATOM     10  C   UNL d   1      10.177   2.829 -17.013  0.00  0.00     0.008 A 
ATOM     11  C   UNL d   1      11.324   3.639 -17.046  0.00  0.00     0.004 A 
ATOM     12  C   UNL d   1      11.498   4.642 -16.078  0.00  0.00     0.073 A 
ATOM     13  C   UNL d   1      10.522   4.813 -15.080  0.00  0.00     0.022 A 
ATOM     14  C   UNL d   1       9.357   4.012 -15.009  0.00  0.00     0.066 A 
ENDROOT
BRANCH   1  15
ATOM     15  C   UNL d   1       8.362   5.543 -13.306  0.00  0.00     0.108 C 
BRANCH  15  16
ATOM     16  C   UNL d   1       9.255   5.553 -12.043  0.00  0.00     0.060 C 
BRANCH  16  17
ATOM     17  C   UNL d   1       9.425   6.980 -11.495  0.00  0.00     0.252 C 
BRANCH  17  18
ATOM     18  N   UNL d   1      10.255   7.052 -10.288  0.00  0.00     0.141 N 
ATOM     19  C   UNL d   1       9.449   6.876  -9.074  0.00  0.00     0.285 C 
ATOM     20  C   UNL d   1      10.294   6.950  -7.787  0.00  0.00     0.286 C 
ATOM     21  N   UNL d   1      10.996   8.234  -7.695  0.00  0.00     0.144 N 
ATOM     22  C   UNL d   1      11.813   8.373  -8.896  0.00  0.00     0.286 C 
ATOM     23  C   UNL d   1      10.953   8.331 -10.163  0.00  0.00     0.285 C 
BRANCH  21  24
ATOM     24  C   UNL d   1      11.803   8.336  -6.490  0.00  0.00     0.286 C 
BRANCH  24  25
ATOM     25  C   UNL d   1      11.071   8.887  -5.264  0.00  0.00     0.218 C 
ATOM     26  O   UNL d   1      11.965   9.006  -4.177  0.00  0.00    -0.218 OA
ENDBRANCH  24  25
ENDBRANCH  21  24
ENDBRANCH  17  18
ENDBRANCH  16  17
ENDBRANCH  15  16
ENDBRANCH   1  15
BRANCH  12  27
ATOM     27  C   UNL d   1      12.737   5.513 -16.121  0.00  0.00     0.419 C 
ATOM     28  F   UNL d   1      12.629   6.596 -15.357  0.00  0.00    -0.166 F 
ATOM     29  F   UNL d   1      13.762   4.797 -15.681  0.00  0.00    -0.166 F 
ATOM     30  F   UNL d   1      12.984   5.894 -17.377  0.00  0.00    -0.166 F 
ENDBRANCH  12  27
TORSDOF 7
