REMARK  4 active torsions:
REMARK  status: ('A' for Active; 'I' for Inactive)
REMARK    1  A    between atoms: O_2  and  C_3 
REMARK    2  A    between atoms: C_6  and  C_7 
REMARK    3  A    between atoms: C_7  and  N_8 
REMARK    4  A    between atoms: C_14  and  O_15 
ROOT
ATOM      1  C   UNL d   1      10.200   7.420  -8.925  0.00  0.00     0.116 A 
ATOM      2  C   UNL d   1       9.225   7.416  -7.902  0.00  0.00     0.026 A 
ATOM      3  C   UNL d   1       9.422   8.179  -6.741  0.00  0.00    -0.000 A 
ATOM      4  C   UNL d   1      10.599   8.926  -6.555  0.00  0.00     0.013 A 
ATOM      5  C   UNL d   1      11.589   8.904  -7.549  0.00  0.00     0.024 A 
ATOM      6  C   UNL d   1      11.382   8.168  -8.742  0.00  0.00     0.116 A 
ENDROOT
BRANCH   4   7
ATOM      7  C   UNL d   1      10.822   9.690  -5.259  0.00  0.00     0.277 C 
BRANCH   7   8
ATOM      8  N   UNL d   1      11.885   9.126  -4.420  0.00  0.00     0.141 N 
ATOM      9  C   UNL d   1      11.790   9.596  -3.042  0.00  0.00     0.251 C 
ATOM     10  C   UNL d   1      12.671   8.652  -2.235  0.00  0.00     0.037 C 
ATOM     11  C   UNL d   1      12.725   7.388  -3.083  0.00  0.00     0.037 C 
ATOM     12  C   UNL d   1      11.822   7.673  -4.275  0.00  0.00     0.251 C 
ENDBRANCH   7   8
ENDBRANCH   4   7
BRANCH   6  13
ATOM     13  O   UNL d   1      12.279   8.166  -9.777  0.00  0.00    -0.326 OA
ATOM     14  C   UNL d   1      13.637   8.083  -9.414  0.00  0.00     0.181 C 
ENDBRANCH   6  13
BRANCH   1  15
ATOM     15  O   UNL d   1      10.080   6.715 -10.104  0.00  0.00    -0.326 OA
ATOM     16  C   UNL d   1       8.972   5.842 -10.249  0.00  0.00     0.181 C 
ENDBRANCH   1  15
TORSDOF 4
