REMARK  4 active torsions:
REMARK  status: ('A' for Active; 'I' for Inactive)
REMARK    1  A    between atoms: C_2  and  N_3 
REMARK    2  A    between atoms: C_2  and  C_8 
REMARK    3  A    between atoms: N_3  and  C_4 
REMARK    4  A    between atoms: C_8  and  C_10 
ROOT
ATOM      1  C   UNL d   1      10.831   7.257  -6.377  0.00  0.00     0.195 C 
ATOM      2  O   UNL d   1      10.767   6.040  -6.709  0.00  0.00    -0.289 OA
ENDROOT
BRANCH   1   3
ATOM      3  C   UNL d   1      10.500   8.254  -7.408  0.00  0.00     0.159 C 
ATOM      4  C   UNL d   1       9.136   8.908  -7.079  0.00  0.00     0.034 C 
BRANCH   3   5
ATOM      5  N   UNL d   1      10.406   7.637  -8.725  0.00  0.00    -0.293 NA
BRANCH   5   6
ATOM      6  C   UNL d   1      11.016   8.321  -9.845  0.00  0.00     0.080 C 
ATOM      7  C   UNL d   1      12.455   7.841  -9.993  0.00  0.00     0.024 C 
ATOM      8  C   UNL d   1      11.001   9.827  -9.643  0.00  0.00     0.024 C 
ATOM      9  C   UNL d   1      10.121   7.946 -11.021  0.00  0.00     0.024 C 
ENDBRANCH   5   6
ENDBRANCH   3   5
ENDBRANCH   1   3
BRANCH   1  10
ATOM     10  C   UNL d   1      11.333   7.758  -5.064  0.00  0.00     0.037 A 
ATOM     11  C   UNL d   1      11.816   6.801  -4.154  0.00  0.00     0.014 A 
ATOM     12  C   UNL d   1      12.308   7.199  -2.910  0.00  0.00     0.058 A 
ATOM     13  C   UNL d   1      12.347   8.532  -2.470  0.00  0.00     0.011 A 
ATOM     14 CL   UNL d   1      12.964   6.003  -1.992  0.00  0.00    -0.082 Cl
ATOM     15  C   UNL d   1      11.886   9.511  -3.370  0.00  0.00     0.001 A 
ATOM     16  C   UNL d   1      11.441   9.125  -4.662  0.00  0.00     0.003 A 
ENDBRANCH   1  10
TORSDOF 4
