REMARK  5 active torsions:
REMARK  status: ('A' for Active; 'I' for Inactive)
REMARK    1  A    between atoms: N_2  and  C_4 
REMARK    2  A    between atoms: C_12  and  C_13 
REMARK    3  A    between atoms: C_13  and  C_14 
REMARK    4  A    between atoms: C_14  and  N_15 
REMARK    5  A    between atoms: C_18  and  C_19 
ROOT
ATOM      1  N   UNL d   1       9.522   6.577  -9.720  0.00  0.00     0.137 N 
ATOM      2  C   UNL d   1      10.943   6.671  -9.461  0.00  0.00     0.251 C 
ATOM      3  C   UNL d   1      11.307   7.663  -8.354  0.00  0.00     0.041 C 
ATOM      4  C   UNL d   1      10.584   7.263  -7.061  0.00  0.00     0.047 C 
ATOM      5  C   UNL d   1       9.088   7.030  -7.345  0.00  0.00     0.041 C 
ATOM      6  C   UNL d   1       8.897   6.040  -8.498  0.00  0.00     0.251 C 
ENDROOT
BRANCH   1   7
ATOM      7  C   UNL d   1       9.358   5.592 -10.786  0.00  0.00     0.250 C 
BRANCH   7   8
ATOM      8  C   UNL d   1       7.957   5.712 -11.408  0.00  0.00     0.038 C 
BRANCH   8   9
ATOM      9  C   UNL d   1       7.521   4.433 -12.148  0.00  0.00     0.037 C 
ATOM     10  C   UNL d   1       8.548   3.936 -13.200  0.00  0.00     0.174 C 
ATOM     11  C   UNL d   1       8.045   2.780 -14.038  0.00  0.00     0.005 A 
ATOM     12  O   UNL d   1       8.919   5.038 -14.005  0.00  0.00    -0.219 OA
ATOM     13  C   UNL d   1       6.672   2.477 -14.134  0.00  0.00    -0.024 A 
ATOM     14  C   UNL d   1       8.991   2.021 -14.768  0.00  0.00     0.021 A 
ATOM     15  C   UNL d   1       6.270   1.399 -14.941  0.00  0.00    -0.003 A 
ATOM     16  C   UNL d   1       5.616   3.283 -13.339  0.00  0.00     0.026 C 
ATOM     17  C   UNL d   1       7.203   0.654 -15.673  0.00  0.00     0.023 A 
ATOM     18  C   UNL d   1       8.575   0.947 -15.586  0.00  0.00     0.126 A 
ATOM     19  C   UNL d   1       6.136   4.595 -12.767  0.00  0.00     0.008 C 
BRANCH  18  20
ATOM     20  N   UNL d   1       9.573   0.159 -16.338  0.00  0.00    -0.114 N 
ATOM     21  O   UNL d   1      10.677  -0.009 -15.832  0.00  0.00    -0.532 OA
ATOM     22  O   UNL d   1       9.253  -0.297 -17.435  0.00  0.00    -0.532 OA
ENDBRANCH  18  20
ENDBRANCH   8   9
ENDBRANCH   7   8
ENDBRANCH   1   7
BRANCH   4  23
ATOM     23  C   UNL d   1      10.789   8.316  -6.018  0.00  0.00     0.087 A 
ATOM     24  C   UNL d   1      11.420   8.241  -4.766  0.00  0.00     0.041 A 
ATOM     25  C   UNL d   1      11.343   9.492  -4.136  0.00  0.00     0.129 A 
ATOM     26  C   UNL d   1      12.071   7.168  -4.117  0.00  0.00     0.006 A 
ATOM     27  O   UNL d   1      10.686  10.315  -5.032  0.00  0.00    -0.211 OA
ATOM     28  C   UNL d   1      11.896   9.747  -2.874  0.00  0.00     0.057 A 
ATOM     29  N   UNL d   1      10.348   9.561  -6.190  0.00  0.00    -0.131 NA
ATOM     30  C   UNL d   1      12.581   8.681  -2.253  0.00  0.00     0.142 A 
ATOM     31  F   UNL d   1      13.309   8.889  -1.150  0.00  0.00    -0.204 F 
ATOM     32  C   UNL d   1      12.639   7.402  -2.849  0.00  0.00     0.030 A 
ENDBRANCH   4  23
TORSDOF 5
