REMARK  7 active torsions:
REMARK  status: ('A' for Active; 'I' for Inactive)
REMARK    1  A    between atoms: C_2  and  C_3 
REMARK    2  A    between atoms: C_3  and  C_4 
REMARK       I    between atoms: C_4  and  N_6 
REMARK    3  A    between atoms: N_6  and  C_7 
REMARK    4  A    between atoms: C_10  and  C_11 
REMARK    5  A    between atoms: C_11  and  C_12 
REMARK    6  A    between atoms: C_12  and  N_13 
REMARK    7  A    between atoms: C_16  and  C_17 
ROOT
ATOM      1  N   UNL d   1       9.347   5.184 -12.491  0.00  0.00     0.137 N 
ATOM      2  C   UNL d   1       7.902   5.023 -12.579  0.00  0.00     0.251 C 
ATOM      3  C   UNL d   1       7.558   4.402 -13.932  0.00  0.00     0.040 C 
ATOM      4  C   UNL d   1       8.204   3.021 -14.080  0.00  0.00     0.026 C 
ATOM      5  C   UNL d   1       9.710   3.109 -13.782  0.00  0.00     0.040 C 
ATOM      6  C   UNL d   1       9.973   3.860 -12.489  0.00  0.00     0.251 C 
ENDROOT
BRANCH   1   7
ATOM      7  C   UNL d   1       9.697   5.870 -11.258  0.00  0.00     0.250 C 
BRANCH   7   8
ATOM      8  C   UNL d   1       9.299   7.331 -11.186  0.00  0.00     0.035 C 
BRANCH   8   9
ATOM      9  C   UNL d   1       9.760   7.976  -9.863  0.00  0.00     0.002 C 
ATOM     10  C   UNL d   1       9.237   7.218  -8.610  0.00  0.00     0.002 C 
ATOM     11  C   UNL d   1       9.541   7.957  -7.321  0.00  0.00     0.024 C 
ATOM     12  C   UNL d   1      11.062   8.032  -7.193  0.00  0.00     0.106 C 
ATOM     13  C   UNL d   1      11.689   8.762  -8.393  0.00  0.00     0.024 C 
ATOM     14  C   UNL d   1      11.293   8.121  -9.726  0.00  0.00     0.002 C 
BRANCH  12  15
ATOM     15  N   UNL d   1      11.448   8.711  -5.971  0.00  0.00    -0.240 NA
ATOM     16  C   UNL d   1      11.490   8.111  -4.778  0.00  0.00     0.251 C 
ATOM     17  O   UNL d   1      11.259   6.910  -4.619  0.00  0.00    -0.271 OA
BRANCH  16  18
ATOM     18  C   UNL d   1      11.920   8.976  -3.596  0.00  0.00     0.090 C 
BRANCH  18  19
ATOM     19  C   UNL d   1      12.297   8.089  -2.390  0.00  0.00     0.010 C 
ATOM     20  C   UNL d   1      12.957   8.871  -1.292  0.00  0.00     0.001 C 
ENDBRANCH  18  19
ENDBRANCH  16  18
ENDBRANCH  12  15
ENDBRANCH   8   9
ENDBRANCH   7   8
ENDBRANCH   1   7
BRANCH   4  21
ATOM     21  C   UNL d   1       7.943   2.373 -15.431  0.00  0.00    -0.024 A 
ATOM     22  C   UNL d   1       6.974   1.372 -15.600  0.00  0.00    -0.001 A 
ATOM     23  C   UNL d   1       6.683   0.827 -16.840  0.00  0.00     0.090 A 
ATOM     24  C   UNL d   1       6.070   0.746 -14.578  0.00  0.00     0.061 A 
ATOM     25  C   UNL d   1       7.384   1.251 -17.995  0.00  0.00     0.024 A 
ATOM     26  O   UNL d   1       5.669  -0.077 -16.809  0.00  0.00    -0.331 OA
ATOM     27  C   UNL d   1       8.380   2.230 -17.850  0.00  0.00     0.002 A 
ATOM     28  C   UNL d   1       8.665   2.791 -16.583  0.00  0.00    -0.004 A 
ATOM     29  C   UNL d   1       5.200  -0.185 -15.452  0.00  0.00     0.154 A 
ENDBRANCH   4  21
TORSDOF 7
