REMARK  6 active torsions:
REMARK  status: ('A' for Active; 'I' for Inactive)
REMARK    1  A    between atoms: O_2  and  C_3 
REMARK    2  A    between atoms: C_8  and  N_9 
REMARK    3  A    between atoms: N_12  and  C_13 
REMARK    4  A    between atoms: C_13  and  C_14 
REMARK    5  A    between atoms: C_14  and  C_15 
REMARK    6  A    between atoms: C_15  and  N_16 
ROOT
ATOM      1  N   UNL d   1      10.186   7.312  -6.592  0.00  0.00    -0.343 N 
ATOM      2  C   UNL d   1      10.231   6.021  -7.246  0.00  0.00     0.137 C 
ATOM      3  C   UNL d   1      10.451   6.141  -8.746  0.00  0.00     0.274 C 
ATOM      4  N   UNL d   1       9.457   7.037  -9.346  0.00  0.00     0.141 N 
ATOM      5  C   UNL d   1       9.575   8.349  -8.706  0.00  0.00     0.274 C 
ATOM      6  C   UNL d   1       9.234   8.238  -7.206  0.00  0.00     0.137 C 
ENDROOT
BRANCH   4   7
ATOM      7  C   UNL d   1       9.678   7.185 -10.774  0.00  0.00     0.252 C 
BRANCH   7   8
ATOM      8  C   UNL d   1       9.437   5.844 -11.495  0.00  0.00     0.060 C 
BRANCH   8   9
ATOM      9  C   UNL d   1       9.312   6.051 -13.011  0.00  0.00     0.111 C 
BRANCH   9  10
ATOM     10  N   UNL d   1       9.337   4.776 -13.758  0.00  0.00    -0.299 N 
ATOM     11  C   UNL d   1       8.151   3.956 -13.729  0.00  0.00     0.058 A 
ATOM     12  C   UNL d   1       8.057   2.811 -14.576  0.00  0.00    -0.006 A 
ATOM     13  C   UNL d   1       7.043   4.271 -12.893  0.00  0.00     0.017 A 
ATOM     14  C   UNL d   1       9.164   2.544 -15.579  0.00  0.00     0.038 C 
ATOM     15  C   UNL d   1       6.910   1.986 -14.537  0.00  0.00    -0.003 A 
ATOM     16  C   UNL d   1      10.528   2.992 -15.043  0.00  0.00     0.093 C 
ATOM     17  C   UNL d   1      10.480   4.386 -14.401  0.00  0.00     0.238 C 
ATOM     18  O   UNL d   1      11.497   5.073 -14.469  0.00  0.00    -0.272 OA
ATOM     19  C   UNL d   1       5.858   2.263 -13.637  0.00  0.00    -0.000 A 
ATOM     20  C   UNL d   1       5.932   3.409 -12.821  0.00  0.00     0.002 A 
ENDBRANCH   9  10
ENDBRANCH   8   9
ENDBRANCH   7   8
ENDBRANCH   4   7
BRANCH   1  21
ATOM     21  C   UNL d   1      11.023   7.625  -5.518  0.00  0.00     0.079 A 
ATOM     22  C   UNL d   1      11.667   8.888  -5.432  0.00  0.00     0.110 A 
ATOM     23  C   UNL d   1      12.460   9.170  -4.298  0.00  0.00     0.026 A 
ATOM     24  C   UNL d   1      12.655   8.251  -3.251  0.00  0.00     0.002 A 
ATOM     25  C   UNL d   1      12.058   6.984  -3.352  0.00  0.00     0.002 A 
ATOM     26  C   UNL d   1      11.266   6.689  -4.476  0.00  0.00     0.019 A 
BRANCH  22  27
ATOM     27  O   UNL d   1      11.508   9.734  -6.509  0.00  0.00    -0.327 OA
ATOM     28  C   UNL d   1      11.888  11.080  -6.354  0.00  0.00     0.181 C 
ENDBRANCH  22  27
ENDBRANCH   1  21
TORSDOF 6
