REMARK  4 active torsions:
REMARK  status: ('A' for Active; 'I' for Inactive)
REMARK    1  A    between atoms: C_2  and  C_3 
REMARK    2  A    between atoms: C_3  and  N_4 
REMARK    3  A    between atoms: N_7  and  C_8 
REMARK    4  A    between atoms: C_11  and  O_12 
ROOT
ATOM      1  N   UNL d   1       9.203   5.903 -10.613  0.00  0.00     0.141 N 
ATOM      2  C   UNL d   1       9.783   7.258 -10.642  0.00  0.00     0.274 C 
ATOM      3  C   UNL d   1      11.009   7.362  -9.715  0.00  0.00     0.137 C 
ATOM      4  N   UNL d   1      10.639   6.943  -8.370  0.00  0.00    -0.344 N 
ATOM      5  C   UNL d   1       9.964   5.650  -8.290  0.00  0.00     0.137 C 
ATOM      6  C   UNL d   1       8.768   5.620  -9.242  0.00  0.00     0.274 C 
ENDROOT
BRANCH   4   7
ATOM      7  C   UNL d   1      10.911   7.694  -7.225  0.00  0.00     0.056 A 
ATOM      8  C   UNL d   1      11.128   7.034  -6.006  0.00  0.00     0.019 A 
ATOM      9  C   UNL d   1      11.417   7.727  -4.832  0.00  0.00     0.026 A 
ATOM     10  C   UNL d   1      11.468   9.150  -4.825  0.00  0.00     0.094 A 
ATOM     11  C   UNL d   1      11.254   9.823  -6.044  0.00  0.00     0.026 A 
ATOM     12  C   UNL d   1      10.982   9.111  -7.234  0.00  0.00     0.019 A 
BRANCH  10  13
ATOM     13  O   UNL d   1      11.695   9.908  -3.703  0.00  0.00    -0.328 OA
ATOM     14  C   UNL d   1      12.089   9.219  -2.522  0.00  0.00     0.181 C 
ENDBRANCH  10  13
ENDBRANCH   4   7
BRANCH   1  15
ATOM     15  C   UNL d   1       8.037   5.855 -11.498  0.00  0.00     0.250 C 
BRANCH  15  16
ATOM     16  C   UNL d   1       7.606   4.415 -11.807  0.00  0.00     0.035 C 
ATOM     17  C   UNL d   1       6.482   4.356 -12.844  0.00  0.00     0.002 C 
ENDBRANCH  15  16
ENDBRANCH   1  15
TORSDOF 4
