REMARK  11 active torsions:
REMARK  status: ('A' for Active; 'I' for Inactive)
REMARK    1  A    between atoms: C_2  and  C_3 
REMARK    2  A    between atoms: C_3  and  N_4 
REMARK    3  A    between atoms: N_4  and  C_5 
REMARK    4  A    between atoms: N_4  and  C_22 
REMARK    5  A    between atoms: C_5  and  C_6 
REMARK    6  A    between atoms: C_6  and  C_7 
REMARK    7  A    between atoms: C_7  and  C_8 
REMARK    8  A    between atoms: C_8  and  N_9 
REMARK       I    between atoms: N_9  and  C_10 
REMARK    9  A    between atoms: C_10  and  C_12 
REMARK   10  A    between atoms: C_22  and  C_23 
REMARK   11  A    between atoms: C_25  and  C_26 
ROOT
ATOM      1  C   UNL d   1       9.416   4.880 -14.487  0.00  0.00     0.250 C 
ENDROOT
BRANCH   1   2
ATOM      2  N   UNL d   1       9.527   3.698 -15.309  0.00  0.00     0.137 N 
BRANCH   2   3
ATOM      3  C   UNL d   1       8.418   2.771 -15.047  0.00  0.00     0.250 C 
BRANCH   3   4
ATOM      4  C   UNL d   1       8.204   1.635 -16.002  0.00  0.00     0.035 C 
ATOM      5  C   UNL d   1       7.762   1.820 -17.428  0.00  0.00     0.002 C 
ENDBRANCH   3   4
ENDBRANCH   2   3
BRANCH   2   6
ATOM      6  C   UNL d   1       9.632   4.092 -16.700  0.00  0.00     0.251 C 
BRANCH   6   7
ATOM      7  C   UNL d   1      10.999   4.465 -17.163  0.00  0.00     0.038 A 
ATOM      8  C   UNL d   1      11.957   3.394 -17.653  0.00  0.00     0.024 A 
ATOM      9  C   UNL d   1      11.355   4.355 -18.637  0.00  0.00     0.007 A 
BRANCH   8  10
ATOM     10  C   UNL d   1      11.546   1.949 -17.676  0.00  0.00    -0.020 C 
ATOM     11  C   UNL d   1      11.137   1.318 -16.499  0.00  0.00     0.025 C 
ATOM     12  C   UNL d   1      10.652  -0.032 -16.486  0.00  0.00     0.140 C 
ATOM     13  C   UNL d   1      10.600  -0.759 -17.671  0.00  0.00     0.030 C 
ATOM     14  F   UNL d   1       9.936  -0.495 -15.403  0.00  0.00    -0.204 F 
ATOM     15  C   UNL d   1      11.172  -0.194 -18.816  0.00  0.00     0.002 C 
ATOM     16  C   UNL d   1      11.628   1.142 -18.820  0.00  0.00    -0.004 C 
ENDBRANCH   8  10
ENDBRANCH   6   7
ENDBRANCH   2   6
ENDBRANCH   1   2
BRANCH   1  17
ATOM     17  C   UNL d   1       9.247   4.553 -12.997  0.00  0.00     0.037 C 
BRANCH  17  18
ATOM     18  C   UNL d   1       9.165   5.814 -12.134  0.00  0.00     0.029 C 
BRANCH  18  19
ATOM     19  C   UNL d   1       8.501   5.546 -10.775  0.00  0.00     0.129 C 
BRANCH  19  20
ATOM     20  N   UNL d   1       9.062   6.392  -9.736  0.00  0.00    -0.234 NA
ATOM     21  C   UNL d   1       9.796   5.969  -8.699  0.00  0.00     0.275 C 
ATOM     22  O   UNL d   1      10.122   4.796  -8.555  0.00  0.00    -0.266 OA
BRANCH  21  23
ATOM     23  C   UNL d   1      10.176   7.011  -7.686  0.00  0.00     0.058 A 
ATOM     24  C   UNL d   1      10.838   6.635  -6.496  0.00  0.00     0.005 A 
ATOM     25  C   UNL d   1      11.201   7.598  -5.536  0.00  0.00     0.000 A 
ATOM     26  C   UNL d   1      10.912   8.963  -5.769  0.00  0.00     0.000 A 
ATOM     27  C   UNL d   1      11.856   7.212  -4.348  0.00  0.00     0.000 A 
ATOM     28  C   UNL d   1      10.264   9.340  -6.958  0.00  0.00     0.000 A 
ATOM     29  C   UNL d   1      11.274   9.932  -4.814  0.00  0.00     0.000 A 
ATOM     30  C   UNL d   1       9.896   8.377  -7.911  0.00  0.00     0.005 A 
ATOM     31  C   UNL d   1      11.926   9.541  -3.627  0.00  0.00     0.000 A 
ATOM     32  C   UNL d   1      12.219   8.184  -3.396  0.00  0.00     0.000 A 
ENDBRANCH  21  23
ENDBRANCH  19  20
ENDBRANCH  18  19
ENDBRANCH  17  18
ENDBRANCH   1  17
TORSDOF 11
