REMARK  3 active torsions:
REMARK  status: ('A' for Active; 'I' for Inactive)
REMARK    1  A    between atoms: C_4  and  C_5 
REMARK    2  A    between atoms: C_18  and  O_19 
REMARK    3  A    between atoms: O_19  and  C_20 
ROOT
ATOM      1  C   UNL d   1       7.595   0.076 -17.091  0.00  0.00     0.079 C 
ATOM      2  N   UNL d   1       7.379   0.770 -16.056  0.00  0.00    -0.244 NA
ATOM      3  C   UNL d   1       8.306   1.569 -15.373  0.00  0.00     0.100 A 
ATOM      4  C   UNL d   1       7.760   2.667 -14.686  0.00  0.00     0.032 A 
ATOM      5  C   UNL d   1       8.567   3.494 -13.887  0.00  0.00     0.059 A 
ATOM      6 CL   UNL d   1       7.874   4.835 -13.050  0.00  0.00    -0.082 Cl
ATOM      7  C   UNL d   1       9.938   3.209 -13.755  0.00  0.00     0.013 A 
ATOM      8  C   UNL d   1      10.498   2.106 -14.437  0.00  0.00     0.021 A 
ATOM      9  C   UNL d   1       9.694   1.286 -15.239  0.00  0.00     0.099 A 
ATOM     10  N   UNL d   1      10.341   0.251 -15.934  0.00  0.00    -0.244 NA
ATOM     11  C   UNL d   1      10.168   0.132 -17.309  0.00  0.00     0.083 A 
ATOM     12  C   UNL d   1      11.308   0.053 -18.144  0.00  0.00     0.021 A 
ATOM     13  C   UNL d   1      11.171   0.057 -19.552  0.00  0.00     0.026 A 
ATOM     14  C   UNL d   1       9.868   0.167 -20.136  0.00  0.00     0.102 A 
ATOM     15  C   UNL d   1       8.765   0.233 -19.280  0.00  0.00     0.028 A 
ATOM     16  C   UNL d   1       8.871   0.154 -17.874  0.00  0.00     0.037 A 
ENDROOT
BRANCH   1  17
ATOM     17  C   UNL d   1       6.474  -0.800 -17.573  0.00  0.00    -0.005 C 
ATOM     18  C   UNL d   1       6.620  -1.756 -18.526  0.00  0.00     0.004 C 
ATOM     19  C   UNL d   1       5.508  -2.643 -19.060  0.00  0.00     0.241 C 
ATOM     20  C   UNL d   1       5.556  -2.654 -20.605  0.00  0.00     0.040 C 
ATOM     21  N   UNL d   1       4.188  -2.239 -18.572  0.00  0.00     0.141 N 
ATOM     22  C   UNL d   1       4.239  -1.960 -17.137  0.00  0.00     0.255 C 
ATOM     23  C   UNL d   1       3.218  -3.297 -18.823  0.00  0.00     0.286 C 
ATOM     24  C   UNL d   1       5.123  -0.730 -16.870  0.00  0.00     0.063 C 
ENDBRANCH   1  17
BRANCH  14  25
ATOM     25  O   UNL d   1       9.790   0.198 -21.523  0.00  0.00    -0.253 OA
BRANCH  25  26
ATOM     26  C   UNL d   1       8.551   0.303 -22.128  0.00  0.00     0.530 C 
ATOM     27  F   UNL d   1       7.920   1.442 -21.778  0.00  0.00    -0.144 F 
ATOM     28  F   UNL d   1       8.720   0.341 -23.485  0.00  0.00    -0.144 F 
ATOM     29  F   UNL d   1       7.751  -0.747 -21.841  0.00  0.00    -0.144 F 
ENDBRANCH  25  26
ENDBRANCH  14  25
TORSDOF 3
