REMARK  8 active torsions:
REMARK  status: ('A' for Active; 'I' for Inactive)
REMARK       I    between atoms: C_2  and  N_4 
REMARK    1  A    between atoms: N_4  and  C_5 
REMARK    2  A    between atoms: C_8  and  C_9 
REMARK    3  A    between atoms: C_9  and  C_10 
REMARK    4  A    between atoms: C_10  and  N_11 
REMARK    5  A    between atoms: N_11  and  C_13 
REMARK    6  A    between atoms: C_13  and  C_14 
REMARK    7  A    between atoms: N_23  and  S_24 
REMARK    8  A    between atoms: S_24  and  C_27 
ROOT
ATOM      1  C   UNL d   1       8.263   6.260 -12.524  0.00  0.00     0.048 A 
ATOM      2  C   UNL d   1       6.669   5.960 -12.335  0.00  0.00     0.032 A 
ATOM      3  C   UNL d   1       6.907   4.698 -13.133  0.00  0.00    -0.026 A 
ATOM      4  C   UNL d   1       6.258   3.589 -13.691  0.00  0.00    -0.003 A 
ATOM      5  C   UNL d   1       7.091   2.746 -14.485  0.00  0.00     0.018 A 
ATOM      6  C   UNL d   1       8.513   2.965 -14.558  0.00  0.00     0.075 A 
ATOM      7  C   UNL d   1       9.100   4.089 -13.981  0.00  0.00     0.014 A 
ATOM      8  C   UNL d   1      10.498   4.161 -14.190  0.00  0.00     0.021 A 
ATOM      9  C   UNL d   1      10.781   3.010 -14.881  0.00  0.00     0.092 A 
ATOM     10  N   UNL d   1       9.605   2.281 -15.105  0.00  0.00    -0.231 N 
ATOM     11  C   UNL d   1       8.294   4.969 -13.300  0.00  0.00    -0.023 A 
ENDROOT
BRANCH   1  12
ATOM     12  C   UNL d   1       9.236   6.159 -11.358  0.00  0.00     0.102 C 
BRANCH  12  13
ATOM     13  N   UNL d   1       9.277   7.434 -10.701  0.00  0.00    -0.366 N 
ATOM     14  C   UNL d   1      10.074   8.473 -11.295  0.00  0.00     0.121 C 
BRANCH  13  15
ATOM     15  C   UNL d   1       9.425   7.358  -9.262  0.00  0.00     0.102 C 
BRANCH  15  16
ATOM     16  C   UNL d   1      10.903   7.136  -8.902  0.00  0.00     0.050 C 
BRANCH  16  17
ATOM     17  C   UNL d   1      11.165   7.531  -7.475  0.00  0.00    -0.020 A 
ATOM     18  C   UNL d   1      11.566   8.840  -7.176  0.00  0.00    -0.003 A 
ATOM     19  C   UNL d   1      11.867   9.204  -5.852  0.00  0.00     0.019 A 
ATOM     20  C   UNL d   1      11.743   8.259  -4.808  0.00  0.00     0.084 A 
ATOM     21  C   UNL d   1      11.298   6.939  -5.115  0.00  0.00     0.019 A 
ATOM     22  C   UNL d   1      11.006   6.595  -6.448  0.00  0.00    -0.003 A 
BRANCH  20  23
ATOM     23  N   UNL d   1      12.104   8.701  -3.516  0.00  0.00    -0.212 NA
ATOM     24  C   UNL d   1      12.290   7.951  -2.416  0.00  0.00     0.256 C 
ATOM     25  C   UNL d   1      12.904   8.664  -1.254  0.00  0.00     0.100 C 
ATOM     26  O   UNL d   1      12.034   6.758  -2.306  0.00  0.00    -0.270 OA
ENDBRANCH  20  23
ENDBRANCH  16  17
ENDBRANCH  15  16
ENDBRANCH  13  15
ENDBRANCH  12  13
ENDBRANCH   1  12
BRANCH  10  27
ATOM     27  S   UNL d   1       9.597   0.775 -15.905  0.00  0.00     0.271 S 
ATOM     28  O   UNL d   1       9.694   1.077 -17.333  0.00  0.00    -0.200 OA
ATOM     29  O   UNL d   1      10.647  -0.007 -15.230  0.00  0.00    -0.200 OA
BRANCH  27  30
ATOM     30  C   UNL d   1       7.981   0.105 -15.579  0.00  0.00     0.104 A 
ATOM     31  C   UNL d   1       7.096  -0.220 -16.638  0.00  0.00     0.013 A 
ATOM     32  C   UNL d   1       5.795  -0.695 -16.353  0.00  0.00     0.001 A 
ATOM     33  C   UNL d   1       5.369  -0.843 -15.011  0.00  0.00     0.000 A 
ATOM     34  C   UNL d   1       6.245  -0.513 -13.954  0.00  0.00     0.001 A 
ATOM     35  C   UNL d   1       7.553  -0.082 -14.228  0.00  0.00     0.013 A 
ENDBRANCH  27  30
ENDBRANCH  10  27
TORSDOF 8
