REMARK  7 active torsions:
REMARK  status: ('A' for Active; 'I' for Inactive)
REMARK    1  A    between atoms: C_2  and  C_3 
REMARK       I    between atoms: C_2  and  N_10 
REMARK    2  A    between atoms: C_3  and  C_4 
REMARK    3  A    between atoms: N_10  and  C_11 
REMARK    4  A    between atoms: C_15  and  C_16 
REMARK    5  A    between atoms: C_16  and  C_17 
REMARK    6  A    between atoms: C_17  and  N_18 
REMARK    7  A    between atoms: N_21  and  C_22 
ROOT
ATOM      1  C   UNL d   1       8.684   3.600 -13.608  0.00  0.00     0.084 A 
ATOM      2  C   UNL d   1       7.273   3.543 -13.636  0.00  0.00     0.019 A 
ATOM      3  C   UNL d   1       6.503   4.435 -12.864  0.00  0.00     0.001 A 
ATOM      4  C   UNL d   1       7.140   5.408 -12.069  0.00  0.00    -0.004 A 
ATOM      5  C   UNL d   1       8.549   5.474 -12.029  0.00  0.00    -0.019 A 
ATOM      6  C   UNL d   1       9.315   4.566 -12.787  0.00  0.00     0.015 A 
ENDROOT
BRANCH   5   7
ATOM      7  C   UNL d   1       9.233   6.505 -11.149  0.00  0.00     0.062 C 
BRANCH   7   8
ATOM      8  C   UNL d   1       9.350   6.025  -9.696  0.00  0.00     0.255 C 
BRANCH   8   9
ATOM      9  N   UNL d   1       9.683   7.127  -8.788  0.00  0.00     0.141 N 
ATOM     10  C   UNL d   1       8.974   6.940  -7.518  0.00  0.00     0.274 C 
ATOM     11  C   UNL d   1       9.220   8.137  -6.590  0.00  0.00     0.137 C 
ATOM     12  N   UNL d   1      10.639   8.355  -6.394  0.00  0.00    -0.344 N 
ATOM     13  C   UNL d   1      11.449   8.418  -7.597  0.00  0.00     0.137 C 
ATOM     14  C   UNL d   1      11.122   7.217  -8.518  0.00  0.00     0.274 C 
BRANCH  12  15
ATOM     15  C   UNL d   1      11.226   8.327  -5.124  0.00  0.00     0.056 A 
ATOM     16  C   UNL d   1      11.446   9.541  -4.453  0.00  0.00     0.017 A 
ATOM     17  C   UNL d   1      12.032   9.545  -3.166  0.00  0.00     0.002 A 
ATOM     18  C   UNL d   1      12.408   8.342  -2.553  0.00  0.00     0.000 A 
ATOM     19  C   UNL d   1      12.182   7.122  -3.210  0.00  0.00     0.002 A 
ATOM     20  C   UNL d   1      11.581   7.114  -4.496  0.00  0.00     0.017 A 
ENDBRANCH  12  15
ENDBRANCH   8   9
ENDBRANCH   7   8
ENDBRANCH   5   7
BRANCH   1  21
ATOM     21  N   UNL d   1       9.389   2.650 -14.397  0.00  0.00    -0.211 NA
ATOM     22  C   UNL d   1      10.676   2.648 -14.793  0.00  0.00     0.260 C 
ATOM     23  O   UNL d   1      11.523   3.477 -14.460  0.00  0.00    -0.270 OA
BRANCH  22  24
ATOM     24  C   UNL d   1      11.086   1.513 -15.736  0.00  0.00     0.116 C 
BRANCH  24  25
ATOM     25  C   UNL d   1      10.153   1.433 -16.935  0.00  0.00    -0.010 A 
ATOM     26  C   UNL d   1       9.068   0.530 -16.943  0.00  0.00     0.017 A 
ATOM     27  C   UNL d   1       8.207   0.526 -18.058  0.00  0.00     0.099 A 
ATOM     28  N   UNL d   1       8.361   1.348 -19.119  0.00  0.00    -0.243 NA
ATOM     29  C   UNL d   1       9.414   2.193 -19.114  0.00  0.00     0.099 A 
ATOM     30  C   UNL d   1      10.331   2.280 -18.049  0.00  0.00     0.017 A 
ENDBRANCH  24  25
ENDBRANCH  22  24
ENDBRANCH   1  21
TORSDOF 7
