REMARK  4 active torsions:
REMARK  status: ('A' for Active; 'I' for Inactive)
REMARK    1  A    between atoms: C_8  and  C_9 
REMARK    2  A    between atoms: C_9  and  C_10 
REMARK    3  A    between atoms: C_10  and  N_11 
REMARK    4  A    between atoms: N_14  and  C_15 
ROOT
ATOM      1  N   UNL d   1       7.661   2.779 -14.044  0.00  0.00     0.141 N 
ATOM      2  C   UNL d   1       6.738   3.846 -13.629  0.00  0.00     0.274 C 
ATOM      3  C   UNL d   1       7.067   4.368 -12.215  0.00  0.00     0.137 C 
ATOM      4  N   UNL d   1       8.465   4.743 -12.145  0.00  0.00    -0.344 N 
ATOM      5  C   UNL d   1       9.442   3.785 -12.638  0.00  0.00     0.137 C 
ATOM      6  C   UNL d   1       9.043   3.285 -14.043  0.00  0.00     0.274 C 
ENDROOT
BRANCH   1   7
ATOM      7  C   UNL d   1       7.297   2.280 -15.370  0.00  0.00     0.255 C 
BRANCH   7   8
ATOM      8  C   UNL d   1       7.455   0.753 -15.465  0.00  0.00     0.068 C 
BRANCH   8   9
ATOM      9  C   UNL d   1       6.428   0.142 -16.425  0.00  0.00     0.050 A 
ATOM     10  C   UNL d   1       5.416  -0.669 -16.008  0.00  0.00     0.061 A 
ATOM     11  C   UNL d   1       5.199  -1.046 -14.553  0.00  0.00     0.052 C 
ATOM     12  N   UNL d   1       4.495  -1.213 -16.905  0.00  0.00    -0.237 NA
ATOM     13  C   UNL d   1       4.604  -0.940 -18.163  0.00  0.00     0.122 A 
ATOM     14  C   UNL d   1       3.688  -1.556 -19.210  0.00  0.00     0.064 C 
ATOM     15  N   UNL d   1       5.598  -0.082 -18.678  0.00  0.00    -0.285 N 
ATOM     16  C   UNL d   1       4.472  -2.064 -20.431  0.00  0.00     0.010 C 
ATOM     17  C   UNL d   1       5.419  -1.000 -21.010  0.00  0.00     0.025 C 
ATOM     18  C   UNL d   1       5.532   0.253 -20.119  0.00  0.00     0.110 C 
ATOM     19  C   UNL d   1       6.534   0.485 -17.860  0.00  0.00     0.259 A 
ATOM     20  O   UNL d   1       7.385   1.262 -18.298  0.00  0.00    -0.267 OA
ENDBRANCH   8   9
ENDBRANCH   7   8
ENDBRANCH   1   7
BRANCH   4  21
ATOM     21  C   UNL d   1       8.844   5.987 -11.632  0.00  0.00     0.057 A 
ATOM     22  C   UNL d   1       9.374   6.123 -10.326  0.00  0.00     0.022 A 
ATOM     23  C   UNL d   1       9.790   7.430  -9.922  0.00  0.00     0.031 A 
ATOM     24  C   UNL d   1       9.571   5.150  -9.284  0.00  0.00     0.009 A 
ATOM     25  C   UNL d   1       9.649   8.541 -10.756  0.00  0.00     0.007 A 
ATOM     26  S   UNL d   1      10.374   7.440  -8.278  0.00  0.00    -0.086 SA
ATOM     27  C   UNL d   1       9.065   8.386 -12.022  0.00  0.00     0.002 A 
ATOM     28  C   UNL d   1       8.657   7.114 -12.441  0.00  0.00     0.017 A 
ATOM     29  C   UNL d   1      10.086   5.737  -8.159  0.00  0.00     0.035 A 
ENDBRANCH   4  21
TORSDOF 4
