REMARK  9 active torsions:
REMARK  status: ('A' for Active; 'I' for Inactive)
REMARK    1  A    between atoms: O_2  and  C_3 
REMARK    2  A    between atoms: C_8  and  N_9 
REMARK    3  A    between atoms: N_12  and  C_13 
REMARK    4  A    between atoms: C_13  and  C_14 
REMARK    5  A    between atoms: C_14  and  C_15 
REMARK    6  A    between atoms: C_15  and  C_16 
REMARK    7  A    between atoms: C_16  and  N_17 
REMARK       I    between atoms: N_17  and  C_18 
REMARK    8  A    between atoms: C_18  and  C_20 
REMARK    9  A    between atoms: C_21  and  C_22 
ROOT
ATOM      1  C   UNL d   1       9.514   3.184 -13.598  0.00  0.00     0.251 C 
ENDROOT
BRANCH   1   2
ATOM      2  N   UNL d   1       9.708   2.312 -14.767  0.00  0.00     0.141 N 
ATOM      3  C   UNL d   1      11.110   2.332 -15.204  0.00  0.00     0.274 C 
ATOM      4  C   UNL d   1      11.321   1.371 -16.387  0.00  0.00     0.137 C 
ATOM      5  N   UNL d   1      10.372   1.657 -17.458  0.00  0.00    -0.343 N 
ATOM      6  C   UNL d   1       8.970   1.696 -17.062  0.00  0.00     0.137 C 
ATOM      7  C   UNL d   1       8.812   2.664 -15.882  0.00  0.00     0.274 C 
BRANCH   5   8
ATOM      8  C   UNL d   1      10.809   1.998 -18.750  0.00  0.00     0.079 A 
ATOM      9  C   UNL d   1      10.338   3.150 -19.438  0.00  0.00     0.110 A 
ATOM     10  C   UNL d   1      10.805   3.402 -20.762  0.00  0.00     0.026 A 
ATOM     11  C   UNL d   1      11.722   2.536 -21.378  0.00  0.00     0.002 A 
ATOM     12  C   UNL d   1      12.196   1.412 -20.693  0.00  0.00     0.002 A 
ATOM     13  C   UNL d   1      11.745   1.146 -19.380  0.00  0.00     0.019 A 
BRANCH   9  14
ATOM     14  O   UNL d   1       9.460   3.988 -18.782  0.00  0.00    -0.327 OA
ATOM     15  C   UNL d   1       8.977   5.140 -19.450  0.00  0.00     0.181 C 
ENDBRANCH   9  14
ENDBRANCH   5   8
ENDBRANCH   1   2
BRANCH   1  16
ATOM     16  C   UNL d   1       9.270   4.676 -13.925  0.00  0.00     0.037 C 
BRANCH  16  17
ATOM     17  C   UNL d   1       9.287   5.580 -12.691  0.00  0.00     0.029 C 
BRANCH  17  18
ATOM     18  C   UNL d   1       8.112   5.315 -11.729  0.00  0.00     0.129 C 
BRANCH  18  19
ATOM     19  N   UNL d   1       8.330   5.991 -10.471  0.00  0.00    -0.234 NA
ATOM     20  C   UNL d   1       9.103   5.540  -9.483  0.00  0.00     0.275 C 
ATOM     21  O   UNL d   1       9.519   4.371  -9.436  0.00  0.00    -0.266 OA
BRANCH  20  22
ATOM     22  C   UNL d   1       9.443   6.569  -8.527  0.00  0.00     0.062 C 
ATOM     23  C   UNL d   1      10.431   6.383  -7.628  0.00  0.00     0.005 C 
BRANCH  23  24
ATOM     24  C   UNL d   1      10.908   7.397  -6.684  0.00  0.00     0.005 A 
ATOM     25  C   UNL d   1      11.197   8.733  -7.063  0.00  0.00     0.030 A 
ATOM     26  C   UNL d   1      11.631   9.657  -6.090  0.00  0.00     0.006 A 
ATOM     27  I   UNL d   1      11.065   9.370  -9.060  0.00  0.00    -0.043 I 
ATOM     28  C   UNL d   1      11.773   9.264  -4.746  0.00  0.00     0.000 A 
ATOM     29  C   UNL d   1      11.492   7.940  -4.371  0.00  0.00     0.000 A 
ATOM     30  C   UNL d   1      11.062   7.011  -5.335  0.00  0.00     0.000 A 
ENDBRANCH  23  24
ENDBRANCH  20  22
ENDBRANCH  18  19
ENDBRANCH  17  18
ENDBRANCH  16  17
ENDBRANCH   1  16
TORSDOF 9
