REMARK  7 active torsions:
REMARK  status: ('A' for Active; 'I' for Inactive)
REMARK    1  A    between atoms: O_2  and  C_3 
REMARK    2  A    between atoms: N_13  and  C_14 
REMARK    3  A    between atoms: C_14  and  C_15 
REMARK    4  A    between atoms: C_15  and  C_16 
REMARK    5  A    between atoms: C_16  and  C_17 
REMARK    6  A    between atoms: C_17  and  N_18 
REMARK       I    between atoms: N_18  and  C_19 
REMARK    7  A    between atoms: C_19  and  C_21 
ROOT
ATOM      1  C   UNL d   1       5.709  -1.752 -17.724  0.00  0.00     0.094 A 
ATOM      2  C   UNL d   1       4.661  -1.658 -16.763  0.00  0.00     0.026 A 
ATOM      3  C   UNL d   1       4.755  -0.745 -15.713  0.00  0.00     0.026 A 
ATOM      4  C   UNL d   1       5.865   0.076 -15.586  0.00  0.00     0.092 A 
ATOM      5  C   UNL d   1       6.915   0.040 -16.544  0.00  0.00     0.031 A 
ATOM      6  C   UNL d   1       6.824  -0.888 -17.613  0.00  0.00     0.024 A 
ATOM      7  C   UNL d   1       8.115   0.951 -16.377  0.00  0.00     0.173 C 
ATOM      8  O   UNL d   1       8.609   1.440 -17.619  0.00  0.00    -0.348 OA
ATOM      9  C   UNL d   1       9.786   2.225 -17.469  0.00  0.00     0.178 C 
ATOM     10  C   UNL d   1       9.511   3.407 -16.522  0.00  0.00     0.282 C 
ATOM     11  N   UNL d   1       8.997   2.979 -15.222  0.00  0.00     0.143 N 
ATOM     12  C   UNL d   1       7.787   2.161 -15.463  0.00  0.00     0.280 C 
ATOM     13  C   UNL d   1       7.059   1.613 -14.213  0.00  0.00     0.185 C 
ATOM     14  O   UNL d   1       5.864   0.926 -14.516  0.00  0.00    -0.329 OA
ENDROOT
BRANCH  11  15
ATOM     15  C   UNL d   1       8.805   4.143 -14.341  0.00  0.00     0.251 C 
BRANCH  15  16
ATOM     16  C   UNL d   1       8.917   3.863 -12.834  0.00  0.00     0.037 C 
BRANCH  16  17
ATOM     17  C   UNL d   1       8.899   5.145 -11.994  0.00  0.00     0.029 C 
BRANCH  17  18
ATOM     18  C   UNL d   1       8.768   4.792 -10.518  0.00  0.00     0.129 C 
BRANCH  18  19
ATOM     19  N   UNL d   1       8.651   5.986  -9.704  0.00  0.00    -0.238 NA
ATOM     20  C   UNL d   1       9.350   6.179  -8.586  0.00  0.00     0.251 C 
ATOM     21  O   UNL d   1      10.138   5.331  -8.173  0.00  0.00    -0.271 OA
BRANCH  20  22
ATOM     22  C   UNL d   1       9.154   7.490  -7.822  0.00  0.00     0.081 C 
ATOM     23  C   UNL d   1       9.879   7.527  -6.456  0.00  0.00     0.009 C 
ATOM     24  C   UNL d   1      11.417   7.610  -6.592  0.00  0.00     0.001 C 
ATOM     25  C   UNL d   1      11.824   8.795  -7.489  0.00  0.00     0.000 C 
ATOM     26  C   UNL d   1      11.098   8.781  -8.851  0.00  0.00     0.001 C 
ATOM     27  C   UNL d   1       9.572   8.711  -8.669  0.00  0.00     0.009 C 
ENDBRANCH  20  22
ENDBRANCH  18  19
ENDBRANCH  17  18
ENDBRANCH  16  17
ENDBRANCH  15  16
ENDBRANCH  11  15
BRANCH   1  28
ATOM     28  O   UNL d   1       5.694  -2.666 -18.760  0.00  0.00    -0.328 OA
ATOM     29  C   UNL d   1       4.556  -3.527 -18.845  0.00  0.00     0.181 C 
ENDBRANCH   1  28
TORSDOF 7
