REMARK  7 active torsions:
REMARK  status: ('A' for Active; 'I' for Inactive)
REMARK    1  A    between atoms: O_2  and  C_3 
REMARK    2  A    between atoms: C_3  and  C_5 
REMARK    3  A    between atoms: C_16  and  C_17 
REMARK    4  A    between atoms: C_17  and  N_18 
REMARK    5  A    between atoms: C_21  and  N_22 
REMARK    6  A    between atoms: C_21  and  C_29 
REMARK    7  A    between atoms: N_22  and  C_23 
ROOT
ATOM      1  C   UNL d   1       7.120  -0.708 -18.408  0.00  0.00     0.144 A 
ATOM      2  C   UNL d   1       7.756   0.255 -17.636  0.00  0.00     0.028 A 
ATOM      3  C   UNL d   1       9.169   0.364 -18.110  0.00  0.00     0.044 A 
ATOM      4  C   UNL d   1      10.386   1.093 -17.834  0.00  0.00     0.118 A 
ATOM      5  C   UNL d   1      11.546   0.842 -18.617  0.00  0.00     0.116 A 
ATOM      6  C   UNL d   1      11.555  -0.118 -19.634  0.00  0.00     0.028 A 
ATOM      7  C   UNL d   1      10.385  -0.830 -19.931  0.00  0.00     0.021 A 
ATOM      8  C   UNL d   1       9.248  -0.586 -19.170  0.00  0.00     0.084 A 
ATOM      9  N   UNL d   1       8.021  -1.204 -19.320  0.00  0.00    -0.240 NA
ATOM     10  O   UNL d   1      12.732   1.518 -18.412  0.00  0.00    -0.326 OA
ATOM     11  C   UNL d   1      12.636   2.703 -17.644  0.00  0.00     0.181 C 
ATOM     12  C   UNL d   1      11.758   2.445 -16.415  0.00  0.00     0.185 C 
ATOM     13  O   UNL d   1      10.433   2.041 -16.814  0.00  0.00    -0.327 OA
ENDROOT
BRANCH  12  14
ATOM     14  C   UNL d   1      11.761   3.717 -15.560  0.00  0.00     0.283 C 
BRANCH  14  15
ATOM     15  N   UNL d   1      10.500   3.833 -14.848  0.00  0.00     0.140 N 
ATOM     16  C   UNL d   1      10.656   3.512 -13.439  0.00  0.00     0.253 C 
ATOM     17  C   UNL d   1       9.313   3.576 -12.713  0.00  0.00     0.067 C 
ATOM     18  C   UNL d   1       8.634   4.963 -12.798  0.00  0.00     0.162 C 
ATOM     19  C   UNL d   1       8.623   5.297 -14.300  0.00  0.00     0.067 C 
ATOM     20  C   UNL d   1       9.992   5.186 -14.988  0.00  0.00     0.253 C 
BRANCH  18  21
ATOM     21  N   UNL d   1       9.449   5.980 -12.086  0.00  0.00    -0.265 NA
BRANCH  21  22
ATOM     22  C   UNL d   1       9.555   6.046 -10.683  0.00  0.00     0.076 A 
ATOM     23  C   UNL d   1       8.894   5.117  -9.840  0.00  0.00     0.019 A 
ATOM     24  C   UNL d   1       8.862   5.279  -8.452  0.00  0.00     0.002 A 
ATOM     25  C   UNL d   1       9.557   6.334  -7.841  0.00  0.00     0.000 A 
ATOM     26  C   UNL d   1      10.283   7.237  -8.653  0.00  0.00     0.002 A 
ATOM     27  C   UNL d   1      10.279   7.094 -10.068  0.00  0.00     0.019 A 
ENDBRANCH  21  22
ENDBRANCH  18  21
BRANCH  18  28
ATOM     28  C   UNL d   1       7.154   4.951 -12.324  0.00  0.00     0.293 C 
ATOM     29  N   UNL d   1       6.706   5.979 -11.668  0.00  0.00    -0.105 N 
ATOM     30  O   UNL d   1       6.415   3.977 -12.562  0.00  0.00    -0.267 OA
ENDBRANCH  18  28
ENDBRANCH  14  15
ENDBRANCH  12  14
BRANCH   1  31
ATOM     31  C   UNL d   1       5.764  -1.266 -18.429  0.00  0.00     0.314 C 
ATOM     32  O   UNL d   1       5.463  -2.112 -19.281  0.00  0.00    -0.257 OA
BRANCH  31  33
ATOM     33  O   UNL d   1       4.931  -0.797 -17.475  0.00  0.00    -0.295 OA
ATOM     34  C   UNL d   1       3.613  -1.331 -17.397  0.00  0.00     0.185 C 
ENDBRANCH  31  33
ENDBRANCH   1  31
TORSDOF 7
