REMARK  5 active torsions:
REMARK  status: ('A' for Active; 'I' for Inactive)
REMARK    1  A    between atoms: C_9  and  N_10 
REMARK    2  A    between atoms: N_13  and  C_14 
REMARK    3  A    between atoms: C_14  and  C_15 
REMARK    4  A    between atoms: C_15  and  C_16 
REMARK    5  A    between atoms: C_16  and  C_17 
ROOT
ATOM      1  N   UNL d   1       9.855   2.919 -16.091  0.00  0.00    -0.343 N 
ATOM      2  C   UNL d   1       9.458   4.311 -15.975  0.00  0.00     0.137 C 
ATOM      3  C   UNL d   1       8.795   4.552 -14.600  0.00  0.00     0.274 C 
ATOM      4  N   UNL d   1       9.698   4.147 -13.519  0.00  0.00     0.141 N 
ATOM      5  C   UNL d   1       9.993   2.716 -13.666  0.00  0.00     0.274 C 
ATOM      6  C   UNL d   1      10.682   2.419 -15.010  0.00  0.00     0.137 C 
ENDROOT
BRANCH   1   7
ATOM      7  C   UNL d   1       9.485   2.116 -17.182  0.00  0.00     0.080 A 
ATOM      8  C   UNL d   1      10.460   1.407 -17.924  0.00  0.00     0.128 A 
ATOM      9  O   UNL d   1      11.786   1.467 -17.560  0.00  0.00    -0.321 OA
ATOM     10  C   UNL d   1      10.067   0.619 -19.030  0.00  0.00     0.108 A 
ATOM     11  C   UNL d   1      12.769   1.224 -18.574  0.00  0.00     0.202 C 
ATOM     12  C   UNL d   1      13.126   2.537 -19.286  0.00  0.00     0.043 C 
ATOM     13  C   UNL d   1      12.358   0.119 -19.569  0.00  0.00     0.283 C 
ATOM     14  N   UNL d   1      11.050  -0.089 -19.749  0.00  0.00    -0.208 NA
ATOM     15  O   UNL d   1      13.208  -0.526 -20.177  0.00  0.00    -0.268 OA
ATOM     16  C   UNL d   1       8.714   0.528 -19.402  0.00  0.00     0.021 A 
ATOM     17  C   UNL d   1       7.744   1.232 -18.668  0.00  0.00     0.003 A 
ATOM     18  C   UNL d   1       8.128   2.021 -17.564  0.00  0.00     0.019 A 
ENDBRANCH   1   7
BRANCH   4  19
ATOM     19  C   UNL d   1       9.070   4.369 -12.218  0.00  0.00     0.251 C 
BRANCH  19  20
ATOM     20  C   UNL d   1       9.251   5.826 -11.776  0.00  0.00     0.040 C 
BRANCH  20  21
ATOM     21  C   UNL d   1       9.087   6.020 -10.254  0.00  0.00     0.030 C 
BRANCH  21  22
ATOM     22  C   UNL d   1       9.860   7.195  -9.708  0.00  0.00    -0.002 A 
ATOM     23  C   UNL d   1      10.176   7.454  -8.328  0.00  0.00     0.015 A 
ATOM     24  C   UNL d   1      10.935   8.660  -8.261  0.00  0.00     0.081 A 
ATOM     25  C   UNL d   1       9.909   6.791  -7.108  0.00  0.00     0.001 A 
ATOM     26  N   UNL d   1      11.060   9.093  -9.564  0.00  0.00    -0.244 NA
ATOM     27  C   UNL d   1      11.407   9.178  -7.042  0.00  0.00     0.019 A 
ATOM     28  C   UNL d   1      10.395   8.237 -10.423  0.00  0.00     0.095 A 
ATOM     29  C   UNL d   1      11.122   8.498  -5.845  0.00  0.00     0.002 A 
ATOM     30  C   UNL d   1      10.380   7.301  -5.882  0.00  0.00     0.000 A 
ENDBRANCH  21  22
ENDBRANCH  20  21
ENDBRANCH  19  20
ENDBRANCH   4  19
TORSDOF 5
