REMARK  3 active torsions:
REMARK  status: ('A' for Active; 'I' for Inactive)
REMARK    1  A    between atoms: N_14  and  C_15 
REMARK    2  A    between atoms: C_15  and  C_16 
REMARK    3  A    between atoms: C_16  and  C_17 
ROOT
ATOM      1  O   UNL d   1      12.552   7.643  -7.847  0.00  0.00    -0.219 OA
ATOM      2  C   UNL d   1      11.383   7.190  -7.219  0.00  0.00     0.174 C 
ATOM      3  C   UNL d   1      11.450   7.416  -5.717  0.00  0.00     0.004 A 
ATOM      4  C   UNL d   1      11.998   6.426  -4.883  0.00  0.00    -0.002 A 
ATOM      5  C   UNL d   1      12.259   6.622  -3.518  0.00  0.00    -0.000 A 
ATOM      6  C   UNL d   1      11.871   7.843  -2.928  0.00  0.00    -0.000 A 
ATOM      7  C   UNL d   1      11.304   8.848  -3.735  0.00  0.00    -0.004 A 
ATOM      8  C   UNL d   1      11.075   8.617  -5.100  0.00  0.00    -0.024 A 
ATOM      9  C   UNL d   1      10.236   9.588  -5.885  0.00  0.00     0.026 C 
ATOM     10  C   UNL d   1      10.360   9.438  -7.404  0.00  0.00     0.008 C 
ATOM     11  C   UNL d   1      10.273   7.997  -7.918  0.00  0.00     0.036 C 
ATOM     12  C   UNL d   1       8.899   7.397  -7.584  0.00  0.00     0.038 C 
ATOM     13  C   UNL d   1       8.644   6.050  -8.268  0.00  0.00     0.250 C 
ATOM     14  N   UNL d   1       8.873   6.137  -9.713  0.00  0.00     0.137 N 
ATOM     15  C   UNL d   1      10.212   6.605 -10.042  0.00  0.00     0.250 C 
ATOM     16  C   UNL d   1      10.411   8.005  -9.474  0.00  0.00     0.038 C 
ENDROOT
BRANCH  14  17
ATOM     17  C   UNL d   1       8.540   4.861 -10.323  0.00  0.00     0.255 C 
BRANCH  17  18
ATOM     18  C   UNL d   1       8.601   4.961 -11.866  0.00  0.00     0.062 C 
BRANCH  18  19
ATOM     19  C   UNL d   1       7.675   4.004 -12.588  0.00  0.00    -0.020 A 
ATOM     20  C   UNL d   1       6.317   3.902 -12.199  0.00  0.00    -0.004 A 
ATOM     21  C   UNL d   1       5.475   2.965 -12.816  0.00  0.00    -0.000 A 
ATOM     22  C   UNL d   1       5.970   2.153 -13.857  0.00  0.00    -0.000 A 
ATOM     23  C   UNL d   1       7.296   2.317 -14.315  0.00  0.00    -0.000 A 
ATOM     24  C   UNL d   1       8.149   3.230 -13.673  0.00  0.00    -0.004 A 
ENDBRANCH  18  19
ENDBRANCH  17  18
ENDBRANCH  14  17
TORSDOF 3
