REMARK  6 active torsions:
REMARK  status: ('A' for Active; 'I' for Inactive)
REMARK    1  A    between atoms: N_11  and  C_12 
REMARK    2  A    between atoms: C_12  and  C_13 
REMARK    3  A    between atoms: C_13  and  C_14 
REMARK    4  A    between atoms: C_14  and  C_15 
REMARK    5  A    between atoms: C_15  and  N_16 
REMARK    6  A    between atoms: N_19  and  C_20 
ROOT
ATOM      1  C   UNL d   1      10.065   6.591 -10.425  0.00  0.00     0.251 C 
ENDROOT
BRANCH   1   2
ATOM      2  C   UNL d   1       9.062   6.891 -11.556  0.00  0.00     0.037 C 
BRANCH   2   3
ATOM      3  C   UNL d   1       9.271   5.998 -12.793  0.00  0.00     0.027 C 
BRANCH   3   4
ATOM      4  C   UNL d   1       9.155   4.485 -12.492  0.00  0.00     0.112 C 
BRANCH   4   5
ATOM      5  N   UNL d   1       9.439   3.669 -13.672  0.00  0.00    -0.264 N 
ATOM      6  C   UNL d   1      10.674   3.558 -14.227  0.00  0.00     0.263 A 
ATOM      7  O   UNL d   1      11.722   4.115 -13.890  0.00  0.00    -0.267 OA
ATOM      8  C   UNL d   1      10.531   2.623 -15.365  0.00  0.00     0.061 A 
ATOM      9  C   UNL d   1       9.214   2.239 -15.418  0.00  0.00     0.061 A 
ATOM     10  C   UNL d   1      11.484   2.161 -16.285  0.00  0.00     0.005 A 
ATOM     11  C   UNL d   1       8.729   1.358 -16.396  0.00  0.00     0.005 A 
ATOM     12  C   UNL d   1       8.503   2.925 -14.314  0.00  0.00     0.263 A 
ATOM     13  C   UNL d   1       9.665   0.870 -17.339  0.00  0.00     0.000 A 
ATOM     14  C   UNL d   1      11.029   1.268 -17.284  0.00  0.00     0.000 A 
ATOM     15  O   UNL d   1       7.302   2.818 -14.068  0.00  0.00    -0.267 OA
ENDBRANCH   4   5
ENDBRANCH   3   4
ENDBRANCH   2   3
ENDBRANCH   1   2
BRANCH   1  16
ATOM     16  N   UNL d   1       9.856   7.436  -9.252  0.00  0.00     0.141 N 
ATOM     17  C   UNL d   1      11.066   8.200  -8.930  0.00  0.00     0.274 C 
ATOM     18  C   UNL d   1      10.822   9.109  -7.706  0.00  0.00     0.137 C 
ATOM     19  N   UNL d   1      10.348   8.328  -6.581  0.00  0.00    -0.342 N 
ATOM     20  C   UNL d   1       9.214   7.455  -6.852  0.00  0.00     0.137 C 
ATOM     21  C   UNL d   1       9.491   6.596  -8.100  0.00  0.00     0.274 C 
BRANCH  19  22
ATOM     22  C   UNL d   1      11.012   8.350  -5.347  0.00  0.00     0.086 A 
ATOM     23  C   UNL d   1      11.463   7.156  -4.739  0.00  0.00     0.183 A 
ATOM     24  C   UNL d   1      12.101   7.185  -3.485  0.00  0.00     0.169 A 
ATOM     25  F   UNL d   1      11.326   5.988  -5.394  0.00  0.00    -0.200 F 
ATOM     26  C   UNL d   1      12.280   8.402  -2.814  0.00  0.00     0.032 A 
ATOM     27  F   UNL d   1      12.546   6.041  -2.920  0.00  0.00    -0.202 F 
ATOM     28  C   UNL d   1      11.834   9.591  -3.409  0.00  0.00     0.004 A 
ATOM     29  C   UNL d   1      11.211   9.575  -4.676  0.00  0.00     0.019 A 
ENDBRANCH  19  22
ENDBRANCH   1  16
TORSDOF 6
