REMARK  7 active torsions:
REMARK  status: ('A' for Active; 'I' for Inactive)
REMARK       I    between atoms: N_2  and  C_4 
REMARK       I    between atoms: C_4  and  N_6 
REMARK    1  A    between atoms: N_6  and  C_7 
REMARK    2  A    between atoms: C_10  and  C_11 
REMARK    3  A    between atoms: C_11  and  C_12 
REMARK    4  A    between atoms: C_12  and  N_13 
REMARK    5  A    between atoms: N_13  and  C_14 
REMARK    6  A    between atoms: C_14  and  C_15 
REMARK    7  A    between atoms: C_17  and  C_18 
ROOT
ATOM      1  C   UNL d   1       9.317   6.509 -11.051  0.00  0.00     0.290 C 
ENDROOT
BRANCH   1   2
ATOM      2  C   UNL d   1       9.640   7.991 -10.808  0.00  0.00     0.038 C 
BRANCH   2   3
ATOM      3  C   UNL d   1       9.866   8.355  -9.317  0.00  0.00     0.002 C 
ATOM      4  C   UNL d   1       9.578   7.184  -8.342  0.00  0.00     0.002 C 
ATOM      5  C   UNL d   1       9.829   7.543  -6.884  0.00  0.00     0.025 C 
ATOM      6  C   UNL d   1      11.271   8.040  -6.705  0.00  0.00     0.108 C 
ATOM      7  C   UNL d   1      11.558   9.231  -7.617  0.00  0.00     0.025 C 
ATOM      8  C   UNL d   1      11.292   8.901  -9.093  0.00  0.00     0.002 C 
BRANCH   6   9
ATOM      9  N   UNL d   1      11.492   8.450  -5.329  0.00  0.00    -0.221 NA
ATOM     10  C   UNL d   1      11.784   7.598  -4.330  0.00  0.00     0.342 C 
ATOM     11  N   UNL d   1      11.966   8.202  -3.131  0.00  0.00    -0.297 N 
ATOM     12  O   UNL d   1      11.839   6.389  -4.492  0.00  0.00    -0.245 OA
ATOM     13  C   UNL d   1      12.067   9.645  -2.946  0.00  0.00     0.130 C 
ATOM     14  C   UNL d   1      12.076   7.388  -1.925  0.00  0.00     0.130 C 
ENDBRANCH   6   9
ENDBRANCH   2   3
ENDBRANCH   1   2
BRANCH   1  15
ATOM     15  N   UNL d   1       9.363   6.177 -12.455  0.00  0.00     0.339 N 
BRANCH  15  16
ATOM     16  C   UNL d   1       9.550   4.736 -12.596  0.00  0.00     0.290 C 
BRANCH  16  17
ATOM     17  C   UNL d   1       9.969   4.426 -14.027  0.00  0.00     0.041 A 
ATOM     18  C   UNL d   1       9.166   3.480 -14.898  0.00  0.00     0.025 A 
ATOM     19  C   UNL d   1       9.215   4.952 -15.229  0.00  0.00     0.007 A 
BRANCH  18  20
ATOM     20  C   UNL d   1       7.894   2.827 -14.391  0.00  0.00    -0.011 A 
ATOM     21  C   UNL d   1       7.612   1.442 -14.558  0.00  0.00     0.064 A 
ATOM     22  C   UNL d   1       6.425   0.893 -14.022  0.00  0.00     0.068 A 
ATOM     23 CL   UNL d   1       8.750   0.397 -15.354  0.00  0.00    -0.082 Cl
ATOM     24  C   UNL d   1       5.531   1.702 -13.296  0.00  0.00     0.012 A 
ATOM     25 CL   UNL d   1       6.037  -0.788 -14.194  0.00  0.00    -0.082 Cl
ATOM     26  C   UNL d   1       5.794   3.070 -13.133  0.00  0.00     0.001 A 
ATOM     27  C   UNL d   1       6.954   3.632 -13.700  0.00  0.00    -0.003 A 
ENDBRANCH  18  20
ENDBRANCH  16  17
ENDBRANCH  15  16
ENDBRANCH   1  15
TORSDOF 7
