REMARK  8 active torsions:
REMARK  status: ('A' for Active; 'I' for Inactive)
REMARK    1  A    between atoms: C_4  and  N_5 
REMARK    2  A    between atoms: N_8  and  C_9 
REMARK    3  A    between atoms: C_9  and  C_10 
REMARK    4  A    between atoms: C_10  and  C_11 
REMARK    5  A    between atoms: C_11  and  C_12 
REMARK    6  A    between atoms: C_12  and  C_13 
REMARK    7  A    between atoms: C_13  and  N_14 
REMARK    8  A    between atoms: N_14  and  C_15 
ROOT
ATOM      1  C   UNL d   1       6.184   3.114 -13.574  0.00  0.00     0.035 C 
ENDROOT
BRANCH   1   2
ATOM      2  C   UNL d   1       6.004   4.428 -12.836  0.00  0.00     0.250 C 
BRANCH   2   3
ATOM      3  N   UNL d   1       7.274   5.129 -12.607  0.00  0.00     0.141 N 
ATOM      4  C   UNL d   1       7.059   6.481 -12.149  0.00  0.00     0.275 C 
ATOM      5  C   UNL d   1       8.395   7.243 -12.029  0.00  0.00     0.155 C 
ATOM      6  N   UNL d   1       9.320   6.541 -11.132  0.00  0.00    -0.179 N 
ATOM      7  C   UNL d   1       9.523   5.154 -11.467  0.00  0.00     0.155 C 
ATOM      8  C   UNL d   1       8.161   4.445 -11.625  0.00  0.00     0.275 C 
BRANCH   6   9
ATOM      9  C   UNL d   1       9.896   7.104 -10.003  0.00  0.00     0.727 A 
ATOM     10  N   UNL d   1      10.250   8.388 -10.078  0.00  0.00    -0.060 NA
ATOM     11  C   UNL d   1      10.829   8.918  -8.990  0.00  0.00     0.120 A 
ATOM     12  C   UNL d   1      11.056   8.168  -7.822  0.00  0.00     0.043 A 
ATOM     13  C   UNL d   1      10.652   6.823  -7.862  0.00  0.00     0.120 A 
ATOM     14  N   UNL d   1      10.083   6.295  -8.956  0.00  0.00    -0.060 NA
ENDBRANCH   6   9
ENDBRANCH   2   3
ENDBRANCH   1   2
BRANCH   1  15
ATOM     15  C   UNL d   1       5.232   1.993 -13.192  0.00  0.00     0.004 C 
BRANCH  15  16
ATOM     16  C   UNL d   1       5.332   0.743 -14.115  0.00  0.00     0.026 C 
BRANCH  16  17
ATOM     17  C   UNL d   1       6.422  -0.263 -13.722  0.00  0.00     0.127 C 
BRANCH  17  18
ATOM     18  N   UNL d   1       7.465  -0.423 -14.733  0.00  0.00    -0.255 NA
BRANCH  18  19
ATOM     19  C   UNL d   1       8.478   0.497 -15.030  0.00  0.00     0.165 C 
ATOM     20  C   UNL d   1       9.466   0.056 -16.095  0.00  0.00     0.214 C 
ATOM     21  O   UNL d   1      10.762   0.706 -16.048  0.00  0.00    -0.321 OA
ATOM     22  C   UNL d   1      10.746   2.018 -15.620  0.00  0.00     0.112 A 
ATOM     23  C   UNL d   1       9.658   2.519 -14.891  0.00  0.00     0.105 A 
ATOM     24  C   UNL d   1      11.819   2.898 -15.926  0.00  0.00     0.026 A 
ATOM     25  N   UNL d   1       8.650   1.659 -14.495  0.00  0.00    -0.227 NA
ATOM     26  C   UNL d   1       9.586   3.875 -14.548  0.00  0.00     0.021 A 
ATOM     27  C   UNL d   1      10.646   4.741 -14.800  0.00  0.00     0.002 A 
ATOM     28  C   UNL d   1      11.782   4.256 -15.489  0.00  0.00     0.002 A 
ENDBRANCH  18  19
ENDBRANCH  17  18
ENDBRANCH  16  17
ENDBRANCH  15  16
ENDBRANCH   1  15
TORSDOF 8
