REMARK  7 active torsions:
REMARK  status: ('A' for Active; 'I' for Inactive)
REMARK    1  A    between atoms: C_3  and  C_4 
REMARK    2  A    between atoms: C_4  and  N_5 
REMARK    3  A    between atoms: C_8  and  C_9 
REMARK    4  A    between atoms: C_9  and  O_10 
REMARK    5  A    between atoms: O_10  and  C_11 
REMARK    6  A    between atoms: C_11  and  C_12 
REMARK    7  A    between atoms: C_13  and  C_14 
ROOT
ATOM      1  C   UNL d   1       9.339   6.500  -9.272  0.00  0.00     0.143 C 
ENDROOT
BRANCH   1   2
ATOM      2  C   UNL d   1       9.629   5.963 -10.675  0.00  0.00     0.034 C 
ATOM      3  C   UNL d   1       8.719   6.600 -11.735  0.00  0.00     0.038 C 
ATOM      4  C   UNL d   1       8.941   5.959 -13.111  0.00  0.00     0.251 C 
ATOM      5  N   UNL d   1       8.685   4.523 -13.062  0.00  0.00     0.141 N 
ATOM      6  C   UNL d   1       9.625   3.889 -12.140  0.00  0.00     0.251 C 
ATOM      7  C   UNL d   1       9.428   4.447 -10.722  0.00  0.00     0.038 C 
BRANCH   5   8
ATOM      8  C   UNL d   1       8.838   3.958 -14.400  0.00  0.00     0.276 C 
BRANCH   8   9
ATOM      9  C   UNL d   1       8.303   2.541 -14.509  0.00  0.00     0.004 C 
ATOM     10  C   UNL d   1       7.109   2.134 -14.039  0.00  0.00    -0.028 C 
ATOM     11  C   UNL d   1       6.580   0.719 -14.142  0.00  0.00     0.030 C 
ENDBRANCH   8   9
ENDBRANCH   5   8
ENDBRANCH   1   2
BRANCH   1  12
ATOM     12  O   UNL d   1       9.816   7.832  -9.201  0.00  0.00    -0.349 OA
BRANCH  12  13
ATOM     13  C   UNL d   1       9.186   8.635  -8.217  0.00  0.00     0.169 C 
BRANCH  13  14
ATOM     14  C   UNL d   1      10.051   8.853  -7.003  0.00  0.00     0.006 C 
ATOM     15  C   UNL d   1      10.328   7.884  -6.120  0.00  0.00    -0.002 C 
BRANCH  15  16
ATOM     16  C   UNL d   1      11.121   8.036  -4.894  0.00  0.00    -0.000 A 
ATOM     17  C   UNL d   1      11.484   6.883  -4.165  0.00  0.00    -0.000 A 
ATOM     18  C   UNL d   1      12.230   6.990  -2.974  0.00  0.00    -0.000 A 
ATOM     19  C   UNL d   1      12.607   8.262  -2.499  0.00  0.00    -0.000 A 
ATOM     20  C   UNL d   1      12.239   9.413  -3.215  0.00  0.00    -0.000 A 
ATOM     21  C   UNL d   1      11.507   9.306  -4.408  0.00  0.00    -0.000 A 
ENDBRANCH  15  16
ENDBRANCH  13  14
ENDBRANCH  12  13
ENDBRANCH   1  12
TORSDOF 7
