REMARK  15 active torsions:
REMARK  status: ('A' for Active; 'I' for Inactive)
REMARK    1  A    between atoms: O_2  and  C_3 
REMARK    2  A    between atoms: C_8  and  N_9 
REMARK    3  A    between atoms: N_12  and  C_13 
REMARK    4  A    between atoms: C_13  and  C_14 
REMARK    5  A    between atoms: N_16  and  C_17 
REMARK    6  A    between atoms: C_17  and  C_18 
REMARK    7  A    between atoms: C_18  and  O_19 
REMARK    8  A    between atoms: O_19  and  C_20 
REMARK    9  A    between atoms: C_20  and  C_21 
REMARK   10  A    between atoms: C_21  and  O_22 
REMARK   11  A    between atoms: O_22  and  C_23 
REMARK   12  A    between atoms: C_23  and  C_24 
REMARK   13  A    between atoms: C_24  and  O_25 
REMARK   14  A    between atoms: O_25  and  C_26 
REMARK   15  A    between atoms: C_26  and  C_27 
ROOT
ATOM      1  C   UNL d   1      12.841  -0.005 -20.224  0.00  0.00     0.134 A 
ATOM      2  C   UNL d   1      13.941   0.576 -19.658  0.00  0.00     0.115 A 
ATOM      3  N   UNL d   1      14.984  -0.174 -20.145  0.00  0.00    -0.228 N 
ATOM      4  N   UNL d   1      14.557  -1.118 -21.020  0.00  0.00    -0.064 NA
ATOM      5  N   UNL d   1      13.266  -1.025 -21.080  0.00  0.00    -0.131 NA
ENDROOT
BRANCH   1   6
ATOM      6  C   UNL d   1      11.390   0.308 -20.006  0.00  0.00     0.299 C 
BRANCH   6   7
ATOM      7  N   UNL d   1      10.802   0.110 -18.680  0.00  0.00     0.147 N 
ATOM      8  C   UNL d   1      11.444   0.982 -17.687  0.00  0.00     0.275 C 
ATOM      9  C   UNL d   1      10.836   0.780 -16.293  0.00  0.00     0.137 C 
ATOM     10  N   UNL d   1       9.401   0.987 -16.346  0.00  0.00    -0.343 N 
ATOM     11  C   UNL d   1       8.712   0.220 -17.377  0.00  0.00     0.137 C 
ATOM     12  C   UNL d   1       9.375   0.441 -18.744  0.00  0.00     0.275 C 
BRANCH  10  13
ATOM     13  C   UNL d   1       8.731   1.836 -15.444  0.00  0.00     0.079 A 
ATOM     14  C   UNL d   1       7.473   1.471 -14.901  0.00  0.00     0.110 A 
ATOM     15  C   UNL d   1       6.808   2.377 -14.036  0.00  0.00     0.026 A 
ATOM     16  C   UNL d   1       7.402   3.601 -13.678  0.00  0.00     0.002 A 
ATOM     17  C   UNL d   1       8.660   3.949 -14.200  0.00  0.00     0.002 A 
ATOM     18  C   UNL d   1       9.316   3.071 -15.084  0.00  0.00     0.019 A 
BRANCH  14  19
ATOM     19  O   UNL d   1       6.955   0.235 -15.235  0.00  0.00    -0.327 OA
ATOM     20  C   UNL d   1       5.712  -0.164 -14.698  0.00  0.00     0.181 C 
ENDBRANCH  14  19
ENDBRANCH  10  13
ENDBRANCH   6   7
ENDBRANCH   1   6
BRANCH   3  21
ATOM     21  C   UNL d   1      16.390  -0.055 -19.824  0.00  0.00     0.161 C 
BRANCH  21  22
ATOM     22  C   UNL d   1      17.138   0.754 -20.886  0.00  0.00     0.169 C 
BRANCH  22  23
ATOM     23  O   UNL d   1      16.601   2.063 -20.957  0.00  0.00    -0.349 OA
BRANCH  23  24
ATOM     24  C   UNL d   1      17.149   2.806 -22.032  0.00  0.00     0.174 C 
BRANCH  24  25
ATOM     25  C   UNL d   1      16.728   4.277 -21.902  0.00  0.00     0.174 C 
BRANCH  25  26
ATOM     26  O   UNL d   1      17.530   4.922 -20.926  0.00  0.00    -0.349 OA
BRANCH  26  27
ATOM     27  C   UNL d   1      18.781   5.388 -21.416  0.00  0.00     0.174 C 
BRANCH  27  28
ATOM     28  C   UNL d   1      19.690   5.688 -20.223  0.00  0.00     0.174 C 
BRANCH  28  29
ATOM     29  O   UNL d   1      19.084   6.673 -19.400  0.00  0.00    -0.349 OA
BRANCH  29  30
ATOM     30  C   UNL d   1      19.962   7.168 -18.407  0.00  0.00     0.180 C 
BRANCH  30  31
ATOM     31  C   UNL d   1      19.138   7.753 -17.253  0.00  0.00     0.225 C 
ATOM     32  F   UNL d   1      18.509   6.777 -16.595  0.00  0.00    -0.232 F 
ENDBRANCH  30  31
ENDBRANCH  29  30
ENDBRANCH  28  29
ENDBRANCH  27  28
ENDBRANCH  26  27
ENDBRANCH  25  26
ENDBRANCH  24  25
ENDBRANCH  23  24
ENDBRANCH  22  23
ENDBRANCH  21  22
ENDBRANCH   3  21
TORSDOF 15
