REMARK  2 active torsions:
REMARK  status: ('A' for Active; 'I' for Inactive)
REMARK    1  A    between atoms: C_8  and  C_9 
REMARK       I    between atoms: C_9  and  N_11 
REMARK    2  A    between atoms: N_11  and  C_12 
ROOT
ATOM      1  C   UNL d   1       8.950   2.404 -16.035  0.00  0.00     0.134 C 
ATOM      2  N   UNL d   1       9.623   3.362 -15.153  0.00  0.00    -0.293 N 
ATOM      3  C   UNL d   1      10.925   3.685 -15.349  0.00  0.00     0.268 C 
ATOM      4  O   UNL d   1      11.607   3.263 -16.286  0.00  0.00    -0.269 OA
ATOM      5  C   UNL d   1      11.578   4.601 -14.310  0.00  0.00     0.236 C 
ATOM      6  O   UNL d   1      10.662   5.568 -13.787  0.00  0.00    -0.319 OA
ATOM      7  C   UNL d   1       9.458   5.072 -13.371  0.00  0.00     0.115 A 
ATOM      8  C   UNL d   1       8.755   5.654 -12.272  0.00  0.00     0.082 A 
ATOM      9  C   UNL d   1       7.496   5.131 -11.909  0.00  0.00     0.018 A 
ATOM     10  C   UNL d   1       6.965   4.047 -12.611  0.00  0.00     0.059 A 
ATOM     11 CL   UNL d   1       5.466   3.371 -12.203  0.00  0.00    -0.082 Cl
ATOM     12  C   UNL d   1       7.657   3.441 -13.663  0.00  0.00     0.031 A 
ATOM     13  C   UNL d   1       8.917   3.954 -14.057  0.00  0.00     0.086 A 
ENDROOT
BRANCH   8  14
ATOM     14  C   UNL d   1       9.233   6.878 -11.544  0.00  0.00     0.277 C 
ATOM     15  O   UNL d   1       9.472   7.905 -12.164  0.00  0.00    -0.266 OA
ATOM     16  N   UNL d   1       9.259   6.777 -10.206  0.00  0.00    -0.234 NA
BRANCH  16  17
ATOM     17  C   UNL d   1       9.638   7.853  -9.271  0.00  0.00     0.140 C 
ATOM     18  C   UNL d   1      11.083   7.683  -8.803  0.00  0.00     0.029 C 
ATOM     19  C   UNL d   1      11.444   8.879  -7.910  0.00  0.00     0.037 C 
ATOM     20  C   UNL d   1      11.106   6.447  -7.892  0.00  0.00     0.037 C 
ATOM     21  C   UNL d   1      10.455   8.960  -6.721  0.00  0.00     0.250 C 
ATOM     22  N   UNL d   1       9.472   7.870  -6.748  0.00  0.00     0.139 N 
ATOM     23  C   UNL d   1       8.730   7.877  -8.010  0.00  0.00     0.274 C 
ATOM     24  C   UNL d   1      10.136   6.571  -6.718  0.00  0.00     0.250 C 
ENDBRANCH  16  17
ENDBRANCH   8  14
TORSDOF 2
