REMARK  11 active torsions:
REMARK  status: ('A' for Active; 'I' for Inactive)
REMARK    1  A    between atoms: C_2  and  C_3 
REMARK    2  A    between atoms: C_3  and  N_4 
REMARK    3  A    between atoms: N_4  and  C_5 
REMARK    4  A    between atoms: N_4  and  C_24 
REMARK    5  A    between atoms: C_5  and  C_6 
REMARK    6  A    between atoms: C_6  and  C_7 
REMARK    7  A    between atoms: C_7  and  C_8 
REMARK    8  A    between atoms: C_8  and  N_9 
REMARK       I    between atoms: N_9  and  C_10 
REMARK    9  A    between atoms: C_10  and  C_12 
REMARK   10  A    between atoms: C_15  and  C_16 
REMARK   11  A    between atoms: C_29  and  C_30 
ROOT
ATOM      1  C   UNL d   1      10.886   4.059 -15.868  0.00  0.00     0.250 C 
ENDROOT
BRANCH   1   2
ATOM      2  N   UNL d   1      10.463   3.942 -17.271  0.00  0.00     0.135 N 
BRANCH   2   3
ATOM      3  C   UNL d   1      11.623   3.862 -18.177  0.00  0.00     0.250 C 
BRANCH   3   4
ATOM      4  C   UNL d   1      12.492   5.131 -18.188  0.00  0.00     0.035 C 
ATOM      5  C   UNL d   1      11.741   6.329 -18.789  0.00  0.00     0.002 C 
ENDBRANCH   3   4
ENDBRANCH   2   3
BRANCH   2   6
ATOM      6  C   UNL d   1       9.478   2.860 -17.485  0.00  0.00     0.224 C 
ATOM      7  C   UNL d   1      10.116   1.457 -17.358  0.00  0.00     0.062 C 
ATOM      8  C   UNL d   1       9.224   0.349 -17.864  0.00  0.00     0.013 A 
ATOM      9  C   UNL d   1       8.068   0.588 -18.628  0.00  0.00     0.058 A 
ATOM     10  C   UNL d   1       9.546  -0.991 -17.642  0.00  0.00     0.097 A 
ATOM     11  C   UNL d   1       7.619   1.983 -18.994  0.00  0.00     0.048 C 
ATOM     12  N   UNL d   1       7.282  -0.431 -19.058  0.00  0.00    -0.235 NA
ATOM     13  C   UNL d   1       8.721   3.053 -18.818  0.00  0.00     0.040 C 
ATOM     14  C   UNL d   1       7.693  -1.680 -18.809  0.00  0.00     0.138 A 
ATOM     15  N   UNL d   1       8.799  -2.002 -18.131  0.00  0.00    -0.230 NA
BRANCH  14  16
ATOM     16  C   UNL d   1       6.727  -2.820 -19.178  0.00  0.00     0.052 C 
ATOM     17  C   UNL d   1       5.528  -2.869 -18.209  0.00  0.00     0.008 C 
ATOM     18  C   UNL d   1       7.427  -4.200 -19.104  0.00  0.00     0.008 C 
ATOM     19  C   UNL d   1       6.226  -2.620 -20.622  0.00  0.00     0.008 C 
ENDBRANCH  14  16
ENDBRANCH   2   6
ENDBRANCH   1   2
BRANCH   1  20
ATOM     20  C   UNL d   1       9.701   4.285 -14.910  0.00  0.00     0.037 C 
BRANCH  20  21
ATOM     21  C   UNL d   1      10.149   4.788 -13.536  0.00  0.00     0.029 C 
BRANCH  21  22
ATOM     22  C   UNL d   1       8.955   4.935 -12.576  0.00  0.00     0.129 C 
BRANCH  22  23
ATOM     23  N   UNL d   1       9.349   5.466 -11.279  0.00  0.00    -0.234 NA
ATOM     24  C   UNL d   1       9.480   6.771 -10.992  0.00  0.00     0.275 C 
ATOM     25  O   UNL d   1       9.344   7.666 -11.827  0.00  0.00    -0.266 OA
BRANCH  24  26
ATOM     26  C   UNL d   1       9.917   7.073  -9.586  0.00  0.00     0.058 A 
ATOM     27  C   UNL d   1      10.791   8.152  -9.330  0.00  0.00     0.005 A 
ATOM     28  C   UNL d   1      11.176   8.462  -8.010  0.00  0.00     0.000 A 
ATOM     29  C   UNL d   1      10.691   7.711  -6.917  0.00  0.00     0.000 A 
ATOM     30  C   UNL d   1       9.811   6.640  -7.182  0.00  0.00     0.000 A 
ATOM     31  C   UNL d   1       9.426   6.321  -8.497  0.00  0.00     0.005 A 
BRANCH  29  32
ATOM     32  C   UNL d   1      11.082   8.035  -5.533  0.00  0.00     0.000 A 
ATOM     33  C   UNL d   1      11.467   7.018  -4.630  0.00  0.00     0.000 A 
ATOM     34  C   UNL d   1      11.861   7.322  -3.312  0.00  0.00     0.000 A 
ATOM     35  C   UNL d   1      11.859   8.658  -2.872  0.00  0.00     0.000 A 
ATOM     36  C   UNL d   1      11.461   9.678  -3.751  0.00  0.00     0.000 A 
ATOM     37  C   UNL d   1      11.084   9.372  -5.074  0.00  0.00     0.000 A 
ENDBRANCH  29  32
ENDBRANCH  24  26
ENDBRANCH  22  23
ENDBRANCH  21  22
ENDBRANCH  20  21
ENDBRANCH   1  20
TORSDOF 11
