REMARK  2 active torsions:
REMARK  status: ('A' for Active; 'I' for Inactive)
REMARK    1  A    between atoms: C_6  and  C_7 
REMARK    2  A    between atoms: C_13  and  N_14 
ROOT
ATOM      1  C   UNL d   1       9.919   3.558 -15.306  0.00  0.00    -0.001 C 
ATOM      2  C   UNL d   1      11.107   3.726 -14.535  0.00  0.00     0.001 C 
ATOM      3  C   UNL d   1      12.309   4.032 -15.172  0.00  0.00     0.006 C 
ATOM      4  C   UNL d   1      12.405   4.056 -16.577  0.00  0.00     0.027 C 
ATOM      5  C   UNL d   1      11.239   3.833 -17.384  0.00  0.00     0.015 C 
ATOM      6  C   UNL d   1      10.012   3.692 -16.696  0.00  0.00    -0.002 C 
ATOM      7  C   UNL d   1      11.238   3.696 -18.941  0.00  0.00     0.246 C 
ATOM      8  C   UNL d   1      12.359   4.428 -19.721  0.00  0.00     0.065 C 
ATOM      9  C   UNL d   1      12.746   5.772 -19.245  0.00  0.00    -0.014 A 
ATOM     10  C   UNL d   1      12.386   6.932 -19.963  0.00  0.00    -0.004 A 
ATOM     11  C   UNL d   1      12.841   8.185 -19.528  0.00  0.00    -0.000 A 
ATOM     12  C   UNL d   1      13.645   8.284 -18.369  0.00  0.00     0.001 A 
ATOM     13  C   UNL d   1      14.010   7.134 -17.649  0.00  0.00     0.006 A 
ATOM     14  C   UNL d   1      13.564   5.882 -18.099  0.00  0.00     0.025 A 
ATOM     15  S   UNL d   1      13.999   4.437 -17.249  0.00  0.00    -0.087 SA
ENDROOT
BRANCH   1  16
ATOM     16  C   UNL d   1       8.636   3.259 -14.619  0.00  0.00    -0.008 A 
ATOM     17  C   UNL d   1       7.842   2.124 -15.000  0.00  0.00    -0.022 A 
ATOM     18  C   UNL d   1       6.586   1.904 -14.393  0.00  0.00    -0.009 A 
ATOM     19  C   UNL d   1       8.218   1.168 -16.111  0.00  0.00     0.031 C 
ATOM     20  C   UNL d   1       6.110   2.773 -13.400  0.00  0.00    -0.022 A 
ATOM     21  C   UNL d   1       4.799   2.487 -12.718  0.00  0.00     0.031 C 
ATOM     22  C   UNL d   1       6.883   3.881 -13.007  0.00  0.00    -0.009 A 
ATOM     23  C   UNL d   1       8.134   4.126 -13.608  0.00  0.00    -0.022 A 
ATOM     24  C   UNL d   1       8.909   5.353 -13.140  0.00  0.00     0.031 C 
ENDBRANCH   1  16
BRANCH   7  25
ATOM     25  N   UNL d   1      11.059   2.302 -19.376  0.00  0.00     0.144 N 
ATOM     26  C   UNL d   1       9.730   1.739 -19.077  0.00  0.00     0.286 C 
ATOM     27  C   UNL d   1       8.645   2.422 -19.990  0.00  0.00     0.286 C 
ATOM     28  N   UNL d   1       8.937   2.237 -21.432  0.00  0.00     0.143 N 
ATOM     29  C   UNL d   1      10.279   2.732 -21.719  0.00  0.00     0.286 C 
ATOM     30  C   UNL d   1       7.947   2.894 -22.276  0.00  0.00     0.285 C 
ATOM     31  C   UNL d   1      11.343   2.040 -20.827  0.00  0.00     0.286 C 
ENDBRANCH   7  25
TORSDOF 2
