REMARK  4 active torsions:
REMARK  status: ('A' for Active; 'I' for Inactive)
REMARK    1  A    between atoms: C_4  and  C_5 
REMARK    2  A    between atoms: C_8  and  C_9 
REMARK    3  A    between atoms: C_9  and  N_10 
REMARK    4  A    between atoms: N_13  and  C_14 
ROOT
ATOM      1  N   UNL d   1       9.854   8.149  -8.816  0.00  0.00     0.143 N 
ATOM      2  C   UNL d   1       9.033   7.811  -7.638  0.00  0.00     0.274 C 
ATOM      3  C   UNL d   1       9.811   6.959  -6.613  0.00  0.00     0.137 C 
ATOM      4  N   UNL d   1      11.062   7.647  -6.322  0.00  0.00    -0.344 N 
ATOM      5  C   UNL d   1      11.871   8.142  -7.436  0.00  0.00     0.137 C 
ATOM      6  C   UNL d   1      10.998   8.957  -8.399  0.00  0.00     0.274 C 
ENDROOT
BRANCH   1   7
ATOM      7  C   UNL d   1      10.249   6.969  -9.588  0.00  0.00     0.277 C 
BRANCH   7   8
ATOM      8  C   UNL d   1       9.104   6.484 -10.488  0.00  0.00     0.163 C 
ATOM      9  C   UNL d   1       8.911   7.356 -11.734  0.00  0.00     0.154 C 
ATOM     10  N   UNL d   1       8.892   6.431 -12.844  0.00  0.00    -0.251 NA
ATOM     11  C   UNL d   1       9.212   5.273 -12.409  0.00  0.00     0.153 C 
ATOM     12  N   UNL d   1       9.465   5.217 -11.053  0.00  0.00    -0.251 NA
BRANCH  11  13
ATOM     13  C   UNL d   1       9.340   4.097 -13.282  0.00  0.00     0.035 A 
ATOM     14  C   UNL d   1       8.171   3.447 -13.718  0.00  0.00     0.003 A 
ATOM     15  C   UNL d   1       8.274   2.275 -14.489  0.00  0.00     0.000 A 
ATOM     16  C   UNL d   1       9.541   1.773 -14.852  0.00  0.00     0.000 A 
ATOM     17  C   UNL d   1      10.709   2.452 -14.446  0.00  0.00     0.000 A 
ATOM     18  C   UNL d   1      10.608   3.613 -13.658  0.00  0.00     0.003 A 
ENDBRANCH  11  13
ENDBRANCH   7   8
ENDBRANCH   1   7
BRANCH   4  19
ATOM     19  C   UNL d   1      11.464   7.805  -5.007  0.00  0.00     0.056 A 
ATOM     20  C   UNL d   1      11.459   6.699  -4.142  0.00  0.00     0.017 A 
ATOM     21  C   UNL d   1      11.861   6.831  -2.799  0.00  0.00     0.002 A 
ATOM     22  C   UNL d   1      12.261   8.092  -2.328  0.00  0.00     0.000 A 
ATOM     23  C   UNL d   1      12.266   9.200  -3.191  0.00  0.00     0.002 A 
ATOM     24  C   UNL d   1      11.880   9.063  -4.537  0.00  0.00     0.017 A 
ENDBRANCH   4  19
TORSDOF 4
