REMARK  6 active torsions:
REMARK  status: ('A' for Active; 'I' for Inactive)
REMARK    1  A    between atoms: C_7  and  N_8 
REMARK    2  A    between atoms: N_11  and  C_12 
REMARK    3  A    between atoms: C_12  and  C_13 
REMARK    4  A    between atoms: C_13  and  C_14 
REMARK    5  A    between atoms: C_17  and  N_18 
REMARK       I    between atoms: N_18  and  C_19 
REMARK    6  A    between atoms: C_19  and  C_21 
ROOT
ATOM      1  C   UNL d   1       9.229   6.061 -10.838  0.00  0.00     0.035 C 
ENDROOT
BRANCH   1   2
ATOM      2  C   UNL d   1       8.778   6.043  -9.360  0.00  0.00     0.250 C 
BRANCH   2   3
ATOM      3  N   UNL d   1       9.530   7.026  -8.601  0.00  0.00     0.141 N 
ATOM      4  C   UNL d   1       8.807   7.397  -7.395  0.00  0.00     0.274 C 
ATOM      5  C   UNL d   1       9.636   8.417  -6.622  0.00  0.00     0.137 C 
ATOM      6  N   UNL d   1      10.945   7.887  -6.281  0.00  0.00    -0.344 N 
ATOM      7  C   UNL d   1      11.688   7.356  -7.410  0.00  0.00     0.137 C 
ATOM      8  C   UNL d   1      10.784   6.408  -8.195  0.00  0.00     0.274 C 
BRANCH   6   9
ATOM      9  C   UNL d   1      11.429   7.896  -4.973  0.00  0.00     0.052 A 
ATOM     10  C   UNL d   1      11.487   9.082  -4.197  0.00  0.00    -0.006 A 
ATOM     11  C   UNL d   1      11.055  10.401  -4.777  0.00  0.00     0.033 C 
ATOM     12  C   UNL d   1      12.002   9.052  -2.882  0.00  0.00    -0.003 A 
ATOM     13  C   UNL d   1      12.420   7.840  -2.314  0.00  0.00    -0.000 A 
ATOM     14  C   UNL d   1      12.332   6.656  -3.060  0.00  0.00     0.002 A 
ATOM     15  C   UNL d   1      11.859   6.691  -4.388  0.00  0.00     0.017 A 
ENDBRANCH   6   9
ENDBRANCH   2   3
ENDBRANCH   1   2
BRANCH   1  16
ATOM     16  C   UNL d   1       8.647   4.865 -11.585  0.00  0.00     0.002 C 
ATOM     17  C   UNL d   1       9.394   4.582 -12.894  0.00  0.00     0.002 C 
ATOM     18  C   UNL d   1       8.829   3.380 -13.636  0.00  0.00     0.024 C 
ATOM     19  C   UNL d   1       7.304   3.527 -13.878  0.00  0.00     0.107 C 
ATOM     20  C   UNL d   1       6.518   3.804 -12.582  0.00  0.00     0.024 C 
ATOM     21  C   UNL d   1       7.130   5.004 -11.837  0.00  0.00     0.002 C 
BRANCH  19  22
ATOM     22  N   UNL d   1       6.750   2.374 -14.604  0.00  0.00    -0.236 NA
ATOM     23  C   UNL d   1       7.161   1.881 -15.793  0.00  0.00     0.281 C 
ATOM     24  O   UNL d   1       8.062   2.372 -16.471  0.00  0.00    -0.265 OA
BRANCH  23  25
ATOM     25  C   UNL d   1       6.401   0.725 -16.296  0.00  0.00     0.087 A 
ATOM     26  S   UNL d   1       6.714   0.261 -17.952  0.00  0.00    -0.082 SA
ATOM     27  C   UNL d   1       5.584  -1.054 -17.834  0.00  0.00     0.036 A 
ATOM     28  C   UNL d   1       5.014  -1.125 -16.590  0.00  0.00     0.008 A 
ATOM     29  C   UNL d   1       5.484  -0.105 -15.708  0.00  0.00     0.012 A 
ENDBRANCH  23  25
ENDBRANCH  19  22
ENDBRANCH   1  16
TORSDOF 6
