REMARK  4 active torsions:
REMARK  status: ('A' for Active; 'I' for Inactive)
REMARK    1  A    between atoms: N_3  and  C_4 
REMARK    2  A    between atoms: C_4  and  C_5 
REMARK    3  A    between atoms: C_5  and  N_6 
REMARK    4  A    between atoms: N_17  and  C_18 
ROOT
ATOM      1  O   UNL d   1       9.157   5.969  -7.687  0.00  0.00    -0.247 OA
ATOM      2  C   UNL d   1       9.641   6.821  -8.436  0.00  0.00     0.328 A 
ATOM      3  N   UNL d   1       9.489   6.849  -9.770  0.00  0.00    -0.298 N 
ATOM      4  C   UNL d   1       9.998   8.061 -10.379  0.00  0.00     0.131 A 
ATOM      5  C   UNL d   1      10.648   8.775  -9.210  0.00  0.00     0.135 A 
ATOM      6  N   UNL d   1      10.377   7.894  -8.068  0.00  0.00    -0.280 N 
ENDROOT
BRANCH   3   7
ATOM      7  C   UNL d   1       8.654   5.939 -10.530  0.00  0.00     0.141 C 
BRANCH   7   8
ATOM      8  C   UNL d   1       9.529   4.979 -11.291  0.00  0.00     0.275 C 
BRANCH   8   9
ATOM      9  N   UNL d   1       8.756   4.160 -12.215  0.00  0.00     0.148 N 
ATOM     10  C   UNL d   1       9.603   3.073 -12.664  0.00  0.00     0.277 C 
ATOM     11  C   UNL d   1      10.363   3.543 -13.873  0.00  0.00     0.009 C 
ATOM     12  C   UNL d   1       9.627   4.579 -14.386  0.00  0.00     0.009 C 
ATOM     13  C   UNL d   1      11.449   2.953 -14.527  0.00  0.00    -0.003 C 
ATOM     14  C   UNL d   1       8.446   4.847 -13.471  0.00  0.00     0.277 C 
ATOM     15  C   UNL d   1       9.946   5.117 -15.647  0.00  0.00    -0.003 C 
ATOM     16  C   UNL d   1      11.137   4.640 -16.264  0.00  0.00    -0.000 C 
ATOM     17  C   UNL d   1      11.873   3.562 -15.728  0.00  0.00    -0.000 C 
ENDBRANCH   8   9
ENDBRANCH   7   8
ENDBRANCH   3   7
BRANCH   6  18
ATOM     18  C   UNL d   1      10.769   8.229  -6.743  0.00  0.00     0.064 A 
ATOM     19  C   UNL d   1      11.150   7.218  -5.817  0.00  0.00     0.019 A 
ATOM     20  C   UNL d   1      11.540   7.547  -4.493  0.00  0.00     0.026 A 
ATOM     21  C   UNL d   1      11.534   8.914  -4.118  0.00  0.00     0.100 A 
ATOM     22  C   UNL d   1      11.963   6.800  -3.353  0.00  0.00     0.029 A 
ATOM     23  C   UNL d   1      11.151   9.935  -4.993  0.00  0.00     0.026 A 
ATOM     24  O   UNL d   1      11.944   9.016  -2.797  0.00  0.00    -0.305 OA
ATOM     25  C   UNL d   1      10.801   9.584  -6.309  0.00  0.00     0.019 A 
ATOM     26  C   UNL d   1      12.203   7.738  -2.370  0.00  0.00     0.123 A 
ENDBRANCH   6  18
TORSDOF 4
