REMARK  2 active torsions:
REMARK  status: ('A' for Active; 'I' for Inactive)
REMARK    1  A    between atoms: N_2  and  C_4 
REMARK    2  A    between atoms: C_4  and  C_5 
ROOT
ATOM      1  C   UNL d   1       9.995   1.306 -16.146  0.00  0.00     0.180 C 
ATOM      2  C   UNL d   1       9.075   0.259 -16.777  0.00  0.00     0.064 C 
ATOM      3  C   UNL d   1       7.893   0.310 -15.818  0.00  0.00     0.134 C 
ATOM      4  C   UNL d   1       6.559  -0.255 -16.279  0.00  0.00    -0.001 A 
ATOM      5  C   UNL d   1       6.327  -0.662 -17.613  0.00  0.00     0.027 A 
ATOM      6  C   UNL d   1       5.062  -1.149 -17.990  0.00  0.00     0.140 A 
ATOM      7  F   UNL d   1       4.850  -1.540 -19.269  0.00  0.00    -0.204 F 
ATOM      8  C   UNL d   1       4.027  -1.233 -17.042  0.00  0.00     0.029 A 
ATOM      9  C   UNL d   1       4.253  -0.836 -15.711  0.00  0.00    -0.002 A 
ATOM     10  C   UNL d   1       5.516  -0.337 -15.330  0.00  0.00    -0.020 A 
ATOM     11  C   UNL d   1       5.773   0.066 -13.889  0.00  0.00     0.054 C 
ATOM     12  C   UNL d   1       6.122   1.542 -13.675  0.00  0.00     0.000 A 
ATOM     13  C   UNL d   1       5.457   2.197 -12.615  0.00  0.00    -0.000 A 
ATOM     14  C   UNL d   1       5.730   3.531 -12.275  0.00  0.00     0.029 A 
ATOM     15  C   UNL d   1       6.695   4.237 -12.998  0.00  0.00     0.142 A 
ATOM     16  F   UNL d   1       6.973   5.525 -12.684  0.00  0.00    -0.204 F 
ATOM     17  C   UNL d   1       7.390   3.594 -14.038  0.00  0.00     0.049 A 
ATOM     18  C   UNL d   1       7.107   2.260 -14.419  0.00  0.00     0.081 A 
ATOM     19  N   UNL d   1       7.808   1.725 -15.518  0.00  0.00    -0.237 N 
ATOM     20  O   UNL d   1       9.066   2.331 -15.813  0.00  0.00    -0.258 OA
ENDROOT
BRANCH   1  21
ATOM     21  C   UNL d   1      11.076   1.852 -17.096  0.00  0.00     0.282 C 
BRANCH  21  22
ATOM     22  N   UNL d   1      12.070   2.703 -16.437  0.00  0.00     0.144 N 
ATOM     23  C   UNL d   1      11.504   3.932 -15.886  0.00  0.00     0.286 C 
ATOM     24  C   UNL d   1      13.089   3.077 -17.408  0.00  0.00     0.286 C 
ENDBRANCH  21  22
ENDBRANCH   1  21
TORSDOF 2
