REMARK  2 active torsions:
REMARK  status: ('A' for Active; 'I' for Inactive)
REMARK    1  A    between atoms: C_2  and  C_3 
REMARK    2  A    between atoms: C_3  and  N_4 
ROOT
ATOM      1  N   UNL d   1       8.914   5.987 -10.699  0.00  0.00     0.143 N 
ATOM      2  C   UNL d   1       8.440   4.705 -10.185  0.00  0.00     0.282 C 
ATOM      3  C   UNL d   1       9.360   4.111  -9.116  0.00  0.00     0.178 C 
ATOM      4  O   UNL d   1       9.588   5.089  -8.112  0.00  0.00    -0.348 OA
ATOM      5  C   UNL d   1      10.170   6.277  -8.601  0.00  0.00     0.173 C 
ATOM      6  C   UNL d   1      10.554   7.192  -7.461  0.00  0.00     0.031 A 
ATOM      7  C   UNL d   1      11.163   6.658  -6.300  0.00  0.00     0.024 A 
ATOM      8  C   UNL d   1      11.427   7.506  -5.218  0.00  0.00     0.090 A 
ATOM      9  C   UNL d   1      11.171   8.858  -5.322  0.00  0.00     0.005 A 
ATOM     10  C   UNL d   1      10.642   9.444  -6.486  0.00  0.00     0.022 A 
ATOM     11  C   UNL d   1      10.305   8.593  -7.560  0.00  0.00     0.092 A 
ATOM     12  O   UNL d   1       9.744   9.142  -8.692  0.00  0.00    -0.329 OA
ATOM     13  C   UNL d   1       9.666   8.331  -9.864  0.00  0.00     0.185 C 
ATOM     14  C   UNL d   1       9.153   6.898  -9.549  0.00  0.00     0.280 C 
ATOM     15  C   UNL d   1      11.627   9.529  -4.081  0.00  0.00     0.061 C 
ATOM     16  C   UNL d   1      12.056   8.340  -3.195  0.00  0.00     0.154 C 
ATOM     17  O   UNL d   1      12.009   7.165  -4.021  0.00  0.00    -0.331 OA
ENDROOT
BRANCH   1  18
ATOM     18  C   UNL d   1       7.939   6.485 -11.674  0.00  0.00     0.251 C 
BRANCH  18  19
ATOM     19  C   UNL d   1       7.842   5.655 -12.964  0.00  0.00     0.035 C 
ATOM     20  C   UNL d   1       6.492   4.917 -13.075  0.00  0.00     0.002 C 
ENDBRANCH  18  19
ENDBRANCH   1  18
TORSDOF 2
