REMARK  10 active torsions:
REMARK  status: ('A' for Active; 'I' for Inactive)
REMARK    1  A    between atoms: O_2  and  C_3 
REMARK    2  A    between atoms: C_6  and  C_7 
REMARK    3  A    between atoms: C_7  and  C_8 
REMARK    4  A    between atoms: C_8  and  C_9 
REMARK    5  A    between atoms: C_9  and  N_10 
REMARK    6  A    between atoms: C_13  and  C_14 
REMARK    7  A    between atoms: C_14  and  C_15 
REMARK    8  A    between atoms: C_15  and  C_16 
REMARK    9  A    between atoms: C_16  and  C_18 
REMARK   10  A    between atoms: C_33  and  O_34 
ROOT
ATOM      1  N   UNL d   1       8.751   5.440 -12.020  0.00  0.00     0.137 N 
ATOM      2  C   UNL d   1       9.840   5.114 -12.942  0.00  0.00     0.250 C 
ATOM      3  C   UNL d   1       9.759   3.652 -13.373  0.00  0.00     0.035 C 
ATOM      4  C   UNL d   1       8.419   3.403 -14.059  0.00  0.00     0.004 C 
ATOM      5  C   UNL d   1       7.263   3.870 -13.149  0.00  0.00     0.035 C 
ATOM      6  C   UNL d   1       7.472   5.314 -12.713  0.00  0.00     0.250 C 
ENDROOT
BRANCH   4   7
ATOM      7  C   UNL d   1       8.258   1.940 -14.424  0.00  0.00     0.008 C 
BRANCH   7   8
ATOM      8  C   UNL d   1       8.905   1.509 -15.754  0.00  0.00     0.069 C 
BRANCH   8   9
ATOM      9  C   UNL d   1       8.017   1.755 -16.972  0.00  0.00     0.175 C 
ATOM     10  O   UNL d   1       8.329   2.667 -17.730  0.00  0.00    -0.291 OA
BRANCH   9  11
ATOM     11  C   UNL d   1       6.850   0.828 -17.188  0.00  0.00     0.060 A 
ATOM     12  C   UNL d   1       6.343   0.602 -18.493  0.00  0.00     0.120 A 
ATOM     13  C   UNL d   1       5.215  -0.248 -18.693  0.00  0.00     0.130 A 
ATOM     14  O   UNL d   1       6.974   1.176 -19.587  0.00  0.00    -0.326 OA
ATOM     15  C   UNL d   1       4.566  -0.812 -17.568  0.00  0.00     0.105 A 
ATOM     16  O   UNL d   1       4.739  -0.539 -19.951  0.00  0.00    -0.325 OA
ATOM     17  C   UNL d   1       5.066  -0.587 -16.274  0.00  0.00     0.073 A 
ATOM     18  N   UNL d   1       3.451  -1.624 -17.744  0.00  0.00    -0.098 NA
ATOM     19  C   UNL d   1       6.213   0.172 -16.096  0.00  0.00     0.017 A 
ATOM     20 CL   UNL d   1       4.267  -1.209 -14.874  0.00  0.00    -0.081 Cl
ATOM     21  C   UNL d   1       5.648  -0.249 -21.005  0.00  0.00     0.181 C 
ATOM     22  C   UNL d   1       6.233   1.153 -20.796  0.00  0.00     0.181 C 
ENDBRANCH   9  11
ENDBRANCH   8   9
ENDBRANCH   7   8
ENDBRANCH   4   7
BRANCH   1  23
ATOM     23  C   UNL d   1       8.894   6.818 -11.571  0.00  0.00     0.251 C 
BRANCH  23  24
ATOM     24  C   UNL d   1       9.866   6.928 -10.378  0.00  0.00     0.040 C 
BRANCH  24  25
ATOM     25  C   UNL d   1       9.254   6.425  -9.059  0.00  0.00     0.029 C 
BRANCH  25  26
ATOM     26  C   UNL d   1      10.019   6.895  -7.836  0.00  0.00    -0.020 A 
ATOM     27  C   UNL d   1      11.000   6.065  -7.293  0.00  0.00    -0.002 A 
ATOM     28  C   UNL d   1      11.695   6.411  -6.133  0.00  0.00     0.026 A 
ATOM     29  C   UNL d   1      11.453   7.640  -5.507  0.00  0.00     0.116 A 
ATOM     30  C   UNL d   1      10.498   8.517  -6.073  0.00  0.00     0.116 A 
ATOM     31  C   UNL d   1       9.758   8.130  -7.218  0.00  0.00     0.022 A 
BRANCH  29  32
ATOM     32  O   UNL d   1      12.210   7.939  -4.399  0.00  0.00    -0.326 OA
ATOM     33  C   UNL d   1      11.491   8.186  -3.206  0.00  0.00     0.181 C 
ENDBRANCH  29  32
BRANCH  30  34
ATOM     34  O   UNL d   1      10.260   9.751  -5.544  0.00  0.00    -0.326 OA
ATOM     35  C   UNL d   1      11.311  10.691  -5.590  0.00  0.00     0.181 C 
ENDBRANCH  30  34
ENDBRANCH  25  26
ENDBRANCH  24  25
ENDBRANCH  23  24
ENDBRANCH   1  23
TORSDOF 10
