REMARK  7 active torsions:
REMARK  status: ('A' for Active; 'I' for Inactive)
REMARK    1  A    between atoms: O_2  and  C_3 
REMARK    2  A    between atoms: C_9  and  C_10 
REMARK    3  A    between atoms: C_10  and  C_11 
REMARK    4  A    between atoms: C_11  and  O_13 
REMARK    5  A    between atoms: O_13  and  C_14 
REMARK    6  A    between atoms: C_14  and  C_15 
REMARK       I    between atoms: N_20  and  C_21 
REMARK    7  A    between atoms: C_21  and  C_23 
ROOT
ATOM      1  C   UNL d   1      11.010   3.796 -15.310  0.00  0.00     0.094 A 
ATOM      2  C   UNL d   1      11.153   4.839 -14.387  0.00  0.00     0.026 A 
ATOM      3  C   UNL d   1      10.112   5.175 -13.533  0.00  0.00     0.020 A 
ATOM      4  C   UNL d   1       8.899   4.454 -13.565  0.00  0.00     0.066 A 
ATOM      5  C   UNL d   1       8.696   3.389 -14.497  0.00  0.00     0.016 A 
ATOM      6  C   UNL d   1       9.783   3.129 -15.377  0.00  0.00     0.025 A 
ATOM      7  C   UNL d   1       7.363   2.871 -14.283  0.00  0.00     0.001 A 
ATOM      8  C   UNL d   1       6.770   3.692 -13.346  0.00  0.00     0.041 A 
ATOM      9  C   UNL d   1       5.342   3.595 -12.866  0.00  0.00     0.050 C 
ATOM     10  N   UNL d   1       7.709   4.628 -12.866  0.00  0.00    -0.279 N 
ATOM     11  C   UNL d   1       7.416   5.607 -11.836  0.00  0.00     0.264 C 
ATOM     12  O   UNL d   1       6.308   6.131 -11.816  0.00  0.00    -0.267 OA
ENDROOT
BRANCH  11  13
ATOM     13  C   UNL d   1       8.479   5.974 -10.831  0.00  0.00     0.057 A 
ATOM     14  C   UNL d   1       9.333   7.087 -11.024  0.00  0.00     0.006 A 
ATOM     15  C   UNL d   1      10.266   7.456 -10.041  0.00  0.00     0.012 A 
ATOM     16  C   UNL d   1      10.323   6.757  -8.825  0.00  0.00     0.058 A 
ATOM     17  C   UNL d   1       9.475   5.654  -8.613  0.00  0.00     0.012 A 
ATOM     18 CL   UNL d   1      11.425   7.240  -7.588  0.00  0.00    -0.082 Cl
ATOM     19  C   UNL d   1       8.563   5.257  -9.613  0.00  0.00     0.006 A 
ENDBRANCH  11  13
BRANCH   7  20
ATOM     20  C   UNL d   1       6.688   1.720 -14.990  0.00  0.00     0.123 C 
BRANCH  20  21
ATOM     21  C   UNL d   1       7.576   0.489 -14.879  0.00  0.00     0.277 C 
ATOM     22  O   UNL d   1       7.380  -0.332 -13.998  0.00  0.00    -0.264 OA
BRANCH  21  23
ATOM     23  O   UNL d   1       8.535   0.473 -15.808  0.00  0.00    -0.290 OA
BRANCH  23  24
ATOM     24  C   UNL d   1       9.718  -0.310 -15.771  0.00  0.00     0.248 C 
BRANCH  24  25
ATOM     25  C   UNL d   1      10.118  -0.592 -17.217  0.00  0.00     0.218 C 
ATOM     26  O   UNL d   1      11.218  -0.320 -17.687  0.00  0.00    -0.645 OA
ATOM     27  O   UNL d   1       9.071  -1.145 -17.889  0.00  0.00    -0.645 OA
ENDBRANCH  24  25
ENDBRANCH  23  24
ENDBRANCH  21  23
ENDBRANCH  20  21
ENDBRANCH   7  20
BRANCH   1  28
ATOM     28  O   UNL d   1      12.005   3.400 -16.179  0.00  0.00    -0.328 OA
ATOM     29  C   UNL d   1      13.175   4.204 -16.223  0.00  0.00     0.181 C 
ENDBRANCH   1  28
TORSDOF 7
