REMARK  3 active torsions:
REMARK  status: ('A' for Active; 'I' for Inactive)
REMARK    1  A    between atoms: C_5  and  C_6 
REMARK    2  A    between atoms: C_6  and  N_7 
REMARK    3  A    between atoms: N_10  and  C_11 
ROOT
ATOM      1  N   UNL d   1       9.273   5.234 -12.744  0.00  0.00     0.146 N 
ATOM      2  C   UNL d   1       8.540   5.493 -13.967  0.00  0.00     0.286 C 
ATOM      3  C   UNL d   1       9.377   5.163 -15.222  0.00  0.00     0.286 C 
ATOM      4  N   UNL d   1       9.764   3.767 -15.260  0.00  0.00     0.148 N 
ATOM      5  C   UNL d   1      10.501   3.485 -14.005  0.00  0.00     0.286 C 
ATOM      6  C   UNL d   1       9.677   3.835 -12.758  0.00  0.00     0.286 C 
ENDROOT
BRANCH   4   7
ATOM      7  C   UNL d   1      10.503   3.422 -16.510  0.00  0.00     0.299 C 
ATOM      8  C   UNL d   1      11.251   2.087 -16.467  0.00  0.00     0.287 C 
ATOM      9  N   UNL d   1      10.579   0.956 -16.202  0.00  0.00    -0.210 NA
ATOM     10  O   UNL d   1      12.470   2.068 -16.639  0.00  0.00    -0.268 OA
ATOM     11  C   UNL d   1       9.166   0.865 -16.099  0.00  0.00     0.080 A 
ATOM     12  C   UNL d   1       8.305   1.513 -17.023  0.00  0.00    -0.004 A 
ATOM     13  C   UNL d   1       8.625   0.119 -15.042  0.00  0.00     0.019 A 
ATOM     14  C   UNL d   1       8.864   2.274 -18.217  0.00  0.00     0.030 C 
ATOM     15  C   UNL d   1       6.904   1.410 -16.848  0.00  0.00    -0.003 A 
ATOM     16  C   UNL d   1       9.685   3.537 -17.831  0.00  0.00     0.048 C 
ATOM     17  C   UNL d   1       6.370   0.657 -15.783  0.00  0.00    -0.000 A 
ATOM     18  C   UNL d   1       7.227   0.016 -14.877  0.00  0.00     0.002 A 
ENDBRANCH   4   7
BRANCH   1  19
ATOM     19  C   UNL d   1       8.476   5.576 -11.565  0.00  0.00     0.277 C 
BRANCH  19  20
ATOM     20  C   UNL d   1       9.303   6.253 -10.495  0.00  0.00     0.011 A 
ATOM     21  C   UNL d   1       9.863   7.524 -10.750  0.00  0.00    -0.003 A 
ATOM     22  C   UNL d   1      10.607   8.184  -9.756  0.00  0.00    -0.004 A 
ATOM     23  C   UNL d   1      10.783   7.584  -8.495  0.00  0.00    -0.022 A 
ATOM     24  C   UNL d   1      11.591   8.292  -7.431  0.00  0.00     0.031 C 
ATOM     25  C   UNL d   1      10.217   6.317  -8.236  0.00  0.00    -0.004 A 
ATOM     26  C   UNL d   1       9.476   5.651  -9.234  0.00  0.00    -0.003 A 
ENDBRANCH  19  20
ENDBRANCH   1  19
TORSDOF 3
