REMARK  8 active torsions:
REMARK  status: ('A' for Active; 'I' for Inactive)
REMARK    1  A    between atoms: S_2  and  N_5 
REMARK    2  A    between atoms: N_5  and  C_6 
REMARK    3  A    between atoms: C_8  and  O_9 
REMARK    4  A    between atoms: O_9  and  C_10 
REMARK    5  A    between atoms: C_10  and  C_11 
REMARK    6  A    between atoms: C_11  and  N_12 
REMARK    7  A    between atoms: C_19  and  C_20 
REMARK    8  A    between atoms: C_20  and  C_21 
ROOT
ATOM      1  N   UNL d   1       9.388   1.169 -16.438  0.00  0.00     0.140 N 
ATOM      2  C   UNL d   1       9.697   1.576 -15.058  0.00  0.00     0.250 C 
ATOM      3  C   UNL d   1       8.459   1.951 -14.225  0.00  0.00     0.034 C 
ATOM      4  C   UNL d   1       7.410   0.836 -14.117  0.00  0.00     0.002 C 
ATOM      5  C   UNL d   1       6.513   1.038 -15.348  0.00  0.00     0.002 C 
ATOM      6  C   UNL d   1       7.123   2.261 -16.058  0.00  0.00     0.034 C 
ATOM      7  C   UNL d   1       8.255   1.893 -17.051  0.00  0.00     0.250 C 
ATOM      8  C   UNL d   1       7.741   3.096 -14.897  0.00  0.00     0.008 C 
ENDROOT
BRANCH   1   9
ATOM      9  C   UNL d   1       9.334  -0.283 -16.610  0.00  0.00     0.283 C 
BRANCH   9  10
ATOM     10  C   UNL d   1       9.607  -0.664 -18.075  0.00  0.00     0.184 C 
BRANCH  10  11
ATOM     11  O   UNL d   1       9.199  -2.018 -18.270  0.00  0.00    -0.329 OA
BRANCH  11  12
ATOM     12  C   UNL d   1       7.960  -2.308 -18.810  0.00  0.00     0.096 A 
ATOM     13  C   UNL d   1       7.307  -1.446 -19.714  0.00  0.00     0.046 A 
ATOM     14  C   UNL d   1       6.069  -1.773 -20.292  0.00  0.00     0.123 A 
ATOM     15  C   UNL d   1       5.450  -3.002 -19.949  0.00  0.00     0.159 A 
ATOM     16  C   UNL d   1       6.098  -3.890 -19.057  0.00  0.00     0.033 A 
ATOM     17  F   UNL d   1       4.252  -3.345 -20.493  0.00  0.00    -0.203 F 
ATOM     18  C   UNL d   1       7.352  -3.549 -18.497  0.00  0.00     0.027 A 
BRANCH  14  19
ATOM     19  N   UNL d   1       5.479  -0.924 -21.244  0.00  0.00    -0.160 NA
BRANCH  19  20
ATOM     20  S   UNL d   1       5.701   0.783 -21.540  0.00  0.00     0.266 S 
ATOM     21  C   UNL d   1       5.360   0.899 -23.322  0.00  0.00     0.165 C 
ATOM     22  O   UNL d   1       7.109   1.150 -21.347  0.00  0.00    -0.203 OA
ATOM     23  O   UNL d   1       4.643   1.470 -20.790  0.00  0.00    -0.203 OA
ENDBRANCH  19  20
ENDBRANCH  14  19
ENDBRANCH  11  12
ENDBRANCH  10  11
ENDBRANCH   9  10
ENDBRANCH   1   9
BRANCH   8  24
ATOM     24  C   UNL d   1       6.699   3.854 -14.031  0.00  0.00     0.026 C 
BRANCH  24  25
ATOM     25  C   UNL d   1       7.326   4.571 -12.839  0.00  0.00    -0.021 C 
ATOM     26  C   UNL d   1       8.125   5.713 -12.933  0.00  0.00     0.015 C 
ATOM     27  C   UNL d   1       8.698   6.232 -11.731  0.00  0.00     0.080 C 
ATOM     28  C   UNL d   1       8.528   5.566 -10.496  0.00  0.00    -0.004 C 
ATOM     29  N   UNL d   1       9.444   7.411 -11.739  0.00  0.00    -0.212 NA
ATOM     30  C   UNL d   1       7.790   4.398 -10.446  0.00  0.00    -0.003 C 
ATOM     31  C   UNL d   1       9.008   6.160  -9.203  0.00  0.00     0.038 C 
ATOM     32  C   UNL d   1       7.073   4.017 -11.583  0.00  0.00    -0.004 C 
ATOM     33  C   UNL d   1      10.287   6.930  -9.455  0.00  0.00     0.095 C 
ATOM     34  C   UNL d   1      10.192   7.821 -10.693  0.00  0.00     0.256 C 
ATOM     35  O   UNL d   1      10.868   8.828 -10.716  0.00  0.00    -0.270 OA
ENDBRANCH  24  25
ENDBRANCH   8  24
TORSDOF 8
