REMARK  3 active torsions:
REMARK  status: ('A' for Active; 'I' for Inactive)
REMARK    1  A    between atoms: N_12  and  C_13 
REMARK    2  A    between atoms: C_13  and  C_14 
REMARK    3  A    between atoms: C_14  and  C_15 
ROOT
ATOM      1  O   UNL d   1      11.864  10.624  -2.819  0.00  0.00    -0.190 OA
ATOM      2  C   UNL d   1      11.682   9.556  -3.603  0.00  0.00     0.131 A 
ATOM      3  C   UNL d   1      11.752   8.336  -2.956  0.00  0.00     0.027 A 
ATOM      4  C   UNL d   1      11.496   7.195  -3.706  0.00  0.00    -0.002 A 
ATOM      5  C   UNL d   1      11.186   7.354  -5.079  0.00  0.00    -0.024 A 
ATOM      6  C   UNL d   1      11.145   8.599  -5.716  0.00  0.00     0.005 A 
ATOM      7  C   UNL d   1      11.374   9.737  -4.948  0.00  0.00     0.025 A 
ATOM      8  C   UNL d   1      10.824   8.635  -7.201  0.00  0.00     0.169 C 
ATOM      9  O   UNL d   1      11.171   9.862  -7.805  0.00  0.00    -0.348 OA
ATOM     10  C   UNL d   1      10.848   9.917  -9.205  0.00  0.00     0.178 C 
ATOM     11  C   UNL d   1      11.518   8.800  -9.961  0.00  0.00     0.282 C 
ATOM     12  N   UNL d   1      11.227   7.494  -9.388  0.00  0.00     0.141 N 
ATOM     13  C   UNL d   1      11.589   7.533  -7.966  0.00  0.00     0.251 C 
ATOM     14  C   UNL d   1      11.624   6.182  -7.224  0.00  0.00     0.041 C 
ATOM     15  C   UNL d   1      10.923   6.178  -5.893  0.00  0.00     0.028 C 
ENDROOT
BRANCH  12  16
ATOM     16  C   UNL d   1       9.845   7.068  -9.667  0.00  0.00     0.255 C 
BRANCH  16  17
ATOM     17  C   UNL d   1       9.653   5.550  -9.760  0.00  0.00     0.062 C 
BRANCH  17  18
ATOM     18  C   UNL d   1       8.867   5.131 -10.984  0.00  0.00    -0.020 A 
ATOM     19  C   UNL d   1       9.461   4.381 -12.017  0.00  0.00    -0.004 A 
ATOM     20  C   UNL d   1       8.723   4.008 -13.148  0.00  0.00    -0.000 A 
ATOM     21  C   UNL d   1       7.371   4.377 -13.249  0.00  0.00    -0.000 A 
ATOM     22  C   UNL d   1       6.767   5.124 -12.223  0.00  0.00    -0.000 A 
ATOM     23  C   UNL d   1       7.520   5.492 -11.100  0.00  0.00    -0.004 A 
ENDBRANCH  17  18
ENDBRANCH  16  17
ENDBRANCH  12  16
TORSDOF 3
