REMARK  4 active torsions:
REMARK  status: ('A' for Active; 'I' for Inactive)
REMARK    1  A    between atoms: N_10  and  C_11 
REMARK    2  A    between atoms: C_11  and  C_12 
REMARK    3  A    between atoms: C_12  and  N_13 
REMARK    4  A    between atoms: N_16  and  C_17 
ROOT
ATOM      1  N   UNL d   1       8.355   5.837 -12.202  0.00  0.00    -0.298 N 
ATOM      2  C   UNL d   1       7.034   5.575 -11.676  0.00  0.00     0.131 A 
ATOM      3  C   UNL d   1       6.638   4.292 -12.399  0.00  0.00     0.135 A 
ATOM      4  N   UNL d   1       7.807   3.998 -13.223  0.00  0.00    -0.280 N 
ATOM      5  C   UNL d   1       8.770   4.933 -13.093  0.00  0.00     0.328 A 
ATOM      6  O   UNL d   1       9.848   4.986 -13.679  0.00  0.00    -0.247 OA
ENDROOT
BRANCH   1   7
ATOM      7  C   UNL d   1       9.134   6.990 -11.797  0.00  0.00     0.141 C 
BRANCH   7   8
ATOM      8  C   UNL d   1      10.136   6.597 -10.707  0.00  0.00     0.274 C 
BRANCH   8   9
ATOM      9  N   UNL d   1      10.601   7.762  -9.967  0.00  0.00     0.139 N 
ATOM     10  C   UNL d   1       9.621   8.251  -9.011  0.00  0.00     0.250 C 
ATOM     11  C   UNL d   1       9.817   7.853  -7.526  0.00  0.00     0.032 C 
ATOM     12  C   UNL d   1      11.231   8.261  -7.046  0.00  0.00     0.004 C 
ATOM     13  C   UNL d   1       9.779   6.341  -7.339  0.00  0.00     0.002 C 
ATOM     14  C   UNL d   1       8.705   8.451  -6.716  0.00  0.00     0.002 C 
ATOM     15  C   UNL d   1      11.455   8.060  -5.517  0.00  0.00     0.000 C 
ATOM     16  C   UNL d   1      11.608   9.722  -7.312  0.00  0.00     0.000 C 
ATOM     17  C   UNL d   1      11.984   7.242  -7.922  0.00  0.00     0.033 C 
ATOM     18  C   UNL d   1      11.959   7.614  -9.430  0.00  0.00     0.250 C 
ATOM     19  C   UNL d   1      11.201   5.938  -7.616  0.00  0.00     0.002 C 
ENDBRANCH   8   9
ENDBRANCH   7   8
ENDBRANCH   1   7
BRANCH   4  20
ATOM     20  C   UNL d   1       7.869   2.868 -14.082  0.00  0.00     0.065 A 
ATOM     21  C   UNL d   1       9.109   2.265 -14.410  0.00  0.00     0.029 A 
ATOM     22  C   UNL d   1       9.154   1.159 -15.267  0.00  0.00     0.059 A 
ATOM     23  C   UNL d   1       7.975   0.622 -15.804  0.00  0.00     0.011 A 
ATOM     24 CL   UNL d   1      10.666   0.447 -15.659  0.00  0.00    -0.082 Cl
ATOM     25  C   UNL d   1       6.731   1.198 -15.468  0.00  0.00     0.002 A 
ATOM     26  C   UNL d   1       6.685   2.309 -14.607  0.00  0.00     0.017 A 
ENDBRANCH   4  20
TORSDOF 4
