REMARK  6 active torsions:
REMARK  status: ('A' for Active; 'I' for Inactive)
REMARK    1  A    between atoms: C_6  and  N_7 
REMARK    2  A    between atoms: N_10  and  C_11 
REMARK    3  A    between atoms: C_11  and  C_12 
REMARK    4  A    between atoms: C_12  and  C_13 
REMARK    5  A    between atoms: C_13  and  O_14 
REMARK    6  A    between atoms: O_14  and  C_15 
ROOT
ATOM      1  N   UNL d   1       8.218   3.505 -13.630  0.00  0.00    -0.344 N 
ATOM      2  C   UNL d   1       9.496   3.677 -12.959  0.00  0.00     0.137 C 
ATOM      3  C   UNL d   1       9.739   5.175 -12.685  0.00  0.00     0.274 C 
ATOM      4  N   UNL d   1       8.635   5.768 -11.929  0.00  0.00     0.141 N 
ATOM      5  C   UNL d   1       7.390   5.609 -12.676  0.00  0.00     0.274 C 
ATOM      6  C   UNL d   1       7.087   4.128 -12.957  0.00  0.00     0.137 C 
ENDROOT
BRANCH   4   7
ATOM      7  C   UNL d   1       8.870   7.191 -11.718  0.00  0.00     0.253 C 
BRANCH   7   8
ATOM      8  C   UNL d   1       9.612   7.378 -10.395  0.00  0.00     0.068 C 
BRANCH   8   9
ATOM      9  C   UNL d   1       9.519   8.792  -9.759  0.00  0.00     0.151 C 
BRANCH   9  10
ATOM     10  O   UNL d   1      10.705   9.226  -9.082  0.00  0.00    -0.331 OA
BRANCH  10  11
ATOM     11  C   UNL d   1      10.951   8.668  -7.846  0.00  0.00     0.096 A 
ATOM     12  C   UNL d   1      11.191   9.543  -6.743  0.00  0.00     0.045 A 
ATOM     13  C   UNL d   1      11.441   8.963  -5.479  0.00  0.00     0.106 A 
ATOM     14  C   UNL d   1      11.458   7.590  -5.321  0.00  0.00     0.041 A 
ATOM     15  N   UNL d   1      11.689   9.603  -4.319  0.00  0.00    -0.148 NA
ATOM     16  C   UNL d   1      11.249   6.720  -6.397  0.00  0.00     0.005 A 
ATOM     17  C   UNL d   1      11.743   7.315  -3.997  0.00  0.00     0.124 A 
ATOM     18  C   UNL d   1      11.032   7.267  -7.670  0.00  0.00     0.024 A 
ATOM     19  N   UNL d   1      11.876   8.576  -3.418  0.00  0.00    -0.146 NA
ENDBRANCH  10  11
ENDBRANCH   9  10
ENDBRANCH   8   9
ENDBRANCH   7   8
ENDBRANCH   4   7
BRANCH   1  20
ATOM     20  C   UNL d   1       8.086   2.704 -14.783  0.00  0.00     0.068 A 
ATOM     21  C   UNL d   1       9.040   2.891 -15.821  0.00  0.00     0.018 A 
ATOM     22  C   UNL d   1       8.925   2.183 -17.029  0.00  0.00     0.002 A 
ATOM     23  C   UNL d   1       7.879   1.273 -17.209  0.00  0.00     0.012 A 
ATOM     24  C   UNL d   1       6.946   1.050 -16.183  0.00  0.00     0.070 A 
ATOM     25 CL   UNL d   1       5.675  -0.087 -16.442  0.00  0.00    -0.081 Cl
ATOM     26  C   UNL d   1       7.049   1.752 -14.962  0.00  0.00     0.084 A 
ATOM     27 CL   UNL d   1       5.888   1.378 -13.716  0.00  0.00    -0.080 Cl
ENDBRANCH   1  20
TORSDOF 6
