REMARK  9 active torsions:
REMARK  status: ('A' for Active; 'I' for Inactive)
REMARK    1  A    between atoms: O_2  and  C_3 
REMARK    2  A    between atoms: C_8  and  N_9 
REMARK    3  A    between atoms: N_12  and  C_13 
REMARK    4  A    between atoms: C_13  and  C_14 
REMARK    5  A    between atoms: C_14  and  C_15 
REMARK    6  A    between atoms: C_15  and  C_16 
REMARK    7  A    between atoms: C_16  and  N_17 
REMARK       I    between atoms: N_17  and  C_18 
REMARK    8  A    between atoms: C_18  and  C_20 
REMARK    9  A    between atoms: C_23  and  C_24 
ROOT
ATOM      1  C   UNL d   1       7.590   4.092 -12.938  0.00  0.00     0.029 C 
ENDROOT
BRANCH   1   2
ATOM      2  C   UNL d   1       6.691   3.104 -13.692  0.00  0.00     0.037 C 
BRANCH   2   3
ATOM      3  C   UNL d   1       7.559   2.321 -14.683  0.00  0.00     0.251 C 
BRANCH   3   4
ATOM      4  N   UNL d   1       6.691   1.567 -15.578  0.00  0.00     0.141 N 
ATOM      5  C   UNL d   1       7.332   1.368 -16.877  0.00  0.00     0.274 C 
ATOM      6  C   UNL d   1       6.343   0.669 -17.839  0.00  0.00     0.137 C 
ATOM      7  N   UNL d   1       5.883  -0.585 -17.258  0.00  0.00    -0.343 N 
ATOM      8  C   UNL d   1       5.345  -0.488 -15.907  0.00  0.00     0.137 C 
ATOM      9  C   UNL d   1       6.330   0.273 -14.991  0.00  0.00     0.274 C 
BRANCH   7  10
ATOM     10  C   UNL d   1       6.058  -1.843 -17.890  0.00  0.00     0.079 A 
ATOM     11  C   UNL d   1       7.245  -2.173 -18.580  0.00  0.00     0.110 A 
ATOM     12  C   UNL d   1       7.320  -3.429 -19.252  0.00  0.00     0.026 A 
ATOM     13  C   UNL d   1       6.274  -4.363 -19.161  0.00  0.00     0.002 A 
ATOM     14  C   UNL d   1       5.115  -4.051 -18.442  0.00  0.00     0.002 A 
ATOM     15  C   UNL d   1       5.007  -2.785 -17.813  0.00  0.00     0.019 A 
BRANCH  11  16
ATOM     16  O   UNL d   1       8.290  -1.268 -18.548  0.00  0.00    -0.327 OA
ATOM     17  C   UNL d   1       9.556  -1.615 -19.068  0.00  0.00     0.181 C 
ENDBRANCH  11  16
ENDBRANCH   7  10
ENDBRANCH   3   4
ENDBRANCH   2   3
ENDBRANCH   1   2
BRANCH   1  18
ATOM     18  C   UNL d   1       6.884   5.276 -12.258  0.00  0.00     0.129 C 
BRANCH  18  19
ATOM     19  N   UNL d   1       7.692   5.971 -11.239  0.00  0.00    -0.234 NA
ATOM     20  C   UNL d   1       9.013   5.930 -11.015  0.00  0.00     0.275 C 
ATOM     21  O   UNL d   1       9.859   5.560 -11.827  0.00  0.00    -0.266 OA
BRANCH  20  22
ATOM     22  C   UNL d   1       9.455   6.428  -9.680  0.00  0.00     0.058 A 
ATOM     23  C   UNL d   1      10.591   7.258  -9.614  0.00  0.00     0.005 A 
ATOM     24  C   UNL d   1      11.084   7.697  -8.379  0.00  0.00     0.000 A 
ATOM     25  C   UNL d   1      10.459   7.280  -7.188  0.00  0.00     0.000 A 
ATOM     26  C   UNL d   1       9.335   6.425  -7.244  0.00  0.00     0.000 A 
ATOM     27  C   UNL d   1       8.841   5.982  -8.485  0.00  0.00     0.005 A 
BRANCH  25  28
ATOM     28  C   UNL d   1      10.971   7.753  -5.901  0.00  0.00     0.000 A 
ATOM     29  C   UNL d   1      11.447   6.840  -4.939  0.00  0.00     0.001 A 
ATOM     30  C   UNL d   1      11.921   7.294  -3.697  0.00  0.00     0.014 A 
ATOM     31  C   UNL d   1      11.909   8.674  -3.407  0.00  0.00     0.070 A 
ATOM     32  C   UNL d   1      11.458   9.586  -4.377  0.00  0.00     0.014 A 
ATOM     33  N   UNL d   1      12.307   9.129  -2.153  0.00  0.00    -0.101 NA
ATOM     34  C   UNL d   1      10.990   9.132  -5.621  0.00  0.00     0.001 A 
ENDBRANCH  25  28
ENDBRANCH  20  22
ENDBRANCH  18  19
ENDBRANCH   1  18
TORSDOF 9
