REMARK  2 active torsions:
REMARK  status: ('A' for Active; 'I' for Inactive)
REMARK    1  A    between atoms: C_2  and  C_3 
REMARK    2  A    between atoms: C_3  and  C_4 
ROOT
ATOM      1  C   UNL d   1      10.899   7.710  -6.945  0.00  0.00     0.092 C 
ATOM      2  C   UNL d   1      11.260   6.237  -7.244  0.00  0.00     0.023 C 
ATOM      3  C   UNL d   1      10.600   5.601  -8.472  0.00  0.00     0.091 C 
ATOM      4  C   UNL d   1       9.127   5.931  -8.539  0.00  0.00     0.258 C 
ATOM      5  O   UNL d   1       8.412   5.266  -9.285  0.00  0.00    -0.270 OA
ATOM      6  N   UNL d   1       8.664   6.957  -7.809  0.00  0.00    -0.177 NA
ATOM      7  C   UNL d   1       9.362   7.835  -7.087  0.00  0.00     0.261 C 
ATOM      8  O   UNL d   1       8.784   8.780  -6.553  0.00  0.00    -0.270 OA
ENDROOT
BRANCH   1   9
ATOM      9  C   UNL d   1      11.625   8.676  -7.950  0.00  0.00     0.013 C 
ATOM     10  C   UNL d   1      11.094   8.782  -9.405  0.00  0.00     0.001 C 
ENDBRANCH   1   9
BRANCH   1  11
ATOM     11  C   UNL d   1      11.305   8.064  -5.477  0.00  0.00    -0.014 A 
ATOM     12  C   UNL d   1      11.846   7.104  -4.581  0.00  0.00    -0.002 A 
ATOM     13  C   UNL d   1      12.255   7.432  -3.285  0.00  0.00     0.021 A 
ATOM     14  C   UNL d   1      12.110   8.748  -2.854  0.00  0.00     0.103 A 
ATOM     15  C   UNL d   1      11.556   9.730  -3.680  0.00  0.00     0.021 A 
ATOM     16  N   UNL d   1      12.527   9.065  -1.579  0.00  0.00    -0.148 N 
ATOM     17  C   UNL d   1      11.165   9.403  -4.990  0.00  0.00    -0.002 A 
ENDBRANCH   1  11
TORSDOF 2
