REMARK  11 active torsions:
REMARK  status: ('A' for Active; 'I' for Inactive)
REMARK    1  A    between atoms: O_2  and  C_3 
REMARK    2  A    between atoms: C_6  and  C_7 
REMARK    3  A    between atoms: C_9  and  C_10 
REMARK    4  A    between atoms: C_10  and  C_11 
REMARK    5  A    between atoms: C_11  and  C_12 
REMARK    6  A    between atoms: C_12  and  C_13 
REMARK    7  A    between atoms: C_13  and  N_14 
REMARK    8  A    between atoms: N_17  and  C_18 
REMARK    9  A    between atoms: C_18  and  C_19 
REMARK   10  A    between atoms: C_18  and  C_25 
REMARK   11  A    between atoms: C_35  and  O_36 
ROOT
ATOM      1  N   UNL d   1      11.264   1.633 -18.748  0.00  0.00     0.141 N 
ATOM      2  C   UNL d   1      11.486   2.469 -17.576  0.00  0.00     0.285 C 
ATOM      3  C   UNL d   1      10.150   2.912 -16.935  0.00  0.00     0.286 C 
ATOM      4  N   UNL d   1       9.352   1.753 -16.505  0.00  0.00     0.147 N 
ATOM      5  C   UNL d   1       9.125   0.919 -17.691  0.00  0.00     0.286 C 
ATOM      6  C   UNL d   1      10.450   0.484 -18.349  0.00  0.00     0.285 C 
ENDROOT
BRANCH   1   7
ATOM      7  C   UNL d   1      12.523   1.217 -19.368  0.00  0.00     0.250 C 
BRANCH   7   8
ATOM      8  C   UNL d   1      13.242   2.343 -20.120  0.00  0.00     0.036 C 
BRANCH   8   9
ATOM      9  C   UNL d   1      14.229   1.814 -21.181  0.00  0.00     0.009 C 
BRANCH   9  10
ATOM     10  C   UNL d   1      14.756   2.884 -22.158  0.00  0.00     0.054 C 
BRANCH  10  11
ATOM     11  C   UNL d   1      15.697   3.861 -21.545  0.00  0.00     0.104 A 
ATOM     12  C   UNL d   1      17.038   4.082 -21.692  0.00  0.00     0.044 A 
ATOM     13  C   UNL d   1      17.304   5.188 -20.840  0.00  0.00     0.112 A 
ATOM     14  N   UNL d   1      16.196   5.598 -20.233  0.00  0.00    -0.127 NA
ATOM     15  O   UNL d   1      15.170   4.755 -20.674  0.00  0.00    -0.215 OA
BRANCH  13  16
ATOM     16  C   UNL d   1      18.580   5.907 -20.654  0.00  0.00     0.042 A 
ATOM     17  C   UNL d   1      19.473   5.962 -21.745  0.00  0.00     0.006 A 
ATOM     18  C   UNL d   1      20.709   6.621 -21.639  0.00  0.00     0.024 A 
ATOM     19  C   UNL d   1      21.082   7.242 -20.425  0.00  0.00     0.096 A 
ATOM     20  C   UNL d   1      20.202   7.173 -19.330  0.00  0.00     0.048 A 
ATOM     21  C   UNL d   1      18.954   6.500 -19.418  0.00  0.00     0.098 A 
BRANCH  19  22
ATOM     22  O   UNL d   1      22.267   7.919 -20.234  0.00  0.00    -0.328 OA
ATOM     23  C   UNL d   1      23.232   7.874 -21.274  0.00  0.00     0.181 C 
ENDBRANCH  19  22
BRANCH  21  24
ATOM     24  O   UNL d   1      18.091   6.389 -18.347  0.00  0.00    -0.328 OA
ATOM     25  C   UNL d   1      18.487   6.910 -17.087  0.00  0.00     0.181 C 
ENDBRANCH  21  24
ENDBRANCH  13  16
ENDBRANCH  10  11
ENDBRANCH   9  10
ENDBRANCH   8   9
ENDBRANCH   7   8
ENDBRANCH   1   7
BRANCH   4  26
ATOM     26  C   UNL d   1       8.095   2.147 -15.834  0.00  0.00     0.264 C 
BRANCH  26  27
ATOM     27  C   UNL d   1       8.270   3.001 -14.564  0.00  0.00     0.013 A 
ATOM     28  C   UNL d   1       7.145   3.636 -13.993  0.00  0.00    -0.002 A 
ATOM     29  C   UNL d   1       7.270   4.441 -12.834  0.00  0.00    -0.000 A 
ATOM     30  C   UNL d   1       8.536   4.631 -12.258  0.00  0.00    -0.000 A 
ATOM     31  C   UNL d   1       9.660   3.985 -12.814  0.00  0.00    -0.000 A 
ATOM     32  C   UNL d   1       9.532   3.158 -13.960  0.00  0.00    -0.002 A 
ENDBRANCH  26  27
BRANCH  26  33
ATOM     33  C   UNL d   1       7.185   0.963 -15.496  0.00  0.00     0.013 A 
ATOM     34  C   UNL d   1       6.136   0.588 -16.371  0.00  0.00    -0.002 A 
ATOM     35  C   UNL d   1       5.276  -0.479 -16.040  0.00  0.00    -0.000 A 
ATOM     36  C   UNL d   1       5.452  -1.174 -14.829  0.00  0.00    -0.000 A 
ATOM     37  C   UNL d   1       6.489  -0.808 -13.952  0.00  0.00    -0.000 A 
ATOM     38  C   UNL d   1       7.358   0.244 -14.294  0.00  0.00    -0.002 A 
ENDBRANCH  26  33
ENDBRANCH   4  26
TORSDOF 11
