REMARK  6 active torsions:
REMARK  status: ('A' for Active; 'I' for Inactive)
REMARK    1  A    between atoms: S_2  and  N_4 
REMARK    2  A    between atoms: S_2  and  C_22 
REMARK    3  A    between atoms: N_4  and  C_5 
REMARK    4  A    between atoms: N_13  and  C_14 
REMARK    5  A    between atoms: C_14  and  C_15 
REMARK    6  A    between atoms: C_25  and  C_26 
ROOT
ATOM      1  C   UNL d   1       7.963   5.252 -10.954  0.00  0.00     0.093 C 
ATOM      2  C   UNL d   1       8.353   6.275 -11.811  0.00  0.00     0.020 C 
ATOM      3  C   UNL d   1       9.412   7.130 -11.461  0.00  0.00    -0.003 C 
ATOM      4  C   UNL d   1       9.933   7.100 -10.155  0.00  0.00    -0.024 C 
ATOM      5  C   UNL d   1       9.440   6.129  -9.256  0.00  0.00    -0.022 C 
ATOM      6  C   UNL d   1       8.474   5.204  -9.635  0.00  0.00     0.015 C 
ATOM      7  C   UNL d   1       9.873   6.045  -7.813  0.00  0.00     0.061 C 
ATOM      8  C   UNL d   1       9.672   7.340  -7.047  0.00  0.00     0.255 C 
ATOM      9  N   UNL d   1      10.771   8.280  -7.287  0.00  0.00     0.144 N 
ATOM     10  C   UNL d   1      10.577   8.992  -8.552  0.00  0.00     0.255 C 
ATOM     11  C   UNL d   1      10.959   8.149  -9.775  0.00  0.00     0.061 C 
ENDROOT
BRANCH   1  12
ATOM     12  N   UNL d   1       7.066   4.260 -11.311  0.00  0.00    -0.158 NA
BRANCH  12  13
ATOM     13  S   UNL d   1       6.372   3.907 -12.840  0.00  0.00     0.291 S 
ATOM     14  O   UNL d   1       5.578   2.683 -12.672  0.00  0.00    -0.198 OA
ATOM     15  O   UNL d   1       5.723   5.175 -13.252  0.00  0.00    -0.198 OA
BRANCH  13  16
ATOM     16  C   UNL d   1       7.723   3.542 -13.965  0.00  0.00     0.135 A 
ATOM     17  S   UNL d   1       9.009   4.675 -14.246  0.00  0.00    -0.072 SA
ATOM     18  C   UNL d   1       9.844   3.595 -15.300  0.00  0.00     0.048 A 
ATOM     19  C   UNL d   1       9.140   2.413 -15.465  0.00  0.00     0.009 A 
ATOM     20  C   UNL d   1       7.934   2.389 -14.684  0.00  0.00     0.020 A 
BRANCH  18  21
ATOM     21  C   UNL d   1      11.111   4.040 -15.880  0.00  0.00     0.087 A 
ATOM     22  N   UNL d   1      11.727   3.139 -16.671  0.00  0.00    -0.244 NA
ATOM     23  C   UNL d   1      12.893   3.483 -17.253  0.00  0.00     0.099 A 
ATOM     24  C   UNL d   1      13.504   4.740 -17.078  0.00  0.00     0.021 A 
ATOM     25  C   UNL d   1      12.877   5.688 -16.254  0.00  0.00     0.003 A 
ATOM     26  C   UNL d   1      11.664   5.334 -15.642  0.00  0.00     0.020 A 
ENDBRANCH  18  21
ENDBRANCH  13  16
ENDBRANCH  12  13
ENDBRANCH   1  12
BRANCH   9  27
ATOM     27  C   UNL d   1      10.798   9.236  -6.188  0.00  0.00     0.297 C 
BRANCH  27  28
ATOM     28  C   UNL d   1      11.432   8.687  -4.931  0.00  0.00     0.116 A 
ATOM     29  N   UNL d   1      11.848   9.548  -4.016  0.00  0.00    -0.150 NA
ATOM     30  N   UNL d   1      12.352   8.773  -3.041  0.00  0.00    -0.147 NA
ATOM     31  C   UNL d   1      12.262   7.429  -3.317  0.00  0.00     0.123 A 
ATOM     32  C   UNL d   1      11.675   7.331  -4.545  0.00  0.00     0.041 A 
ENDBRANCH  27  28
ENDBRANCH   9  27
TORSDOF 6
