REMARK  6 active torsions:
REMARK  status: ('A' for Active; 'I' for Inactive)
REMARK    1  A    between atoms: C_2  and  C_3 
REMARK    2  A    between atoms: C_3  and  C_4 
REMARK    3  A    between atoms: C_4  and  C_5 
REMARK    4  A    between atoms: C_4  and  N_18 
REMARK    5  A    between atoms: C_5  and  C_7 
REMARK    6  A    between atoms: C_10  and  C_11 
ROOT
ATOM      1  C   UNL d   1       9.163   5.783 -10.114  0.00  0.00     0.037 A 
ATOM      2  C   UNL d   1      10.061   6.872 -10.220  0.00  0.00     0.003 A 
ATOM      3  C   UNL d   1      10.567   7.503  -9.080  0.00  0.00     0.001 A 
ATOM      4  C   UNL d   1      10.163   7.086  -7.795  0.00  0.00     0.006 A 
ATOM      5  C   UNL d   1       9.247   6.018  -7.690  0.00  0.00     0.001 A 
ATOM      6  C   UNL d   1       8.754   5.369  -8.835  0.00  0.00     0.003 A 
ENDROOT
BRANCH   1   7
ATOM      7  C   UNL d   1       8.513   5.164 -11.277  0.00  0.00     0.204 C 
ATOM      8  O   UNL d   1       7.574   4.401 -11.162  0.00  0.00    -0.289 OA
BRANCH   7   9
ATOM      9  C   UNL d   1       8.935   5.606 -12.687  0.00  0.00     0.280 C 
BRANCH   9  10
ATOM     10  C   UNL d   1       7.664   6.257 -13.234  0.00  0.00     0.041 C 
BRANCH  10  11
ATOM     11  C   UNL d   1       7.195   7.551 -12.542  0.00  0.00     0.003 C 
ATOM     12  C   UNL d   1       5.678   7.547 -12.310  0.00  0.00     0.000 C 
ENDBRANCH  10  11
ENDBRANCH   9  10
BRANCH   9  13
ATOM     13  N   UNL d   1       9.437   4.573 -13.651  0.00  0.00     0.142 N 
ATOM     14  C   UNL d   1      10.569   3.817 -13.117  0.00  0.00     0.251 C 
ATOM     15  C   UNL d   1      10.760   2.658 -14.087  0.00  0.00     0.037 C 
ATOM     16  C   UNL d   1       9.386   2.477 -14.729  0.00  0.00     0.037 C 
ATOM     17  C   UNL d   1       8.498   3.541 -14.109  0.00  0.00     0.251 C 
ENDBRANCH   9  13
ENDBRANCH   7   9
ENDBRANCH   1   7
BRANCH   4  18
ATOM     18  C   UNL d   1      10.697   7.732  -6.608  0.00  0.00     0.029 A 
ATOM     19  S   UNL d   1      11.007   9.450  -6.639  0.00  0.00    -0.086 SA
ATOM     20  C   UNL d   1      11.546   9.411  -4.994  0.00  0.00     0.035 A 
ATOM     21  C   UNL d   1      11.535   8.142  -4.483  0.00  0.00     0.007 A 
ATOM     22  C   UNL d   1      11.036   7.177  -5.402  0.00  0.00     0.007 A 
ENDBRANCH   4  18
TORSDOF 6
