REMARK  7 active torsions:
REMARK  status: ('A' for Active; 'I' for Inactive)
REMARK    1  A    between atoms: C_7  and  N_8 
REMARK    2  A    between atoms: N_11  and  C_12 
REMARK    3  A    between atoms: C_12  and  C_13 
REMARK    4  A    between atoms: C_13  and  C_14 
REMARK    5  A    between atoms: C_14  and  C_15 
REMARK    6  A    between atoms: C_15  and  N_16 
REMARK       I    between atoms: N_16  and  C_17 
REMARK    7  A    between atoms: C_17  and  C_19 
ROOT
ATOM      1  C   UNL d   1       8.345   6.751 -12.090  0.00  0.00     0.251 C 
ENDROOT
BRANCH   1   2
ATOM      2  N   UNL d   1       8.220   5.310 -12.211  0.00  0.00     0.141 N 
ATOM      3  C   UNL d   1       9.191   4.811 -13.197  0.00  0.00     0.274 C 
ATOM      4  C   UNL d   1       9.020   3.305 -13.407  0.00  0.00     0.137 C 
ATOM      5  N   UNL d   1       7.630   3.037 -13.809  0.00  0.00    -0.344 N 
ATOM      6  C   UNL d   1       6.604   3.569 -12.915  0.00  0.00     0.137 C 
ATOM      7  C   UNL d   1       6.856   5.050 -12.671  0.00  0.00     0.274 C 
BRANCH   5   8
ATOM      8  C   UNL d   1       7.335   2.165 -14.866  0.00  0.00     0.052 A 
ATOM      9  C   UNL d   1       6.322   1.153 -14.809  0.00  0.00    -0.006 A 
ATOM     10  C   UNL d   1       6.070   0.387 -15.972  0.00  0.00    -0.003 A 
ATOM     11  C   UNL d   1       5.503   0.832 -13.552  0.00  0.00     0.033 C 
ATOM     12  C   UNL d   1       6.776   0.596 -17.174  0.00  0.00    -0.004 A 
ATOM     13  C   UNL d   1       7.785   1.577 -17.224  0.00  0.00    -0.020 A 
ATOM     14  C   UNL d   1       8.546   1.837 -18.517  0.00  0.00     0.031 C 
ATOM     15  C   UNL d   1       8.066   2.333 -16.071  0.00  0.00     0.012 A 
ENDBRANCH   5   8
ENDBRANCH   1   2
BRANCH   1  16
ATOM     16  C   UNL d   1       9.415   7.021 -11.021  0.00  0.00     0.037 C 
BRANCH  16  17
ATOM     17  C   UNL d   1       9.815   8.503 -10.979  0.00  0.00     0.029 C 
BRANCH  17  18
ATOM     18  C   UNL d   1      11.155   8.743 -10.260  0.00  0.00     0.129 C 
BRANCH  18  19
ATOM     19  N   UNL d   1      11.060   8.763  -8.821  0.00  0.00    -0.234 NA
ATOM     20  C   UNL d   1      10.805   7.716  -8.025  0.00  0.00     0.281 C 
ATOM     21  O   UNL d   1      10.445   6.622  -8.431  0.00  0.00    -0.265 OA
BRANCH  20  22
ATOM     22  C   UNL d   1      11.131   7.920  -6.612  0.00  0.00     0.087 A 
ATOM     23  S   UNL d   1      11.139   9.536  -5.920  0.00  0.00    -0.082 SA
ATOM     24  C   UNL d   1      11.618   8.876  -4.378  0.00  0.00     0.030 A 
ATOM     25  C   UNL d   1      11.749   7.452  -4.425  0.00  0.00     0.007 A 
ATOM     26  C   UNL d   1      11.858   9.591  -3.209  0.00  0.00     0.006 A 
ATOM     27  C   UNL d   1      11.442   6.935  -5.722  0.00  0.00     0.012 A 
ATOM     28  C   UNL d   1      12.125   6.790  -3.249  0.00  0.00     0.001 A 
ATOM     29  C   UNL d   1      12.369   7.513  -2.083  0.00  0.00     0.000 A 
ATOM     30  C   UNL d   1      12.251   8.911  -2.058  0.00  0.00     0.001 A 
ENDBRANCH  20  22
ENDBRANCH  18  19
ENDBRANCH  17  18
ENDBRANCH  16  17
ENDBRANCH   1  16
TORSDOF 7
