REMARK  5 active torsions:
REMARK  status: ('A' for Active; 'I' for Inactive)
REMARK    1  A    between atoms: C_2  and  C_3 
REMARK    2  A    between atoms: C_3  and  N_4 
REMARK    3  A    between atoms: C_19  and  O_20 
REMARK    4  A    between atoms: O_20  and  C_21 
REMARK    5  A    between atoms: C_21  and  C_23 
ROOT
ATOM      1  N   UNL d   1       6.236   0.184 -13.688  0.00  0.00     0.140 N 
ATOM      2  C   UNL d   1       5.017   0.939 -13.603  0.00  0.00     0.255 C 
ATOM      3  C   UNL d   1       5.214   2.184 -12.774  0.00  0.00     0.061 C 
ATOM      4  C   UNL d   1       6.353   3.071 -13.249  0.00  0.00    -0.022 A 
ATOM      5  C   UNL d   1       6.538   4.396 -12.848  0.00  0.00    -0.004 A 
ATOM      6  C   UNL d   1       7.709   5.065 -13.218  0.00  0.00    -0.000 A 
ATOM      7  C   UNL d   1       8.680   4.425 -14.027  0.00  0.00    -0.000 A 
ATOM      8  C   UNL d   1       8.545   3.096 -14.496  0.00  0.00    -0.001 A 
ATOM      9  C   UNL d   1       7.356   2.459 -14.052  0.00  0.00     0.005 A 
ATOM     10  C   UNL d   1       7.227   0.972 -14.454  0.00  0.00     0.245 C 
ATOM     11  C   UNL d   1       8.590   0.245 -14.451  0.00  0.00     0.064 C 
ATOM     12  C   UNL d   1       9.600   0.982 -15.271  0.00  0.00    -0.018 A 
ATOM     13  C   UNL d   1      10.540   0.235 -16.011  0.00  0.00    -0.004 A 
ATOM     14  C   UNL d   1      11.451   0.878 -16.852  0.00  0.00     0.002 A 
ATOM     15  C   UNL d   1      11.408   2.267 -16.977  0.00  0.00     0.025 A 
ATOM     16  C   UNL d   1      10.467   3.035 -16.221  0.00  0.00     0.103 A 
ATOM     17  C   UNL d   1       9.557   2.393 -15.348  0.00  0.00     0.019 A 
ENDROOT
BRANCH  16  18
ATOM     18  O   UNL d   1      10.451   4.377 -16.492  0.00  0.00    -0.276 OA
BRANCH  18  19
ATOM     19  C   UNL d   1      11.450   5.143 -16.005  0.00  0.00     0.276 C 
ATOM     20  O   UNL d   1      12.174   4.860 -15.040  0.00  0.00    -0.264 OA
BRANCH  19  21
ATOM     21  C   UNL d   1      11.616   6.425 -16.808  0.00  0.00     0.096 C 
ATOM     22  C   UNL d   1      12.378   7.513 -16.044  0.00  0.00     0.011 C 
ENDBRANCH  19  21
ENDBRANCH  18  19
ENDBRANCH  16  18
BRANCH   1  23
ATOM     23  C   UNL d   1       5.904  -1.115 -14.289  0.00  0.00     0.251 C 
BRANCH  23  24
ATOM     24  C   UNL d   1       5.343  -1.115 -15.755  0.00  0.00     0.035 C 
ATOM     25  C   UNL d   1       3.804  -1.120 -15.849  0.00  0.00     0.002 C 
ENDBRANCH  23  24
ENDBRANCH   1  23
TORSDOF 5
