REMARK  7 active torsions:
REMARK  status: ('A' for Active; 'I' for Inactive)
REMARK    1  A    between atoms: C_2  and  C_3 
REMARK    2  A    between atoms: C_3  and  C_4 
REMARK       I    between atoms: C_4  and  N_6 
REMARK    3  A    between atoms: N_6  and  C_7 
REMARK    4  A    between atoms: C_10  and  C_11 
REMARK    5  A    between atoms: C_11  and  C_12 
REMARK    6  A    between atoms: C_12  and  N_13 
REMARK    7  A    between atoms: C_16  and  C_17 
ROOT
ATOM      1  N   UNL d   1       9.100   6.149  -9.545  0.00  0.00     0.137 N 
ATOM      2  C   UNL d   1      10.553   6.201  -9.438  0.00  0.00     0.251 C 
ATOM      3  C   UNL d   1      10.997   7.257  -8.438  0.00  0.00     0.040 C 
ATOM      4  C   UNL d   1      10.441   6.952  -7.051  0.00  0.00     0.028 C 
ATOM      5  C   UNL d   1       8.920   6.757  -7.152  0.00  0.00     0.040 C 
ATOM      6  C   UNL d   1       8.558   5.730  -8.246  0.00  0.00     0.251 C 
ENDROOT
BRANCH   1   7
ATOM      7  C   UNL d   1       8.675   5.180 -10.559  0.00  0.00     0.250 C 
BRANCH   7   8
ATOM      8  C   UNL d   1       9.246   5.467 -11.973  0.00  0.00     0.035 C 
BRANCH   8   9
ATOM      9  C   UNL d   1       9.462   4.175 -12.781  0.00  0.00     0.002 C 
ATOM     10  C   UNL d   1       8.139   3.742 -13.427  0.00  0.00     0.002 C 
ATOM     11  C   UNL d   1       8.320   2.463 -14.243  0.00  0.00     0.024 C 
ATOM     12  C   UNL d   1       9.404   2.660 -15.327  0.00  0.00     0.106 C 
ATOM     13  C   UNL d   1      10.747   3.076 -14.694  0.00  0.00     0.024 C 
ATOM     14  C   UNL d   1      10.564   4.339 -13.848  0.00  0.00     0.002 C 
BRANCH  12  15
ATOM     15  N   UNL d   1       9.588   1.430 -16.070  0.00  0.00    -0.240 NA
ATOM     16  C   UNL d   1       8.764   0.938 -16.983  0.00  0.00     0.251 C 
ATOM     17  O   UNL d   1       9.028  -0.158 -17.502  0.00  0.00    -0.271 OA
BRANCH  16  18
ATOM     18  C   UNL d   1       7.511   1.757 -17.382  0.00  0.00     0.090 C 
BRANCH  18  19
ATOM     19  C   UNL d   1       6.410   0.963 -18.095  0.00  0.00     0.010 C 
ATOM     20  C   UNL d   1       6.750   0.592 -19.548  0.00  0.00     0.001 C 
ENDBRANCH  18  19
ENDBRANCH  16  18
ENDBRANCH  12  15
ENDBRANCH   8   9
ENDBRANCH   7   8
ENDBRANCH   1   7
BRANCH   4  21
ATOM     21  C   UNL d   1      10.813   8.036  -6.090  0.00  0.00     0.004 A 
ATOM     22  C   UNL d   1      11.393   7.899  -4.795  0.00  0.00     0.021 A 
ATOM     23  C   UNL d   1      11.523   9.210  -4.277  0.00  0.00     0.100 A 
ATOM     24  C   UNL d   1      11.794   6.827  -3.961  0.00  0.00     0.002 A 
ATOM     25  O   UNL d   1      11.065  10.123  -5.199  0.00  0.00    -0.305 OA
ATOM     26  C   UNL d   1      12.025   9.475  -2.997  0.00  0.00     0.025 A 
ATOM     27  C   UNL d   1      10.661   9.400  -6.287  0.00  0.00     0.118 A 
ATOM     28  C   UNL d   1      12.415   8.395  -2.190  0.00  0.00     0.002 A 
ATOM     29  C   UNL d   1      12.290   7.073  -2.658  0.00  0.00     0.000 A 
ENDBRANCH   4  21
TORSDOF 7
