REMARK  7 active torsions:
REMARK  status: ('A' for Active; 'I' for Inactive)
REMARK    1  A    between atoms: C_3  and  S_4 
REMARK    2  A    between atoms: S_4  and  C_5 
REMARK    3  A    between atoms: C_5  and  C_6 
REMARK    4  A    between atoms: C_6  and  C_7 
REMARK    5  A    between atoms: C_7  and  N_8 
REMARK    6  A    between atoms: N_13  and  C_14 
REMARK    7  A    between atoms: C_25  and  C_26 
ROOT
ATOM      1  C   UNL d   1       9.825   4.327 -12.180  0.00  0.00     0.047 C 
ENDROOT
BRANCH   1   2
ATOM      2  C   UNL d   1       8.761   4.337 -13.281  0.00  0.00     0.067 C 
BRANCH   2   3
ATOM      3  S   UNL d   1       9.160   3.224 -14.662  0.00  0.00    -0.075 SA
BRANCH   3   4
ATOM      4  C   UNL d   1      10.068   4.330 -15.698  0.00  0.00     0.193 A 
ATOM      5  N   UNL d   1      11.406   4.354 -15.750  0.00  0.00    -0.289 N 
ATOM      6  C   UNL d   1      12.304   3.481 -15.021  0.00  0.00     0.134 C 
ATOM      7  C   UNL d   1      11.645   5.350 -16.653  0.00  0.00     0.167 A 
ATOM      8  N   UNL d   1      10.519   5.835 -17.178  0.00  0.00    -0.128 NA
ATOM      9  N   UNL d   1       9.491   5.186 -16.538  0.00  0.00    -0.122 NA
BRANCH   7  10
ATOM     10  C   UNL d   1      12.963   5.889 -17.086  0.00  0.00     0.042 A 
ATOM     11  C   UNL d   1      14.133   5.566 -16.487  0.00  0.00     0.066 A 
ATOM     12  C   UNL d   1      15.437   6.079 -16.948  0.00  0.00     0.279 A 
ATOM     13  N   UNL d   1      15.384   6.976 -17.953  0.00  0.00    -0.206 NA
ATOM     14  O   UNL d   1      16.520   5.752 -16.463  0.00  0.00    -0.265 OA
ATOM     15  C   UNL d   1      14.207   7.378 -18.586  0.00  0.00     0.102 A 
ATOM     16  C   UNL d   1      13.023   6.865 -18.193  0.00  0.00     0.024 A 
ENDBRANCH   7  10
ENDBRANCH   3   4
ENDBRANCH   2   3
ENDBRANCH   1   2
BRANCH   1  17
ATOM     17  C   UNL d   1       9.288   4.811 -10.814  0.00  0.00     0.251 C 
BRANCH  17  18
ATOM     18  N   UNL d   1       9.963   6.004 -10.333  0.00  0.00     0.138 N 
ATOM     19  C   UNL d   1       9.678   6.269  -8.932  0.00  0.00     0.266 C 
ATOM     20  C   UNL d   1      10.086   7.732  -8.727  0.00  0.00     0.097 C 
ATOM     21  C   UNL d   1      10.155   8.328 -10.135  0.00  0.00     0.052 C 
ATOM     22  N   UNL d   1      11.408   7.897  -8.123  0.00  0.00    -0.252 NA
ATOM     23  C   UNL d   1       9.654   7.223 -11.063  0.00  0.00     0.252 C 
ATOM     24  C   UNL d   1      11.622   8.738 -10.307  0.00  0.00     0.021 C 
ATOM     25  C   UNL d   1      12.078   8.910  -8.899  0.00  0.00     0.077 C 
BRANCH  22  26
ATOM     26  C   UNL d   1      11.451   8.058  -6.724  0.00  0.00     0.037 A 
ATOM     27  C   UNL d   1      11.874   9.261  -6.104  0.00  0.00     0.013 A 
ATOM     28  C   UNL d   1      11.907   9.358  -4.700  0.00  0.00     0.031 A 
ATOM     29  C   UNL d   1      11.550   8.266  -3.904  0.00  0.00     0.140 A 
ATOM     30  C   UNL d   1      11.131   7.065  -4.505  0.00  0.00     0.031 A 
ATOM     31  F   UNL d   1      11.581   8.368  -2.554  0.00  0.00    -0.204 F 
ATOM     32  C   UNL d   1      11.057   6.972  -5.906  0.00  0.00     0.013 A 
ENDBRANCH  22  26
ENDBRANCH  17  18
ENDBRANCH   1  17
TORSDOF 7
