REMARK  5 active torsions:
REMARK  status: ('A' for Active; 'I' for Inactive)
REMARK    1  A    between atoms: C_2  and  C_3 
REMARK    2  A    between atoms: C_2  and  C_19 
REMARK    3  A    between atoms: C_3  and  C_4 
REMARK    4  A    between atoms: C_4  and  N_5 
REMARK    5  A    between atoms: C_8  and  C_10 
ROOT
ATOM      1  N   UNL d   1      10.075   6.861 -10.236  0.00  0.00     0.138 N 
ATOM      2  C   UNL d   1       9.510   7.481 -11.443  0.00  0.00     0.253 C 
ATOM      3  C   UNL d   1       9.087   6.396 -12.444  0.00  0.00     0.070 C 
ATOM      4  C   UNL d   1       8.051   5.421 -11.857  0.00  0.00     0.149 C 
ATOM      5  O   UNL d   1       6.874   6.196 -11.649  0.00  0.00    -0.221 OA
ATOM      6  C   UNL d   1       8.582   4.912 -10.508  0.00  0.00     0.070 C 
ATOM      7  C   UNL d   1       9.055   6.033  -9.586  0.00  0.00     0.253 C 
ENDROOT
BRANCH   1   8
ATOM      8  C   UNL d   1      10.513   7.935  -9.347  0.00  0.00     0.258 C 
BRANCH   8   9
ATOM      9  C   UNL d   1      10.873   7.435  -7.916  0.00  0.00     0.104 C 
BRANCH   9  10
ATOM     10  C   UNL d   1      10.798   8.528  -6.854  0.00  0.00     0.175 C 
ATOM     11  O   UNL d   1      10.283   9.591  -7.126  0.00  0.00    -0.291 OA
BRANCH  10  12
ATOM     12  C   UNL d   1      11.290   8.226  -5.494  0.00  0.00     0.035 A 
ATOM     13  C   UNL d   1      11.462   6.894  -5.075  0.00  0.00     0.005 A 
ATOM     14  C   UNL d   1      11.915   6.632  -3.779  0.00  0.00     0.030 A 
ATOM     15  C   UNL d   1      12.185   7.684  -2.888  0.00  0.00     0.140 A 
ATOM     16  C   UNL d   1      11.972   9.021  -3.286  0.00  0.00     0.030 A 
ATOM     17  F   UNL d   1      12.638   7.417  -1.643  0.00  0.00    -0.204 F 
ATOM     18  C   UNL d   1      11.505   9.285  -4.586  0.00  0.00     0.005 A 
ENDBRANCH  10  12
ENDBRANCH   9  10
ENDBRANCH   8   9
ENDBRANCH   1   8
BRANCH   4  19
ATOM     19  C   UNL d   1       7.783   4.236 -12.796  0.00  0.00     0.005 A 
ATOM     20  C   UNL d   1       6.481   3.677 -12.866  0.00  0.00    -0.001 A 
ATOM     21  C   UNL d   1       6.215   2.567 -13.681  0.00  0.00     0.011 A 
ATOM     22  C   UNL d   1       7.243   1.997 -14.465  0.00  0.00     0.058 A 
ATOM     23  C   UNL d   1       8.549   2.521 -14.392  0.00  0.00     0.011 A 
ATOM     24 CL   UNL d   1       6.901   0.648 -15.489  0.00  0.00    -0.082 Cl
ATOM     25  C   UNL d   1       8.818   3.616 -13.548  0.00  0.00    -0.001 A 
ENDBRANCH   4  19
TORSDOF 5
