REMARK  0 active torsions:
REMARK  status: ('A' for Active; 'I' for Inactive)
ROOT
ATOM      1  C   UNL d   1       8.527   2.085 -17.136  0.00  0.00     0.154 C 
ATOM      2  N   UNL d   1       7.523   1.570 -16.222  0.00  0.00    -0.249 N 
ATOM      3  N   UNL d   1       6.663   0.633 -16.670  0.00  0.00    -0.168 NA
ATOM      4  C   UNL d   1       5.881   0.371 -15.647  0.00  0.00     0.117 A 
ATOM      5  C   UNL d   1       6.188   1.158 -14.508  0.00  0.00     0.016 A 
ATOM      6  C   UNL d   1       7.258   1.900 -14.908  0.00  0.00     0.075 A 
ATOM      7  C   UNL d   1       7.979   2.917 -14.138  0.00  0.00     0.013 A 
ATOM      8  C   UNL d   1       9.389   2.946 -14.122  0.00  0.00     0.001 A 
ATOM      9  C   UNL d   1      10.072   3.882 -13.322  0.00  0.00     0.000 A 
ATOM     10  C   UNL d   1       9.348   4.785 -12.517  0.00  0.00    -0.000 A 
ATOM     11  C   UNL d   1       7.946   4.764 -12.524  0.00  0.00    -0.004 A 
ATOM     12  C   UNL d   1       7.257   3.834 -13.336  0.00  0.00    -0.021 A 
ATOM     13  C   UNL d   1       5.737   3.846 -13.349  0.00  0.00     0.027 C 
ATOM     14  C   UNL d   1       5.066   2.602 -12.698  0.00  0.00     0.009 C 
ATOM     15  C   UNL d   1       5.521   1.179 -13.157  0.00  0.00     0.030 C 
ENDROOT
TORSDOF 0
