REMARK  6 active torsions:
REMARK  status: ('A' for Active; 'I' for Inactive)
REMARK    1  A    between atoms: C_2  and  C_3 
REMARK    2  A    between atoms: C_3  and  N_4 
REMARK    3  A    between atoms: N_4  and  C_5 
REMARK    4  A    between atoms: N_4  and  C_8 
REMARK    5  A    between atoms: C_5  and  C_6 
REMARK    6  A    between atoms: C_8  and  C_9 
ROOT
ATOM      1  C   UNL d   1       9.783   6.857  -9.508  0.00  0.00     0.038 C 
ATOM      2  C   UNL d   1      10.650   8.037  -9.998  0.00  0.00     0.007 C 
ATOM      3  C   UNL d   1      10.635   9.215  -9.027  0.00  0.00     0.033 C 
ATOM      4  C   UNL d   1      10.761   8.752  -7.611  0.00  0.00     0.003 A 
ATOM      5  S   UNL d   1      11.208   9.814  -6.302  0.00  0.00    -0.091 SA
ATOM      6  C   UNL d   1      11.068   8.502  -5.162  0.00  0.00     0.035 A 
ATOM      7  C   UNL d   1      10.719   7.330  -5.773  0.00  0.00     0.003 A 
ATOM      8  C   UNL d   1      10.552   7.470  -7.180  0.00  0.00    -0.020 A 
ATOM      9  C   UNL d   1      10.199   6.348  -8.113  0.00  0.00     0.029 C 
ENDROOT
BRANCH   1  10
ATOM     10  C   UNL d   1       9.855   5.740 -10.572  0.00  0.00     0.251 C 
BRANCH  10  11
ATOM     11  N   UNL d   1       8.606   5.522 -11.300  0.00  0.00     0.137 N 
BRANCH  11  12
ATOM     12  C   UNL d   1       8.122   6.728 -11.973  0.00  0.00     0.250 C 
BRANCH  12  13
ATOM     13  C   UNL d   1       6.620   6.621 -12.275  0.00  0.00     0.035 C 
ATOM     14  C   UNL d   1       6.117   7.942 -12.832  0.00  0.00     0.002 C 
ENDBRANCH  12  13
ENDBRANCH  11  12
BRANCH  11  15
ATOM     15  C   UNL d   1       8.741   4.390 -12.217  0.00  0.00     0.250 C 
BRANCH  15  16
ATOM     16  C   UNL d   1       9.701   4.643 -13.390  0.00  0.00     0.035 C 
ATOM     17  C   UNL d   1       9.851   3.436 -14.309  0.00  0.00     0.002 C 
ENDBRANCH  15  16
ENDBRANCH  11  15
ENDBRANCH  10  11
ENDBRANCH   1  10
TORSDOF 6
