REMARK  3 active torsions:
REMARK  status: ('A' for Active; 'I' for Inactive)
REMARK    1  A    between atoms: C_2  and  C_3 
REMARK    2  A    between atoms: C_3  and  N_4 
REMARK    3  A    between atoms: N_4  and  C_5 
ROOT
ATOM      1  C   UNL d   1      10.130   6.607  -8.464  0.00  0.00     0.261 C 
ATOM      2  C   UNL d   1       9.495   6.162  -7.157  0.00  0.00     0.041 C 
ATOM      3  C   UNL d   1      10.438   6.290  -5.961  0.00  0.00     0.029 C 
ATOM      4  C   UNL d   1      11.059   7.608  -5.832  0.00  0.00    -0.016 A 
ATOM      5  C   UNL d   1      11.701   7.991  -4.599  0.00  0.00     0.064 A 
ATOM      6  C   UNL d   1      11.797   7.168  -3.438  0.00  0.00     0.101 C 
ATOM      7  N   UNL d   1      11.854   6.486  -2.456  0.00  0.00    -0.191 NA
ATOM      8  C   UNL d   1      12.344   9.243  -4.537  0.00  0.00     0.010 A 
ATOM      9  C   UNL d   1      12.306  10.036  -5.666  0.00  0.00     0.000 A 
ATOM     10  C   UNL d   1      11.660   9.666  -6.832  0.00  0.00    -0.004 A 
ATOM     11  C   UNL d   1      11.085   8.425  -6.967  0.00  0.00    -0.024 A 
ATOM     12  C   UNL d   1      10.428   8.108  -8.313  0.00  0.00     0.056 C 
ATOM     13  C   UNL d   1       9.147   8.942  -8.418  0.00  0.00     0.007 C 
ENDROOT
BRANCH   1  14
ATOM     14  N   UNL d   1       9.276   6.333  -9.630  0.00  0.00     0.337 N 
BRANCH  14  15
ATOM     15  C   UNL d   1       8.956   4.921  -9.820  0.00  0.00     0.290 C 
BRANCH  15  16
ATOM     16  C   UNL d   1       8.062   4.790 -11.047  0.00  0.00     0.038 C 
ATOM     17  C   UNL d   1       8.879   4.651 -12.328  0.00  0.00     0.002 C 
ENDBRANCH  15  16
ENDBRANCH  14  15
ENDBRANCH   1  14
TORSDOF 3
