REMARK  1 active torsions:
REMARK  status: ('A' for Active; 'I' for Inactive)
REMARK    1  A    between atoms: C_2  and  C_4 
ROOT
ATOM      1  C   UNL d   1      11.248   8.167  -6.268  0.00  0.00     0.035 C 
ATOM      2  C   UNL d   1      11.616   9.203  -7.363  0.00  0.00     0.002 C 
ATOM      3  C   UNL d   1      10.839   8.920  -8.662  0.00  0.00     0.000 C 
ATOM      4  C   UNL d   1       9.329   8.997  -8.389  0.00  0.00     0.000 C 
ATOM      5  C   UNL d   1       8.927   7.940  -7.337  0.00  0.00     0.000 C 
ATOM      6  C   UNL d   1       9.264   6.536  -7.845  0.00  0.00     0.000 C 
ATOM      7  C   UNL d   1      10.774   6.465  -8.119  0.00  0.00     0.000 C 
ATOM      8  C   UNL d   1      11.180   7.509  -9.184  0.00  0.00     0.000 C 
ATOM      9  C   UNL d   1      11.558   6.745  -6.833  0.00  0.00     0.002 C 
ATOM     10  C   UNL d   1       9.713   8.211  -6.042  0.00  0.00     0.002 C 
ENDROOT
BRANCH   1  11
ATOM     11  C   UNL d   1      12.027   8.490  -4.931  0.00  0.00     0.302 C 
ATOM     12  C   UNL d   1      12.122   7.325  -3.932  0.00  0.00     0.041 C 
ATOM     13  N   UNL d   1      11.446   9.617  -4.212  0.00  0.00     0.616 N 
ENDBRANCH   1  11
TORSDOF 1
