REMARK  6 active torsions:
REMARK  status: ('A' for Active; 'I' for Inactive)
REMARK    1  A    between atoms: C_2  and  C_3 
REMARK    2  A    between atoms: N_13  and  C_14 
REMARK    3  A    between atoms: C_14  and  C_15 
REMARK    4  A    between atoms: C_15  and  C_17 
REMARK    5  A    between atoms: C_17  and  N_18 
REMARK    6  A    between atoms: N_21  and  C_22 
ROOT
ATOM      1  C   UNL d   1       9.214   6.359 -11.521  0.00  0.00     0.208 C 
ATOM      2  O   UNL d   1       9.274   7.739 -11.800  0.00  0.00    -0.219 OA
ENDROOT
BRANCH   1   3
ATOM      3  C   UNL d   1      10.187   6.043 -10.385  0.00  0.00     0.148 C 
BRANCH   3   4
ATOM      4  N   UNL d   1       9.798   6.576  -9.107  0.00  0.00    -0.247 N 
ATOM      5  C   UNL d   1       8.900   5.968  -8.321  0.00  0.00     0.348 A 
ATOM      6  N   UNL d   1       8.775   6.684  -7.208  0.00  0.00    -0.209 NA
ATOM      7  O   UNL d   1       8.319   4.907  -8.563  0.00  0.00    -0.245 OA
ATOM      8  C   UNL d   1       9.668   7.833  -7.193  0.00  0.00     0.179 A 
ATOM      9  C   UNL d   1       8.847   9.082  -7.242  0.00  0.00     0.039 C 
ATOM     10  C   UNL d   1      10.332   7.665  -8.532  0.00  0.00     0.265 A 
ATOM     11  O   UNL d   1      11.186   8.427  -8.981  0.00  0.00    -0.269 OA
BRANCH   8  12
ATOM     12  C   UNL d   1      10.682   7.840  -6.048  0.00  0.00     0.006 A 
ATOM     13  C   UNL d   1      11.335   9.017  -5.594  0.00  0.00     0.000 A 
ATOM     14  C   UNL d   1      12.220   8.951  -4.499  0.00  0.00     0.029 A 
ATOM     15  C   UNL d   1      12.450   7.718  -3.856  0.00  0.00     0.140 A 
ATOM     16  C   UNL d   1      11.840   6.548  -4.319  0.00  0.00     0.029 A 
ATOM     17  F   UNL d   1      13.322   7.613  -2.846  0.00  0.00    -0.204 F 
ATOM     18  C   UNL d   1      10.982   6.625  -5.414  0.00  0.00     0.000 A 
ENDBRANCH   8  12
ENDBRANCH   3   4
ENDBRANCH   1   3
BRANCH   1  19
ATOM     19  C   UNL d   1       9.671   5.583 -12.773  0.00  0.00     0.285 C 
BRANCH  19  20
ATOM     20  N   UNL d   1       9.000   4.316 -13.023  0.00  0.00     0.144 N 
ATOM     21  C   UNL d   1       7.662   4.534 -13.581  0.00  0.00     0.274 C 
ATOM     22  C   UNL d   1       6.888   3.223 -13.841  0.00  0.00     0.137 C 
ATOM     23  N   UNL d   1       7.718   2.331 -14.645  0.00  0.00    -0.344 N 
ATOM     24  C   UNL d   1       9.090   2.130 -14.216  0.00  0.00     0.137 C 
ATOM     25  C   UNL d   1       9.762   3.487 -13.965  0.00  0.00     0.274 C 
BRANCH  23  26
ATOM     26  C   UNL d   1       7.234   1.660 -15.774  0.00  0.00     0.057 A 
ATOM     27  C   UNL d   1       7.824   1.887 -17.033  0.00  0.00     0.029 A 
ATOM     28  C   UNL d   1       7.321   1.243 -18.176  0.00  0.00     0.070 A 
ATOM     29  C   UNL d   1       6.223   0.361 -18.075  0.00  0.00     0.068 A 
ATOM     30 CL   UNL d   1       8.028   1.587 -19.721  0.00  0.00    -0.081 Cl
ATOM     31  C   UNL d   1       5.652   0.118 -16.806  0.00  0.00     0.014 A 
ATOM     32 CL   UNL d   1       5.553  -0.403 -19.466  0.00  0.00    -0.082 Cl
ATOM     33  C   UNL d   1       6.158   0.763 -15.663  0.00  0.00     0.018 A 
ENDBRANCH  23  26
ENDBRANCH  19  20
ENDBRANCH   1  19
TORSDOF 6
