REMARK  5 active torsions:
REMARK  status: ('A' for Active; 'I' for Inactive)
REMARK       I    between atoms: C_2  and  N_12 
REMARK    1  A    between atoms: C_2  and  C_3 
REMARK    2  A    between atoms: N_15  and  C_16 
REMARK    3  A    between atoms: C_16  and  C_17 
REMARK    4  A    between atoms: C_17  and  O_18 
REMARK    5  A    between atoms: O_18  and  C_19 
ROOT
ATOM      1  O   UNL d   1       9.480   7.715 -12.654  0.00  0.00    -0.266 OA
ATOM      2  C   UNL d   1       9.270   6.920 -11.723  0.00  0.00     0.277 C 
ATOM      3  N   UNL d   1       9.865   7.101 -10.536  0.00  0.00    -0.311 N 
ATOM      4  C   UNL d   1       9.533   6.473  -9.244  0.00  0.00     0.140 C 
ATOM      5  C   UNL d   1       9.380   7.574  -8.204  0.00  0.00     0.274 C 
ATOM      6  N   UNL d   1      10.626   8.322  -8.037  0.00  0.00     0.144 N 
ATOM      7  C   UNL d   1      10.884   8.991  -9.304  0.00  0.00     0.274 C 
ATOM      8  C   UNL d   1      11.065   7.956 -10.383  0.00  0.00     0.140 C 
ENDROOT
BRANCH   2   9
ATOM      9  C   UNL d   1       8.454   5.696 -12.014  0.00  0.00     0.160 A 
ATOM     10  C   UNL d   1       8.554   4.828 -13.124  0.00  0.00     0.043 A 
ATOM     11  C   UNL d   1       7.496   3.953 -12.960  0.00  0.00     0.105 A 
ATOM     12  C   UNL d   1       9.440   4.668 -14.233  0.00  0.00     0.003 A 
ATOM     13  N   UNL d   1       6.743   4.210 -11.862  0.00  0.00    -0.148 NA
ATOM     14  C   UNL d   1       7.266   2.865 -13.820  0.00  0.00     0.021 A 
ATOM     15  N   UNL d   1       7.387   5.268 -11.272  0.00  0.00    -0.143 NA
ATOM     16  C   UNL d   1       8.151   2.664 -14.895  0.00  0.00     0.002 A 
ATOM     17  C   UNL d   1       9.220   3.575 -15.114  0.00  0.00     0.000 A 
ENDBRANCH   2   9
BRANCH   6  18
ATOM     18  C   UNL d   1      10.421   9.407  -7.095  0.00  0.00     0.283 C 
BRANCH  18  19
ATOM     19  C   UNL d   1      10.430   8.891  -5.688  0.00  0.00     0.184 C 
BRANCH  19  20
ATOM     20  O   UNL d   1      11.774   8.651  -5.412  0.00  0.00    -0.327 OA
BRANCH  20  21
ATOM     21  C   UNL d   1      11.950   8.318  -4.113  0.00  0.00     0.113 C 
ATOM     22  C   UNL d   1      12.137   9.352  -3.163  0.00  0.00     0.123 C 
ATOM     23  N   UNL d   1      12.454   9.098  -1.868  0.00  0.00    -0.240 NA
ATOM     24  C   UNL d   1      12.646   7.824  -1.546  0.00  0.00     0.099 C 
ATOM     25  C   UNL d   1      12.364   6.719  -2.350  0.00  0.00     0.023 C 
ATOM     26  C   UNL d   1      12.006   6.968  -3.689  0.00  0.00     0.027 C 
ENDBRANCH  20  21
ENDBRANCH  19  20
ENDBRANCH  18  19
ENDBRANCH   6  18
TORSDOF 5
