REMARK  3 active torsions:
REMARK  status: ('A' for Active; 'I' for Inactive)
REMARK    1  A    between atoms: C_3  and  C_4 
REMARK    2  A    between atoms: N_16  and  C_17 
REMARK    3  A    between atoms: C_17  and  C_18 
ROOT
ATOM      1  O   UNL d   1       8.877   3.439 -17.866  0.00  0.00    -0.289 OA
ATOM      2  C   UNL d   1       9.691   4.278 -17.456  0.00  0.00     0.202 A 
ATOM      3  C   UNL d   1      10.272   5.399 -18.196  0.00  0.00     0.061 A 
ATOM      4  C   UNL d   1      11.136   5.944 -17.330  0.00  0.00     0.119 A 
ATOM      5  O   UNL d   1      11.189   5.388 -16.084  0.00  0.00    -0.324 OA
ATOM      6  C   UNL d   1      10.258   4.311 -16.031  0.00  0.00     0.185 A 
ATOM      7  C   UNL d   1      10.983   3.026 -15.633  0.00  0.00     0.039 C 
ATOM      8  C   UNL d   1      11.425   3.145 -14.169  0.00  0.00     0.038 C 
ATOM      9  C   UNL d   1      10.249   3.531 -13.253  0.00  0.00     0.251 C 
ATOM     10  N   UNL d   1       9.661   4.802 -13.680  0.00  0.00     0.144 N 
ATOM     11  C   UNL d   1       9.142   4.648 -15.033  0.00  0.00     0.285 C 
ENDROOT
BRANCH   3  12
ATOM     12  C   UNL d   1      10.008   5.817 -19.589  0.00  0.00     0.005 A 
ATOM     13  C   UNL d   1       8.923   5.286 -20.339  0.00  0.00     0.000 A 
ATOM     14  C   UNL d   1       8.709   5.703 -21.661  0.00  0.00     0.000 A 
ATOM     15  C   UNL d   1       9.557   6.657 -22.249  0.00  0.00     0.000 A 
ATOM     16  C   UNL d   1      10.617   7.207 -21.503  0.00  0.00     0.000 A 
ATOM     17  C   UNL d   1      10.834   6.793 -20.182  0.00  0.00     0.000 A 
ENDBRANCH   3  12
BRANCH  10  18
ATOM     18  C   UNL d   1       8.561   5.162 -12.784  0.00  0.00     0.277 C 
BRANCH  18  19
ATOM     19  C   UNL d   1       9.035   5.870 -11.534  0.00  0.00     0.011 A 
ATOM     20  C   UNL d   1       9.444   7.219 -11.598  0.00  0.00    -0.002 A 
ATOM     21  C   UNL d   1       9.869   7.882 -10.431  0.00  0.00    -0.000 A 
ATOM     22  C   UNL d   1       9.888   7.199  -9.198  0.00  0.00    -0.000 A 
ATOM     23  C   UNL d   1       9.480   5.854  -9.134  0.00  0.00    -0.000 A 
ATOM     24  C   UNL d   1       9.057   5.193 -10.301  0.00  0.00    -0.002 A 
ENDBRANCH  18  19
ENDBRANCH  10  18
TORSDOF 3
