REMARK  4 active torsions:
REMARK  status: ('A' for Active; 'I' for Inactive)
REMARK    1  A    between atoms: N_2  and  C_4 
REMARK    2  A    between atoms: C_4  and  C_5 
REMARK    3  A    between atoms: C_5  and  C_6 
REMARK       I    between atoms: N_8  and  C_9 
REMARK    4  A    between atoms: C_9  and  C_11 
ROOT
ATOM      1  C   UNL d   1       8.944   3.624 -14.231  0.00  0.00    -0.001 A 
ATOM      2  C   UNL d   1       8.148   2.584 -14.607  0.00  0.00     0.079 A 
ATOM      3  N   UNL d   1       8.819   1.772 -15.522  0.00  0.00    -0.274 N 
ATOM      4  C   UNL d   1       8.224   0.555 -16.047  0.00  0.00     0.265 C 
ATOM      5  O   UNL d   1       8.885  -0.078 -16.862  0.00  0.00    -0.267 OA
ATOM      6  C   UNL d   1      10.058   2.363 -15.806  0.00  0.00     0.067 A 
ATOM      7  C   UNL d   1      11.111   2.017 -16.692  0.00  0.00     0.020 A 
ATOM      8  C   UNL d   1      12.259   2.834 -16.779  0.00  0.00     0.029 A 
ATOM      9  C   UNL d   1      12.355   3.997 -15.986  0.00  0.00     0.131 A 
ATOM     10  O   UNL d   1      13.463   4.793 -16.031  0.00  0.00    -0.190 OA
ATOM     11  C   UNL d   1      11.304   4.346 -15.120  0.00  0.00     0.029 A 
ATOM     12  C   UNL d   1      10.147   3.538 -15.002  0.00  0.00     0.016 A 
ENDROOT
BRANCH   4  13
ATOM     13  C   UNL d   1       6.829   0.119 -15.676  0.00  0.00     0.057 A 
ATOM     14  C   UNL d   1       5.966  -0.403 -16.677  0.00  0.00     0.005 A 
ATOM     15  C   UNL d   1       4.658  -0.821 -16.351  0.00  0.00     0.000 A 
ATOM     16  C   UNL d   1       4.186  -0.707 -15.032  0.00  0.00     0.000 A 
ATOM     17  C   UNL d   1       5.051  -0.193 -14.030  0.00  0.00     0.000 A 
ATOM     18  C   UNL d   1       6.363   0.148 -14.339  0.00  0.00     0.005 A 
ENDBRANCH   4  13
BRANCH   1  19
ATOM     19  C   UNL d   1       8.569   4.665 -13.246  0.00  0.00     0.063 C 
BRANCH  19  20
ATOM     20  C   UNL d   1       9.654   4.897 -12.169  0.00  0.00     0.255 C 
BRANCH  20  21
ATOM     21  N   UNL d   1       9.325   5.967 -11.232  0.00  0.00     0.142 N 
ATOM     22  C   UNL d   1       9.017   7.228 -11.905  0.00  0.00     0.285 C 
ATOM     23  C   UNL d   1       8.229   5.578 -10.357  0.00  0.00     0.285 C 
ENDBRANCH  20  21
ENDBRANCH  19  20
ENDBRANCH   1  19
TORSDOF 4
