REMARK  5 active torsions:
REMARK  status: ('A' for Active; 'I' for Inactive)
REMARK       I    between atoms: C_2  and  N_3 
REMARK       I    between atoms: C_2  and  N_27 
REMARK    1  A    between atoms: N_3  and  C_4 
REMARK    2  A    between atoms: C_7  and  C_8 
REMARK    3  A    between atoms: C_8  and  C_9 
REMARK    4  A    between atoms: C_9  and  N_10 
REMARK    5  A    between atoms: N_13  and  C_14 
ROOT
ATOM      1  C   UNL d   1       8.529   5.055 -11.954  0.00  0.00     0.035 C 
ENDROOT
BRANCH   1   2
ATOM      2  C   UNL d   1       8.922   3.946 -12.947  0.00  0.00     0.002 C 
ATOM      3  C   UNL d   1       7.760   3.648 -13.905  0.00  0.00     0.002 C 
ATOM      4  C   UNL d   1       8.125   2.547 -14.899  0.00  0.00     0.025 C 
ATOM      5  C   UNL d   1       9.408   2.904 -15.672  0.00  0.00     0.108 C 
ATOM      6  C   UNL d   1      10.573   3.200 -14.716  0.00  0.00     0.025 C 
ATOM      7  C   UNL d   1      10.206   4.301 -13.720  0.00  0.00     0.002 C 
BRANCH   5   8
ATOM      8  N   UNL d   1       9.777   1.804 -16.563  0.00  0.00    -0.221 NA
ATOM      9  C   UNL d   1       9.237   1.585 -17.776  0.00  0.00     0.342 C 
ATOM     10  O   UNL d   1       8.329   2.287 -18.224  0.00  0.00    -0.245 OA
ATOM     11  N   UNL d   1       9.753   0.522 -18.448  0.00  0.00    -0.296 N 
ATOM     12  C   UNL d   1       9.266   0.133 -19.782  0.00  0.00     0.138 C 
ATOM     13  C   UNL d   1      10.883  -0.327 -18.003  0.00  0.00     0.138 C 
ATOM     14  C   UNL d   1      10.443   0.216 -20.769  0.00  0.00     0.167 C 
ATOM     15  O   UNL d   1      11.527  -0.592 -20.335  0.00  0.00    -0.350 OA
ATOM     16  C   UNL d   1      12.018  -0.245 -19.044  0.00  0.00     0.167 C 
ENDBRANCH   5   8
ENDBRANCH   1   2
BRANCH   1  17
ATOM     17  C   UNL d   1       9.088   4.822 -10.530  0.00  0.00     0.250 C 
BRANCH  17  18
ATOM     18  N   UNL d   1       8.911   5.987  -9.683  0.00  0.00     0.141 N 
ATOM     19  C   UNL d   1       9.115   5.631  -8.274  0.00  0.00     0.274 C 
ATOM     20  C   UNL d   1       8.854   6.851  -7.363  0.00  0.00     0.138 C 
ATOM     21  N   UNL d   1       9.768   7.906  -7.748  0.00  0.00    -0.329 N 
ATOM     22  C   UNL d   1       9.647   8.310  -9.145  0.00  0.00     0.138 C 
ATOM     23  C   UNL d   1       9.845   7.068 -10.050  0.00  0.00     0.274 C 
BRANCH  21  24
ATOM     24  C   UNL d   1      10.628   8.553  -6.854  0.00  0.00     0.148 A 
ATOM     25  C   UNL d   1      11.141   8.003  -5.616  0.00  0.00     0.042 A 
ATOM     26  C   UNL d   1      11.966   8.980  -4.975  0.00  0.00     0.050 A 
ATOM     27  C   UNL d   1      11.032   6.763  -4.940  0.00  0.00     0.004 A 
ATOM     28  S   UNL d   1      12.026  10.382  -6.058  0.00  0.00     0.015 SA
ATOM     29  C   UNL d   1      12.636   8.768  -3.755  0.00  0.00     0.008 A 
ATOM     30  N   UNL d   1      11.057   9.735  -7.199  0.00  0.00    -0.192 NA
ATOM     31  C   UNL d   1      12.457   7.538  -3.084  0.00  0.00     0.001 A 
ATOM     32  C   UNL d   1      11.649   6.560  -3.693  0.00  0.00     0.000 A 
ENDBRANCH  21  24
ENDBRANCH  17  18
ENDBRANCH   1  17
TORSDOF 5
