REMARK  3 active torsions:
REMARK  status: ('A' for Active; 'I' for Inactive)
REMARK    1  A    between atoms: C_4  and  C_5 
REMARK    2  A    between atoms: C_5  and  N_6 
REMARK    3  A    between atoms: C_9  and  C_10 
ROOT
ATOM      1  N   UNL d   1       7.848   3.400 -14.194  0.00  0.00     0.137 N 
ATOM      2  C   UNL d   1       9.145   3.206 -13.546  0.00  0.00     0.251 C 
ATOM      3  C   UNL d   1       9.646   4.483 -12.883  0.00  0.00     0.041 C 
ATOM      4  C   UNL d   1       8.637   5.008 -11.858  0.00  0.00     0.047 C 
ATOM      5  C   UNL d   1       7.245   5.107 -12.504  0.00  0.00     0.041 C 
ATOM      6  C   UNL d   1       6.831   3.798 -13.204  0.00  0.00     0.251 C 
ENDROOT
BRANCH   1   7
ATOM      7  C   UNL d   1       7.436   2.179 -14.902  0.00  0.00     0.251 C 
BRANCH   7   8
ATOM      8  C   UNL d   1       8.076   2.083 -16.318  0.00  0.00     0.048 C 
ATOM      9  C   UNL d   1       9.448   1.342 -16.329  0.00  0.00     0.072 C 
ATOM     10  C   UNL d   1      10.116   1.293 -17.706  0.00  0.00     0.175 C 
ATOM     11  O   UNL d   1      11.333   1.405 -17.832  0.00  0.00    -0.291 OA
ATOM     12  C   UNL d   1       9.203   1.107 -18.835  0.00  0.00     0.055 A 
ATOM     13  C   UNL d   1       7.859   1.181 -18.634  0.00  0.00     0.081 A 
ATOM     14  C   UNL d   1       9.403   0.870 -20.219  0.00  0.00     0.031 A 
ATOM     15  C   UNL d   1       7.109   1.459 -17.369  0.00  0.00     0.054 C 
ATOM     16  O   UNL d   1       7.182   0.951 -19.795  0.00  0.00    -0.309 OA
ATOM     17  C   UNL d   1       8.146   0.756 -20.748  0.00  0.00     0.122 A 
ENDBRANCH   7   8
ENDBRANCH   1   7
BRANCH   4  18
ATOM     18  C   UNL d   1       9.081   6.332 -11.295  0.00  0.00     0.087 A 
ATOM     19  C   UNL d   1       9.546   6.679 -10.008  0.00  0.00     0.041 A 
ATOM     20  C   UNL d   1       9.864   8.038  -9.998  0.00  0.00     0.129 A 
ATOM     21  C   UNL d   1       9.714   5.918  -8.830  0.00  0.00     0.006 A 
ATOM     22  O   UNL d   1       9.600   8.490 -11.276  0.00  0.00    -0.211 OA
ATOM     23  C   UNL d   1      10.341   8.704  -8.864  0.00  0.00     0.057 A 
ATOM     24  N   UNL d   1       9.123   7.412 -12.073  0.00  0.00    -0.131 NA
ATOM     25  C   UNL d   1      10.494   7.953  -7.681  0.00  0.00     0.142 A 
ATOM     26  F   UNL d   1      10.945   8.560  -6.557  0.00  0.00    -0.204 F 
ATOM     27  C   UNL d   1      10.188   6.569  -7.666  0.00  0.00     0.030 A 
ENDBRANCH   4  18
TORSDOF 3
