REMARK  4 active torsions:
REMARK  status: ('A' for Active; 'I' for Inactive)
REMARK    1  A    between atoms: C_12  and  C_13 
REMARK    2  A    between atoms: N_16  and  C_17 
REMARK    3  A    between atoms: C_17  and  C_18 
REMARK    4  A    between atoms: C_18  and  C_19 
ROOT
ATOM      1  C   UNL d   1       8.932   4.060 -14.022  0.00  0.00     0.011 C 
ATOM      2  C   UNL d   1       8.981   5.578 -14.017  0.00  0.00     0.036 C 
ATOM      3  C   UNL d   1       8.616   6.167 -12.656  0.00  0.00     0.250 C 
ATOM      4  N   UNL d   1       9.564   5.671 -11.667  0.00  0.00     0.137 N 
ATOM      5  C   UNL d   1       9.426   4.222 -11.550  0.00  0.00     0.250 C 
ATOM      6  C   UNL d   1       9.809   3.559 -12.873  0.00  0.00     0.036 C 
ENDROOT
BRANCH   1   7
ATOM      7  C   UNL d   1       9.336   3.431 -15.400  0.00  0.00     0.062 C 
ATOM      8  C   UNL d   1       9.039   1.923 -15.454  0.00  0.00     0.172 C 
ATOM      9  O   UNL d   1       8.197   1.417 -14.707  0.00  0.00    -0.291 OA
ATOM     10  C   UNL d   1       9.794   1.137 -16.465  0.00  0.00     0.033 A 
ATOM     11  C   UNL d   1      10.801   1.704 -17.298  0.00  0.00     0.008 A 
ATOM     12  C   UNL d   1       9.487  -0.228 -16.596  0.00  0.00     0.003 A 
ATOM     13  C   UNL d   1      11.473   0.899 -18.223  0.00  0.00     0.136 A 
ATOM     14  C   UNL d   1      11.155   3.181 -17.196  0.00  0.00     0.029 C 
ATOM     15  C   UNL d   1      11.157  -0.466 -18.354  0.00  0.00     0.029 A 
ATOM     16  F   UNL d   1      12.439   1.428 -19.024  0.00  0.00    -0.204 F 
ATOM     17  C   UNL d   1      10.154  -1.015 -17.539  0.00  0.00     0.002 A 
ATOM     18  C   UNL d   1      10.797   3.756 -15.842  0.00  0.00     0.012 C 
ENDBRANCH   1   7
BRANCH   4  19
ATOM     19  C   UNL d   1       9.295   6.315 -10.395  0.00  0.00     0.255 C 
BRANCH  19  20
ATOM     20  C   UNL d   1      10.524   6.250  -9.474  0.00  0.00     0.062 C 
BRANCH  20  21
ATOM     21  C   UNL d   1      10.461   7.255  -8.345  0.00  0.00    -0.020 A 
ATOM     22  C   UNL d   1       9.274   7.396  -7.599  0.00  0.00    -0.004 A 
ATOM     23  C   UNL d   1       9.201   8.360  -6.587  0.00  0.00    -0.000 A 
ATOM     24  C   UNL d   1      10.308   9.178  -6.297  0.00  0.00    -0.000 A 
ATOM     25  C   UNL d   1      11.497   9.037  -7.035  0.00  0.00    -0.000 A 
ATOM     26  C   UNL d   1      11.573   8.075  -8.059  0.00  0.00    -0.004 A 
ENDBRANCH  20  21
ENDBRANCH  19  20
ENDBRANCH   4  19
TORSDOF 4
