REMARK  11 active torsions:
REMARK  status: ('A' for Active; 'I' for Inactive)
REMARK    1  A    between atoms: C_2  and  C_5 
REMARK    2  A    between atoms: C_7  and  N_8 
REMARK    3  A    between atoms: N_11  and  C_12 
REMARK    4  A    between atoms: C_12  and  C_13 
REMARK    5  A    between atoms: C_13  and  C_14 
REMARK    6  A    between atoms: C_14  and  C_15 
REMARK    7  A    between atoms: C_15  and  N_16 
REMARK       I    between atoms: N_16  and  C_17 
REMARK    8  A    between atoms: C_17  and  C_19 
REMARK    9  A    between atoms: N_22  and  C_23 
REMARK   10  A    between atoms: C_23  and  C_24 
REMARK   11  A    between atoms: C_35  and  C_36 
ROOT
ATOM      1  N   UNL d   1       7.360   0.202 -17.413  0.00  0.00    -0.330 N 
ATOM      2  C   UNL d   1       6.581   0.161 -16.163  0.00  0.00     0.138 C 
ATOM      3  C   UNL d   1       7.526   0.305 -14.949  0.00  0.00     0.274 C 
ATOM      4  N   UNL d   1       8.384   1.496 -15.053  0.00  0.00     0.141 N 
ATOM      5  C   UNL d   1       9.220   1.355 -16.253  0.00  0.00     0.274 C 
ATOM      6  C   UNL d   1       8.361   1.278 -17.535  0.00  0.00     0.138 C 
ENDROOT
BRANCH   4   7
ATOM      7  C   UNL d   1       7.666   2.772 -15.093  0.00  0.00     0.251 C 
BRANCH   7   8
ATOM      8  C   UNL d   1       6.923   3.129 -13.808  0.00  0.00     0.037 C 
BRANCH   8   9
ATOM      9  C   UNL d   1       7.752   4.109 -12.997  0.00  0.00     0.029 C 
BRANCH   9  10
ATOM     10  C   UNL d   1       7.031   4.570 -11.736  0.00  0.00     0.129 C 
BRANCH  10  11
ATOM     11  N   UNL d   1       7.769   5.622 -11.060  0.00  0.00    -0.238 NA
ATOM     12  C   UNL d   1       8.859   5.454 -10.296  0.00  0.00     0.251 C 
ATOM     13  O   UNL d   1       9.458   4.394 -10.211  0.00  0.00    -0.271 OA
BRANCH  12  14
ATOM     14  C   UNL d   1       9.306   6.663  -9.481  0.00  0.00     0.085 C 
ATOM     15  C   UNL d   1       9.137   6.396  -7.974  0.00  0.00     0.045 C 
ATOM     16  C   UNL d   1       9.678   7.578  -7.168  0.00  0.00     0.251 C 
ATOM     17  N   UNL d   1      11.096   7.784  -7.484  0.00  0.00     0.141 N 
ATOM     18  C   UNL d   1      11.248   8.168  -8.887  0.00  0.00     0.251 C 
ATOM     19  C   UNL d   1      10.747   7.040  -9.784  0.00  0.00     0.045 C 
BRANCH  17  20
ATOM     20  C   UNL d   1      11.651   8.827  -6.628  0.00  0.00     0.277 C 
BRANCH  20  21
ATOM     21  C   UNL d   1      11.730   8.447  -5.156  0.00  0.00     0.011 A 
ATOM     22  C   UNL d   1      11.716   9.471  -4.193  0.00  0.00    -0.002 A 
ATOM     23  C   UNL d   1      11.862   9.163  -2.826  0.00  0.00    -0.000 A 
ATOM     24  C   UNL d   1      11.967   7.824  -2.411  0.00  0.00    -0.000 A 
ATOM     25  C   UNL d   1      11.946   6.791  -3.364  0.00  0.00    -0.000 A 
ATOM     26  C   UNL d   1      11.847   7.101  -4.734  0.00  0.00    -0.002 A 
ENDBRANCH  20  21
ENDBRANCH  17  20
ENDBRANCH  12  14
ENDBRANCH  10  11
ENDBRANCH   9  10
ENDBRANCH   8   9
ENDBRANCH   7   8
ENDBRANCH   4   7
BRANCH   1  27
ATOM     27  C   UNL d   1       7.200  -0.777 -18.398  0.00  0.00     0.143 A 
ATOM     28  N   UNL d   1       6.431  -1.843 -18.085  0.00  0.00    -0.214 NA
ATOM     29  C   UNL d   1       6.284  -2.829 -18.967  0.00  0.00     0.140 A 
ATOM     30  N   UNL d   1       6.776  -2.807 -20.206  0.00  0.00    -0.227 NA
ATOM     31  C   UNL d   1       7.535  -1.754 -20.566  0.00  0.00     0.157 A 
ATOM     32  C   UNL d   1       7.790  -0.691 -19.675  0.00  0.00     0.060 A 
BRANCH  29  33
ATOM     33  C   UNL d   1       5.311  -3.954 -18.584  0.00  0.00     0.052 C 
ATOM     34  C   UNL d   1       3.863  -3.495 -18.814  0.00  0.00     0.008 C 
ATOM     35  C   UNL d   1       5.484  -4.368 -17.104  0.00  0.00     0.008 C 
ATOM     36  C   UNL d   1       5.594  -5.216 -19.437  0.00  0.00     0.008 C 
ENDBRANCH  29  33
BRANCH  31  37
ATOM     37  C   UNL d   1       8.091  -1.755 -21.984  0.00  0.00     0.435 C 
ATOM     38  F   UNL d   1       8.797  -0.652 -22.241  0.00  0.00    -0.165 F 
ATOM     39  F   UNL d   1       8.888  -2.813 -22.149  0.00  0.00    -0.165 F 
ATOM     40  F   UNL d   1       7.087  -1.827 -22.861  0.00  0.00    -0.165 F 
ENDBRANCH  31  37
ENDBRANCH   1  27
TORSDOF 11
