REMARK  12 active torsions:
REMARK  status: ('A' for Active; 'I' for Inactive)
REMARK    1  A    between atoms: C_2  and  C_3 
REMARK    2  A    between atoms: C_3  and  N_4 
REMARK    3  A    between atoms: C_19  and  O_20 
REMARK    4  A    between atoms: O_20  and  C_21 
REMARK    5  A    between atoms: C_21  and  C_22 
REMARK    6  A    between atoms: N_24  and  C_25 
REMARK    7  A    between atoms: C_25  and  C_26 
REMARK    8  A    between atoms: C_26  and  C_27 
REMARK    9  A    between atoms: C_27  and  C_28 
REMARK   10  A    between atoms: C_28  and  N_29 
REMARK   11  A    between atoms: N_32  and  C_33 
REMARK   12  A    between atoms: C_38  and  O_39 
ROOT
ATOM      1  C   UNL d   1      10.766   0.119 -19.333  0.00  0.00     0.131 A 
ATOM      2  C   UNL d   1      11.391  -0.132 -20.526  0.00  0.00     0.116 A 
ATOM      3  N   UNL d   1      12.571  -0.746 -20.157  0.00  0.00    -0.231 N 
ATOM      4  N   UNL d   1      12.648  -0.886 -18.811  0.00  0.00    -0.064 NA
ATOM      5  N   UNL d   1      11.605  -0.327 -18.303  0.00  0.00    -0.131 NA
ENDROOT
BRANCH   1   6
ATOM      6  C   UNL d   1       9.493   0.847 -19.054  0.00  0.00     0.198 C 
BRANCH   6   7
ATOM      7  O   UNL d   1       9.172   0.959 -17.672  0.00  0.00    -0.324 OA
BRANCH   7   8
ATOM      8  C   UNL d   1       9.919   1.757 -16.839  0.00  0.00     0.094 A 
ATOM      9  C   UNL d   1      11.218   2.206 -17.193  0.00  0.00     0.024 A 
ATOM     10  C   UNL d   1      11.952   3.011 -16.305  0.00  0.00     0.002 A 
ATOM     11  C   UNL d   1      11.397   3.410 -15.074  0.00  0.00    -0.004 A 
ATOM     12  C   UNL d   1      10.102   2.975 -14.738  0.00  0.00    -0.018 A 
ATOM     13  C   UNL d   1       9.455   3.526 -13.493  0.00  0.00     0.064 C 
ATOM     14  C   UNL d   1       9.365   2.107 -15.575  0.00  0.00     0.018 A 
ATOM     15  C   UNL d   1       7.924   3.709 -13.658  0.00  0.00     0.245 C 
ATOM     16  N   UNL d   1       7.342   4.296 -12.439  0.00  0.00     0.140 N 
ATOM     17  C   UNL d   1       7.279   2.395 -14.140  0.00  0.00     0.005 A 
ATOM     18  C   UNL d   1       5.899   4.367 -12.632  0.00  0.00     0.255 C 
ATOM     19  C   UNL d   1       5.365   2.936 -12.622  0.00  0.00     0.061 C 
ATOM     20  C   UNL d   1       6.000   2.008 -13.644  0.00  0.00    -0.022 A 
ATOM     21  C   UNL d   1       5.461   0.792 -14.068  0.00  0.00    -0.004 A 
ATOM     22  C   UNL d   1       6.174  -0.019 -14.966  0.00  0.00    -0.000 A 
ATOM     23  C   UNL d   1       7.436   0.401 -15.444  0.00  0.00    -0.000 A 
ATOM     24  C   UNL d   1       8.030   1.639 -15.081  0.00  0.00    -0.001 A 
BRANCH  16  25
ATOM     25  C   UNL d   1       7.862   5.638 -12.139  0.00  0.00     0.251 C 
BRANCH  25  26
ATOM     26  C   UNL d   1       9.017   5.580 -11.114  0.00  0.00     0.035 C 
ATOM     27  C   UNL d   1       8.528   5.248  -9.700  0.00  0.00     0.002 C 
ENDBRANCH  25  26
ENDBRANCH  16  25
ENDBRANCH   7   8
ENDBRANCH   6   7
ENDBRANCH   1   6
BRANCH   3  28
ATOM     28  C   UNL d   1      13.642  -1.243 -20.990  0.00  0.00     0.129 C 
BRANCH  28  29
ATOM     29  C   UNL d   1      14.328  -0.132 -21.812  0.00  0.00     0.029 C 
BRANCH  29  30
ATOM     30  C   UNL d   1      14.924   0.985 -20.939  0.00  0.00     0.037 C 
BRANCH  30  31
ATOM     31  C   UNL d   1      15.285   2.260 -21.723  0.00  0.00     0.251 C 
BRANCH  31  32
ATOM     32  N   UNL d   1      15.852   3.283 -20.840  0.00  0.00     0.141 N 
ATOM     33  C   UNL d   1      16.500   4.311 -21.653  0.00  0.00     0.274 C 
ATOM     34  C   UNL d   1      17.114   5.405 -20.753  0.00  0.00     0.137 C 
ATOM     35  N   UNL d   1      16.106   5.953 -19.855  0.00  0.00    -0.343 N 
ATOM     36  C   UNL d   1      15.334   4.979 -19.103  0.00  0.00     0.137 C 
ATOM     37  C   UNL d   1      14.775   3.902 -20.049  0.00  0.00     0.274 C 
BRANCH  35  38
ATOM     38  C   UNL d   1      15.862   7.329 -19.738  0.00  0.00     0.079 A 
ATOM     39  C   UNL d   1      16.938   8.231 -19.575  0.00  0.00     0.110 A 
ATOM     40  C   UNL d   1      16.649   9.621 -19.451  0.00  0.00     0.026 A 
ATOM     41  C   UNL d   1      15.323  10.086 -19.480  0.00  0.00     0.002 A 
ATOM     42  C   UNL d   1      14.265   9.179 -19.640  0.00  0.00     0.002 A 
ATOM     43  C   UNL d   1      14.540   7.801 -19.770  0.00  0.00     0.019 A 
BRANCH  39  44
ATOM     44  O   UNL d   1      18.221   7.724 -19.516  0.00  0.00    -0.327 OA
ATOM     45  C   UNL d   1      19.308   8.624 -19.362  0.00  0.00     0.181 C 
ENDBRANCH  39  44
ENDBRANCH  35  38
ENDBRANCH  31  32
ENDBRANCH  30  31
ENDBRANCH  29  30
ENDBRANCH  28  29
ENDBRANCH   3  28
TORSDOF 12
