REMARK  7 active torsions:
REMARK  status: ('A' for Active; 'I' for Inactive)
REMARK    1  A    between atoms: S_2  and  N_4 
REMARK    2  A    between atoms: S_2  and  C_24 
REMARK    3  A    between atoms: N_4  and  C_5 
REMARK    4  A    between atoms: C_5  and  C_6 
REMARK    5  A    between atoms: C_6  and  C_7 
REMARK    6  A    between atoms: C_7  and  N_8 
REMARK    7  A    between atoms: C_11  and  C_12 
ROOT
ATOM      1  N   UNL d   1       9.803   6.020 -11.568  0.00  0.00     0.137 N 
ATOM      2  C   UNL d   1       8.871   6.450 -12.603  0.00  0.00     0.251 C 
ATOM      3  C   UNL d   1       9.026   5.572 -13.852  0.00  0.00     0.041 C 
ATOM      4  C   UNL d   1       8.807   4.098 -13.548  0.00  0.00     0.047 C 
ATOM      5  C   UNL d   1       9.700   3.740 -12.371  0.00  0.00     0.041 C 
ATOM      6  C   UNL d   1       9.473   4.657 -11.165  0.00  0.00     0.251 C 
ENDROOT
BRANCH   1   7
ATOM      7  C   UNL d   1       9.694   6.888 -10.408  0.00  0.00     0.252 C 
BRANCH   7   8
ATOM      8  C   UNL d   1      10.413   8.241 -10.577  0.00  0.00     0.062 C 
BRANCH   8   9
ATOM      9  C   UNL d   1      10.306   9.163  -9.358  0.00  0.00     0.141 C 
BRANCH   9  10
ATOM     10  N   UNL d   1      11.109   8.676  -8.236  0.00  0.00    -0.185 NA
BRANCH  10  11
ATOM     11  S   UNL d   1      10.445   7.506  -7.156  0.00  0.00     0.281 S 
ATOM     12  O   UNL d   1       8.985   7.677  -7.131  0.00  0.00    -0.199 OA
ATOM     13  O   UNL d   1      11.053   6.204  -7.444  0.00  0.00    -0.199 OA
BRANCH  11  14
ATOM     14  C   UNL d   1      11.054   8.027  -5.588  0.00  0.00     0.106 A 
ATOM     15  C   UNL d   1      11.557   7.057  -4.703  0.00  0.00     0.027 A 
ATOM     16  C   UNL d   1      12.022   7.482  -3.443  0.00  0.00     0.086 A 
ATOM     17  C   UNL d   1      11.962   8.833  -3.075  0.00  0.00     0.151 A 
ATOM     18 CL   UNL d   1      12.656   6.383  -2.303  0.00  0.00    -0.080 Cl
ATOM     19  C   UNL d   1      11.455   9.782  -3.969  0.00  0.00     0.031 A 
ATOM     20  F   UNL d   1      12.367   9.194  -1.838  0.00  0.00    -0.203 F 
ATOM     21  C   UNL d   1      11.010   9.390  -5.239  0.00  0.00     0.015 A 
ENDBRANCH  11  14
ENDBRANCH  10  11
ENDBRANCH   9  10
ENDBRANCH   8   9
ENDBRANCH   7   8
ENDBRANCH   1   7
BRANCH   4  22
ATOM     22  C   UNL d   1       9.088   3.225 -14.752  0.00  0.00     0.087 A 
ATOM     23  C   UNL d   1       8.315   2.216 -15.364  0.00  0.00     0.041 A 
ATOM     24  C   UNL d   1       9.015   1.706 -16.463  0.00  0.00     0.129 A 
ATOM     25  C   UNL d   1       7.042   1.688 -15.053  0.00  0.00     0.006 A 
ATOM     26  O   UNL d   1      10.209   2.402 -16.495  0.00  0.00    -0.211 OA
ATOM     27  C   UNL d   1       8.513   0.692 -17.290  0.00  0.00     0.057 A 
ATOM     28  N   UNL d   1      10.244   3.326 -15.414  0.00  0.00    -0.131 NA
ATOM     29  C   UNL d   1       7.242   0.169 -16.982  0.00  0.00     0.142 A 
ATOM     30  F   UNL d   1       6.716  -0.804 -17.761  0.00  0.00    -0.204 F 
ATOM     31  C   UNL d   1       6.515   0.660 -15.871  0.00  0.00     0.030 A 
ENDBRANCH   4  22
TORSDOF 7
