REMARK  1 active torsions:
REMARK  status: ('A' for Active; 'I' for Inactive)
REMARK    1  A    between atoms: C_15  and  C_16 
ROOT
ATOM      1  C   UNL d   1       9.992  -1.078 -17.007  0.00  0.00     0.285 C 
ATOM      2  N   UNL d   1       9.540   0.295 -16.848  0.00  0.00     0.140 N 
ATOM      3  C   UNL d   1       8.344   0.314 -16.011  0.00  0.00     0.255 C 
ATOM      4  C   UNL d   1       7.648   1.684 -16.025  0.00  0.00     0.062 C 
ATOM      5  C   UNL d   1       8.258   2.686 -15.047  0.00  0.00    -0.010 A 
ATOM      6  C   UNL d   1       7.493   3.161 -13.951  0.00  0.00     0.081 A 
ATOM      7 CL   UNL d   1       5.903   2.567 -13.627  0.00  0.00    -0.081 Cl
ATOM      8  C   UNL d   1       8.028   4.117 -13.066  0.00  0.00     0.167 A 
ATOM      9  O   UNL d   1       7.254   4.545 -12.013  0.00  0.00    -0.187 OA
ATOM     10  C   UNL d   1       9.334   4.600 -13.265  0.00  0.00     0.167 A 
ATOM     11  O   UNL d   1       9.857   5.544 -12.421  0.00  0.00    -0.187 OA
ATOM     12  C   UNL d   1      10.115   4.120 -14.346  0.00  0.00     0.081 A 
ATOM     13 CL   UNL d   1      11.716   4.752 -14.545  0.00  0.00    -0.081 Cl
ATOM     14  C   UNL d   1       9.581   3.158 -15.245  0.00  0.00    -0.007 A 
ATOM     15  C   UNL d   1      10.428   2.635 -16.419  0.00  0.00     0.079 C 
ATOM     16  C   UNL d   1      10.647   1.103 -16.336  0.00  0.00     0.259 C 
ENDROOT
BRANCH  15  17
ATOM     17  C   UNL d   1      10.023   3.200 -17.796  0.00  0.00    -0.016 A 
ATOM     18  C   UNL d   1      10.232   2.457 -18.985  0.00  0.00    -0.004 A 
ATOM     19  C   UNL d   1       9.857   2.979 -20.237  0.00  0.00    -0.000 A 
ATOM     20  C   UNL d   1       9.288   4.260 -20.326  0.00  0.00    -0.000 A 
ATOM     21  C   UNL d   1       9.096   5.022 -19.158  0.00  0.00    -0.000 A 
ATOM     22  C   UNL d   1       9.465   4.494 -17.903  0.00  0.00    -0.004 A 
ENDBRANCH  15  17
TORSDOF 1
