REMARK  10 active torsions:
REMARK  status: ('A' for Active; 'I' for Inactive)
REMARK    1  A    between atoms: C_2  and  C_3 
REMARK    2  A    between atoms: C_7  and  O_8 
REMARK    3  A    between atoms: C_10  and  C_11 
REMARK       I    between atoms: C_11  and  N_13 
REMARK    4  A    between atoms: N_13  and  C_14 
REMARK    5  A    between atoms: C_14  and  C_15 
REMARK    6  A    between atoms: C_17  and  O_18 
REMARK    7  A    between atoms: O_18  and  C_19 
REMARK    8  A    between atoms: C_19  and  C_20 
REMARK    9  A    between atoms: C_20  and  C_21 
REMARK   10  A    between atoms: C_21  and  C_22 
ROOT
ATOM      1  C   UNL d   1       9.706   4.933 -13.551  0.00  0.00     0.279 C 
ATOM      2  O   UNL d   1      10.657   5.488 -14.117  0.00  0.00    -0.265 OA
ATOM      3  N   UNL d   1       9.039   5.500 -12.549  0.00  0.00    -0.232 NA
ENDROOT
BRANCH   1   4
ATOM      4  C   UNL d   1       9.235   3.560 -13.957  0.00  0.00     0.106 A 
ATOM      5  C   UNL d   1       7.842   3.187 -13.850  0.00  0.00     0.111 A 
ATOM      6  C   UNL d   1       7.453   1.899 -14.281  0.00  0.00     0.080 A 
ATOM      7  C   UNL d   1       8.362   0.989 -14.820  0.00  0.00     0.011 A 
ATOM      8 CL   UNL d   1       5.856   1.314 -14.025  0.00  0.00    -0.080 Cl
ATOM      9  C   UNL d   1       9.720   1.346 -14.941  0.00  0.00     0.004 A 
ATOM     10  C   UNL d   1      10.140   2.617 -14.490  0.00  0.00     0.134 A 
ATOM     11  O   UNL d   1      11.476   2.903 -14.566  0.00  0.00    -0.190 OA
BRANCH   5  12
ATOM     12  O   UNL d   1       6.886   4.028 -13.336  0.00  0.00    -0.327 OA
ATOM     13  C   UNL d   1       6.604   3.858 -11.942  0.00  0.00     0.181 C 
ENDBRANCH   5  12
BRANCH   9  14
ATOM     14  C   UNL d   1      10.692   0.315 -15.490  0.00  0.00     0.029 C 
ATOM     15  C   UNL d   1      11.389   0.747 -16.795  0.00  0.00     0.005 C 
ENDBRANCH   9  14
ENDBRANCH   1   4
BRANCH   3  16
ATOM     16  C   UNL d   1       9.133   6.865 -12.088  0.00  0.00     0.165 C 
BRANCH  16  17
ATOM     17  C   UNL d   1       9.878   6.896 -10.754  0.00  0.00     0.283 C 
ATOM     18  N   UNL d   1      10.170   8.261 -10.401  0.00  0.00     0.342 N 
ATOM     19  C   UNL d   1      10.516   8.211  -9.019  0.00  0.00     0.319 C 
ATOM     20  C   UNL d   1       9.565   7.177  -8.375  0.00  0.00     0.153 C 
ATOM     21  C   UNL d   1       9.140   6.280  -9.543  0.00  0.00     0.070 C 
BRANCH  20  22
ATOM     22  O   UNL d   1      10.225   6.418  -7.363  0.00  0.00    -0.354 OA
BRANCH  22  23
ATOM     23  C   UNL d   1      10.335   7.052  -6.090  0.00  0.00     0.142 C 
BRANCH  23  24
ATOM     24  C   UNL d   1      11.225   8.313  -6.211  0.00  0.00     0.035 C 
BRANCH  24  25
ATOM     25  C   UNL d   1      11.464   9.058  -4.918  0.00  0.00     0.038 C 
BRANCH  25  26
ATOM     26  C   UNL d   1      12.108   8.213  -3.805  0.00  0.00     0.182 C 
ATOM     27  O   UNL d   1      12.226   8.996  -2.626  0.00  0.00    -0.221 OA
ENDBRANCH  25  26
ENDBRANCH  24  25
ENDBRANCH  23  24
ENDBRANCH  22  23
ENDBRANCH  20  22
ENDBRANCH  16  17
ENDBRANCH   3  16
TORSDOF 10
