REMARK  7 active torsions:
REMARK  status: ('A' for Active; 'I' for Inactive)
REMARK    1  A    between atoms: O_2  and  C_3 
REMARK    2  A    between atoms: C_8  and  N_9 
REMARK    3  A    between atoms: N_12  and  C_13 
REMARK    4  A    between atoms: C_13  and  C_14 
REMARK    5  A    between atoms: C_14  and  C_15 
REMARK    6  A    between atoms: C_15  and  C_16 
REMARK    7  A    between atoms: C_16  and  N_17 
ROOT
ATOM      1  C   UNL d   1       9.306   6.406 -10.332  0.00  0.00     0.251 C 
ENDROOT
BRANCH   1   2
ATOM      2  N   UNL d   1       8.632   5.981 -11.562  0.00  0.00     0.141 N 
ATOM      3  C   UNL d   1       9.578   5.543 -12.590  0.00  0.00     0.274 C 
ATOM      4  C   UNL d   1       8.806   5.167 -13.875  0.00  0.00     0.137 C 
ATOM      5  N   UNL d   1       7.843   4.115 -13.587  0.00  0.00    -0.343 N 
ATOM      6  C   UNL d   1       6.944   4.418 -12.478  0.00  0.00     0.137 C 
ATOM      7  C   UNL d   1       7.750   4.862 -11.238  0.00  0.00     0.274 C 
BRANCH   5   8
ATOM      8  C   UNL d   1       7.859   2.845 -14.210  0.00  0.00     0.079 A 
ATOM      9  C   UNL d   1       9.058   2.182 -14.552  0.00  0.00     0.110 A 
ATOM     10  C   UNL d   1       8.995   0.951 -15.263  0.00  0.00     0.026 A 
ATOM     11  C   UNL d   1       7.746   0.382 -15.596  0.00  0.00     0.002 A 
ATOM     12  C   UNL d   1       6.561   1.016 -15.198  0.00  0.00     0.002 A 
ATOM     13  C   UNL d   1       6.624   2.239 -14.505  0.00  0.00     0.019 A 
BRANCH   9  14
ATOM     14  O   UNL d   1      10.244   2.765 -14.164  0.00  0.00    -0.327 OA
ATOM     15  C   UNL d   1      11.444   2.102 -14.466  0.00  0.00     0.181 C 
ENDBRANCH   9  14
ENDBRANCH   5   8
ENDBRANCH   1   2
BRANCH   1  16
ATOM     16  C   UNL d   1       9.894   7.829 -10.464  0.00  0.00     0.037 C 
BRANCH  16  17
ATOM     17  C   UNL d   1      10.659   8.265  -9.213  0.00  0.00     0.027 C 
BRANCH  17  18
ATOM     18  C   UNL d   1       9.718   8.643  -8.053  0.00  0.00     0.111 C 
BRANCH  18  19
ATOM     19  N   UNL d   1      10.437   8.665  -6.774  0.00  0.00    -0.279 N 
ATOM     20  C   UNL d   1      10.754   7.513  -6.135  0.00  0.00     0.263 A 
ATOM     21  C   UNL d   1      11.431   7.688  -4.806  0.00  0.00     0.074 A 
ATOM     22  O   UNL d   1      10.481   6.395  -6.570  0.00  0.00    -0.267 OA
ATOM     23  C   UNL d   1      11.662   8.997  -4.330  0.00  0.00     0.088 A 
ATOM     24  C   UNL d   1      11.801   6.589  -4.015  0.00  0.00     0.006 A 
ATOM     25  N   UNL d   1      11.313  10.114  -5.077  0.00  0.00    -0.225 NA
ATOM     26  C   UNL d   1      12.246   9.197  -3.072  0.00  0.00     0.019 A 
ATOM     27  C   UNL d   1      10.782   9.926  -6.241  0.00  0.00     0.181 A 
ATOM     28  C   UNL d   1      12.628   8.101  -2.282  0.00  0.00     0.002 A 
ATOM     29  C   UNL d   1      12.409   6.790  -2.760  0.00  0.00     0.000 A 
ENDBRANCH  18  19
ENDBRANCH  17  18
ENDBRANCH  16  17
ENDBRANCH   1  16
TORSDOF 7
