REMARK  6 active torsions:
REMARK  status: ('A' for Active; 'I' for Inactive)
REMARK    1  A    between atoms: C_5  and  O_6 
REMARK    2  A    between atoms: O_6  and  C_7 
REMARK    3  A    between atoms: C_7  and  C_8 
REMARK    4  A    between atoms: C_8  and  N_9 
REMARK    5  A    between atoms: N_9  and  C_10 
REMARK    6  A    between atoms: C_10  and  C_11 
ROOT
ATOM      1  O   UNL d   1       9.923   6.140 -10.751  0.00  0.00    -0.327 OA
ENDROOT
BRANCH   1   2
ATOM      2  C   UNL d   1       8.921   6.723 -11.463  0.00  0.00     0.113 A 
ATOM      3  C   UNL d   1       7.809   5.910 -11.804  0.00  0.00     0.122 A 
ATOM      4  N   UNL d   1       7.572   4.555 -11.637  0.00  0.00    -0.227 NA
ATOM      5  C   UNL d   1       6.694   6.525 -12.433  0.00  0.00     0.102 A 
ATOM      6  C   UNL d   1       6.373   4.398 -12.198  0.00  0.00     0.140 A 
ATOM      7  C   UNL d   1       5.646   3.120 -12.301  0.00  0.00     0.074 C 
ATOM      8  N   UNL d   1       5.813   5.500 -12.692  0.00  0.00    -0.229 NA
ATOM      9  C   UNL d   1       6.673   7.881 -12.760  0.00  0.00     0.021 A 
ATOM     10  C   UNL d   1       7.813   8.637 -12.436  0.00  0.00     0.004 A 
ATOM     11  C   UNL d   1       8.921   8.094 -11.833  0.00  0.00     0.026 A 
ENDBRANCH   1   2
BRANCH   1  12
ATOM     12  C   UNL d   1      10.881   6.991 -10.144  0.00  0.00     0.187 C 
BRANCH  12  13
ATOM     13  C   UNL d   1      10.368   7.428  -8.773  0.00  0.00     0.323 C 
BRANCH  13  14
ATOM     14  N   UNL d   1      11.209   8.512  -8.280  0.00  0.00     0.347 N 
BRANCH  14  15
ATOM     15  C   UNL d   1      10.626   9.164  -7.115  0.00  0.00     0.317 C 
BRANCH  15  16
ATOM     16  C   UNL d   1      11.141   8.635  -5.787  0.00  0.00     0.014 A 
ATOM     17  C   UNL d   1      11.719   9.535  -4.870  0.00  0.00    -0.002 A 
ATOM     18  C   UNL d   1      12.216   9.067  -3.632  0.00  0.00    -0.000 A 
ATOM     19  C   UNL d   1      12.146   7.695  -3.316  0.00  0.00    -0.000 A 
ATOM     20  C   UNL d   1      11.560   6.802  -4.231  0.00  0.00    -0.000 A 
ATOM     21  C   UNL d   1      11.043   7.267  -5.450  0.00  0.00    -0.002 A 
ENDBRANCH  15  16
ENDBRANCH  14  15
ENDBRANCH  13  14
ENDBRANCH  12  13
ENDBRANCH   1  12
TORSDOF 6
