REMARK  3 active torsions:
REMARK  status: ('A' for Active; 'I' for Inactive)
REMARK    1  A    between atoms: N_4  and  C_5 
REMARK    2  A    between atoms: C_7  and  N_8 
REMARK    3  A    between atoms: C_11  and  C_12 
ROOT
ATOM      1  N   UNL d   1       9.431   4.986  -9.350  0.00  0.00    -0.097 NA
ATOM      2  N   UNL d   1       9.260   4.725 -10.550  0.00  0.00    -0.166 NA
ATOM      3  N   UNL d   1       9.113   4.604 -11.676  0.00  0.00     0.068 N 
ENDROOT
BRANCH   1   4
ATOM      4  C   UNL d   1       9.247   6.410  -9.021  0.00  0.00     0.174 C 
ATOM      5  C   UNL d   1       9.239   6.658  -7.526  0.00  0.00     0.084 C 
ATOM      6  C   UNL d   1      10.736   6.712  -7.218  0.00  0.00     0.210 C 
ATOM      7  O   UNL d   1      11.370   7.215  -8.371  0.00  0.00    -0.334 OA
ATOM      8  C   UNL d   1      10.458   7.258  -9.463  0.00  0.00     0.176 C 
BRANCH   6   9
ATOM      9  N   UNL d   1      11.074   7.571  -6.048  0.00  0.00    -0.256 N 
ATOM     10  C   UNL d   1      11.426   7.009  -4.833  0.00  0.00     0.083 A 
ATOM     11  C   UNL d   1      11.721   7.736  -3.712  0.00  0.00     0.053 A 
ATOM     12  C   UNL d   1      12.079   7.105  -2.386  0.00  0.00     0.038 C 
ATOM     13  C   UNL d   1      11.664   9.194  -3.772  0.00  0.00     0.280 A 
ATOM     14  N   UNL d   1      11.338   9.710  -5.011  0.00  0.00    -0.153 NA
ATOM     15  O   UNL d   1      11.853   9.942  -2.812  0.00  0.00    -0.265 OA
ATOM     16  C   UNL d   1      11.047   8.986  -6.170  0.00  0.00     0.354 A 
ATOM     17  O   UNL d   1      10.806   9.572  -7.199  0.00  0.00    -0.244 OA
ENDBRANCH   6   9
BRANCH   8  18
ATOM     18  C   UNL d   1      10.054   8.716  -9.758  0.00  0.00     0.214 C 
ATOM     19  O   UNL d   1       9.331   8.734 -10.957  0.00  0.00    -0.218 OA
ENDBRANCH   8  18
ENDBRANCH   1   4
TORSDOF 3
