REMARK  2 active torsions:
REMARK  status: ('A' for Active; 'I' for Inactive)
REMARK    1  A    between atoms: N_9  and  C_10 
REMARK    2  A    between atoms: C_10  and  C_11 
ROOT
ATOM      1  C   UNL d   1       8.255   6.182 -12.840  0.00  0.00    -0.000 A 
ATOM      2  C   UNL d   1       7.979   5.016 -12.107  0.00  0.00    -0.000 A 
ATOM      3  C   UNL d   1       8.440   4.893 -10.782  0.00  0.00    -0.003 A 
ATOM      4  C   UNL d   1       9.191   5.934 -10.201  0.00  0.00     0.007 A 
ATOM      5  C   UNL d   1       9.471   7.102 -10.943  0.00  0.00    -0.022 A 
ATOM      6  C   UNL d   1       8.992   7.230 -12.259  0.00  0.00    -0.004 A 
ATOM      7  C   UNL d   1      10.239   8.240 -10.297  0.00  0.00     0.061 C 
ATOM      8  C   UNL d   1      11.012   7.792  -9.053  0.00  0.00     0.256 C 
ATOM      9  N   UNL d   1      10.100   7.065  -8.168  0.00  0.00     0.146 N 
ATOM     10  C   UNL d   1       9.735   5.790  -8.791  0.00  0.00     0.277 C 
ENDROOT
BRANCH   9  11
ATOM     11  C   UNL d   1      10.693   6.810  -6.862  0.00  0.00     0.279 C 
BRANCH  11  12
ATOM     12  C   UNL d   1      10.966   7.955  -5.940  0.00  0.00     0.033 A 
ATOM     13  C   UNL d   1      11.463   7.870  -4.595  0.00  0.00     0.035 A 
ATOM     14  C   UNL d   1      11.564   9.193  -4.082  0.00  0.00     0.162 A 
ATOM     15  C   UNL d   1      11.855   6.847  -3.703  0.00  0.00     0.004 A 
ATOM     16  N   UNL d   1      11.139  10.026  -5.086  0.00  0.00    -0.226 NA
ATOM     17  N   UNL d   1      11.975   9.579  -2.851  0.00  0.00    -0.225 NA
ATOM     18  C   UNL d   1      10.751   9.291  -6.186  0.00  0.00     0.098 A 
ATOM     19  C   UNL d   1      12.340   8.561  -2.045  0.00  0.00     0.101 A 
ATOM     20  C   UNL d   1      12.287   7.199  -2.408  0.00  0.00     0.021 A 
ENDBRANCH  11  12
ENDBRANCH   9  11
TORSDOF 2
