REMARK  12 active torsions:
REMARK  status: ('A' for Active; 'I' for Inactive)
REMARK    1  A    between atoms: O_2  and  C_3 
REMARK    2  A    between atoms: C_8  and  C_9 
REMARK    3  A    between atoms: C_9  and  C_10 
REMARK    4  A    between atoms: C_10  and  N_11 
REMARK    5  A    between atoms: N_11  and  C_12 
REMARK    6  A    between atoms: C_12  and  C_13 
REMARK    7  A    between atoms: C_16  and  C_17 
REMARK    8  A    between atoms: C_17  and  C_18 
REMARK    9  A    between atoms: C_18  and  N_19 
REMARK   10  A    between atoms: N_19  and  C_20 
REMARK   11  A    between atoms: C_20  and  C_21 
REMARK   12  A    between atoms: C_21  and  C_23 
ROOT
ATOM      1  C   UNL d   1       8.187   4.782 -11.719  0.00  0.00     0.013 A 
ATOM      2  C   UNL d   1       6.889   4.913 -12.234  0.00  0.00    -0.003 A 
ATOM      3  C   UNL d   1       6.540   4.202 -13.392  0.00  0.00    -0.004 A 
ATOM      4  C   UNL d   1       7.492   3.356 -14.015  0.00  0.00    -0.020 A 
ATOM      5  C   UNL d   1       8.802   3.268 -13.524  0.00  0.00    -0.004 A 
ATOM      6  C   UNL d   1       9.149   3.986 -12.370  0.00  0.00    -0.003 A 
ENDROOT
BRANCH   4   7
ATOM      7  C   UNL d   1       7.107   2.575 -15.246  0.00  0.00     0.065 C 
BRANCH   7   8
ATOM      8  C   UNL d   1       6.663   1.141 -14.984  0.00  0.00     0.295 C 
BRANCH   8   9
ATOM      9  N   UNL d   1       6.181   0.536 -16.223  0.00  0.00     0.343 N 
BRANCH   9  10
ATOM     10  C   UNL d   1       5.318  -0.615 -15.993  0.00  0.00     0.327 C 
BRANCH  10  11
ATOM     11  C   UNL d   1       4.550  -1.005 -17.263  0.00  0.00     0.211 C 
ATOM     12  O   UNL d   1       3.467  -1.818 -16.913  0.00  0.00    -0.216 OA
BRANCH  11  13
ATOM     13  C   UNL d   1       5.422  -1.631 -18.329  0.00  0.00     0.018 A 
ATOM     14  C   UNL d   1       5.688  -0.984 -19.554  0.00  0.00     0.052 A 
ATOM     15  C   UNL d   1       6.501  -1.573 -20.515  0.00  0.00     0.116 A 
ATOM     16  S   UNL d   1       5.097   0.578 -20.076  0.00  0.00    -0.024 SA
ATOM     17  C   UNL d   1       7.079  -2.836 -20.305  0.00  0.00     0.149 A 
ATOM     18  N   UNL d   1       6.658  -0.769 -21.659  0.00  0.00    -0.200 NA
ATOM     19  C   UNL d   1       6.822  -3.501 -19.084  0.00  0.00     0.029 A 
ATOM     20  O   UNL d   1       7.862  -3.409 -21.260  0.00  0.00    -0.189 OA
ATOM     21  C   UNL d   1       5.993  -2.905 -18.111  0.00  0.00     0.001 A 
ATOM     22  C   UNL d   1       5.990   0.448 -21.639  0.00  0.00     0.311 A 
ATOM     23  O   UNL d   1       5.984   1.325 -22.498  0.00  0.00    -0.258 OA
ENDBRANCH  11  13
ENDBRANCH  10  11
ENDBRANCH   9  10
ENDBRANCH   8   9
ENDBRANCH   7   8
ENDBRANCH   4   7
BRANCH   1  24
ATOM     24  C   UNL d   1       8.543   5.444 -10.422  0.00  0.00     0.317 C 
BRANCH  24  25
ATOM     25  N   UNL d   1       9.110   6.755 -10.649  0.00  0.00     0.344 N 
BRANCH  25  26
ATOM     26  C   UNL d   1       9.390   7.390  -9.374  0.00  0.00     0.295 C 
BRANCH  26  27
ATOM     27  C   UNL d   1      10.467   6.602  -8.588  0.00  0.00     0.067 C 
BRANCH  27  28
ATOM     28  C   UNL d   1      10.988   7.415  -7.414  0.00  0.00     0.002 A 
ATOM     29  C   UNL d   1      11.674   8.665  -7.598  0.00  0.00     0.090 A 
ATOM     30  C   UNL d   1      12.066   9.388  -6.458  0.00  0.00     0.024 A 
ATOM     31  C   UNL d   1      11.856   8.888  -5.153  0.00  0.00     0.002 A 
ATOM     32  C   UNL d   1      11.225   7.634  -4.990  0.00  0.00    -0.000 A 
ATOM     33  C   UNL d   1      10.777   6.930  -6.105  0.00  0.00    -0.002 A 
BRANCH  29  34
ATOM     34  O   UNL d   1      11.853   9.204  -8.862  0.00  0.00    -0.328 OA
ATOM     35  C   UNL d   1      12.720   8.476  -9.774  0.00  0.00     0.181 C 
ENDBRANCH  29  34
ENDBRANCH  27  28
ENDBRANCH  26  27
ENDBRANCH  25  26
ENDBRANCH  24  25
ENDBRANCH   1  24
TORSDOF 12
