REMARK  1 active torsions:
REMARK  status: ('A' for Active; 'I' for Inactive)
REMARK    1  A    between atoms: C_7  and  C_8 
ROOT
ATOM      1  C   UNL d   1      11.315   0.695 -16.866  0.00  0.00     0.134 C 
ATOM      2  N   UNL d   1      10.530   1.898 -16.570  0.00  0.00    -0.296 N 
ATOM      3  C   UNL d   1      10.976   3.070 -17.078  0.00  0.00     0.262 C 
ATOM      4  O   UNL d   1      12.038   3.194 -17.683  0.00  0.00    -0.270 OA
ATOM      5  C   UNL d   1      10.101   4.323 -16.950  0.00  0.00     0.213 C 
ATOM      6  N   UNL d   1       9.972   4.749 -15.573  0.00  0.00    -0.261 NA
ATOM      7  C   UNL d   1       9.316   4.070 -14.727  0.00  0.00     0.078 C 
ATOM      8  C   UNL d   1       8.695   2.736 -15.012  0.00  0.00     0.034 A 
ATOM      9  C   UNL d   1       7.486   2.438 -14.324  0.00  0.00     0.014 A 
ATOM     10  C   UNL d   1       6.862   1.187 -14.430  0.00  0.00     0.058 A 
ATOM     11 CL   UNL d   1       5.461   0.808 -13.490  0.00  0.00    -0.082 Cl
ATOM     12  C   UNL d   1       7.409   0.214 -15.271  0.00  0.00     0.013 A 
ATOM     13  C   UNL d   1       8.579   0.494 -15.998  0.00  0.00     0.018 A 
ATOM     14  C   UNL d   1       9.262   1.740 -15.871  0.00  0.00     0.064 A 
ENDROOT
BRANCH   7  15
ATOM     15  C   UNL d   1       9.146   4.664 -13.391  0.00  0.00     0.017 A 
ATOM     16  C   UNL d   1       9.674   3.999 -12.265  0.00  0.00     0.002 A 
ATOM     17  C   UNL d   1       9.429   4.517 -10.976  0.00  0.00     0.000 A 
ATOM     18  C   UNL d   1       8.689   5.692 -10.800  0.00  0.00     0.000 A 
ATOM     19  C   UNL d   1       8.154   6.344 -11.920  0.00  0.00     0.000 A 
ATOM     20  C   UNL d   1       8.370   5.829 -13.205  0.00  0.00     0.002 A 
ENDBRANCH   7  15
TORSDOF 1
