REMARK  2 active torsions:
REMARK  status: ('A' for Active; 'I' for Inactive)
REMARK    1  A    between atoms: C_2  and  C_3 
REMARK    2  A    between atoms: C_3  and  N_4 
ROOT
ATOM      1  N   UNL d   1      10.481   7.929  -8.380  0.00  0.00     0.140 N 
ATOM      2  C   UNL d   1      10.787   6.520  -8.450  0.00  0.00     0.251 C 
ATOM      3  C   UNL d   1      11.528   6.300  -7.142  0.00  0.00     0.042 C 
ATOM      4  C   UNL d   1      10.639   7.062  -6.159  0.00  0.00     0.055 C 
ATOM      5  C   UNL d   1      11.315   7.465  -4.850  0.00  0.00    -0.022 A 
ATOM      6  C   UNL d   1      11.866   6.475  -4.039  0.00  0.00    -0.004 A 
ATOM      7  C   UNL d   1      12.430   6.745  -2.777  0.00  0.00     0.002 A 
ATOM      8  C   UNL d   1      12.441   8.071  -2.312  0.00  0.00     0.027 A 
ATOM      9  C   UNL d   1      11.901   9.073  -3.136  0.00  0.00     0.127 A 
ATOM     10  O   UNL d   1      11.861  10.349  -2.730  0.00  0.00    -0.191 OA
ATOM     11  C   UNL d   1      11.354   8.795  -4.399  0.00  0.00    -0.001 A 
ATOM     12  C   UNL d   1      10.741   9.907  -5.209  0.00  0.00     0.030 C 
ATOM     13  C   UNL d   1      10.781   9.573  -6.677  0.00  0.00     0.038 C 
ATOM     14  C   UNL d   1      10.112   8.232  -7.005  0.00  0.00     0.224 C 
ENDROOT
BRANCH   1  15
ATOM     15  C   UNL d   1       9.460   8.246  -9.342  0.00  0.00     0.276 C 
BRANCH  15  16
ATOM     16  C   UNL d   1       9.995   8.426 -10.741  0.00  0.00     0.009 C 
ATOM     17  C   UNL d   1       9.293   8.149 -11.849  0.00  0.00    -0.003 C 
ENDBRANCH  15  16
ENDBRANCH   1  15
TORSDOF 2
