REMARK  9 active torsions:
REMARK  status: ('A' for Active; 'I' for Inactive)
REMARK    1  A    between atoms: O_2  and  C_3 
REMARK    2  A    between atoms: C_10  and  N_11 
REMARK    3  A    between atoms: N_14  and  C_15 
REMARK    4  A    between atoms: C_15  and  C_16 
REMARK    5  A    between atoms: C_16  and  C_17 
REMARK    6  A    between atoms: C_17  and  C_18 
REMARK    7  A    between atoms: C_18  and  N_19 
REMARK       I    between atoms: N_19  and  C_20 
REMARK    8  A    between atoms: C_20  and  C_22 
REMARK    9  A    between atoms: C_28  and  O_29 
ROOT
ATOM      1  N   UNL d   1       9.302  -0.421 -19.125  0.00  0.00    -0.330 N 
ATOM      2  C   UNL d   1       9.851  -1.165 -17.999  0.00  0.00     0.138 C 
ATOM      3  C   UNL d   1      10.225  -0.192 -16.848  0.00  0.00     0.274 C 
ATOM      4  N   UNL d   1       9.066   0.625 -16.481  0.00  0.00     0.141 N 
ATOM      5  C   UNL d   1       8.636   1.401 -17.659  0.00  0.00     0.274 C 
ATOM      6  C   UNL d   1       8.199   0.463 -18.800  0.00  0.00     0.138 C 
ENDROOT
BRANCH   4   7
ATOM      7  C   UNL d   1       9.489   1.514 -15.409  0.00  0.00     0.251 C 
BRANCH   7   8
ATOM      8  C   UNL d   1       8.278   2.200 -14.757  0.00  0.00     0.037 C 
BRANCH   8   9
ATOM      9  C   UNL d   1       8.723   3.177 -13.687  0.00  0.00     0.029 C 
BRANCH   9  10
ATOM     10  C   UNL d   1       7.545   3.945 -13.044  0.00  0.00     0.129 C 
BRANCH  10  11
ATOM     11  N   UNL d   1       7.934   4.693 -11.855  0.00  0.00    -0.233 NA
ATOM     12  C   UNL d   1       9.038   5.431 -11.719  0.00  0.00     0.298 C 
ATOM     13  O   UNL d   1       9.836   5.638 -12.638  0.00  0.00    -0.263 OA
BRANCH  12  14
ATOM     14  C   UNL d   1       9.286   5.970 -10.378  0.00  0.00     0.157 A 
ATOM     15  O   UNL d   1      10.320   6.853 -10.266  0.00  0.00    -0.300 OA
ATOM     16  C   UNL d   1      10.419   7.222  -8.948  0.00  0.00     0.122 A 
ATOM     17  C   UNL d   1       9.398   6.559  -8.220  0.00  0.00     0.027 A 
ATOM     18  C   UNL d   1      11.342   8.114  -8.380  0.00  0.00     0.117 A 
ATOM     19  C   UNL d   1       8.700   5.730  -9.149  0.00  0.00     0.032 A 
ATOM     20  C   UNL d   1       9.317   6.860  -6.839  0.00  0.00     0.002 A 
ATOM     21  C   UNL d   1      10.216   7.773  -6.252  0.00  0.00     0.002 A 
ATOM     22  C   UNL d   1      11.218   8.407  -7.013  0.00  0.00     0.026 A 
BRANCH  18  23
ATOM     23  O   UNL d   1      12.329   8.732  -9.112  0.00  0.00    -0.326 OA
ATOM     24  C   UNL d   1      13.245   7.859  -9.778  0.00  0.00     0.181 C 
ENDBRANCH  18  23
ENDBRANCH  12  14
ENDBRANCH  10  11
ENDBRANCH   9  10
ENDBRANCH   8   9
ENDBRANCH   7   8
ENDBRANCH   4   7
BRANCH   1  25
ATOM     25  C   UNL d   1       9.779  -0.567 -20.443  0.00  0.00     0.140 A 
ATOM     26  N   UNL d   1       8.842  -0.886 -21.367  0.00  0.00    -0.227 NA
ATOM     27  C   UNL d   1       9.230  -1.090 -22.647  0.00  0.00     0.101 A 
ATOM     28  C   UNL d   1      10.557  -0.972 -23.075  0.00  0.00     0.021 A 
ATOM     29  C   UNL d   1      11.533  -0.619 -22.131  0.00  0.00     0.005 A 
ATOM     30  C   UNL d   1      12.876  -0.484 -22.535  0.00  0.00     0.002 A 
ATOM     31  C   UNL d   1      11.149  -0.401 -20.771  0.00  0.00     0.036 A 
ATOM     32  C   UNL d   1      13.866  -0.129 -21.602  0.00  0.00     0.024 A 
ATOM     33  C   UNL d   1      13.503   0.109 -20.246  0.00  0.00     0.094 A 
ATOM     34  C   UNL d   1      12.156  -0.017 -19.842  0.00  0.00     0.027 A 
BRANCH  33  35
ATOM     35  O   UNL d   1      14.413   0.476 -19.268  0.00  0.00    -0.328 OA
ATOM     36  C   UNL d   1      15.790   0.452 -19.628  0.00  0.00     0.181 C 
ENDBRANCH  33  35
ENDBRANCH   1  25
TORSDOF 9
