REMARK  4 active torsions:
REMARK  status: ('A' for Active; 'I' for Inactive)
REMARK    1  A    between atoms: C_11  and  C_12 
REMARK    2  A    between atoms: C_12  and  C_13 
REMARK    3  A    between atoms: C_13  and  N_14 
REMARK    4  A    between atoms: N_18  and  C_19 
ROOT
ATOM      1  N   UNL d   1       8.951   3.964 -13.002  0.00  0.00     0.139 N 
ATOM      2  C   UNL d   1       8.111   4.009 -14.202  0.00  0.00     0.252 C 
ATOM      3  C   UNL d   1       8.115   2.672 -14.980  0.00  0.00     0.059 C 
ATOM      4  C   UNL d   1       9.231   2.533 -16.036  0.00  0.00     0.105 C 
ATOM      5  N   UNL d   1      10.570   2.806 -15.524  0.00  0.00    -0.332 N 
ATOM      6  C   UNL d   1      10.834   2.721 -14.099  0.00  0.00     0.138 C 
ATOM      7  C   UNL d   1      10.370   3.983 -13.359  0.00  0.00     0.274 C 
ENDROOT
BRANCH   1   8
ATOM      8  C   UNL d   1       8.655   5.126 -12.169  0.00  0.00     0.251 C 
BRANCH   8   9
ATOM      9  C   UNL d   1       9.169   4.957 -10.722  0.00  0.00     0.043 C 
BRANCH   9  10
ATOM     10  C   UNL d   1       8.784   6.110  -9.800  0.00  0.00     0.068 A 
ATOM     11  C   UNL d   1       9.689   7.338 -10.019  0.00  0.00     0.173 A 
ATOM     12  O   UNL d   1       9.857   7.902 -11.102  0.00  0.00    -0.291 OA
ATOM     13  C   UNL d   1      10.279   7.705  -8.740  0.00  0.00     0.031 A 
ATOM     14  C   UNL d   1       9.855   6.829  -7.751  0.00  0.00    -0.017 A 
ATOM     15  C   UNL d   1      11.153   8.766  -8.462  0.00  0.00     0.005 A 
ATOM     16  C   UNL d   1      10.283   6.981  -6.420  0.00  0.00     0.025 A 
ATOM     17  C   UNL d   1       8.924   5.773  -8.291  0.00  0.00     0.034 A 
ATOM     18  C   UNL d   1      11.162   8.043  -6.116  0.00  0.00     0.140 A 
ATOM     19  C   UNL d   1      11.596   8.927  -7.131  0.00  0.00     0.030 A 
ATOM     20  F   UNL d   1      11.604   8.204  -4.848  0.00  0.00    -0.204 F 
ENDBRANCH   9  10
ENDBRANCH   8   9
ENDBRANCH   1   8
BRANCH   5  21
ATOM     21  C   UNL d   1      11.557   3.308 -16.399  0.00  0.00     0.140 A 
ATOM     22  N   UNL d   1      12.504   4.133 -15.888  0.00  0.00    -0.226 NA
ATOM     23  C   UNL d   1      13.459   4.610 -16.716  0.00  0.00     0.112 A 
ATOM     24  C   UNL d   1      13.534   4.280 -18.080  0.00  0.00     0.077 A 
ATOM     25  C   UNL d   1      12.554   3.428 -18.613  0.00  0.00     0.016 A 
ATOM     26 CL   UNL d   1      14.802   4.891 -19.076  0.00  0.00    -0.081 Cl
ATOM     27  C   UNL d   1      11.546   2.941 -17.762  0.00  0.00     0.038 A 
ENDBRANCH   5  21
TORSDOF 4
