REMARK  6 active torsions:
REMARK  status: ('A' for Active; 'I' for Inactive)
REMARK    1  A    between atoms: S_2  and  C_4 
REMARK    2  A    between atoms: S_2  and  N_14 
REMARK    3  A    between atoms: C_18  and  C_19 
REMARK    4  A    between atoms: C_19  and  C_20 
REMARK    5  A    between atoms: C_20  and  N_21 
REMARK    6  A    between atoms: N_24  and  C_25 
ROOT
ATOM      1  N   UNL d   1       8.289   3.841 -13.327  0.00  0.00    -0.276 N 
ATOM      2  C   UNL d   1       6.967   3.250 -13.694  0.00  0.00     0.113 C 
ATOM      3  C   UNL d   1       5.941   4.318 -13.508  0.00  0.00     0.027 C 
ATOM      4  C   UNL d   1       6.496   5.220 -12.421  0.00  0.00     0.025 C 
ATOM      5  C   UNL d   1       8.036   5.030 -12.479  0.00  0.00     0.094 C 
ENDROOT
BRANCH   5   6
ATOM      6  C   UNL d   1       8.653   4.829 -11.079  0.00  0.00     0.058 C 
BRANCH   6   7
ATOM      7  C   UNL d   1       8.438   6.063 -10.204  0.00  0.00     0.252 C 
BRANCH   7   8
ATOM      8  N   UNL d   1       9.530   6.256  -9.264  0.00  0.00     0.141 N 
ATOM      9  C   UNL d   1       9.033   6.030  -7.905  0.00  0.00     0.274 C 
ATOM     10  C   UNL d   1      10.195   6.174  -6.925  0.00  0.00     0.137 C 
ATOM     11  N   UNL d   1      10.818   7.459  -7.040  0.00  0.00    -0.344 N 
ATOM     12  C   UNL d   1      11.210   7.852  -8.372  0.00  0.00     0.137 C 
ATOM     13  C   UNL d   1      10.028   7.639  -9.341  0.00  0.00     0.274 C 
BRANCH  11  14
ATOM     14  C   UNL d   1      11.039   8.258  -5.886  0.00  0.00     0.057 A 
ATOM     15  C   UNL d   1      11.493   7.737  -4.658  0.00  0.00     0.022 A 
ATOM     16  C   UNL d   1      11.672   8.669  -3.566  0.00  0.00     0.031 A 
ATOM     17  C   UNL d   1      11.854   6.404  -4.224  0.00  0.00     0.009 A 
ATOM     18  C   UNL d   1      11.376   9.987  -3.702  0.00  0.00     0.007 A 
ATOM     19  S   UNL d   1      12.253   7.908  -2.118  0.00  0.00    -0.086 SA
ATOM     20  C   UNL d   1      10.871  10.465  -4.894  0.00  0.00     0.002 A 
ATOM     21  C   UNL d   1      10.725   9.615  -6.011  0.00  0.00     0.017 A 
ATOM     22  C   UNL d   1      12.268   6.391  -2.923  0.00  0.00     0.035 A 
ENDBRANCH  11  14
ENDBRANCH   7   8
ENDBRANCH   6   7
ENDBRANCH   5   6
BRANCH   1  23
ATOM     23  S   UNL d   1       9.603   4.000 -14.486  0.00  0.00     0.266 S 
ATOM     24  O   UNL d   1      10.848   4.406 -13.770  0.00  0.00    -0.200 OA
ATOM     25  O   UNL d   1       9.084   4.852 -15.556  0.00  0.00    -0.200 OA
BRANCH  23  26
ATOM     26  C   UNL d   1       9.898   2.346 -15.186  0.00  0.00     0.122 A 
ATOM     27  C   UNL d   1      10.747   2.141 -16.317  0.00  0.00     0.015 A 
ATOM     28  C   UNL d   1      10.897   0.822 -16.832  0.00  0.00     0.020 A 
ATOM     29  C   UNL d   1      11.476   3.184 -16.954  0.00  0.00     0.001 A 
ATOM     30  C   UNL d   1      10.170  -0.219 -16.235  0.00  0.00     0.099 A 
ATOM     31  C   UNL d   1      11.772   0.530 -17.901  0.00  0.00     0.002 A 
ATOM     32  N   UNL d   1       9.375  -0.029 -15.171  0.00  0.00    -0.242 NA
ATOM     33  C   UNL d   1       9.259   1.209 -14.641  0.00  0.00     0.112 A 
ATOM     34  C   UNL d   1      12.505   1.573 -18.491  0.00  0.00     0.000 A 
ATOM     35  C   UNL d   1      12.348   2.894 -18.026  0.00  0.00     0.000 A 
ENDBRANCH  23  26
ENDBRANCH   1  23
TORSDOF 6
