REMARK  8 active torsions:
REMARK  status: ('A' for Active; 'I' for Inactive)
REMARK    1  A    between atoms: S_2  and  C_4 
REMARK    2  A    between atoms: S_2  and  C_23 
REMARK    3  A    between atoms: C_4  and  C_5 
REMARK    4  A    between atoms: N_8  and  C_9 
REMARK    5  A    between atoms: C_9  and  C_10 
REMARK    6  A    between atoms: C_10  and  C_11 
REMARK    7  A    between atoms: C_11  and  C_12 
REMARK    8  A    between atoms: C_27  and  C_28 
ROOT
ATOM      1  C   UNL d   1       7.787   5.723 -11.813  0.00  0.00     0.052 C 
ATOM      2  C   UNL d   1       8.028   6.794 -12.886  0.00  0.00     0.038 C 
ATOM      3  C   UNL d   1       9.298   7.503 -12.427  0.00  0.00     0.250 C 
ATOM      4  N   UNL d   1       9.300   7.307 -10.989  0.00  0.00     0.137 N 
ATOM      5  C   UNL d   1       8.902   5.924 -10.792  0.00  0.00     0.251 C 
ENDROOT
BRANCH   1   6
ATOM      6  C   UNL d   1       7.829   4.295 -12.378  0.00  0.00     0.129 C 
BRANCH   6   7
ATOM      7  S   UNL d   1       6.163   3.669 -12.872  0.00  0.00     0.190 S 
ATOM      8  O   UNL d   1       5.516   3.158 -11.645  0.00  0.00    -0.222 OA
ATOM      9  O   UNL d   1       5.455   4.704 -13.646  0.00  0.00    -0.222 OA
BRANCH   7  10
ATOM     10  C   UNL d   1       6.487   2.274 -13.957  0.00  0.00     0.084 A 
ATOM     11  C   UNL d   1       7.451   2.378 -14.982  0.00  0.00     0.015 A 
ATOM     12  C   UNL d   1       7.758   1.261 -15.792  0.00  0.00     0.072 A 
ATOM     13  C   UNL d   1       7.055   0.050 -15.595  0.00  0.00     0.004 A 
ATOM     14  C   UNL d   1       6.097  -0.062 -14.570  0.00  0.00     0.001 A 
ATOM     15  C   UNL d   1       5.816   1.044 -13.737  0.00  0.00     0.011 A 
BRANCH  12  16
ATOM     16  C   UNL d   1       8.834   1.406 -16.857  0.00  0.00     0.419 C 
ATOM     17  F   UNL d   1      10.009   1.626 -16.267  0.00  0.00    -0.166 F 
ATOM     18  F   UNL d   1       8.957   0.345 -17.657  0.00  0.00    -0.166 F 
ATOM     19  F   UNL d   1       8.525   2.468 -17.602  0.00  0.00    -0.166 F 
ENDBRANCH  12  16
ENDBRANCH   7  10
ENDBRANCH   6   7
ENDBRANCH   1   6
BRANCH   4  20
ATOM     20  C   UNL d   1      10.553   7.640 -10.320  0.00  0.00     0.251 C 
BRANCH  20  21
ATOM     21  C   UNL d   1      10.264   7.920  -8.837  0.00  0.00     0.042 C 
BRANCH  21  22
ATOM     22  C   UNL d   1      11.556   7.864  -8.012  0.00  0.00     0.050 C 
BRANCH  22  23
ATOM     23  C   UNL d   1      11.469   8.676  -6.755  0.00  0.00     0.088 A 
ATOM     24  C   UNL d   1      11.535   8.294  -5.399  0.00  0.00     0.041 A 
ATOM     25  C   UNL d   1      11.527   9.456  -4.621  0.00  0.00     0.129 A 
ATOM     26  C   UNL d   1      11.736   7.034  -4.784  0.00  0.00     0.006 A 
ATOM     27  O   UNL d   1      11.454  10.502  -5.516  0.00  0.00    -0.211 OA
ATOM     28  C   UNL d   1      11.708   9.445  -3.230  0.00  0.00     0.057 A 
ATOM     29  N   UNL d   1      11.441  10.000  -6.841  0.00  0.00    -0.131 NA
ATOM     30  C   UNL d   1      11.942   8.201  -2.615  0.00  0.00     0.142 A 
ATOM     31  F   UNL d   1      12.250   8.175  -1.291  0.00  0.00    -0.204 F 
ATOM     32  C   UNL d   1      11.913   7.003  -3.374  0.00  0.00     0.030 A 
ENDBRANCH  22  23
ENDBRANCH  21  22
ENDBRANCH  20  21
ENDBRANCH   4  20
TORSDOF 8
