REMARK  5 active torsions:
REMARK  status: ('A' for Active; 'I' for Inactive)
REMARK    1  A    between atoms: N_2  and  C_3 
REMARK    2  A    between atoms: N_9  and  S_10 
REMARK    3  A    between atoms: S_10  and  C_13 
REMARK    4  A    between atoms: C_22  and  C_23 
REMARK    5  A    between atoms: C_23  and  C_24 
ROOT
ATOM      1  C   UNL d   1       7.864   4.254 -13.394  0.00  0.00     0.124 A 
ATOM      2  C   UNL d   1       8.208   4.652 -11.992  0.00  0.00    -0.004 A 
ATOM      3  C   UNL d   1       7.860   4.393 -10.682  0.00  0.00    -0.001 A 
ATOM      4  C   UNL d   1       8.488   5.194  -9.696  0.00  0.00     0.018 A 
ATOM      5  C   UNL d   1       8.383   5.189  -8.277  0.00  0.00     0.021 A 
ATOM      6  C   UNL d   1       9.104   6.252  -7.825  0.00  0.00     0.092 A 
ATOM      7  N   UNL d   1       9.765   6.860  -8.894  0.00  0.00    -0.231 N 
ATOM      8  C   UNL d   1       9.358   6.288 -10.088  0.00  0.00     0.075 A 
ATOM      9  C   UNL d   1       9.627   6.608 -11.445  0.00  0.00     0.014 A 
ATOM     10  C   UNL d   1       9.051   5.736 -12.372  0.00  0.00    -0.021 A 
ATOM     11  C   UNL d   1       8.830   5.471 -13.836  0.00  0.00     0.051 A 
ENDROOT
BRANCH   7  12
ATOM     12  S   UNL d   1      10.855   8.194  -8.810  0.00  0.00     0.271 S 
ATOM     13  O   UNL d   1      12.100   7.739  -9.451  0.00  0.00    -0.200 OA
ATOM     14  O   UNL d   1      10.097   9.325  -9.363  0.00  0.00    -0.200 OA
BRANCH  12  15
ATOM     15  C   UNL d   1      11.181   8.470  -7.066  0.00  0.00     0.104 A 
ATOM     16  C   UNL d   1      11.415   7.382  -6.198  0.00  0.00     0.013 A 
ATOM     17  C   UNL d   1      11.592   7.613  -4.815  0.00  0.00     0.001 A 
ATOM     18  C   UNL d   1      11.586   8.928  -4.307  0.00  0.00     0.000 A 
ATOM     19  C   UNL d   1      11.381  10.006  -5.191  0.00  0.00     0.001 A 
ATOM     20  C   UNL d   1      11.206   9.787  -6.567  0.00  0.00     0.013 A 
ENDBRANCH  12  15
ENDBRANCH   7  12
BRANCH  11  21
ATOM     21  C   UNL d   1      10.148   5.172 -14.560  0.00  0.00     0.042 C 
BRANCH  21  22
ATOM     22  C   UNL d   1      10.871   3.924 -14.038  0.00  0.00     0.183 C 
ATOM     23  O   UNL d   1      12.140   3.833 -14.637  0.00  0.00    -0.221 OA
ENDBRANCH  21  22
ENDBRANCH  11  21
BRANCH   1  24
ATOM     24  N   UNL d   1       6.425   4.233 -13.654  0.00  0.00    -0.291 NA
ATOM     25  C   UNL d   1       5.657   5.256 -12.970  0.00  0.00     0.146 C 
ENDBRANCH   1  24
TORSDOF 5
