REMARK  12 active torsions:
REMARK  status: ('A' for Active; 'I' for Inactive)
REMARK    1  A    between atoms: C_2  and  C_3 
REMARK    2  A    between atoms: C_3  and  N_4 
REMARK    3  A    between atoms: N_4  and  C_5 
REMARK    4  A    between atoms: N_4  and  C_24 
REMARK    5  A    between atoms: C_5  and  C_6 
REMARK    6  A    between atoms: C_6  and  C_7 
REMARK    7  A    between atoms: C_7  and  C_8 
REMARK    8  A    between atoms: C_8  and  N_9 
REMARK       I    between atoms: N_9  and  C_10 
REMARK    9  A    between atoms: C_10  and  C_12 
REMARK   10  A    between atoms: C_15  and  C_16 
REMARK   11  A    between atoms: C_24  and  C_25 
REMARK   12  A    between atoms: C_27  and  C_28 
ROOT
ATOM      1  C   UNL d   1       8.989   4.844 -14.292  0.00  0.00     0.037 C 
ENDROOT
BRANCH   1   2
ATOM      2  C   UNL d   1      10.075   4.605 -15.359  0.00  0.00     0.250 C 
BRANCH   2   3
ATOM      3  N   UNL d   1       9.495   4.156 -16.627  0.00  0.00     0.137 N 
BRANCH   3   4
ATOM      4  C   UNL d   1      10.429   4.221 -17.753  0.00  0.00     0.250 C 
BRANCH   4   5
ATOM      5  C   UNL d   1      10.797   5.654 -18.180  0.00  0.00     0.035 C 
ATOM      6  C   UNL d   1       9.603   6.418 -18.769  0.00  0.00     0.002 C 
ENDBRANCH   4   5
ENDBRANCH   3   4
BRANCH   3   7
ATOM      7  C   UNL d   1       8.904   2.815 -16.520  0.00  0.00     0.251 C 
BRANCH   7   8
ATOM      8  C   UNL d   1       9.925   1.711 -16.195  0.00  0.00     0.038 A 
ATOM      9  C   UNL d   1       9.429   0.404 -15.629  0.00  0.00     0.024 A 
ATOM     10  C   UNL d   1      10.239   1.343 -14.764  0.00  0.00     0.007 A 
BRANCH   9  11
ATOM     11  C   UNL d   1       7.950   0.215 -15.372  0.00  0.00    -0.022 A 
ATOM     12  C   UNL d   1       7.038   0.090 -16.422  0.00  0.00    -0.003 A 
ATOM     13  C   UNL d   1       5.663  -0.095 -16.142  0.00  0.00     0.011 A 
ATOM     14  C   UNL d   1       5.227  -0.170 -14.800  0.00  0.00     0.058 A 
ATOM     15  C   UNL d   1       6.142  -0.038 -13.749  0.00  0.00     0.011 A 
ATOM     16 CL   UNL d   1       3.554  -0.414 -14.440  0.00  0.00    -0.082 Cl
ATOM     17  C   UNL d   1       7.512   0.144 -14.038  0.00  0.00    -0.003 A 
ENDBRANCH   9  11
ENDBRANCH   7   8
ENDBRANCH   3   7
ENDBRANCH   2   3
ENDBRANCH   1   2
BRANCH   1  18
ATOM     18  C   UNL d   1       9.599   5.365 -13.000  0.00  0.00     0.029 C 
BRANCH  18  19
ATOM     19  C   UNL d   1       8.534   5.625 -11.933  0.00  0.00     0.129 C 
BRANCH  19  20
ATOM     20  N   UNL d   1       9.133   5.989 -10.664  0.00  0.00    -0.234 NA
ATOM     21  C   UNL d   1       9.681   7.182 -10.384  0.00  0.00     0.275 C 
ATOM     22  O   UNL d   1       9.831   8.078 -11.218  0.00  0.00    -0.266 OA
BRANCH  21  23
ATOM     23  C   UNL d   1      10.147   7.365  -8.972  0.00  0.00     0.058 A 
ATOM     24  C   UNL d   1       9.494   6.726  -7.891  0.00  0.00     0.005 A 
ATOM     25  C   UNL d   1       9.931   6.939  -6.570  0.00  0.00     0.002 A 
ATOM     26  C   UNL d   1      11.008   7.808  -6.292  0.00  0.00     0.018 A 
ATOM     27  C   UNL d   1      11.636   8.467  -7.370  0.00  0.00     0.002 A 
ATOM     28  C   UNL d   1      11.217   8.245  -8.694  0.00  0.00     0.005 A 
BRANCH  26  29
ATOM     29  C   UNL d   1      11.456   8.036  -4.910  0.00  0.00     0.081 A 
ATOM     30  N   UNL d   1      11.475   9.322  -4.495  0.00  0.00    -0.244 NA
ATOM     31  C   UNL d   1      11.871   9.585  -3.235  0.00  0.00     0.099 A 
ATOM     32  C   UNL d   1      12.268   8.591  -2.325  0.00  0.00     0.021 A 
ATOM     33  C   UNL d   1      12.259   7.251  -2.750  0.00  0.00     0.003 A 
ATOM     34  C   UNL d   1      11.847   6.969  -4.068  0.00  0.00     0.019 A 
ENDBRANCH  26  29
ENDBRANCH  21  23
ENDBRANCH  19  20
ENDBRANCH  18  19
ENDBRANCH   1  18
TORSDOF 12
