REMARK  7 active torsions:
REMARK  status: ('A' for Active; 'I' for Inactive)
REMARK       I    between atoms: C_2  and  N_3 
REMARK    1  A    between atoms: C_2  and  C_23 
REMARK    2  A    between atoms: N_3  and  C_4 
REMARK    3  A    between atoms: C_4  and  C_5 
REMARK    4  A    between atoms: C_5  and  C_6 
REMARK    5  A    between atoms: C_6  and  C_7 
REMARK    6  A    between atoms: C_7  and  N_8 
REMARK    7  A    between atoms: C_26  and  C_27 
ROOT
ATOM      1  C   UNL d   1       7.526   3.271 -13.478  0.00  0.00     0.029 C 
ENDROOT
BRANCH   1   2
ATOM      2  C   UNL d   1       9.005   3.653 -13.258  0.00  0.00     0.129 C 
BRANCH   2   3
ATOM      3  N   UNL d   1       9.197   4.418 -12.035  0.00  0.00    -0.234 NA
ATOM      4  C   UNL d   1       9.023   5.739 -11.893  0.00  0.00     0.275 C 
ATOM      5  O   UNL d   1       8.649   6.470 -12.806  0.00  0.00    -0.266 OA
BRANCH   4   6
ATOM      6  C   UNL d   1       9.448   6.286 -10.558  0.00  0.00     0.058 A 
ATOM      7  C   UNL d   1      10.007   7.577 -10.470  0.00  0.00     0.005 A 
ATOM      8  C   UNL d   1      10.422   8.101  -9.229  0.00  0.00     0.000 A 
ATOM      9  C   UNL d   1      10.247   7.365  -8.034  0.00  0.00     0.000 A 
ATOM     10  C   UNL d   1       9.655   6.087  -8.127  0.00  0.00     0.000 A 
ATOM     11  C   UNL d   1       9.259   5.548  -9.367  0.00  0.00     0.005 A 
BRANCH   9  12
ATOM     12  C   UNL d   1      10.665   7.913  -6.722  0.00  0.00     0.000 A 
ATOM     13  C   UNL d   1      10.660   9.307  -6.477  0.00  0.00     0.000 A 
ATOM     14  C   UNL d   1      11.068   9.836  -5.236  0.00  0.00     0.000 A 
ATOM     15  C   UNL d   1      11.488   8.975  -4.208  0.00  0.00     0.000 A 
ATOM     16  C   UNL d   1      11.492   7.584  -4.427  0.00  0.00     0.000 A 
ATOM     17  C   UNL d   1      11.085   7.066  -5.671  0.00  0.00     0.000 A 
ENDBRANCH   9  12
ENDBRANCH   4   6
ENDBRANCH   2   3
ENDBRANCH   1   2
BRANCH   1  18
ATOM     18  C   UNL d   1       7.361   1.946 -14.258  0.00  0.00     0.037 C 
BRANCH  18  19
ATOM     19  C   UNL d   1       7.342   2.173 -15.769  0.00  0.00     0.250 C 
BRANCH  19  20
ATOM     20  N   UNL d   1       7.330   0.900 -16.497  0.00  0.00     0.135 N 
ATOM     21  C   UNL d   1       8.443   0.822 -17.464  0.00  0.00     0.224 C 
ATOM     22  C   UNL d   1       8.387  -0.470 -18.324  0.00  0.00     0.053 C 
ATOM     23  C   UNL d   1       9.809   0.950 -16.729  0.00  0.00     0.038 C 
ATOM     24  C   UNL d   1       7.006  -0.657 -18.978  0.00  0.00     0.008 C 
ATOM     25  C   UNL d   1       9.555  -0.467 -19.314  0.00  0.00    -0.023 A 
ATOM     26  C   UNL d   1       5.922  -0.577 -17.905  0.00  0.00     0.036 C 
ATOM     27  C   UNL d   1       6.027   0.753 -17.154  0.00  0.00     0.250 C 
ATOM     28  C   UNL d   1      10.836  -0.126 -18.823  0.00  0.00    -0.001 A 
ATOM     29  C   UNL d   1       9.395  -0.770 -20.688  0.00  0.00    -0.004 A 
ATOM     30  C   UNL d   1      11.948  -0.103 -19.697  0.00  0.00     0.127 A 
ATOM     31  C   UNL d   1      10.985   0.165 -17.339  0.00  0.00     0.030 C 
ATOM     32  C   UNL d   1      11.775  -0.403 -21.062  0.00  0.00     0.027 A 
ATOM     33  O   UNL d   1      13.201   0.198 -19.246  0.00  0.00    -0.191 OA
ATOM     34  C   UNL d   1      10.501  -0.734 -21.557  0.00  0.00     0.002 A 
ENDBRANCH  19  20
ENDBRANCH  18  19
ENDBRANCH   1  18
TORSDOF 7
