REMARK  5 active torsions:
REMARK  status: ('A' for Active; 'I' for Inactive)
REMARK    1  A    between atoms: O_2  and  C_3 
REMARK    2  A    between atoms: C_8  and  O_9 
REMARK    3  A    between atoms: C_14  and  C_15 
REMARK    4  A    between atoms: C_15  and  N_16 
REMARK    5  A    between atoms: N_19  and  C_20 
ROOT
ATOM      1  C   UNL d   1      15.461   5.314 -19.233  0.00  0.00     0.116 A 
ATOM      2  C   UNL d   1      14.544   4.237 -19.284  0.00  0.00     0.022 A 
ATOM      3  C   UNL d   1      13.566   4.076 -18.286  0.00  0.00    -0.017 A 
ATOM      4  C   UNL d   1      13.478   5.000 -17.218  0.00  0.00     0.033 A 
ATOM      5  C   UNL d   1      14.397   6.069 -17.161  0.00  0.00     0.029 A 
ATOM      6  C   UNL d   1      15.368   6.243 -18.170  0.00  0.00     0.116 A 
ATOM      7  C   UNL d   1      12.441   4.851 -16.167  0.00  0.00     0.173 C 
ATOM      8  O   UNL d   1      12.359   5.578 -15.184  0.00  0.00    -0.291 OA
ATOM      9  C   UNL d   1      11.418   3.736 -16.358  0.00  0.00     0.071 C 
ATOM     10  C   UNL d   1      12.015   2.496 -17.065  0.00  0.00     0.045 C 
ATOM     11  C   UNL d   1      12.635   2.891 -18.404  0.00  0.00     0.029 C 
ENDROOT
BRANCH  10  12
ATOM     12  C   UNL d   1      10.936   1.448 -17.347  0.00  0.00     0.251 C 
BRANCH  12  13
ATOM     13  N   UNL d   1      10.781   0.474 -16.267  0.00  0.00     0.141 N 
ATOM     14  C   UNL d   1       9.950  -0.642 -16.725  0.00  0.00     0.274 C 
ATOM     15  C   UNL d   1       8.524  -0.152 -17.066  0.00  0.00     0.138 C 
ATOM     16  N   UNL d   1       7.946   0.557 -15.914  0.00  0.00    -0.330 N 
ATOM     17  C   UNL d   1       8.797   1.572 -15.271  0.00  0.00     0.138 C 
ATOM     18  C   UNL d   1      10.205   0.992 -15.016  0.00  0.00     0.274 C 
BRANCH  16  19
ATOM     19  C   UNL d   1       6.686   0.221 -15.414  0.00  0.00     0.140 A 
ATOM     20  N   UNL d   1       6.392   0.629 -14.158  0.00  0.00    -0.227 NA
ATOM     21  C   UNL d   1       5.195   0.335 -13.626  0.00  0.00     0.101 A 
ATOM     22  C   UNL d   1       4.206  -0.400 -14.311  0.00  0.00     0.021 A 
ATOM     23  C   UNL d   1       4.493  -0.835 -15.617  0.00  0.00     0.005 A 
ATOM     24  C   UNL d   1       5.739  -0.509 -16.183  0.00  0.00     0.037 A 
ENDBRANCH  16  19
ENDBRANCH  12  13
ENDBRANCH  10  12
BRANCH   1  25
ATOM     25  O   UNL d   1      16.469   5.480 -20.158  0.00  0.00    -0.326 OA
ATOM     26  C   UNL d   1      16.508   4.591 -21.262  0.00  0.00     0.181 C 
ENDBRANCH   1  25
BRANCH   6  27
ATOM     27  O   UNL d   1      16.253   7.281 -18.045  0.00  0.00    -0.326 OA
ATOM     28  C   UNL d   1      16.192   8.277 -19.061  0.00  0.00     0.181 C 
ENDBRANCH   6  27
TORSDOF 5
