REMARK  8 active torsions:
REMARK  status: ('A' for Active; 'I' for Inactive)
REMARK    1  A    between atoms: O_2  and  C_3 
REMARK    2  A    between atoms: C_3  and  C_5 
REMARK    3  A    between atoms: C_5  and  C_6 
REMARK       I    between atoms: C_6  and  N_8 
REMARK    4  A    between atoms: N_8  and  C_9 
REMARK    5  A    between atoms: C_12  and  C_13 
REMARK    6  A    between atoms: C_13  and  C_14 
REMARK    7  A    between atoms: C_14  and  N_15 
REMARK    8  A    between atoms: C_18  and  C_19 
ROOT
ATOM      1  C   UNL d   1       8.245   5.007 -11.695  0.00  0.00     0.250 C 
ENDROOT
BRANCH   1   2
ATOM      2  C   UNL d   1       8.999   4.802 -10.376  0.00  0.00     0.035 C 
BRANCH   2   3
ATOM      3  C   UNL d   1       8.953   6.039  -9.505  0.00  0.00     0.002 C 
ATOM      4  C   UNL d   1       9.320   5.689  -8.064  0.00  0.00     0.002 C 
ATOM      5  C   UNL d   1       9.315   6.934  -7.181  0.00  0.00     0.024 C 
ATOM      6  C   UNL d   1      10.289   7.997  -7.738  0.00  0.00     0.106 C 
ATOM      7  C   UNL d   1       9.914   8.391  -9.163  0.00  0.00     0.024 C 
ATOM      8  C   UNL d   1       9.887   7.145 -10.060  0.00  0.00     0.002 C 
BRANCH   6   9
ATOM      9  N   UNL d   1      10.267   9.210  -6.927  0.00  0.00    -0.240 NA
ATOM     10  C   UNL d   1      10.815   9.362  -5.688  0.00  0.00     0.254 C 
ATOM     11  O   UNL d   1      10.721  10.393  -5.075  0.00  0.00    -0.271 OA
BRANCH  10  12
ATOM     12  C   UNL d   1      11.444   8.111  -5.041  0.00  0.00     0.119 C 
BRANCH  12  13
ATOM     13  C   UNL d   1      12.447   8.350  -3.889  0.00  0.00     0.125 C 
ATOM     14  C   UNL d   1      12.037   9.387  -2.829  0.00  0.00     0.033 C 
BRANCH  13  15
ATOM     15  O   UNL d   1      12.688   7.105  -3.241  0.00  0.00    -0.353 OA
ATOM     16  C   UNL d   1      11.604   6.469  -2.564  0.00  0.00     0.174 C 
ENDBRANCH  13  15
ENDBRANCH  12  13
ENDBRANCH  10  12
ENDBRANCH   6   9
ENDBRANCH   2   3
ENDBRANCH   1   2
BRANCH   1  17
ATOM     17  N   UNL d   1       8.660   4.019 -12.673  0.00  0.00     0.137 N 
ATOM     18  C   UNL d   1       7.611   3.884 -13.674  0.00  0.00     0.251 C 
ATOM     19  C   UNL d   1       7.957   2.770 -14.653  0.00  0.00     0.040 C 
ATOM     20  C   UNL d   1       9.299   3.007 -15.374  0.00  0.00     0.028 C 
ATOM     21  C   UNL d   1      10.369   3.301 -14.303  0.00  0.00     0.040 C 
ATOM     22  C   UNL d   1       9.910   4.398 -13.329  0.00  0.00     0.251 C 
BRANCH  20  23
ATOM     23  C   UNL d   1       9.692   1.842 -16.293  0.00  0.00     0.002 A 
ATOM     24  C   UNL d   1       8.735   0.977 -16.863  0.00  0.00     0.115 A 
ATOM     25  C   UNL d   1       9.088  -0.094 -17.671  0.00  0.00     0.119 A 
ATOM     26  O   UNL d   1       7.378   1.008 -16.742  0.00  0.00    -0.300 OA
ATOM     27  C   UNL d   1      10.435  -0.369 -17.983  0.00  0.00     0.026 A 
ATOM     28  O   UNL d   1       7.979  -0.766 -18.069  0.00  0.00    -0.300 OA
ATOM     29  C   UNL d   1      11.417   0.492 -17.447  0.00  0.00     0.002 A 
ATOM     30  C   UNL d   1      11.056   1.579 -16.620  0.00  0.00    -0.002 A 
ATOM     31  C   UNL d   1       6.894  -0.083 -17.475  0.00  0.00     0.304 A 
ENDBRANCH  20  23
ENDBRANCH   1  17
TORSDOF 8
