REMARK  8 active torsions:
REMARK  status: ('A' for Active; 'I' for Inactive)
REMARK    1  A    between atoms: C_6  and  C_7 
REMARK    2  A    between atoms: C_10  and  S_11 
REMARK    3  A    between atoms: S_11  and  C_12 
REMARK    4  A    between atoms: C_12  and  C_13 
REMARK    5  A    between atoms: C_13  and  C_14 
REMARK    6  A    between atoms: C_14  and  N_15 
REMARK    7  A    between atoms: C_22  and  C_23 
REMARK    8  A    between atoms: C_23  and  C_26 
ROOT
ATOM      1  N   UNL d   1      11.121   6.653 -21.917  0.00  0.00     0.138 N 
ATOM      2  C   UNL d   1      10.383   6.692 -23.177  0.00  0.00     0.255 C 
ATOM      3  C   UNL d   1       8.974   6.067 -23.128  0.00  0.00     0.061 C 
ATOM      4  C   UNL d   1       7.915   6.974 -22.523  0.00  0.00    -0.022 A 
ATOM      5  C   UNL d   1       6.805   7.340 -23.324  0.00  0.00     0.017 A 
ATOM      6  C   UNL d   1       5.796   8.180 -22.810  0.00  0.00     0.106 A 
ATOM      7  N   UNL d   1       4.632   8.681 -23.358  0.00  0.00    -0.219 NA
ATOM      8  C   UNL d   1       4.090   9.385 -22.352  0.00  0.00     0.230 A 
ATOM      9  O   UNL d   1       4.825   9.423 -21.194  0.00  0.00    -0.287 OA
ATOM     10  C   UNL d   1       5.920   8.627 -21.482  0.00  0.00     0.119 A 
ATOM     11  C   UNL d   1       7.000   8.274 -20.660  0.00  0.00     0.022 A 
ATOM     12  C   UNL d   1       8.016   7.444 -21.186  0.00  0.00    -0.022 A 
ATOM     13  C   UNL d   1       9.197   7.082 -20.298  0.00  0.00     0.061 C 
ATOM     14  C   UNL d   1      10.560   7.524 -20.872  0.00  0.00     0.255 C 
ENDROOT
BRANCH   1  15
ATOM     15  C   UNL d   1      11.486   5.290 -21.521  0.00  0.00     0.251 C 
BRANCH  15  16
ATOM     16  C   UNL d   1      12.630   5.287 -20.495  0.00  0.00     0.047 C 
BRANCH  16  17
ATOM     17  C   UNL d   1      13.029   3.860 -20.060  0.00  0.00     0.067 C 
BRANCH  17  18
ATOM     18  S   UNL d   1      13.756   3.781 -18.385  0.00  0.00    -0.075 SA
BRANCH  18  19
ATOM     19  C   UNL d   1      12.319   4.194 -17.441  0.00  0.00     0.193 A 
ATOM     20  N   UNL d   1      11.900   5.445 -17.258  0.00  0.00    -0.122 NA
ATOM     21  N   UNL d   1      10.715   5.343 -16.569  0.00  0.00    -0.128 NA
ATOM     22  C   UNL d   1      10.555   4.044 -16.305  0.00  0.00     0.167 A 
ATOM     23  N   UNL d   1      11.526   3.272 -16.851  0.00  0.00    -0.289 N 
ATOM     24  C   UNL d   1      11.693   1.829 -16.813  0.00  0.00     0.134 C 
BRANCH  22  25
ATOM     25  C   UNL d   1       9.425   3.547 -15.516  0.00  0.00     0.037 A 
ATOM     26  C   UNL d   1       9.081   4.102 -14.250  0.00  0.00     0.021 A 
ATOM     27  C   UNL d   1       9.830   5.138 -13.639  0.00  0.00     0.003 A 
ATOM     28  C   UNL d   1       7.938   3.620 -13.538  0.00  0.00     0.081 A 
ATOM     29  C   UNL d   1       9.435   5.642 -12.389  0.00  0.00     0.015 A 
ATOM     30  C   UNL d   1       8.299   5.099 -11.776  0.00  0.00     0.059 A 
ATOM     31  C   UNL d   1       7.858   5.587 -10.418  0.00  0.00     0.052 C 
ATOM     32  N   UNL d   1       7.554   4.131 -12.348  0.00  0.00    -0.250 NA
ATOM     33  C   UNL d   1       7.190   2.563 -14.096  0.00  0.00     0.019 A 
ATOM     34  C   UNL d   1       7.546   1.987 -15.327  0.00  0.00     0.002 A 
ATOM     35  C   UNL d   1       8.651   2.492 -16.041  0.00  0.00     0.003 A 
ENDBRANCH  22  25
ENDBRANCH  18  19
ENDBRANCH  17  18
ENDBRANCH  16  17
ENDBRANCH  15  16
ENDBRANCH   1  15
BRANCH   8  36
ATOM     36  C   UNL d   1       2.816  10.176 -22.415  0.00  0.00     0.404 C 
ATOM     37  F   UNL d   1       1.948   9.586 -23.238  0.00  0.00    -0.186 F 
ATOM     38  F   UNL d   1       2.258  10.238 -21.204  0.00  0.00    -0.186 F 
BRANCH  36  39
ATOM     39  C   UNL d   1       3.036  11.610 -22.915  0.00  0.00     0.463 C 
ATOM     40  F   UNL d   1       1.879  12.269 -22.985  0.00  0.00    -0.165 F 
ATOM     41  F   UNL d   1       3.847  12.245 -22.076  0.00  0.00    -0.165 F 
ATOM     42  F   UNL d   1       3.599  11.610 -24.123  0.00  0.00    -0.165 F 
ENDBRANCH  36  39
ENDBRANCH   8  36
TORSDOF 8
