REMARK  8 active torsions:
REMARK  status: ('A' for Active; 'I' for Inactive)
REMARK    1  A    between atoms: O_2  and  C_3 
REMARK    2  A    between atoms: C_9  and  N_10 
REMARK    3  A    between atoms: N_13  and  C_14 
REMARK    4  A    between atoms: C_14  and  C_15 
REMARK    5  A    between atoms: C_15  and  C_16 
REMARK    6  A    between atoms: C_16  and  C_17 
REMARK    7  A    between atoms: C_17  and  O_18 
REMARK    8  A    between atoms: O_18  and  C_19 
ROOT
ATOM      1  C   UNL d   1       9.518   5.197 -12.265  0.00  0.00     0.251 C 
ENDROOT
BRANCH   1   2
ATOM      2  N   UNL d   1       8.681   4.701 -13.346  0.00  0.00     0.141 N 
ATOM      3  C   UNL d   1       7.395   4.234 -12.818  0.00  0.00     0.274 C 
ATOM      4  C   UNL d   1       6.511   3.716 -13.960  0.00  0.00     0.137 C 
ATOM      5  N   UNL d   1       7.219   2.718 -14.753  0.00  0.00    -0.343 N 
ATOM      6  C   UNL d   1       8.568   3.059 -15.184  0.00  0.00     0.137 C 
ATOM      7  C   UNL d   1       9.374   3.582 -13.990  0.00  0.00     0.274 C 
BRANCH   5   8
ATOM      8  C   UNL d   1       6.655   1.438 -15.020  0.00  0.00     0.079 A 
ATOM      9  C   UNL d   1       5.952   0.747 -14.026  0.00  0.00     0.109 A 
ATOM     10  C   UNL d   1       5.386  -0.520 -14.298  0.00  0.00     0.021 A 
ATOM     11  C   UNL d   1       5.465  -1.063 -15.576  0.00  0.00    -0.020 A 
ATOM     12  C   UNL d   1       4.838  -2.410 -15.838  0.00  0.00     0.031 C 
ATOM     13  C   UNL d   1       6.142  -0.365 -16.585  0.00  0.00    -0.003 A 
ATOM     14  C   UNL d   1       6.747   0.882 -16.303  0.00  0.00     0.019 A 
BRANCH   9  15
ATOM     15  O   UNL d   1       5.792   1.339 -12.810  0.00  0.00    -0.327 OA
ATOM     16  C   UNL d   1       5.549   0.507 -11.697  0.00  0.00     0.181 C 
ENDBRANCH   9  15
ENDBRANCH   5   8
ENDBRANCH   1   2
BRANCH   1  17
ATOM     17  C   UNL d   1       9.054   6.604 -11.838  0.00  0.00     0.038 C 
BRANCH  17  18
ATOM     18  C   UNL d   1       9.982   7.154 -10.792  0.00  0.00     0.035 C 
BRANCH  18  19
ATOM     19  C   UNL d   1       9.734   8.565 -10.274  0.00  0.00     0.149 C 
BRANCH  19  20
ATOM     20  O   UNL d   1      10.761   9.090  -9.423  0.00  0.00    -0.331 OA
BRANCH  20  21
ATOM     21  C   UNL d   1      10.935   8.454  -8.217  0.00  0.00     0.096 A 
ATOM     22  C   UNL d   1      10.962   9.220  -7.026  0.00  0.00     0.043 A 
ATOM     23  C   UNL d   1      11.169   8.579  -5.793  0.00  0.00     0.082 A 
ATOM     24  C   UNL d   1      11.318   7.183  -5.700  0.00  0.00    -0.004 A 
ATOM     25  N   UNL d   1      11.228   9.348  -4.615  0.00  0.00    -0.212 NA
ATOM     26  C   UNL d   1      11.313   6.422  -6.877  0.00  0.00    -0.001 A 
ATOM     27  C   UNL d   1      11.518   6.508  -4.372  0.00  0.00     0.038 C 
ATOM     28  C   UNL d   1      11.181   7.075  -8.087  0.00  0.00     0.024 A 
ATOM     29  C   UNL d   1      12.224   7.442  -3.386  0.00  0.00     0.095 C 
ATOM     30  C   UNL d   1      11.692   8.878  -3.450  0.00  0.00     0.256 C 
ATOM     31  O   UNL d   1      11.710   9.575  -2.454  0.00  0.00    -0.270 OA
ENDBRANCH  20  21
ENDBRANCH  19  20
ENDBRANCH  18  19
ENDBRANCH  17  18
ENDBRANCH   1  17
TORSDOF 8
