REMARK  8 active torsions:
REMARK  status: ('A' for Active; 'I' for Inactive)
REMARK    1  A    between atoms: C_6  and  C_7 
REMARK    2  A    between atoms: C_10  and  S_11 
REMARK    3  A    between atoms: S_11  and  C_12 
REMARK    4  A    between atoms: C_12  and  C_13 
REMARK    5  A    between atoms: C_13  and  C_14 
REMARK    6  A    between atoms: C_14  and  N_15 
REMARK    7  A    between atoms: C_19  and  C_20 
REMARK    8  A    between atoms: C_23  and  C_24 
ROOT
ATOM      1  N   UNL d   1       9.289   4.942 -12.787  0.00  0.00     0.143 N 
ATOM      2  C   UNL d   1       7.966   4.399 -12.526  0.00  0.00     0.282 C 
ATOM      3  C   UNL d   1       7.039   5.446 -11.924  0.00  0.00     0.178 C 
ATOM      4  O   UNL d   1       7.632   5.879 -10.717  0.00  0.00    -0.348 OA
ATOM      5  C   UNL d   1       8.873   6.540 -10.906  0.00  0.00     0.173 C 
ATOM      6  C   UNL d   1       9.778   5.491 -11.530  0.00  0.00     0.284 C 
ENDROOT
BRANCH   1   7
ATOM      7  C   UNL d   1      10.222   3.949 -13.317  0.00  0.00     0.251 C 
BRANCH   7   8
ATOM      8  C   UNL d   1       9.876   3.448 -14.727  0.00  0.00     0.047 C 
BRANCH   8   9
ATOM      9  C   UNL d   1      10.756   2.258 -15.164  0.00  0.00     0.067 C 
BRANCH   9  10
ATOM     10  S   UNL d   1      10.049   1.321 -16.559  0.00  0.00    -0.075 SA
BRANCH  10  11
ATOM     11  C   UNL d   1       8.570   0.679 -15.819  0.00  0.00     0.193 A 
ATOM     12  N   UNL d   1       8.363   0.601 -14.506  0.00  0.00    -0.122 NA
ATOM     13  N   UNL d   1       7.059   0.206 -14.356  0.00  0.00    -0.126 NA
ATOM     14  C   UNL d   1       6.614  -0.020 -15.592  0.00  0.00     0.191 A 
ATOM     15  N   UNL d   1       7.519   0.258 -16.556  0.00  0.00    -0.287 N 
ATOM     16  C   UNL d   1       7.392   0.122 -18.001  0.00  0.00     0.134 C 
BRANCH  14  17
ATOM     17  C   UNL d   1       5.274  -0.541 -15.809  0.00  0.00     0.151 A 
ATOM     18  C   UNL d   1       4.170  -0.562 -14.998  0.00  0.00     0.087 A 
ATOM     19  C   UNL d   1       3.943   0.005 -13.642  0.00  0.00     0.054 C 
ATOM     20  N   UNL d   1       3.148  -1.209 -15.682  0.00  0.00    -0.221 NA
ATOM     21  C   UNL d   1       3.704  -1.599 -16.822  0.00  0.00     0.225 A 
ATOM     22  O   UNL d   1       4.983  -1.179 -16.986  0.00  0.00    -0.282 OA
ENDBRANCH  14  17
ENDBRANCH  10  11
ENDBRANCH   9  10
ENDBRANCH   8   9
ENDBRANCH   7   8
ENDBRANCH   1   7
BRANCH   5  23
ATOM     23  C   UNL d   1       9.483   7.062  -9.606  0.00  0.00     0.034 A 
ATOM     24  C   UNL d   1      10.364   8.175  -9.612  0.00  0.00     0.138 A 
ATOM     25  C   UNL d   1      10.885   8.666  -8.405  0.00  0.00     0.033 A 
ATOM     26  F   UNL d   1      10.700   8.790 -10.767  0.00  0.00    -0.204 F 
ATOM     27  C   UNL d   1      10.535   8.070  -7.179  0.00  0.00     0.074 A 
ATOM     28  C   UNL d   1       9.656   6.966  -7.174  0.00  0.00     0.004 A 
ATOM     29  C   UNL d   1       9.145   6.463  -8.384  0.00  0.00     0.000 A 
BRANCH  27  30
ATOM     30  C   UNL d   1      11.087   8.624  -5.879  0.00  0.00     0.419 C 
ATOM     31  F   UNL d   1      12.257   9.215  -6.069  0.00  0.00    -0.166 F 
ATOM     32  F   UNL d   1      10.274   9.550  -5.379  0.00  0.00    -0.166 F 
ATOM     33  F   UNL d   1      11.242   7.651  -4.986  0.00  0.00    -0.166 F 
ENDBRANCH  27  30
ENDBRANCH   5  23
TORSDOF 8
