REMARK  5 active torsions:
REMARK  status: ('A' for Active; 'I' for Inactive)
REMARK    1  A    between atoms: N_8  and  C_9 
REMARK    2  A    between atoms: C_9  and  C_10 
REMARK    3  A    between atoms: C_10  and  C_11 
REMARK    4  A    between atoms: C_11  and  C_12 
REMARK    5  A    between atoms: C_12  and  N_13 
ROOT
ATOM      1  C   UNL d   1       8.058   4.308 -13.153  0.00  0.00     0.037 C 
ENDROOT
BRANCH   1   2
ATOM      2  C   UNL d   1       8.467   3.353 -14.296  0.00  0.00     0.250 C 
BRANCH   2   3
ATOM      3  N   UNL d   1       7.663   2.122 -14.429  0.00  0.00     0.138 N 
ATOM      4  C   UNL d   1       6.319   2.168 -13.814  0.00  0.00     0.256 C 
ATOM      5  C   UNL d   1       5.795   0.789 -13.374  0.00  0.00     0.070 C 
ATOM      6  C   UNL d   1       5.250   0.002 -14.485  0.00  0.00     0.024 A 
ATOM      7  C   UNL d   1       5.902  -0.259 -15.669  0.00  0.00     0.064 A 
ATOM      8  S   UNL d   1       3.624  -0.584 -14.466  0.00  0.00    -0.069 SA
ATOM      9  N   UNL d   1       5.098  -0.939 -16.587  0.00  0.00    -0.241 NA
ATOM     10  C   UNL d   1       7.310   0.172 -16.027  0.00  0.00     0.081 C 
ATOM     11  C   UNL d   1       3.901  -1.225 -16.073  0.00  0.00     0.134 A 
ATOM     12  C   UNL d   1       7.612   1.678 -15.826  0.00  0.00     0.257 C 
ENDBRANCH   2   3
ENDBRANCH   1   2
BRANCH   1  13
ATOM     13  C   UNL d   1       9.053   5.397 -12.743  0.00  0.00     0.037 C 
BRANCH  13  14
ATOM     14  C   UNL d   1       8.457   6.176 -11.546  0.00  0.00     0.250 C 
BRANCH  14  15
ATOM     15  N   UNL d   1       9.457   6.330 -10.479  0.00  0.00     0.138 N 
ATOM     16  C   UNL d   1       9.904   7.720 -10.490  0.00  0.00     0.256 C 
ATOM     17  C   UNL d   1      11.219   7.975  -9.716  0.00  0.00     0.070 C 
ATOM     18  C   UNL d   1      11.087   7.917  -8.233  0.00  0.00     0.024 A 
ATOM     19  C   UNL d   1      10.502   6.929  -7.500  0.00  0.00     0.064 A 
ATOM     20  S   UNL d   1      11.668   9.193  -7.194  0.00  0.00    -0.069 SA
ATOM     21  C   UNL d   1       9.877   5.688  -8.065  0.00  0.00     0.081 C 
ATOM     22  N   UNL d   1      10.489   7.146  -6.124  0.00  0.00    -0.241 NA
ATOM     23  C   UNL d   1       8.860   5.944  -9.187  0.00  0.00     0.257 C 
ATOM     24  C   UNL d   1      11.092   8.292  -5.806  0.00  0.00     0.134 A 
ENDBRANCH  14  15
ENDBRANCH  13  14
ENDBRANCH   1  13
TORSDOF 5
