REMARK  5 active torsions:
REMARK  status: ('A' for Active; 'I' for Inactive)
REMARK    1  A    between atoms: C_6  and  N_7 
REMARK    2  A    between atoms: N_7  and  C_8 
REMARK    3  A    between atoms: N_7  and  C_11 
REMARK    4  A    between atoms: C_8  and  C_9 
REMARK    5  A    between atoms: C_11  and  C_12 
ROOT
ATOM      1  C   UNL d   1      11.475   8.413  -5.376  0.00  0.00    -0.009 C 
ATOM      2  C   UNL d   1      11.106   8.032  -6.471  0.00  0.00    -0.056 C 
ATOM      3  C   UNL d   1      10.668   7.543  -7.738  0.00  0.00     0.016 C 
ATOM      4  C   UNL d   1       9.941   6.412  -7.798  0.00  0.00    -0.020 C 
ATOM      5  C   UNL d   1       9.397   5.814  -9.080  0.00  0.00     0.059 C 
ATOM      6  C   UNL d   1      10.019   6.452 -10.349  0.00  0.00     0.224 C 
ATOM      7  C   UNL d   1      10.214   7.979 -10.208  0.00  0.00     0.039 C 
ATOM      8  C   UNL d   1      11.043   8.353  -8.966  0.00  0.00     0.036 C 
ENDROOT
BRANCH   6   9
ATOM      9  N   UNL d   1       9.303   6.121 -11.597  0.00  0.00     0.135 N 
BRANCH   9  10
ATOM     10  C   UNL d   1       9.348   4.678 -11.882  0.00  0.00     0.250 C 
BRANCH  10  11
ATOM     11  C   UNL d   1       9.394   4.395 -13.405  0.00  0.00     0.035 C 
ATOM     12  C   UNL d   1       8.869   2.991 -13.706  0.00  0.00     0.002 C 
ENDBRANCH  10  11
ENDBRANCH   9  10
BRANCH   9  13
ATOM     13  C   UNL d   1       7.933   6.634 -11.612  0.00  0.00     0.250 C 
BRANCH  13  14
ATOM     14  C   UNL d   1       7.083   6.197 -12.786  0.00  0.00     0.035 C 
ATOM     15  C   UNL d   1       5.592   6.314 -12.577  0.00  0.00     0.002 C 
ENDBRANCH  13  14
ENDBRANCH   9  13
ENDBRANCH   6   9
TORSDOF 5
