REMARK  7 active torsions:
REMARK  status: ('A' for Active; 'I' for Inactive)
REMARK    1  A    between atoms: C_2  and  C_3 
REMARK    2  A    between atoms: N_14  and  C_15 
REMARK    3  A    between atoms: C_15  and  C_16 
REMARK    4  A    between atoms: C_16  and  C_17 
REMARK    5  A    between atoms: C_17  and  S_18 
REMARK    6  A    between atoms: S_18  and  C_19 
REMARK    7  A    between atoms: C_22  and  C_23 
ROOT
ATOM      1  C   UNL d   1      19.412   9.543 -18.274  0.00  0.00     0.159 A 
ATOM      2  N   UNL d   1      19.468   8.310 -17.756  0.00  0.00    -0.224 NA
ATOM      3  C   UNL d   1      18.198   7.818 -17.996  0.00  0.00     0.106 A 
ATOM      4  C   UNL d   1      17.578   6.608 -17.646  0.00  0.00     0.017 A 
ATOM      5  C   UNL d   1      16.227   6.371 -17.980  0.00  0.00    -0.022 A 
ATOM      6  C   UNL d   1      15.479   7.364 -18.672  0.00  0.00    -0.022 A 
ATOM      7  C   UNL d   1      16.092   8.593 -19.014  0.00  0.00     0.022 A 
ATOM      8  C   UNL d   1      17.432   8.798 -18.658  0.00  0.00     0.119 A 
ATOM      9  O   UNL d   1      18.222   9.917 -18.840  0.00  0.00    -0.292 OA
ATOM     10  C   UNL d   1      14.017   7.149 -19.040  0.00  0.00     0.061 C 
ATOM     11  C   UNL d   1      13.780   5.922 -19.944  0.00  0.00     0.255 C 
ATOM     12  N   UNL d   1      13.776   4.638 -19.245  0.00  0.00     0.138 N 
ATOM     13  C   UNL d   1      15.074   4.216 -18.733  0.00  0.00     0.255 C 
ATOM     14  C   UNL d   1      15.609   5.053 -17.560  0.00  0.00     0.061 C 
ENDROOT
BRANCH  12  15
ATOM     15  C   UNL d   1      12.655   4.476 -18.319  0.00  0.00     0.251 C 
BRANCH  15  16
ATOM     16  C   UNL d   1      12.281   2.996 -18.173  0.00  0.00     0.047 C 
BRANCH  16  17
ATOM     17  C   UNL d   1      10.979   2.819 -17.390  0.00  0.00     0.067 C 
BRANCH  17  18
ATOM     18  S   UNL d   1      11.253   2.818 -15.593  0.00  0.00    -0.075 SA
BRANCH  18  19
ATOM     19  C   UNL d   1       9.588   2.554 -15.080  0.00  0.00     0.193 A 
ATOM     20  N   UNL d   1       8.902   1.414 -15.324  0.00  0.00    -0.289 N 
ATOM     21  C   UNL d   1       7.681   1.699 -14.810  0.00  0.00     0.168 A 
ATOM     22  C   UNL d   1       9.367   0.194 -15.964  0.00  0.00     0.134 C 
ATOM     23  N   UNL d   1       7.633   2.919 -14.263  0.00  0.00    -0.128 NA
ATOM     24  N   UNL d   1       8.880   3.477 -14.434  0.00  0.00    -0.122 NA
BRANCH  21  25
ATOM     25  C   UNL d   1       6.510   0.819 -14.816  0.00  0.00     0.055 A 
ATOM     26  C   UNL d   1       5.642   0.777 -13.701  0.00  0.00     0.102 A 
ATOM     27  N   UNL d   1       4.544  -0.010 -13.646  0.00  0.00    -0.242 NA
ATOM     28  C   UNL d   1       4.270  -0.799 -14.698  0.00  0.00     0.099 A 
ATOM     29  C   UNL d   1       5.064  -0.840 -15.859  0.00  0.00     0.021 A 
ATOM     30  C   UNL d   1       6.199  -0.003 -15.921  0.00  0.00     0.006 A 
ENDBRANCH  21  25
ENDBRANCH  18  19
ENDBRANCH  17  18
ENDBRANCH  16  17
ENDBRANCH  15  16
ENDBRANCH  12  15
BRANCH   1  31
ATOM     31  C   UNL d   1      20.537  10.524 -18.292  0.00  0.00     0.072 C 
ATOM     32  C   UNL d   1      20.877  11.058 -16.895  0.00  0.00     0.009 C 
ENDBRANCH   1  31
TORSDOF 7
