REMARK  3 active torsions:
REMARK  status: ('A' for Active; 'I' for Inactive)
REMARK    1  A    between atoms: C_6  and  C_7 
REMARK    2  A    between atoms: C_7  and  N_8 
REMARK    3  A    between atoms: N_11  and  C_12 
ROOT
ATOM      1  N   UNL d   1       5.848   3.838 -12.309  0.00  0.00    -0.191 NA
ATOM      2  C   UNL d   1       6.675   4.625 -12.113  0.00  0.00     0.103 C 
ATOM      3  C   UNL d   1       7.715   5.612 -11.873  0.00  0.00     0.089 A 
ATOM      4  C   UNL d   1       7.874   6.763 -12.584  0.00  0.00     0.109 A 
ATOM      5  N   UNL d   1       8.961   7.399 -12.034  0.00  0.00    -0.246 NA
ATOM      6  C   UNL d   1       9.459   6.687 -10.959  0.00  0.00     0.093 A 
ATOM      7  C   UNL d   1       8.705   5.545 -10.853  0.00  0.00     0.029 A 
ENDROOT
BRANCH   6   8
ATOM      8  C   UNL d   1      10.616   7.230 -10.180  0.00  0.00     0.296 C 
BRANCH   8   9
ATOM      9  N   UNL d   1      10.269   7.813  -8.900  0.00  0.00     0.147 N 
ATOM     10  C   UNL d   1       9.944   6.748  -7.938  0.00  0.00     0.275 C 
ATOM     11  C   UNL d   1       9.562   7.359  -6.585  0.00  0.00     0.137 C 
ATOM     12  N   UNL d   1      10.623   8.240  -6.124  0.00  0.00    -0.344 N 
ATOM     13  C   UNL d   1      11.061   9.247  -7.072  0.00  0.00     0.137 C 
ATOM     14  C   UNL d   1      11.425   8.572  -8.403  0.00  0.00     0.275 C 
BRANCH  12  15
ATOM     15  C   UNL d   1      11.203   8.136  -4.854  0.00  0.00     0.056 A 
ATOM     16  C   UNL d   1      11.500   9.306  -4.127  0.00  0.00     0.017 A 
ATOM     17  C   UNL d   1      12.050   9.210  -2.840  0.00  0.00     0.002 A 
ATOM     18  C   UNL d   1      12.315   7.962  -2.266  0.00  0.00     0.000 A 
ATOM     19  C   UNL d   1      12.025   6.790  -2.988  0.00  0.00     0.002 A 
ATOM     20  C   UNL d   1      11.465   6.876  -4.278  0.00  0.00     0.017 A 
ENDBRANCH  12  15
ENDBRANCH   8   9
ENDBRANCH   6   8
TORSDOF 3
