REMARK  1 active torsions:
REMARK  status: ('A' for Active; 'I' for Inactive)
REMARK    1  A    between atoms: C_9  and  C_11 
ROOT
ATOM      1  C   UNL d   1      13.153   6.917 -17.869  0.00  0.00     0.285 C 
ATOM      2  N   UNL d   1      12.433   5.661 -17.744  0.00  0.00     0.139 N 
ATOM      3  C   UNL d   1      12.621   5.146 -16.396  0.00  0.00     0.253 C 
ATOM      4  C   UNL d   1      11.948   3.778 -16.266  0.00  0.00     0.070 C 
ATOM      5  C   UNL d   1      10.413   3.919 -16.464  0.00  0.00     0.148 C 
ATOM      6  C   UNL d   1      10.210   4.562 -17.866  0.00  0.00     0.070 C 
ATOM      7  C   UNL d   1      11.007   5.878 -17.998  0.00  0.00     0.253 C 
ATOM      8  O   UNL d   1       9.809   4.668 -15.399  0.00  0.00    -0.352 OA
ATOM      9  C   UNL d   1       9.270   3.797 -14.372  0.00  0.00     0.119 C 
ATOM     10  C   UNL d   1      10.344   3.434 -13.309  0.00  0.00     0.035 C 
ATOM     11  C   UNL d   1       8.836   2.537 -15.146  0.00  0.00     0.098 C 
ATOM     12  C   UNL d   1       9.717   2.562 -16.366  0.00  0.00     0.177 C 
ATOM     13  O   UNL d   1       9.763   1.674 -17.195  0.00  0.00    -0.293 OA
ENDROOT
BRANCH   9  14
ATOM     14  C   UNL d   1       8.126   4.458 -13.612  0.00  0.00     0.003 A 
ATOM     15  C   UNL d   1       6.967   3.729 -13.262  0.00  0.00    -0.002 A 
ATOM     16  C   UNL d   1       5.944   4.327 -12.506  0.00  0.00    -0.000 A 
ATOM     17  C   UNL d   1       6.072   5.658 -12.078  0.00  0.00    -0.000 A 
ATOM     18  C   UNL d   1       7.226   6.390 -12.411  0.00  0.00    -0.000 A 
ATOM     19  C   UNL d   1       8.256   5.787 -13.158  0.00  0.00    -0.002 A 
ENDBRANCH   9  14
TORSDOF 1
