REMARK  9 active torsions:
REMARK  status: ('A' for Active; 'I' for Inactive)
REMARK    1  A    between atoms: O_2  and  C_3 
REMARK    2  A    between atoms: C_8  and  N_9 
REMARK    3  A    between atoms: N_12  and  C_13 
REMARK    4  A    between atoms: C_13  and  C_14 
REMARK    5  A    between atoms: C_14  and  C_15 
REMARK    6  A    between atoms: C_15  and  C_16 
REMARK    7  A    between atoms: C_16  and  C_17 
REMARK    8  A    between atoms: C_17  and  O_18 
REMARK    9  A    between atoms: O_18  and  C_19 
ROOT
ATOM      1  C   UNL d   1       9.025   7.643 -12.170  0.00  0.00     0.035 C 
ENDROOT
BRANCH   1   2
ATOM      2  C   UNL d   1       9.488   8.552 -11.020  0.00  0.00     0.250 C 
BRANCH   2   3
ATOM      3  N   UNL d   1      10.291   7.860 -10.008  0.00  0.00     0.141 N 
ATOM      4  C   UNL d   1      11.295   8.784  -9.463  0.00  0.00     0.274 C 
ATOM      5  C   UNL d   1      12.160   8.056  -8.415  0.00  0.00     0.137 C 
ATOM      6  N   UNL d   1      11.332   7.403  -7.405  0.00  0.00    -0.343 N 
ATOM      7  C   UNL d   1      10.225   6.606  -7.894  0.00  0.00     0.137 C 
ATOM      8  C   UNL d   1       9.419   7.429  -8.906  0.00  0.00     0.274 C 
BRANCH   6   9
ATOM      9  C   UNL d   1      11.432   7.689  -6.019  0.00  0.00     0.079 A 
ATOM     10  C   UNL d   1      11.454   9.002  -5.539  0.00  0.00     0.110 A 
ATOM     11  C   UNL d   1      11.662   9.232  -4.146  0.00  0.00     0.026 A 
ATOM     12  C   UNL d   1      11.859   8.153  -3.266  0.00  0.00     0.002 A 
ATOM     13  C   UNL d   1      11.808   6.835  -3.769  0.00  0.00     0.002 A 
ATOM     14  C   UNL d   1      11.583   6.625  -5.139  0.00  0.00     0.019 A 
BRANCH  10  15
ATOM     15  O   UNL d   1      11.231   9.997  -6.461  0.00  0.00    -0.327 OA
ATOM     16  C   UNL d   1      11.933  11.198  -6.193  0.00  0.00     0.181 C 
ENDBRANCH  10  15
ENDBRANCH   6   9
ENDBRANCH   2   3
ENDBRANCH   1   2
BRANCH   1  17
ATOM     17  C   UNL d   1       8.341   6.350 -11.726  0.00  0.00     0.005 C 
BRANCH  17  18
ATOM     18  C   UNL d   1       8.015   5.464 -12.899  0.00  0.00     0.033 C 
BRANCH  18  19
ATOM     19  C   UNL d   1       7.473   4.126 -12.359  0.00  0.00     0.149 C 
BRANCH  19  20
ATOM     20  O   UNL d   1       7.233   3.226 -13.425  0.00  0.00    -0.331 OA
BRANCH  20  21
ATOM     21  C   UNL d   1       8.304   2.709 -14.119  0.00  0.00     0.096 A 
ATOM     22  C   UNL d   1       7.993   1.725 -15.084  0.00  0.00     0.043 A 
ATOM     23  C   UNL d   1       9.017   1.220 -15.899  0.00  0.00     0.087 A 
ATOM     24  C   UNL d   1      10.339   1.719 -15.786  0.00  0.00     0.018 A 
ATOM     25  N   UNL d   1       8.766   0.176 -16.829  0.00  0.00    -0.208 NA
ATOM     26  C   UNL d   1      10.639   2.686 -14.810  0.00  0.00     0.004 A 
ATOM     27  C   UNL d   1      11.345   1.151 -16.661  0.00  0.00     0.006 A 
ATOM     28  C   UNL d   1       9.646   3.135 -13.947  0.00  0.00     0.024 A 
ATOM     29  C   UNL d   1      11.047   0.157 -17.533  0.00  0.00     0.063 A 
ATOM     30  C   UNL d   1       9.691  -0.379 -17.640  0.00  0.00     0.279 A 
ATOM     31  O   UNL d   1       9.378  -1.293 -18.419  0.00  0.00    -0.265 OA
ENDBRANCH  20  21
ENDBRANCH  19  20
ENDBRANCH  18  19
ENDBRANCH  17  18
ENDBRANCH   1  17
TORSDOF 9
