REMARK  1 active torsions:
REMARK  status: ('A' for Active; 'I' for Inactive)
REMARK    1  A    between atoms: N_5  and  C_6 
ROOT
ATOM      1  C   UNL d   1       8.519   1.262 -16.662  0.00  0.00     0.246 C 
ATOM      2  C   UNL d   1       8.748   1.472 -15.158  0.00  0.00     0.065 C 
ATOM      3  C   UNL d   1       7.615   2.155 -14.398  0.00  0.00    -0.014 A 
ATOM      4  C   UNL d   1       7.731   3.493 -14.035  0.00  0.00    -0.004 A 
ATOM      5  C   UNL d   1       6.689   4.080 -13.272  0.00  0.00    -0.000 A 
ATOM      6  C   UNL d   1       5.569   3.324 -12.895  0.00  0.00     0.001 A 
ATOM      7  C   UNL d   1       5.483   1.974 -13.274  0.00  0.00     0.006 A 
ATOM      8  C   UNL d   1       6.527   1.410 -14.046  0.00  0.00     0.025 A 
ATOM      9  S   UNL d   1       6.421  -0.267 -14.543  0.00  0.00    -0.087 SA
ATOM     10  C   UNL d   1       6.192  -0.008 -16.274  0.00  0.00     0.027 A 
ATOM     11  C   UNL d   1       4.992  -0.522 -16.827  0.00  0.00     0.007 A 
ATOM     12  C   UNL d   1       4.676  -0.328 -18.188  0.00  0.00     0.011 A 
ATOM     13  C   UNL d   1       5.562   0.414 -18.992  0.00  0.00     0.068 A 
ATOM     14  C   UNL d   1       5.289   0.615 -20.411  0.00  0.00     0.101 C 
ATOM     15  N   UNL d   1       5.095   0.772 -21.533  0.00  0.00    -0.191 NA
ATOM     16  C   UNL d   1       6.747   0.929 -18.448  0.00  0.00     0.008 A 
ATOM     17  C   UNL d   1       7.132   0.701 -17.099  0.00  0.00     0.015 A 
ENDROOT
BRANCH   1  18
ATOM     18  N   UNL d   1       9.685   0.553 -17.284  0.00  0.00     0.144 N 
ATOM     19  C   UNL d   1      10.915   1.359 -17.195  0.00  0.00     0.286 C 
ATOM     20  C   UNL d   1      12.121   0.657 -17.828  0.00  0.00     0.286 C 
ATOM     21  N   UNL d   1      11.890   0.331 -19.232  0.00  0.00     0.143 N 
ATOM     22  C   UNL d   1      13.026  -0.343 -19.828  0.00  0.00     0.285 C 
ATOM     23  C   UNL d   1      10.682  -0.486 -19.320  0.00  0.00     0.286 C 
ATOM     24  C   UNL d   1       9.494   0.232 -18.707  0.00  0.00     0.286 C 
ENDBRANCH   1  18
TORSDOF 1
