REMARK  6 active torsions:
REMARK  status: ('A' for Active; 'I' for Inactive)
REMARK    1  A    between atoms: C_5  and  C_6 
REMARK    2  A    between atoms: C_6  and  C_8 
REMARK    3  A    between atoms: C_8  and  C_9 
REMARK    4  A    between atoms: C_9  and  C_10 
REMARK    5  A    between atoms: C_10  and  N_11 
REMARK    6  A    between atoms: N_14  and  C_15 
ROOT
ATOM      1  N   UNL d   1       8.223   5.468 -11.789  0.00  0.00     0.141 N 
ATOM      2  C   UNL d   1       6.914   4.831 -11.642  0.00  0.00     0.274 C 
ATOM      3  C   UNL d   1       6.367   4.374 -12.995  0.00  0.00     0.138 C 
ATOM      4  N   UNL d   1       7.339   3.505 -13.653  0.00  0.00    -0.330 N 
ATOM      5  C   UNL d   1       8.706   4.032 -13.716  0.00  0.00     0.138 C 
ATOM      6  C   UNL d   1       9.164   4.486 -12.325  0.00  0.00     0.274 C 
ENDROOT
BRANCH   1   7
ATOM      7  C   UNL d   1       8.665   5.871 -10.458  0.00  0.00     0.251 C 
BRANCH   7   8
ATOM      8  C   UNL d   1       9.570   7.115 -10.508  0.00  0.00     0.043 C 
BRANCH   8   9
ATOM      9  C   UNL d   1       9.693   7.873  -9.164  0.00  0.00     0.071 C 
BRANCH   9  10
ATOM     10  C   UNL d   1      10.237   7.059  -7.978  0.00  0.00     0.173 C 
ATOM     11  O   UNL d   1      10.310   5.834  -8.043  0.00  0.00    -0.291 OA
BRANCH  10  12
ATOM     12  C   UNL d   1      10.642   7.779  -6.747  0.00  0.00     0.035 A 
ATOM     13  C   UNL d   1      10.644   9.186  -6.640  0.00  0.00     0.004 A 
ATOM     14  C   UNL d   1      11.065   9.799  -5.442  0.00  0.00     0.014 A 
ATOM     15  C   UNL d   1      11.477   9.002  -4.352  0.00  0.00     0.070 A 
ATOM     16  N   UNL d   1      11.855   9.591  -3.150  0.00  0.00    -0.101 NA
ATOM     17  C   UNL d   1      11.484   7.603  -4.453  0.00  0.00     0.014 A 
ATOM     18  C   UNL d   1      11.060   7.004  -5.647  0.00  0.00     0.004 A 
ENDBRANCH  10  12
ENDBRANCH   9  10
ENDBRANCH   8   9
ENDBRANCH   7   8
ENDBRANCH   1   7
BRANCH   4  19
ATOM     19  C   UNL d   1       6.984   2.243 -14.153  0.00  0.00     0.140 A 
ATOM     20  N   UNL d   1       5.865   1.661 -13.646  0.00  0.00    -0.227 NA
ATOM     21  C   UNL d   1       5.489   0.447 -14.101  0.00  0.00     0.101 A 
ATOM     22  C   UNL d   1       6.207  -0.254 -15.078  0.00  0.00     0.021 A 
ATOM     23  C   UNL d   1       7.367   0.327 -15.607  0.00  0.00     0.005 A 
ATOM     24  C   UNL d   1       7.766   1.595 -15.142  0.00  0.00     0.037 A 
ENDBRANCH   4  19
TORSDOF 6
