REMARK  7 active torsions:
REMARK  status: ('A' for Active; 'I' for Inactive)
REMARK       I    between atoms: C_2  and  N_3 
REMARK    1  A    between atoms: C_2  and  C_22 
REMARK    2  A    between atoms: N_3  and  C_4 
REMARK    3  A    between atoms: C_4  and  C_5 
REMARK    4  A    between atoms: C_5  and  C_6 
REMARK    5  A    between atoms: C_6  and  C_7 
REMARK    6  A    between atoms: C_7  and  N_8 
REMARK    7  A    between atoms: C_25  and  C_26 
ROOT
ATOM      1  C   UNL d   1       7.433   4.946 -13.386  0.00  0.00     0.029 C 
ENDROOT
BRANCH   1   2
ATOM      2  C   UNL d   1       7.348   6.365 -12.789  0.00  0.00     0.129 C 
BRANCH   2   3
ATOM      3  N   UNL d   1       8.338   6.659 -11.757  0.00  0.00    -0.234 NA
ATOM      4  C   UNL d   1       8.815   5.768 -10.880  0.00  0.00     0.275 C 
ATOM      5  O   UNL d   1       8.707   4.553 -10.972  0.00  0.00    -0.266 OA
BRANCH   4   6
ATOM      6  C   UNL d   1       9.439   6.336  -9.658  0.00  0.00     0.058 A 
ATOM      7  C   UNL d   1       8.920   5.948  -8.408  0.00  0.00     0.005 A 
ATOM      8  C   UNL d   1       9.502   6.405  -7.220  0.00  0.00     0.000 A 
ATOM      9  C   UNL d   1      10.621   7.267  -7.263  0.00  0.00     0.000 A 
ATOM     10  C   UNL d   1      11.143   7.666  -8.525  0.00  0.00     0.000 A 
ATOM     11  C   UNL d   1      10.534   7.224  -9.715  0.00  0.00     0.005 A 
BRANCH   9  12
ATOM     12  C   UNL d   1      11.215   7.745  -6.003  0.00  0.00     0.000 A 
ATOM     13  C   UNL d   1      11.208   6.956  -4.830  0.00  0.00     0.000 A 
ATOM     14  C   UNL d   1      11.822   7.415  -3.648  0.00  0.00     0.000 A 
ATOM     15  C   UNL d   1      12.455   8.669  -3.635  0.00  0.00     0.000 A 
ATOM     16  C   UNL d   1      12.491   9.435  -4.813  0.00  0.00     0.000 A 
ATOM     17  C   UNL d   1      11.845   9.003  -5.972  0.00  0.00     0.000 A 
ENDBRANCH   9  12
ENDBRANCH   4   6
ENDBRANCH   2   3
ENDBRANCH   1   2
BRANCH   1  18
ATOM     18  C   UNL d   1       8.813   4.750 -14.033  0.00  0.00     0.037 C 
BRANCH  18  19
ATOM     19  C   UNL d   1       8.982   3.326 -14.559  0.00  0.00     0.251 C 
BRANCH  19  20
ATOM     20  N   UNL d   1      10.113   3.121 -15.459  0.00  0.00     0.143 N 
ATOM     21  C   UNL d   1       9.882   3.585 -16.852  0.00  0.00     0.280 C 
ATOM     22  C   UNL d   1      11.098   3.278 -17.756  0.00  0.00     0.173 C 
ATOM     23  C   UNL d   1       9.638   5.094 -17.052  0.00  0.00     0.185 C 
ATOM     24  O   UNL d   1      11.465   1.903 -17.688  0.00  0.00    -0.348 OA
ATOM     25  C   UNL d   1      12.249   4.242 -17.488  0.00  0.00     0.029 A 
ATOM     26  C   UNL d   1      11.700   1.436 -16.369  0.00  0.00     0.178 C 
ATOM     27  C   UNL d   1      10.466   1.701 -15.497  0.00  0.00     0.282 C 
ATOM     28  C   UNL d   1      11.986   5.480 -16.854  0.00  0.00     0.092 A 
ATOM     29  C   UNL d   1      13.561   3.925 -17.897  0.00  0.00     0.000 A 
ATOM     30  C   UNL d   1      13.050   6.369 -16.596  0.00  0.00     0.024 A 
ATOM     31  O   UNL d   1      10.711   5.839 -16.473  0.00  0.00    -0.329 OA
ATOM     32  C   UNL d   1      14.363   6.045 -16.995  0.00  0.00     0.002 A 
ATOM     33  C   UNL d   1      14.619   4.823 -17.652  0.00  0.00    -0.000 A 
ENDBRANCH  19  20
ENDBRANCH  18  19
ENDBRANCH   1  18
TORSDOF 7
