REMARK  3 active torsions:
REMARK  status: ('A' for Active; 'I' for Inactive)
REMARK    1  A    between atoms: O_2  and  C_3 
REMARK    2  A    between atoms: C_7  and  C_8 
REMARK    3  A    between atoms: C_8  and  C_9 
ROOT
ATOM      1  C   UNL d   1       9.584   6.307 -10.356  0.00  0.00     0.300 C 
ATOM      2  N   UNL d   1       9.066   7.359 -11.200  0.00  0.00     0.344 N 
ATOM      3  C   UNL d   1       9.859   8.568 -11.165  0.00  0.00     0.295 C 
ATOM      4  C   UNL d   1       9.899   9.168  -9.747  0.00  0.00     0.066 C 
ATOM      5  C   UNL d   1      10.212   8.148  -8.747  0.00  0.00    -0.003 A 
ATOM      6  C   UNL d   1      10.039   6.833  -9.026  0.00  0.00     0.089 A 
ATOM      7  N   UNL d   1      10.370   6.117  -7.892  0.00  0.00    -0.248 NA
ATOM      8  C   UNL d   1      10.739   6.967  -6.864  0.00  0.00     0.081 A 
ATOM      9  C   UNL d   1      11.148   6.781  -5.546  0.00  0.00     0.019 A 
ATOM     10  C   UNL d   1      11.443   7.905  -4.763  0.00  0.00     0.002 A 
ATOM     11  C   UNL d   1      11.329   9.201  -5.306  0.00  0.00     0.000 A 
ATOM     12  C   UNL d   1      10.920   9.385  -6.611  0.00  0.00     0.001 A 
ATOM     13  C   UNL d   1      10.627   8.262  -7.417  0.00  0.00     0.015 A 
ENDROOT
BRANCH   1  14
ATOM     14  C   UNL d   1       8.523   5.207 -10.283  0.00  0.00     0.069 C 
BRANCH  14  15
ATOM     15  C   UNL d   1       8.081   4.625 -11.627  0.00  0.00    -0.018 A 
ATOM     16  C   UNL d   1       6.710   4.598 -11.958  0.00  0.00    -0.004 A 
ATOM     17  C   UNL d   1       6.267   4.014 -13.159  0.00  0.00     0.002 A 
ATOM     18  C   UNL d   1       7.207   3.447 -14.035  0.00  0.00     0.024 A 
ATOM     19  C   UNL d   1       8.583   3.447 -13.732  0.00  0.00     0.094 A 
ATOM     20  C   UNL d   1       9.012   4.028 -12.508  0.00  0.00     0.020 A 
BRANCH  19  21
ATOM     21  O   UNL d   1       9.428   2.869 -14.657  0.00  0.00    -0.328 OA
ATOM     22  C   UNL d   1      10.806   2.767 -14.328  0.00  0.00     0.181 C 
ENDBRANCH  19  21
ENDBRANCH  14  15
ENDBRANCH   1  14
TORSDOF 3
