REMARK  8 active torsions:
REMARK  status: ('A' for Active; 'I' for Inactive)
REMARK    1  A    between atoms: C_2  and  C_3 
REMARK    2  A    between atoms: C_3  and  C_4 
REMARK    3  A    between atoms: C_4  and  C_5 
REMARK    4  A    between atoms: C_5  and  C_6 
REMARK    5  A    between atoms: N_9  and  C_10 
REMARK    6  A    between atoms: C_10  and  C_11 
REMARK    7  A    between atoms: C_11  and  C_12 
REMARK    8  A    between atoms: C_12  and  N_13 
ROOT
ATOM      1  C   UNL d   1       9.468   6.504 -11.137  0.00  0.00     0.060 C 
ENDROOT
BRANCH   1   2
ATOM      2  C   UNL d   1       9.911   7.900 -10.685  0.00  0.00     0.252 C 
BRANCH   2   3
ATOM      3  N   UNL d   1      10.505   7.851  -9.348  0.00  0.00     0.137 N 
ATOM      4  C   UNL d   1       9.532   8.372  -8.387  0.00  0.00     0.250 C 
ATOM      5  C   UNL d   1      10.100   8.320  -6.958  0.00  0.00     0.035 C 
ATOM      6  C   UNL d   1      11.403   9.150  -6.877  0.00  0.00     0.004 C 
ATOM      7  C   UNL d   1      12.364   8.612  -7.940  0.00  0.00     0.035 C 
ATOM      8  C   UNL d   1      11.720   8.666  -9.332  0.00  0.00     0.250 C 
BRANCH   6   9
ATOM      9  C   UNL d   1      12.061   8.934  -5.503  0.00  0.00     0.000 C 
BRANCH   9  10
ATOM     10  C   UNL d   1      11.285   9.637  -4.354  0.00  0.00     0.000 C 
BRANCH  10  11
ATOM     11  C   UNL d   1      12.024   9.500  -3.013  0.00  0.00     0.000 C 
BRANCH  11  12
ATOM     12  C   UNL d   1      11.949   8.127  -2.286  0.00  0.00     0.000 C 
ATOM     13  C   UNL d   1      12.404   6.933  -3.142  0.00  0.00     0.000 C 
ENDBRANCH  11  12
ENDBRANCH  10  11
ENDBRANCH   9  10
ENDBRANCH   6   9
ENDBRANCH   2   3
ENDBRANCH   1   2
BRANCH   1  14
ATOM     14  C   UNL d   1       9.041   6.506 -12.627  0.00  0.00     0.111 C 
BRANCH  14  15
ATOM     15  N   UNL d   1       8.930   5.118 -13.166  0.00  0.00    -0.299 N 
ATOM     16  C   UNL d   1       7.693   4.401 -13.057  0.00  0.00     0.058 A 
ATOM     17  C   UNL d   1       7.464   3.204 -13.797  0.00  0.00    -0.006 A 
ATOM     18  C   UNL d   1       6.678   4.879 -12.206  0.00  0.00     0.017 A 
ATOM     19  C   UNL d   1       8.565   2.691 -14.703  0.00  0.00     0.038 C 
ATOM     20  C   UNL d   1       6.258   2.518 -13.672  0.00  0.00    -0.003 A 
ATOM     21  C   UNL d   1       9.946   3.082 -14.191  0.00  0.00     0.093 C 
ATOM     22  C   UNL d   1      10.012   4.542 -13.758  0.00  0.00     0.238 C 
ATOM     23  O   UNL d   1      11.066   5.151 -13.969  0.00  0.00    -0.272 OA
ATOM     24  C   UNL d   1       5.250   2.988 -12.826  0.00  0.00    -0.000 A 
ATOM     25  C   UNL d   1       5.487   4.168 -12.097  0.00  0.00     0.002 A 
ENDBRANCH  14  15
ENDBRANCH   1  14
TORSDOF 8
