REMARK  7 active torsions:
REMARK  status: ('A' for Active; 'I' for Inactive)
REMARK       I    between atoms: N_2  and  C_4 
REMARK       I    between atoms: C_4  and  N_6 
REMARK    1  A    between atoms: N_6  and  C_7 
REMARK    2  A    between atoms: C_10  and  C_11 
REMARK    3  A    between atoms: C_11  and  C_12 
REMARK    4  A    between atoms: C_12  and  N_13 
REMARK    5  A    between atoms: N_13  and  C_14 
REMARK    6  A    between atoms: C_14  and  C_15 
REMARK    7  A    between atoms: C_17  and  C_18 
ROOT
ATOM      1  N   UNL d   1       7.985   5.320 -11.634  0.00  0.00     0.339 N 
ENDROOT
BRANCH   1   2
ATOM      2  C   UNL d   1       8.318   5.633 -10.262  0.00  0.00     0.290 C 
BRANCH   2   3
ATOM      3  C   UNL d   1       9.561   6.531 -10.227  0.00  0.00     0.038 C 
BRANCH   3   4
ATOM      4  C   UNL d   1      10.103   6.758  -8.806  0.00  0.00     0.002 C 
ATOM      5  C   UNL d   1      11.316   7.704  -8.843  0.00  0.00     0.002 C 
ATOM      6  C   UNL d   1      11.859   7.945  -7.437  0.00  0.00     0.025 C 
ATOM      7  C   UNL d   1      10.782   8.471  -6.474  0.00  0.00     0.108 C 
ATOM      8  C   UNL d   1       9.539   7.567  -6.463  0.00  0.00     0.025 C 
ATOM      9  C   UNL d   1       9.030   7.329  -7.868  0.00  0.00     0.002 C 
BRANCH   7  10
ATOM     10  N   UNL d   1      11.327   8.652  -5.136  0.00  0.00    -0.221 NA
ATOM     11  C   UNL d   1      11.774   7.710  -4.287  0.00  0.00     0.342 C 
ATOM     12  N   UNL d   1      12.125   8.195  -3.079  0.00  0.00    -0.297 N 
ATOM     13  O   UNL d   1      11.808   6.509  -4.554  0.00  0.00    -0.245 OA
ATOM     14  C   UNL d   1      12.599   7.265  -2.057  0.00  0.00     0.130 C 
ATOM     15  C   UNL d   1      12.246   9.619  -2.765  0.00  0.00     0.130 C 
ENDBRANCH   7  10
ENDBRANCH   3   4
ENDBRANCH   2   3
ENDBRANCH   1   2
BRANCH   1  16
ATOM     16  C   UNL d   1       6.834   4.437 -11.641  0.00  0.00     0.290 C 
BRANCH  16  17
ATOM     17  C   UNL d   1       6.633   3.951 -13.052  0.00  0.00     0.041 A 
ATOM     18  C   UNL d   1       6.105   2.546 -13.352  0.00  0.00     0.024 A 
ATOM     19  C   UNL d   1       5.259   3.765 -13.612  0.00  0.00     0.007 A 
BRANCH  18  20
ATOM     20  C   UNL d   1       6.661   1.694 -14.467  0.00  0.00    -0.022 A 
ATOM     21  C   UNL d   1       5.954   0.594 -15.028  0.00  0.00    -0.004 A 
ATOM     22  C   UNL d   1       6.498  -0.092 -16.156  0.00  0.00    -0.000 A 
ATOM     23  C   UNL d   1       4.711   0.141 -14.514  0.00  0.00    -0.000 A 
ATOM     24  C   UNL d   1       7.741   0.300 -16.696  0.00  0.00    -0.000 A 
ATOM     25  C   UNL d   1       5.814  -1.177 -16.738  0.00  0.00    -0.000 A 
ATOM     26  C   UNL d   1       8.447   1.366 -16.123  0.00  0.00    -0.000 A 
ATOM     27  C   UNL d   1       7.918   2.047 -15.018  0.00  0.00    -0.004 A 
ATOM     28  C   UNL d   1       4.579  -1.599 -16.221  0.00  0.00    -0.000 A 
ATOM     29  C   UNL d   1       4.021  -0.934 -15.114  0.00  0.00    -0.000 A 
ENDBRANCH  18  20
ENDBRANCH  16  17
ENDBRANCH   1  16
TORSDOF 7
