REMARK  7 active torsions:
REMARK  status: ('A' for Active; 'I' for Inactive)
REMARK    1  A    between atoms: C_2  and  C_3 
REMARK       I    between atoms: C_2  and  N_9 
REMARK    2  A    between atoms: C_3  and  C_4 
REMARK    3  A    between atoms: N_9  and  C_10 
REMARK    4  A    between atoms: C_13  and  C_14 
REMARK    5  A    between atoms: C_14  and  C_15 
REMARK    6  A    between atoms: C_15  and  N_16 
REMARK    7  A    between atoms: C_19  and  C_20 
ROOT
ATOM      1  C   UNL d   1       9.306   5.028 -10.895  0.00  0.00     0.035 C 
ENDROOT
BRANCH   1   2
ATOM      2  C   UNL d   1       9.166   6.168  -9.881  0.00  0.00     0.002 C 
ATOM      3  C   UNL d   1       8.976   5.604  -8.447  0.00  0.00     0.002 C 
ATOM      4  C   UNL d   1       8.791   6.716  -7.419  0.00  0.00     0.024 C 
ATOM      5  C   UNL d   1       9.992   7.677  -7.469  0.00  0.00     0.106 C 
ATOM      6  C   UNL d   1      10.153   8.287  -8.884  0.00  0.00     0.024 C 
ATOM      7  C   UNL d   1      10.337   7.182  -9.925  0.00  0.00     0.002 C 
BRANCH   5   8
ATOM      8  N   UNL d   1       9.816   8.737  -6.504  0.00  0.00    -0.240 NA
ATOM      9  C   UNL d   1      10.721   9.281  -5.722  0.00  0.00     0.254 C 
ATOM     10  O   UNL d   1      10.456  10.263  -5.007  0.00  0.00    -0.271 OA
BRANCH   9  11
ATOM     11  C   UNL d   1      12.121   8.690  -5.661  0.00  0.00     0.119 C 
BRANCH  11  12
ATOM     12  C   UNL d   1      12.517   8.216  -4.237  0.00  0.00     0.125 C 
ATOM     13  O   UNL d   1      12.335   9.202  -3.233  0.00  0.00    -0.356 OA
ATOM     14  C   UNL d   1      12.384   8.541  -1.984  0.00  0.00     0.142 C 
ATOM     15  C   UNL d   1      11.713   7.172  -2.219  0.00  0.00     0.035 C 
ATOM     16  C   UNL d   1      11.800   6.954  -3.726  0.00  0.00     0.033 C 
ENDBRANCH  11  12
ENDBRANCH   9  11
ENDBRANCH   5   8
ENDBRANCH   1   2
BRANCH   1  17
ATOM     17  C   UNL d   1       9.354   5.488 -12.371  0.00  0.00     0.250 C 
BRANCH  17  18
ATOM     18  N   UNL d   1       9.343   4.383 -13.331  0.00  0.00     0.137 N 
ATOM     19  C   UNL d   1       9.274   4.917 -14.691  0.00  0.00     0.251 C 
ATOM     20  C   UNL d   1       9.164   3.761 -15.695  0.00  0.00     0.040 C 
ATOM     21  C   UNL d   1      10.349   2.796 -15.598  0.00  0.00     0.026 C 
ATOM     22  C   UNL d   1      10.509   2.359 -14.146  0.00  0.00     0.040 C 
ATOM     23  C   UNL d   1      10.562   3.582 -13.232  0.00  0.00     0.251 C 
BRANCH  21  24
ATOM     24  C   UNL d   1      10.178   1.596 -16.516  0.00  0.00    -0.024 A 
ATOM     25  C   UNL d   1      11.129   1.272 -17.506  0.00  0.00    -0.001 A 
ATOM     26  C   UNL d   1      10.975   0.180 -18.347  0.00  0.00     0.090 A 
ATOM     27  C   UNL d   1      12.393   1.982 -17.849  0.00  0.00     0.061 A 
ATOM     28  C   UNL d   1       9.845  -0.650 -18.247  0.00  0.00     0.024 A 
ATOM     29  O   UNL d   1      12.000   0.043 -19.237  0.00  0.00    -0.331 OA
ATOM     30  C   UNL d   1       8.873  -0.353 -17.269  0.00  0.00     0.002 A 
ATOM     31  C   UNL d   1       9.045   0.750 -16.403  0.00  0.00    -0.004 A 
ATOM     32  C   UNL d   1      12.963   1.074 -18.963  0.00  0.00     0.154 A 
ENDBRANCH  21  24
ENDBRANCH  17  18
ENDBRANCH   1  17
TORSDOF 7
