REMARK  2 active torsions:
REMARK  status: ('A' for Active; 'I' for Inactive)
REMARK    1  A    between atoms: O_2  and  C_3 
REMARK    2  A    between atoms: C_17  and  O_18 
ROOT
ATOM      1  C   UNL d   1      11.529  -0.194 -18.748  0.00  0.00     0.119 A 
ATOM      2  C   UNL d   1      12.226   0.822 -18.059  0.00  0.00     0.022 A 
ATOM      3  C   UNL d   1      11.534   1.752 -17.263  0.00  0.00    -0.020 A 
ATOM      4  C   UNL d   1      10.132   1.673 -17.117  0.00  0.00     0.007 A 
ATOM      5  C   UNL d   1       9.428   0.675 -17.823  0.00  0.00     0.027 A 
ATOM      6  C   UNL d   1      10.121  -0.252 -18.631  0.00  0.00     0.153 A 
ATOM      7  O   UNL d   1       9.417  -1.209 -19.304  0.00  0.00    -0.188 OA
ATOM      8  C   UNL d   1       9.390   2.696 -16.247  0.00  0.00     0.246 C 
ATOM      9  C   UNL d   1       8.348   2.010 -15.323  0.00  0.00     0.064 C 
ATOM     10  C   UNL d   1       7.679   2.960 -14.348  0.00  0.00    -0.020 A 
ATOM     11  C   UNL d   1       6.466   2.603 -13.717  0.00  0.00    -0.002 A 
ATOM     12  C   UNL d   1       5.876   3.472 -12.785  0.00  0.00     0.029 A 
ATOM     13  C   UNL d   1       6.485   4.709 -12.500  0.00  0.00     0.153 A 
ATOM     14  O   UNL d   1       5.870   5.566 -11.640  0.00  0.00    -0.188 OA
ATOM     15  C   UNL d   1       7.692   5.080 -13.129  0.00  0.00     0.117 A 
ATOM     16  C   UNL d   1       8.281   4.204 -14.062  0.00  0.00     0.031 A 
ATOM     17  C   UNL d   1       9.528   4.622 -14.829  0.00  0.00     0.279 C 
ATOM     18  N   UNL d   1      10.278   3.500 -15.392  0.00  0.00     0.144 N 
ATOM     19  C   UNL d   1      11.408   4.022 -16.157  0.00  0.00     0.256 C 
ATOM     20  C   UNL d   1      12.299   2.839 -16.543  0.00  0.00     0.061 C 
ENDROOT
BRANCH   1  21
ATOM     21  O   UNL d   1      12.151  -1.111 -19.566  0.00  0.00    -0.326 OA
ATOM     22  C   UNL d   1      13.559  -1.267 -19.496  0.00  0.00     0.181 C 
ENDBRANCH   1  21
BRANCH  15  23
ATOM     23  O   UNL d   1       8.242   6.322 -12.932  0.00  0.00    -0.326 OA
ATOM     24  C   UNL d   1       8.833   6.511 -11.659  0.00  0.00     0.181 C 
ENDBRANCH  15  23
TORSDOF 2
