REMARK  2 active torsions:
REMARK  status: ('A' for Active; 'I' for Inactive)
REMARK    1  A    between atoms: N_11  and  C_12 
REMARK    2  A    between atoms: C_12  and  C_13 
ROOT
ATOM      1  N   UNL d   1       8.384   5.988 -21.580  0.00  0.00    -0.191 NA
ATOM      2  C   UNL d   1       8.868   5.679 -20.576  0.00  0.00     0.101 C 
ATOM      3  C   UNL d   1       9.480   5.293 -19.315  0.00  0.00     0.068 A 
ATOM      4  C   UNL d   1      10.126   6.260 -18.519  0.00  0.00     0.012 A 
ATOM      5  C   UNL d   1      10.718   5.891 -17.295  0.00  0.00     0.025 A 
ATOM      6  C   UNL d   1      10.693   4.553 -16.865  0.00  0.00     0.090 A 
ATOM      7  C   UNL d   1      10.054   3.585 -17.666  0.00  0.00     0.003 A 
ATOM      8  C   UNL d   1       9.437   3.951 -18.884  0.00  0.00     0.008 A 
ATOM      9  C   UNL d   1       9.927   2.179 -17.134  0.00  0.00     0.062 C 
ATOM     10  C   UNL d   1       8.528   1.985 -16.605  0.00  0.00     0.255 C 
ATOM     11  N   UNL d   1       8.678   0.943 -15.589  0.00  0.00     0.142 N 
ATOM     12  C   UNL d   1       9.824   1.460 -14.837  0.00  0.00     0.254 C 
ATOM     13  C   UNL d   1      10.817   1.804 -15.958  0.00  0.00     0.070 C 
ATOM     14  C   UNL d   1      11.838   2.902 -15.633  0.00  0.00     0.151 C 
ATOM     15  O   UNL d   1      11.275   4.211 -15.666  0.00  0.00    -0.331 OA
ENDROOT
BRANCH  11  16
ATOM     16  C   UNL d   1       7.486   0.781 -14.735  0.00  0.00     0.277 C 
BRANCH  16  17
ATOM     17  C   UNL d   1       6.310   0.056 -15.407  0.00  0.00     0.011 A 
ATOM     18  C   UNL d   1       6.173  -0.057 -16.815  0.00  0.00    -0.002 A 
ATOM     19  C   UNL d   1       5.073  -0.642 -17.407  0.00  0.00    -0.000 A 
ATOM     20  C   UNL d   1       4.081  -1.257 -16.617  0.00  0.00    -0.000 A 
ATOM     21  C   UNL d   1       4.217  -1.214 -15.206  0.00  0.00    -0.000 A 
ATOM     22  C   UNL d   1       5.314  -0.551 -14.583  0.00  0.00    -0.002 A 
ENDBRANCH  16  17
ENDBRANCH  11  16
TORSDOF 2
