REMARK  7 active torsions:
REMARK  status: ('A' for Active; 'I' for Inactive)
REMARK    1  A    between atoms: N_2  and  S_4 
REMARK    2  A    between atoms: S_4  and  N_7 
REMARK    3  A    between atoms: N_7  and  C_8 
REMARK    4  A    between atoms: C_11  and  C_12 
REMARK    5  A    between atoms: C_12  and  C_13 
REMARK    6  A    between atoms: C_13  and  N_14 
REMARK    7  A    between atoms: N_17  and  C_18 
ROOT
ATOM      1  N   UNL d   1       8.675   4.033 -13.867  0.00  0.00     0.141 N 
ATOM      2  C   UNL d   1       8.164   2.659 -13.909  0.00  0.00     0.274 C 
ATOM      3  C   UNL d   1       7.885   2.193 -15.343  0.00  0.00     0.137 C 
ATOM      4  N   UNL d   1       9.089   2.361 -16.154  0.00  0.00    -0.343 N 
ATOM      5  C   UNL d   1       9.715   3.678 -16.057  0.00  0.00     0.137 C 
ATOM      6  C   UNL d   1       9.951   4.058 -14.589  0.00  0.00     0.274 C 
ENDROOT
BRANCH   1   7
ATOM      7  C   UNL d   1       8.853   4.408 -12.464  0.00  0.00     0.250 C 
BRANCH   7   8
ATOM      8  C   UNL d   1       9.242   5.886 -12.305  0.00  0.00     0.035 C 
BRANCH   8   9
ATOM      9  C   UNL d   1       9.112   6.452 -10.882  0.00  0.00     0.002 C 
ATOM     10  C   UNL d   1       9.393   5.440  -9.751  0.00  0.00     0.002 C 
ATOM     11  C   UNL d   1       9.204   6.054  -8.367  0.00  0.00     0.025 C 
ATOM     12  C   UNL d   1      10.075   7.318  -8.174  0.00  0.00     0.117 C 
ATOM     13  C   UNL d   1       9.834   8.342  -9.293  0.00  0.00     0.025 C 
ATOM     14  C   UNL d   1       9.989   7.715 -10.692  0.00  0.00     0.002 C 
BRANCH  12  15
ATOM     15  N   UNL d   1       9.785   7.954  -6.883  0.00  0.00    -0.173 NA
BRANCH  15  16
ATOM     16  S   UNL d   1      10.979   8.904  -6.065  0.00  0.00     0.340 S 
ATOM     17  O   UNL d   1      10.317   9.948  -5.265  0.00  0.00    -0.181 OA
ATOM     18  O   UNL d   1      12.041   9.237  -7.029  0.00  0.00    -0.181 OA
BRANCH  16  19
ATOM     19  N   UNL d   1      11.617   7.752  -4.954  0.00  0.00    -0.257 N 
ATOM     20  C   UNL d   1      12.095   8.265  -3.680  0.00  0.00     0.140 C 
ATOM     21  C   UNL d   1      11.144   6.380  -4.928  0.00  0.00     0.140 C 
ENDBRANCH  16  19
ENDBRANCH  15  16
ENDBRANCH  12  15
ENDBRANCH   8   9
ENDBRANCH   7   8
ENDBRANCH   1   7
BRANCH   4  22
ATOM     22  C   UNL d   1       9.660   1.307 -16.891  0.00  0.00     0.081 A 
ATOM     23  C   UNL d   1       8.867   0.278 -17.456  0.00  0.00     0.135 A 
ATOM     24  C   UNL d   1       9.431  -0.747 -18.198  0.00  0.00     0.121 A 
ATOM     25  O   UNL d   1       7.518   0.107 -17.428  0.00  0.00    -0.298 OA
ATOM     26  C   UNL d   1      10.808  -0.812 -18.439  0.00  0.00     0.026 A 
ATOM     27  O   UNL d   1       8.460  -1.596 -18.627  0.00  0.00    -0.299 OA
ATOM     28  C   UNL d   1      11.627   0.193 -17.896  0.00  0.00     0.004 A 
ATOM     29  C   UNL d   1      11.060   1.229 -17.113  0.00  0.00     0.019 A 
ATOM     30  C   UNL d   1       7.251  -1.076 -18.143  0.00  0.00     0.304 A 
ENDBRANCH   4  22
TORSDOF 7
