REMARK  6 active torsions:
REMARK  status: ('A' for Active; 'I' for Inactive)
REMARK    1  A    between atoms: O_2  and  N_3 
REMARK    2  A    between atoms: C_4  and  C_5 
REMARK    3  A    between atoms: C_4  and  C_20 
REMARK    4  A    between atoms: C_5  and  C_6 
REMARK    5  A    between atoms: C_6  and  N_7 
REMARK    6  A    between atoms: N_10  and  C_11 
ROOT
ATOM      1  N   UNL d   1      10.423   1.969 -15.165  0.00  0.00     0.139 N 
ATOM      2  C   UNL d   1      10.992   1.938 -16.528  0.00  0.00     0.274 C 
ATOM      3  C   UNL d   1      12.278   2.776 -16.635  0.00  0.00     0.138 C 
ATOM      4  N   UNL d   1      12.039   4.130 -16.153  0.00  0.00    -0.330 N 
ATOM      5  C   UNL d   1      11.471   4.223 -14.813  0.00  0.00     0.136 C 
ATOM      6  C   UNL d   1      10.193   3.371 -14.705  0.00  0.00     0.241 C 
ATOM      7  C   UNL d   1       9.716   3.426 -13.224  0.00  0.00     0.037 C 
ENDROOT
BRANCH   1   8
ATOM      8  C   UNL d   1       9.245   1.104 -15.087  0.00  0.00     0.257 C 
BRANCH   8   9
ATOM      9  C   UNL d   1       8.063   1.590 -15.991  0.00  0.00     0.083 C 
BRANCH   9  10
ATOM     10  C   UNL d   1       6.704   1.151 -15.470  0.00  0.00     0.087 C 
ATOM     11  N   UNL d   1       6.168   1.640 -14.423  0.00  0.00    -0.136 NA
BRANCH  11  12
ATOM     12  O   UNL d   1       6.791   2.788 -14.003  0.00  0.00    -0.234 OA
ATOM     13  C   UNL d   1       6.120   3.358 -12.903  0.00  0.00     0.211 C 
ENDBRANCH  11  12
BRANCH  10  14
ATOM     14  C   UNL d   1       5.993   0.168 -16.311  0.00  0.00     0.016 A 
ATOM     15  C   UNL d   1       5.909   0.363 -17.709  0.00  0.00     0.002 A 
ATOM     16  C   UNL d   1       5.210  -0.563 -18.503  0.00  0.00     0.011 A 
ATOM     17  C   UNL d   1       4.599  -1.676 -17.892  0.00  0.00     0.058 A 
ATOM     18  C   UNL d   1       4.692  -1.864 -16.500  0.00  0.00     0.011 A 
ATOM     19 CL   UNL d   1       3.761  -2.816 -18.849  0.00  0.00    -0.082 Cl
ATOM     20  C   UNL d   1       5.390  -0.946 -15.708  0.00  0.00     0.002 A 
ENDBRANCH  10  14
ENDBRANCH   9  10
ENDBRANCH   8   9
ENDBRANCH   1   8
BRANCH   4  21
ATOM     21  C   UNL d   1      12.310   5.284 -16.916  0.00  0.00     0.140 A 
ATOM     22  N   UNL d   1      12.563   6.426 -16.233  0.00  0.00    -0.227 NA
ATOM     23  C   UNL d   1      12.831   7.543 -16.928  0.00  0.00     0.101 A 
ATOM     24  C   UNL d   1      12.856   7.588 -18.334  0.00  0.00     0.021 A 
ATOM     25  C   UNL d   1      12.582   6.411 -19.041  0.00  0.00     0.005 A 
ATOM     26  C   UNL d   1      12.300   5.242 -18.335  0.00  0.00     0.037 A 
ENDBRANCH   4  21
TORSDOF 6
