REMARK  4 active torsions:
REMARK  status: ('A' for Active; 'I' for Inactive)
REMARK    1  A    between atoms: C_2  and  C_3 
REMARK    2  A    between atoms: C_6  and  C_7 
REMARK    3  A    between atoms: C_12  and  O_13 
REMARK    4  A    between atoms: O_13  and  C_14 
ROOT
ATOM      1  C   UNL d   1      11.534   7.644  -5.104  0.00  0.00     0.022 A 
ATOM      2  C   UNL d   1      11.455   6.614  -4.148  0.00  0.00     0.002 A 
ATOM      3  C   UNL d   1      11.868   6.803  -2.816  0.00  0.00     0.000 A 
ATOM      4  C   UNL d   1      12.412   8.035  -2.424  0.00  0.00     0.002 A 
ATOM      5  C   UNL d   1      12.509   9.071  -3.371  0.00  0.00     0.024 A 
ATOM      6  C   UNL d   1      12.054   8.898  -4.699  0.00  0.00     0.097 A 
ENDROOT
BRANCH   1   7
ATOM      7  C   UNL d   1      11.126   7.401  -6.498  0.00  0.00     0.002 A 
ATOM      8  C   UNL d   1       9.916   6.744  -6.773  0.00  0.00     0.000 A 
ATOM      9  C   UNL d   1       9.475   6.553  -8.094  0.00  0.00     0.003 A 
ATOM     10  C   UNL d   1      10.227   7.067  -9.169  0.00  0.00     0.042 A 
ATOM     11  C   UNL d   1      11.423   7.772  -8.915  0.00  0.00     0.003 A 
ATOM     12  C   UNL d   1      11.882   7.898  -7.606  0.00  0.00     0.000 A 
BRANCH  10  13
ATOM     13  C   UNL d   1       9.774   6.919 -10.556  0.00  0.00     0.234 C 
ATOM     14  O   UNL d   1       9.043   6.005 -10.935  0.00  0.00    -0.283 OA
ENDBRANCH  10  13
ENDBRANCH   1   7
BRANCH   6  15
ATOM     15  O   UNL d   1      12.221   9.910  -5.606  0.00  0.00    -0.298 OA
BRANCH  15  16
ATOM     16  C   UNL d   1      11.120  10.575  -6.011  0.00  0.00     0.346 C 
ATOM     17  F   UNL d   1      10.352   9.805  -6.792  0.00  0.00    -0.198 F 
ENDBRANCH  15  16
ENDBRANCH   6  15
TORSDOF 4
