REMARK  3 active torsions:
REMARK  status: ('A' for Active; 'I' for Inactive)
REMARK    1  A    between atoms: C_6  and  C_7 
REMARK    2  A    between atoms: C_7  and  C_8 
REMARK    3  A    between atoms: C_8  and  N_9 
ROOT
ATOM      1  C   UNL d   1      10.596   6.631  -9.724  0.00  0.00     0.062 C 
ENDROOT
BRANCH   1   2
ATOM      2  C   UNL d   1      10.517   7.470  -8.464  0.00  0.00    -0.018 A 
ATOM      3  C   UNL d   1       9.312   7.530  -7.732  0.00  0.00    -0.004 A 
ATOM      4  C   UNL d   1       9.224   8.311  -6.571  0.00  0.00     0.002 A 
ATOM      5  C   UNL d   1      10.351   9.008  -6.105  0.00  0.00     0.030 A 
ATOM      6  C   UNL d   1      11.565   8.929  -6.809  0.00  0.00     0.140 A 
ATOM      7  F   UNL d   1      12.648   9.587  -6.337  0.00  0.00    -0.204 F 
ATOM      8  C   UNL d   1      11.652   8.166  -7.992  0.00  0.00     0.025 A 
ENDBRANCH   1   2
BRANCH   1   9
ATOM      9  C   UNL d   1       9.418   6.873 -10.691  0.00  0.00     0.255 C 
BRANCH   9  10
ATOM     10  N   UNL d   1       9.476   5.966 -11.837  0.00  0.00     0.133 N 
ATOM     11  C   UNL d   1       8.435   6.163 -12.838  0.00  0.00     0.219 C 
ATOM     12  C   UNL d   1       7.138   5.659 -12.176  0.00  0.00     0.035 C 
ATOM     13  C   UNL d   1       8.925   5.137 -13.866  0.00  0.00     0.035 C 
ATOM     14  C   UNL d   1       7.657   4.549 -11.266  0.00  0.00     0.035 C 
ATOM     15  C   UNL d   1       9.168   4.561 -11.572  0.00  0.00     0.219 C 
ATOM     16  C   UNL d   1       9.433   3.998 -12.971  0.00  0.00     0.035 C 
ENDBRANCH   9  10
ENDBRANCH   1   9
TORSDOF 3
