REMARK  5 active torsions:
REMARK  status: ('A' for Active; 'I' for Inactive)
REMARK       I    between atoms: N_2  and  C_4 
REMARK       I    between atoms: C_4  and  N_6 
REMARK    1  A    between atoms: N_6  and  C_7 
REMARK    2  A    between atoms: C_10  and  C_11 
REMARK    3  A    between atoms: C_11  and  C_12 
REMARK    4  A    between atoms: C_12  and  N_13 
REMARK    5  A    between atoms: N_16  and  C_17 
ROOT
ATOM      1  N   UNL d   1       9.281   5.221 -12.539  0.00  0.00     0.141 N 
ATOM      2  C   UNL d   1       7.832   5.038 -12.657  0.00  0.00     0.274 C 
ATOM      3  C   UNL d   1       7.516   4.469 -14.037  0.00  0.00     0.138 C 
ATOM      4  N   UNL d   1       8.243   3.230 -14.259  0.00  0.00    -0.330 N 
ATOM      5  C   UNL d   1       9.676   3.295 -14.014  0.00  0.00     0.138 C 
ATOM      6  C   UNL d   1       9.913   3.902 -12.631  0.00  0.00     0.274 C 
ENDROOT
BRANCH   1   7
ATOM      7  C   UNL d   1       9.551   5.750 -11.222  0.00  0.00     0.250 C 
BRANCH   7   8
ATOM      8  C   UNL d   1       9.302   7.244 -11.108  0.00  0.00     0.035 C 
BRANCH   8   9
ATOM      9  C   UNL d   1       9.670   7.808  -9.713  0.00  0.00     0.002 C 
ATOM     10  C   UNL d   1       9.225   6.891  -8.540  0.00  0.00     0.002 C 
ATOM     11  C   UNL d   1       9.572   7.456  -7.175  0.00  0.00     0.025 C 
ATOM     12  C   UNL d   1      11.086   7.713  -7.097  0.00  0.00     0.108 C 
ATOM     13  C   UNL d   1      11.547   8.664  -8.214  0.00  0.00     0.025 C 
ATOM     14  C   UNL d   1      11.177   8.124  -9.604  0.00  0.00     0.002 C 
BRANCH  12  15
ATOM     15  N   UNL d   1      11.414   8.281  -5.803  0.00  0.00    -0.221 NA
ATOM     16  C   UNL d   1      11.467   7.594  -4.651  0.00  0.00     0.342 C 
ATOM     17  N   UNL d   1      11.855   8.319  -3.587  0.00  0.00    -0.297 N 
ATOM     18  O   UNL d   1      11.244   6.394  -4.596  0.00  0.00    -0.245 OA
ATOM     19  C   UNL d   1      12.035   7.705  -2.273  0.00  0.00     0.130 C 
ATOM     20  C   UNL d   1      12.116   9.752  -3.654  0.00  0.00     0.130 C 
ENDBRANCH  12  15
ENDBRANCH   8   9
ENDBRANCH   7   8
ENDBRANCH   1   7
BRANCH   4  21
ATOM     21  C   UNL d   1       7.607   2.076 -14.710  0.00  0.00     0.138 A 
ATOM     22  C   UNL d   1       8.096   1.321 -15.797  0.00  0.00     0.036 A 
ATOM     23  C   UNL d   1       7.421   0.190 -16.217  0.00  0.00     0.095 A 
ATOM     24  C   UNL d   1       9.268   1.562 -16.692  0.00  0.00     0.064 C 
ATOM     25  C   UNL d   1       6.261  -0.215 -15.547  0.00  0.00     0.045 A 
ATOM     26  O   UNL d   1       8.014  -0.403 -17.295  0.00  0.00    -0.331 OA
ATOM     27  C   UNL d   1       5.841   0.576 -14.462  0.00  0.00     0.103 A 
ATOM     28  N   UNL d   1       6.472   1.705 -14.066  0.00  0.00    -0.228 NA
ATOM     29  C   UNL d   1       9.244   0.291 -17.564  0.00  0.00     0.154 C 
ENDBRANCH   4  21
TORSDOF 5
