REMARK  3 active torsions:
REMARK  status: ('A' for Active; 'I' for Inactive)
REMARK    1  A    between atoms: C_2  and  C_4 
REMARK    2  A    between atoms: C_15  and  O_16 
REMARK    3  A    between atoms: O_16  and  C_17 
ROOT
ATOM      1  C   UNL d   1      11.608   0.352 -18.921  0.00  0.00     0.184 C 
ATOM      2  O   UNL d   1      10.901   1.135 -19.880  0.00  0.00    -0.218 OA
ATOM      3  C   UNL d   1      11.893   1.258 -17.715  0.00  0.00     0.066 C 
ATOM      4  C   UNL d   1      10.695   1.515 -16.791  0.00  0.00     0.006 A 
ATOM      5  C   UNL d   1      10.770   2.573 -15.854  0.00  0.00     0.130 A 
ATOM      6  O   UNL d   1      11.920   3.329 -15.835  0.00  0.00    -0.190 OA
ATOM      7  C   UNL d   1       9.667   2.863 -14.992  0.00  0.00     0.069 A 
ATOM      8  C   UNL d   1       8.478   2.081 -15.100  0.00  0.00     0.069 A 
ATOM      9  C   UNL d   1       8.415   1.007 -16.045  0.00  0.00     0.132 A 
ATOM     10  O   UNL d   1       7.282   0.250 -16.188  0.00  0.00    -0.190 OA
ATOM     11  C   UNL d   1       9.522   0.723 -16.874  0.00  0.00     0.028 A 
ATOM     12  C   UNL d   1       9.389  -0.392 -17.908  0.00  0.00     0.145 C 
ATOM     13  C   UNL d   1      10.745  -0.834 -18.469  0.00  0.00     0.072 C 
ATOM     14  C   UNL d   1       7.287   2.379 -14.239  0.00  0.00     0.198 C 
ATOM     15  O   UNL d   1       6.361   1.607 -14.047  0.00  0.00    -0.286 OA
ATOM     16  C   UNL d   1       7.282   3.725 -13.593  0.00  0.00     0.042 A 
ATOM     17  C   UNL d   1       6.070   4.207 -13.044  0.00  0.00     0.003 A 
ATOM     18  C   UNL d   1       6.042   5.465 -12.421  0.00  0.00     0.000 A 
ATOM     19  C   UNL d   1       7.208   6.244 -12.348  0.00  0.00     0.000 A 
ATOM     20  C   UNL d   1       8.420   5.761 -12.862  0.00  0.00     0.003 A 
ATOM     21  C   UNL d   1       8.463   4.496 -13.487  0.00  0.00     0.042 A 
ATOM     22  C   UNL d   1       9.762   3.995 -14.011  0.00  0.00     0.198 C 
ATOM     23  O   UNL d   1      10.820   4.540 -13.641  0.00  0.00    -0.286 OA
ENDROOT
BRANCH  12  24
ATOM     24  O   UNL d   1       8.489   0.022 -18.930  0.00  0.00    -0.329 OA
BRANCH  24  25
ATOM     25  C   UNL d   1       8.073  -0.924 -19.862  0.00  0.00     0.238 C 
ATOM     26  O   UNL d   1       7.771  -0.344 -21.090  0.00  0.00    -0.331 OA
ATOM     27  C   UNL d   1       6.720   0.622 -21.073  0.00  0.00     0.150 C 
ATOM     28  C   UNL d   1       5.428  -0.073 -20.585  0.00  0.00     0.216 C 
ATOM     29  C   UNL d   1       6.565   1.240 -22.475  0.00  0.00     0.035 C 
ATOM     30  C   UNL d   1       5.654  -0.776 -19.231  0.00  0.00     0.339 C 
ATOM     31  O   UNL d   1       5.060  -1.012 -21.577  0.00  0.00    -0.219 OA
ATOM     32  C   UNL d   1       6.870  -1.698 -19.316  0.00  0.00     0.103 C 
ATOM     33  N   UNL d   1       4.438  -1.509 -18.799  0.00  0.00     0.619 N 
ENDBRANCH  24  25
ENDBRANCH  12  24
BRANCH   1  34
ATOM     34  C   UNL d   1      12.925  -0.124 -19.556  0.00  0.00     0.179 C 
ATOM     35  C   UNL d   1      13.572   0.777 -20.603  0.00  0.00     0.075 C 
ATOM     36  O   UNL d   1      13.448  -1.205 -19.249  0.00  0.00    -0.293 OA
ENDBRANCH   1  34
TORSDOF 3
