REMARK  7 active torsions:
REMARK  status: ('A' for Active; 'I' for Inactive)
REMARK       I    between atoms: C_2  and  N_3 
REMARK    1  A    between atoms: C_2  and  C_22 
REMARK    2  A    between atoms: N_3  and  C_4 
REMARK    3  A    between atoms: C_4  and  C_5 
REMARK    4  A    between atoms: C_6  and  C_7 
REMARK    5  A    between atoms: C_7  and  N_8 
REMARK    6  A    between atoms: N_11  and  C_12 
REMARK    7  A    between atoms: C_25  and  C_26 
ROOT
ATOM      1  C   UNL d   1       7.155   4.772 -12.837  0.00  0.00    -0.003 C 
ATOM      2  C   UNL d   1       7.343   4.022 -13.921  0.00  0.00     0.006 C 
ENDROOT
BRANCH   1   3
ATOM      3  C   UNL d   1       7.733   6.160 -12.691  0.00  0.00     0.155 C 
BRANCH   3   4
ATOM      4  N   UNL d   1       8.534   6.239 -11.486  0.00  0.00    -0.229 NA
ATOM      5  C   UNL d   1       9.375   7.253 -11.230  0.00  0.00     0.275 C 
ATOM      6  O   UNL d   1       9.667   8.094 -12.077  0.00  0.00    -0.266 OA
BRANCH   5   7
ATOM      7  C   UNL d   1       9.883   7.363  -9.816  0.00  0.00     0.058 A 
ATOM      8  C   UNL d   1      10.833   8.354  -9.475  0.00  0.00     0.005 A 
ATOM      9  C   UNL d   1      11.255   8.522  -8.136  0.00  0.00     0.000 A 
ATOM     10  C   UNL d   1      10.746   7.703  -7.107  0.00  0.00     0.000 A 
ATOM     11  C   UNL d   1       9.800   6.716  -7.451  0.00  0.00     0.000 A 
ATOM     12  C   UNL d   1       9.382   6.535  -8.786  0.00  0.00     0.005 A 
BRANCH  10  13
ATOM     13  C   UNL d   1      11.199   7.864  -5.707  0.00  0.00     0.003 A 
ATOM     14  C   UNL d   1      11.436   9.135  -5.134  0.00  0.00     0.021 A 
ATOM     15  C   UNL d   1      11.880   9.210  -3.796  0.00  0.00     0.099 A 
ATOM     16  N   UNL d   1      12.096   8.130  -3.021  0.00  0.00    -0.242 NA
ATOM     17  C   UNL d   1      11.866   6.917  -3.559  0.00  0.00     0.099 A 
ATOM     18  C   UNL d   1      11.427   6.742  -4.888  0.00  0.00     0.021 A 
ENDBRANCH  10  13
ENDBRANCH   5   7
ENDBRANCH   3   4
ENDBRANCH   1   3
BRANCH   2  19
ATOM     19  C   UNL d   1       6.845   2.594 -14.075  0.00  0.00     0.276 C 
BRANCH  19  20
ATOM     20  N   UNL d   1       7.817   1.700 -14.712  0.00  0.00     0.145 N 
ATOM     21  C   UNL d   1       7.680   1.780 -16.165  0.00  0.00     0.275 C 
ATOM     22  C   UNL d   1       8.626   0.787 -16.862  0.00  0.00     0.137 C 
ATOM     23  N   UNL d   1       9.999   0.961 -16.412  0.00  0.00    -0.344 N 
ATOM     24  C   UNL d   1      10.185   0.973 -14.972  0.00  0.00     0.137 C 
ATOM     25  C   UNL d   1       9.215   1.980 -14.343  0.00  0.00     0.275 C 
BRANCH  23  26
ATOM     26  C   UNL d   1      11.049   1.183 -17.316  0.00  0.00     0.068 A 
ATOM     27  C   UNL d   1      11.307   0.284 -18.377  0.00  0.00     0.084 A 
ATOM     28  C   UNL d   1      12.376   0.529 -19.270  0.00  0.00     0.070 A 
ATOM     29 CL   UNL d   1      10.354  -1.156 -18.562  0.00  0.00    -0.080 Cl
ATOM     30  C   UNL d   1      13.188   1.658 -19.100  0.00  0.00     0.012 A 
ATOM     31 CL   UNL d   1      12.724  -0.558 -20.562  0.00  0.00    -0.081 Cl
ATOM     32  C   UNL d   1      12.946   2.549 -18.047  0.00  0.00     0.002 A 
ATOM     33  C   UNL d   1      11.880   2.317 -17.155  0.00  0.00     0.018 A 
ENDBRANCH  23  26
ENDBRANCH  19  20
ENDBRANCH   2  19
TORSDOF 7
