REMARK  7 active torsions:
REMARK  status: ('A' for Active; 'I' for Inactive)
REMARK    1  A    between atoms: C_2  and  N_4 
REMARK    2  A    between atoms: N_7  and  C_8 
REMARK    3  A    between atoms: C_8  and  C_9 
REMARK    4  A    between atoms: C_9  and  N_10 
REMARK    5  A    between atoms: N_13  and  C_14 
REMARK    6  A    between atoms: C_18  and  O_19 
REMARK    7  A    between atoms: O_19  and  C_20 
ROOT
ATOM      1  N   UNL d   1       8.339   6.282 -12.536  0.00  0.00    -0.298 N 
ATOM      2  C   UNL d   1       6.923   6.017 -12.376  0.00  0.00     0.131 A 
ATOM      3  C   UNL d   1       6.767   4.692 -13.125  0.00  0.00     0.135 A 
ATOM      4  N   UNL d   1       8.109   4.401 -13.638  0.00  0.00    -0.280 N 
ATOM      5  C   UNL d   1       8.996   5.325 -13.216  0.00  0.00     0.328 A 
ATOM      6  O   UNL d   1      10.210   5.327 -13.421  0.00  0.00    -0.247 OA
ENDROOT
BRANCH   1   7
ATOM      7  C   UNL d   1       8.969   7.492 -12.028  0.00  0.00     0.141 C 
BRANCH   7   8
ATOM      8  C   UNL d   1       9.923   7.136 -10.883  0.00  0.00     0.274 C 
BRANCH   8   9
ATOM      9  N   UNL d   1      10.683   8.273 -10.384  0.00  0.00     0.143 N 
ATOM     10  C   UNL d   1       9.890   9.234  -9.641  0.00  0.00     0.286 C 
ATOM     11  C   UNL d   1       9.381   8.677  -8.303  0.00  0.00     0.285 C 
ATOM     12  N   UNL d   1      10.470   8.170  -7.449  0.00  0.00     0.139 N 
ATOM     13  C   UNL d   1      11.319   7.249  -8.215  0.00  0.00     0.285 C 
ATOM     14  C   UNL d   1      11.806   7.871  -9.536  0.00  0.00     0.286 C 
BRANCH  12  15
ATOM     15  C   UNL d   1       9.965   7.576  -6.210  0.00  0.00     0.220 C 
ATOM     16  C   UNL d   1      11.075   7.154  -5.222  0.00  0.00     0.035 C 
ATOM     17  C   UNL d   1       8.973   6.421  -6.435  0.00  0.00     0.035 C 
ENDBRANCH  12  15
ENDBRANCH   8   9
ENDBRANCH   7   8
ENDBRANCH   1   7
BRANCH   4  18
ATOM     18  C   UNL d   1       8.429   3.251 -14.438  0.00  0.00     0.066 A 
ATOM     19  C   UNL d   1       7.595   2.112 -14.380  0.00  0.00     0.042 A 
ATOM     20  C   UNL d   1       7.883   0.948 -15.126  0.00  0.00     0.103 A 
ATOM     21  C   UNL d   1       9.028   0.924 -15.952  0.00  0.00     0.025 A 
ATOM     22  C   UNL d   1       9.849   2.059 -16.043  0.00  0.00     0.004 A 
ATOM     23  C   UNL d   1       9.541   3.223 -15.311  0.00  0.00     0.018 A 
BRANCH  20  24
ATOM     24  O   UNL d   1       7.093  -0.180 -15.124  0.00  0.00    -0.253 OA
BRANCH  24  25
ATOM     25  C   UNL d   1       6.111  -0.385 -14.199  0.00  0.00     0.530 C 
ATOM     26  F   UNL d   1       5.517  -1.584 -14.424  0.00  0.00    -0.144 F 
ATOM     27  F   UNL d   1       6.608  -0.412 -12.941  0.00  0.00    -0.144 F 
ATOM     28  F   UNL d   1       5.136   0.549 -14.283  0.00  0.00    -0.144 F 
ENDBRANCH  24  25
ENDBRANCH  20  24
ENDBRANCH   4  18
TORSDOF 7
