REMARK  6 active torsions:
REMARK  status: ('A' for Active; 'I' for Inactive)
REMARK       I    between atoms: C_2  and  N_3 
REMARK    1  A    between atoms: C_2  and  C_18 
REMARK    2  A    between atoms: N_3  and  C_4 
REMARK    3  A    between atoms: C_4  and  C_5 
REMARK    4  A    between atoms: N_9  and  C_10 
REMARK    5  A    between atoms: C_10  and  C_11 
REMARK    6  A    between atoms: C_11  and  C_12 
ROOT
ATOM      1  C   UNL d   1       9.378   7.030 -10.504  0.00  0.00     0.243 C 
ATOM      2  C   UNL d   1       9.469   8.540 -10.787  0.00  0.00     0.037 C 
ATOM      3  C   UNL d   1       8.620   8.743 -12.034  0.00  0.00     0.037 C 
ATOM      4  C   UNL d   1       8.138   7.343 -12.386  0.00  0.00     0.250 C 
ATOM      5  N   UNL d   1       9.136   6.449 -11.818  0.00  0.00     0.137 N 
ENDROOT
BRANCH   1   6
ATOM      6  C   UNL d   1      10.627   6.461  -9.853  0.00  0.00     0.162 C 
BRANCH   6   7
ATOM      7  N   UNL d   1      11.078   7.275  -8.742  0.00  0.00    -0.236 NA
ATOM      8  C   UNL d   1      10.600   7.201  -7.502  0.00  0.00     0.251 C 
ATOM      9  O   UNL d   1       9.669   6.460  -7.182  0.00  0.00    -0.271 OA
BRANCH   8  10
ATOM     10  C   UNL d   1      11.311   8.082  -6.469  0.00  0.00     0.081 C 
ATOM     11  C   UNL d   1      10.507   9.364  -6.219  0.00  0.00     0.009 C 
ATOM     12  C   UNL d   1      11.215  10.248  -5.186  0.00  0.00     0.001 C 
ATOM     13  C   UNL d   1      11.486   9.495  -3.864  0.00  0.00     0.000 C 
ATOM     14  C   UNL d   1      12.257   8.185  -4.090  0.00  0.00     0.001 C 
ATOM     15  C   UNL d   1      11.569   7.308  -5.156  0.00  0.00     0.009 C 
ENDBRANCH   8  10
ENDBRANCH   6   7
ENDBRANCH   1   6
BRANCH   5  16
ATOM     16  C   UNL d   1       8.610   5.084 -11.755  0.00  0.00     0.255 C 
BRANCH  16  17
ATOM     17  C   UNL d   1       9.612   4.096 -12.372  0.00  0.00     0.062 C 
BRANCH  17  18
ATOM     18  C   UNL d   1       9.105   3.289 -13.552  0.00  0.00    -0.020 A 
ATOM     19  C   UNL d   1      10.021   2.609 -14.383  0.00  0.00    -0.004 A 
ATOM     20  C   UNL d   1       9.585   1.829 -15.468  0.00  0.00    -0.000 A 
ATOM     21  C   UNL d   1       8.199   1.715 -15.729  0.00  0.00    -0.000 A 
ATOM     22  C   UNL d   1       7.285   2.364 -14.880  0.00  0.00    -0.000 A 
ATOM     23  C   UNL d   1       7.728   3.154 -13.802  0.00  0.00    -0.004 A 
ENDBRANCH  17  18
ENDBRANCH  16  17
ENDBRANCH   5  16
TORSDOF 6
