REMARK  6 active torsions:
REMARK  status: ('A' for Active; 'I' for Inactive)
REMARK    1  A    between atoms: C_4  and  C_5 
REMARK    2  A    between atoms: C_11  and  C_12 
REMARK    3  A    between atoms: N_15  and  C_16 
REMARK    4  A    between atoms: C_16  and  C_17 
REMARK    5  A    between atoms: C_17  and  N_18 
REMARK    6  A    between atoms: N_27  and  C_28 
ROOT
ATOM      1  C   UNL d   1      10.935   3.469 -16.427  0.00  0.00     0.021 A 
ATOM      2  C   UNL d   1      10.469   2.507 -17.342  0.00  0.00     0.003 A 
ATOM      3  C   UNL d   1       9.247   1.846 -17.119  0.00  0.00     0.018 A 
ATOM      4  C   UNL d   1       8.482   2.148 -15.974  0.00  0.00     0.064 A 
ATOM      5  C   UNL d   1       8.921   3.121 -15.030  0.00  0.00     0.014 A 
ATOM      6  C   UNL d   1      10.149   3.781 -15.301  0.00  0.00     0.003 A 
ATOM      7  C   UNL d   1       7.947   3.191 -13.988  0.00  0.00    -0.003 A 
ATOM      8  C   UNL d   1       6.946   2.314 -14.320  0.00  0.00     0.076 A 
ATOM      9  N   UNL d   1       7.253   1.681 -15.515  0.00  0.00    -0.305 N 
ENDROOT
BRANCH   7  10
ATOM     10  C   UNL d   1       7.984   4.035 -12.720  0.00  0.00     0.028 C 
ATOM     11  C   UNL d   1       9.324   3.957 -11.990  0.00  0.00     0.040 C 
ATOM     12  C   UNL d   1       9.281   4.839 -10.742  0.00  0.00     0.251 C 
ATOM     13  N   UNL d   1       9.194   6.218 -11.212  0.00  0.00     0.139 N 
ATOM     14  C   UNL d   1       7.847   6.387 -11.763  0.00  0.00     0.251 C 
ATOM     15  C   UNL d   1       7.667   5.493 -13.008  0.00  0.00     0.040 C 
BRANCH  13  16
ATOM     16  C   UNL d   1       9.350   7.150 -10.083  0.00  0.00     0.274 C 
BRANCH  16  17
ATOM     17  C   UNL d   1      10.758   7.191  -9.508  0.00  0.00     0.141 C 
BRANCH  17  18
ATOM     18  N   UNL d   1      10.808   8.031  -8.310  0.00  0.00    -0.297 N 
ATOM     19  C   UNL d   1      10.262   7.757  -7.118  0.00  0.00     0.342 A 
ATOM     20  N   UNL d   1      10.616   8.713  -6.270  0.00  0.00    -0.217 NA
ATOM     21  O   UNL d   1       9.577   6.791  -6.821  0.00  0.00    -0.245 OA
ATOM     22  C   UNL d   1      11.509   9.697  -6.848  0.00  0.00     0.155 A 
ATOM     23  C   UNL d   1      11.673   9.190  -8.286  0.00  0.00     0.132 A 
ENDBRANCH  17  18
ENDBRANCH  16  17
ENDBRANCH  13  16
ENDBRANCH   7  10
BRANCH   9  24
ATOM     24  C   UNL d   1       6.424   0.724 -16.157  0.00  0.00     0.064 A 
ATOM     25  C   UNL d   1       5.759  -0.271 -15.402  0.00  0.00     0.020 A 
ATOM     26  C   UNL d   1       4.932  -1.212 -16.047  0.00  0.00     0.031 A 
ATOM     27  C   UNL d   1       4.764  -1.167 -17.445  0.00  0.00     0.140 A 
ATOM     28  C   UNL d   1       5.411  -0.171 -18.198  0.00  0.00     0.031 A 
ATOM     29  F   UNL d   1       3.981  -2.070 -18.072  0.00  0.00    -0.204 F 
ATOM     30  C   UNL d   1       6.222   0.781 -17.554  0.00  0.00     0.020 A 
ENDBRANCH   9  24
BRANCH   1  31
ATOM     31  C   UNL d   1      12.216   4.139 -16.636  0.00  0.00     0.123 A 
ATOM     32  C   UNL d   1      13.197   3.894 -17.554  0.00  0.00     0.118 A 
ATOM     33  N   UNL d   1      14.153   4.847 -17.288  0.00  0.00    -0.228 N 
ATOM     34  C   UNL d   1      15.425   5.061 -17.932  0.00  0.00     0.156 C 
ATOM     35  N   UNL d   1      13.775   5.654 -16.273  0.00  0.00    -0.064 NA
ATOM     36  N   UNL d   1      12.634   5.219 -15.849  0.00  0.00    -0.129 NA
ENDBRANCH   1  31
TORSDOF 6
