REMARK  5 active torsions:
REMARK  status: ('A' for Active; 'I' for Inactive)
REMARK    1  A    between atoms: C_2  and  C_3 
REMARK    2  A    between atoms: C_3  and  C_4 
REMARK    3  A    between atoms: C_4  and  C_5 
REMARK    4  A    between atoms: C_4  and  C_8 
REMARK    5  A    between atoms: C_5  and  C_6 
ROOT
ATOM      1  C   UNL d   1      11.117   8.082  -5.909  0.00  0.00     0.087 C 
ENDROOT
BRANCH   1   2
ATOM      2  C   UNL d   1       9.898   7.690  -6.784  0.00  0.00     0.011 C 
BRANCH   2   3
ATOM      3  C   UNL d   1      10.066   6.420  -7.635  0.00  0.00     0.001 C 
ATOM      4  C   UNL d   1       8.740   5.964  -8.258  0.00  0.00     0.000 C 
ENDBRANCH   2   3
ENDBRANCH   1   2
BRANCH   1   5
ATOM      5  C   UNL d   1      11.364   7.070  -4.770  0.00  0.00     0.011 C 
BRANCH   5   6
ATOM      6  C   UNL d   1      12.271   7.479  -3.588  0.00  0.00     0.001 C 
ATOM      7  C   UNL d   1      12.286   6.473  -2.437  0.00  0.00     0.000 C 
ENDBRANCH   5   6
ENDBRANCH   1   5
BRANCH   1   8
ATOM      8  C   UNL d   1      11.011   9.564  -5.512  0.00  0.00     0.185 C 
ATOM      9  O   UNL d   1      10.794  10.004  -4.388  0.00  0.00    -0.647 OA
ATOM     10  O   UNL d   1      11.114  10.353  -6.602  0.00  0.00    -0.647 OA
ENDBRANCH   1   8
TORSDOF 5
