REMARK  7 active torsions:
REMARK  status: ('A' for Active; 'I' for Inactive)
REMARK    1  A    between atoms: C_3  and  C_4 
REMARK    2  A    between atoms: C_4  and  C_5 
REMARK       I    between atoms: C_5  and  N_7 
REMARK    3  A    between atoms: N_7  and  C_8 
REMARK    4  A    between atoms: C_11  and  C_12 
REMARK    5  A    between atoms: C_12  and  C_13 
REMARK    6  A    between atoms: C_13  and  N_14 
REMARK    7  A    between atoms: C_17  and  C_18 
ROOT
ATOM      1  N   UNL d   1       9.122   6.228  -9.466  0.00  0.00     0.137 N 
ATOM      2  C   UNL d   1      10.581   6.304  -9.393  0.00  0.00     0.251 C 
ATOM      3  C   UNL d   1      11.030   7.301  -8.335  0.00  0.00     0.040 C 
ATOM      4  C   UNL d   1      10.485   6.894  -6.964  0.00  0.00     0.026 C 
ATOM      5  C   UNL d   1       8.962   6.678  -7.052  0.00  0.00     0.040 C 
ATOM      6  C   UNL d   1       8.617   5.710  -8.192  0.00  0.00     0.251 C 
ENDROOT
BRANCH   1   7
ATOM      7  C   UNL d   1       8.686   5.320 -10.523  0.00  0.00     0.250 C 
BRANCH   7   8
ATOM      8  C   UNL d   1       9.188   5.714 -11.919  0.00  0.00     0.035 C 
BRANCH   8   9
ATOM      9  C   UNL d   1       9.102   4.579 -12.959  0.00  0.00     0.002 C 
ATOM     10  C   UNL d   1       9.247   5.162 -14.355  0.00  0.00     0.002 C 
ATOM     11  C   UNL d   1       9.230   4.082 -15.436  0.00  0.00     0.024 C 
ATOM     12  C   UNL d   1      10.327   3.029 -15.215  0.00  0.00     0.106 C 
ATOM     13  C   UNL d   1      10.236   2.445 -13.796  0.00  0.00     0.024 C 
ATOM     14  C   UNL d   1      10.236   3.567 -12.758  0.00  0.00     0.002 C 
BRANCH  12  15
ATOM     15  N   UNL d   1      10.259   1.973 -16.218  0.00  0.00    -0.240 NA
ATOM     16  C   UNL d   1       9.226   1.139 -16.429  0.00  0.00     0.256 C 
ATOM     17  O   UNL d   1       8.175   1.175 -15.795  0.00  0.00    -0.270 OA
BRANCH  16  18
ATOM     18  C   UNL d   1       9.411   0.093 -17.521  0.00  0.00     0.115 C 
BRANCH  18  19
ATOM     19  C   UNL d   1       8.116  -0.474 -18.059  0.00  0.00    -0.021 C 
ATOM     20  C   UNL d   1       7.574  -0.131 -19.241  0.00  0.00    -0.030 C 
ATOM     21  C   UNL d   1       6.276  -0.690 -19.774  0.00  0.00     0.030 C 
ENDBRANCH  18  19
ENDBRANCH  16  18
ENDBRANCH  12  15
ENDBRANCH   8   9
ENDBRANCH   7   8
ENDBRANCH   1   7
BRANCH   4  22
ATOM     22  C   UNL d   1      10.844   7.933  -5.916  0.00  0.00    -0.024 A 
ATOM     23  C   UNL d   1      11.480   7.609  -4.696  0.00  0.00    -0.001 A 
ATOM     24  C   UNL d   1      11.796   8.559  -3.736  0.00  0.00     0.090 A 
ATOM     25  C   UNL d   1      11.880   6.279  -4.202  0.00  0.00     0.061 A 
ATOM     26  C   UNL d   1      11.477   9.902  -3.934  0.00  0.00     0.024 A 
ATOM     27  O   UNL d   1      12.381   8.034  -2.618  0.00  0.00    -0.331 OA
ATOM     28  C   UNL d   1      10.857  10.257  -5.149  0.00  0.00     0.002 A 
ATOM     29  C   UNL d   1      10.548   9.292  -6.127  0.00  0.00    -0.004 A 
ATOM     30  C   UNL d   1      12.502   6.623  -2.828  0.00  0.00     0.154 A 
ENDBRANCH   4  22
TORSDOF 7
