REMARK  11 active torsions:
REMARK  status: ('A' for Active; 'I' for Inactive)
REMARK    1  A    between atoms: C_2  and  C_3 
REMARK    2  A    between atoms: C_3  and  N_4 
REMARK    3  A    between atoms: N_4  and  C_5 
REMARK    4  A    between atoms: N_4  and  C_24 
REMARK    5  A    between atoms: C_5  and  C_6 
REMARK    6  A    between atoms: C_6  and  C_7 
REMARK    7  A    between atoms: C_7  and  C_8 
REMARK    8  A    between atoms: C_8  and  N_9 
REMARK       I    between atoms: N_9  and  C_10 
REMARK    9  A    between atoms: C_10  and  C_12 
REMARK   10  A    between atoms: C_15  and  C_16 
REMARK   11  A    between atoms: C_30  and  C_31 
ROOT
ATOM      1  C   UNL d   1       8.647   4.159 -13.829  0.00  0.00     0.037 C 
ENDROOT
BRANCH   1   2
ATOM      2  C   UNL d   1       8.578   2.628 -14.051  0.00  0.00     0.250 C 
BRANCH   2   3
ATOM      3  N   UNL d   1       8.571   2.201 -15.461  0.00  0.00     0.135 N 
BRANCH   3   4
ATOM      4  C   UNL d   1       8.383   0.739 -15.570  0.00  0.00     0.250 C 
BRANCH   4   5
ATOM      5  C   UNL d   1       7.195   0.190 -14.736  0.00  0.00     0.035 C 
ATOM      6  C   UNL d   1       5.868   0.908 -15.046  0.00  0.00     0.002 C 
ENDBRANCH   4   5
ENDBRANCH   3   4
BRANCH   3   7
ATOM      7  C   UNL d   1       9.739   2.646 -16.254  0.00  0.00     0.227 C 
ATOM      8  C   UNL d   1       9.448   4.034 -16.925  0.00  0.00     0.079 C 
ATOM      9  C   UNL d   1      10.689   4.654 -17.474  0.00  0.00     0.062 A 
ATOM     10  N   UNL d   1      11.951   4.211 -17.112  0.00  0.00    -0.255 N 
ATOM     11  C   UNL d   1      10.901   5.738 -18.274  0.00  0.00     0.076 A 
ATOM     12  C   UNL d   1      12.283   3.080 -16.265  0.00  0.00     0.129 C 
ATOM     13  N   UNL d   1      12.939   4.940 -17.675  0.00  0.00    -0.168 NA
ATOM     14  C   UNL d   1      11.079   2.583 -15.455  0.00  0.00     0.060 C 
ATOM     15  C   UNL d   1      12.309   5.862 -18.392  0.00  0.00     0.125 A 
BRANCH  11  16
ATOM     16  C   UNL d   1       9.886   6.612 -18.891  0.00  0.00     0.237 C 
ATOM     17  O   UNL d   1       8.671   6.447 -18.786  0.00  0.00    -0.283 OA
ENDBRANCH  11  16
ENDBRANCH   3   7
ENDBRANCH   2   3
ENDBRANCH   1   2
BRANCH   1  18
ATOM     18  C   UNL d   1       8.998   4.487 -12.376  0.00  0.00     0.029 C 
BRANCH  18  19
ATOM     19  C   UNL d   1       9.050   6.009 -12.215  0.00  0.00     0.129 C 
BRANCH  19  20
ATOM     20  N   UNL d   1       9.516   6.337 -10.882  0.00  0.00    -0.234 NA
ATOM     21  C   UNL d   1       9.854   7.580 -10.479  0.00  0.00     0.275 C 
ATOM     22  O   UNL d   1       9.807   8.551 -11.206  0.00  0.00    -0.266 OA
BRANCH  21  23
ATOM     23  C   UNL d   1      10.276   7.659  -9.040  0.00  0.00     0.058 A 
ATOM     24  C   UNL d   1      11.309   8.557  -8.661  0.00  0.00     0.005 A 
ATOM     25  C   UNL d   1      11.682   8.651  -7.306  0.00  0.00     0.000 A 
ATOM     26  C   UNL d   1      11.050   7.875  -6.313  0.00  0.00     0.000 A 
ATOM     27  C   UNL d   1      10.007   6.998  -6.708  0.00  0.00     0.000 A 
ATOM     28  C   UNL d   1       9.627   6.905  -8.058  0.00  0.00     0.005 A 
BRANCH  26  29
ATOM     29  C   UNL d   1      11.454   7.955  -4.902  0.00  0.00     0.000 A 
ATOM     30  C   UNL d   1      11.696   9.209  -4.295  0.00  0.00     0.000 A 
ATOM     31  C   UNL d   1      12.097   9.289  -2.949  0.00  0.00     0.000 A 
ATOM     32  C   UNL d   1      12.283   8.123  -2.187  0.00  0.00     0.000 A 
ATOM     33  C   UNL d   1      12.040   6.870  -2.774  0.00  0.00     0.000 A 
ATOM     34  C   UNL d   1      11.632   6.790  -4.120  0.00  0.00     0.000 A 
ENDBRANCH  26  29
ENDBRANCH  21  23
ENDBRANCH  19  20
ENDBRANCH  18  19
ENDBRANCH   1  18
TORSDOF 11
