REMARK  5 active torsions:
REMARK  status: ('A' for Active; 'I' for Inactive)
REMARK    1  A    between atoms: N_11  and  C_12 
REMARK    2  A    between atoms: C_12  and  C_13 
REMARK    3  A    between atoms: C_13  and  C_14 
REMARK    4  A    between atoms: C_17  and  N_18 
REMARK       I    between atoms: N_18  and  C_19 
REMARK    5  A    between atoms: C_19  and  C_21 
ROOT
ATOM      1  N   UNL d   1      12.036   9.574  -3.805  0.00  0.00    -0.191 NA
ATOM      2  C   UNL d   1      11.604   9.084  -4.772  0.00  0.00     0.101 C 
ATOM      3  C   UNL d   1      11.054   8.474  -5.988  0.00  0.00     0.068 A 
ATOM      4  C   UNL d   1      10.449   7.200  -5.925  0.00  0.00     0.010 A 
ATOM      5  C   UNL d   1       9.904   6.600  -7.068  0.00  0.00    -0.002 A 
ATOM      6  C   UNL d   1       9.976   7.229  -8.311  0.00  0.00     0.007 A 
ATOM      7  C   UNL d   1      10.585   8.502  -8.396  0.00  0.00    -0.022 A 
ATOM      8  C   UNL d   1      11.103   9.123  -7.239  0.00  0.00     0.006 A 
ATOM      9  C   UNL d   1      10.673   9.156  -9.766  0.00  0.00     0.061 C 
ATOM     10  C   UNL d   1       9.679   8.556 -10.789  0.00  0.00     0.255 C 
ATOM     11  N   UNL d   1       9.848   7.103 -10.810  0.00  0.00     0.142 N 
ATOM     12  C   UNL d   1       9.350   6.575  -9.532  0.00  0.00     0.276 C 
ENDROOT
BRANCH  11  13
ATOM     13  C   UNL d   1       9.093   6.545 -11.922  0.00  0.00     0.251 C 
BRANCH  13  14
ATOM     14  C   UNL d   1       9.664   5.167 -12.324  0.00  0.00     0.035 C 
BRANCH  14  15
ATOM     15  C   UNL d   1       8.832   4.465 -13.411  0.00  0.00     0.002 C 
ATOM     16  C   UNL d   1       7.433   4.101 -12.867  0.00  0.00     0.002 C 
ATOM     17  C   UNL d   1       6.621   3.259 -13.875  0.00  0.00     0.024 C 
ATOM     18  C   UNL d   1       7.424   2.057 -14.436  0.00  0.00     0.107 C 
ATOM     19  C   UNL d   1       8.787   2.476 -15.001  0.00  0.00     0.024 C 
ATOM     20  C   UNL d   1       9.596   3.226 -13.945  0.00  0.00     0.002 C 
BRANCH  18  21
ATOM     21  N   UNL d   1       6.684   1.353 -15.473  0.00  0.00    -0.236 NA
ATOM     22  C   UNL d   1       5.896   0.285 -15.283  0.00  0.00     0.275 C 
ATOM     23  O   UNL d   1       5.565  -0.133 -14.172  0.00  0.00    -0.266 OA
BRANCH  22  24
ATOM     24  C   UNL d   1       5.434  -0.384 -16.545  0.00  0.00     0.058 A 
ATOM     25  C   UNL d   1       6.188  -0.261 -17.739  0.00  0.00     0.005 A 
ATOM     26  C   UNL d   1       5.812  -0.955 -18.901  0.00  0.00     0.000 A 
ATOM     27  C   UNL d   1       4.674  -1.795 -18.877  0.00  0.00     0.000 A 
ATOM     28  C   UNL d   1       6.585  -0.838 -20.075  0.00  0.00     0.000 A 
ATOM     29  C   UNL d   1       3.920  -1.921 -17.694  0.00  0.00     0.000 A 
ATOM     30  C   UNL d   1       4.307  -2.501 -20.038  0.00  0.00     0.000 A 
ATOM     31  C   UNL d   1       4.292  -1.214 -16.534  0.00  0.00     0.005 A 
ATOM     32  C   UNL d   1       5.064  -2.361 -21.218  0.00  0.00     0.000 A 
ATOM     33  C   UNL d   1       6.203  -1.532 -21.236  0.00  0.00     0.000 A 
ENDBRANCH  22  24
ENDBRANCH  18  21
ENDBRANCH  14  15
ENDBRANCH  13  14
ENDBRANCH  11  13
TORSDOF 5
