REMARK  1 active torsions:
REMARK  status: ('A' for Active; 'I' for Inactive)
REMARK    1  A    between atoms: C_18  and  C_19 
ROOT
ATOM      1  C   UNL d   1       6.740  -0.497 -13.648  0.00  0.00     0.285 C 
ATOM      2  N   UNL d   1       6.324   0.297 -14.800  0.00  0.00     0.138 N 
ATOM      3  C   UNL d   1       6.638  -0.353 -16.074  0.00  0.00     0.255 C 
ATOM      4  C   UNL d   1       8.133  -0.399 -16.470  0.00  0.00     0.061 C 
ATOM      5  C   UNL d   1       8.649   0.901 -17.032  0.00  0.00    -0.023 A 
ATOM      6  C   UNL d   1       9.086   0.931 -18.375  0.00  0.00     0.009 A 
ATOM      7  C   UNL d   1       9.517   2.129 -18.964  0.00  0.00     0.083 A 
ATOM      8 CL   UNL d   1      10.032   2.128 -20.612  0.00  0.00    -0.080 Cl
ATOM      9  C   UNL d   1       9.511   3.315 -18.203  0.00  0.00     0.141 A 
ATOM     10  O   UNL d   1       9.879   4.506 -18.765  0.00  0.00    -0.189 OA
ATOM     11  C   UNL d   1       9.111   3.273 -16.854  0.00  0.00     0.024 A 
ATOM     12  C   UNL d   1       8.684   2.073 -16.243  0.00  0.00    -0.018 A 
ATOM     13  C   UNL d   1       8.204   2.027 -14.778  0.00  0.00     0.075 C 
ATOM     14  C   UNL d   1       8.598   3.278 -13.998  0.00  0.00    -0.020 A 
ATOM     15  C   UNL d   1       9.979   3.485 -13.815  0.00  0.00    -0.004 A 
ATOM     16  C   UNL d   1      10.431   4.636 -13.174  0.00  0.00    -0.000 A 
ATOM     17  C   UNL d   1       9.516   5.580 -12.676  0.00  0.00     0.003 A 
ATOM     18  C   UNL d   1       8.133   5.398 -12.846  0.00  0.00     0.038 A 
ATOM     19  C   UNL d   1       7.658   4.208 -13.470  0.00  0.00    -0.022 A 
ATOM     20  C   UNL d   1       6.174   3.900 -13.548  0.00  0.00     0.028 C 
ATOM     21  C   UNL d   1       5.936   2.402 -13.554  0.00  0.00     0.039 C 
ATOM     22  C   UNL d   1       6.686   1.718 -14.718  0.00  0.00     0.228 C 
ENDROOT
BRANCH  18  23
ATOM     23  C   UNL d   1       7.289   6.514 -12.344  0.00  0.00     0.234 C 
ATOM     24  O   UNL d   1       6.072   6.638 -12.459  0.00  0.00    -0.283 OA
ENDBRANCH  18  23
TORSDOF 1
