REMARK  4 active torsions:
REMARK  status: ('A' for Active; 'I' for Inactive)
REMARK    1  A    between atoms: C_2  and  C_3 
REMARK    2  A    between atoms: C_3  and  C_4 
REMARK    3  A    between atoms: C_4  and  N_5 
REMARK    4  A    between atoms: N_5  and  C_6 
ROOT
ATOM      1  C   UNL d   1      10.690   8.276  -7.977  0.00  0.00     0.261 C 
ATOM      2  C   UNL d   1      10.295   6.895  -7.372  0.00  0.00     0.041 C 
ATOM      3  C   UNL d   1      11.248   6.555  -6.243  0.00  0.00     0.030 C 
ATOM      4  C   UNL d   1      11.442   7.643  -5.223  0.00  0.00     0.002 A 
ATOM      5  C   UNL d   1      11.944   7.294  -3.963  0.00  0.00     0.136 A 
ATOM      6  F   UNL d   1      12.291   6.002  -3.667  0.00  0.00    -0.205 F 
ATOM      7  C   UNL d   1      12.170   8.284  -3.009  0.00  0.00     0.029 A 
ATOM      8  C   UNL d   1      11.853   9.610  -3.320  0.00  0.00     0.002 A 
ATOM      9  C   UNL d   1      11.312   9.966  -4.574  0.00  0.00    -0.004 A 
ATOM     10  C   UNL d   1      11.120   8.979  -5.549  0.00  0.00    -0.022 A 
ATOM     11  C   UNL d   1      10.537   9.374  -6.907  0.00  0.00     0.062 C 
ENDROOT
BRANCH   1  12
ATOM     12  N   UNL d   1       9.870   8.601  -9.146  0.00  0.00     0.337 N 
BRANCH  12  13
ATOM     13  C   UNL d   1      10.204   7.800 -10.319  0.00  0.00     0.290 C 
BRANCH  13  14
ATOM     14  C   UNL d   1       9.569   6.389 -10.250  0.00  0.00     0.038 C 
BRANCH  14  15
ATOM     15  C   UNL d   1       9.296   5.715 -11.573  0.00  0.00     0.002 C 
ATOM     16  C   UNL d   1       8.164   6.386 -12.342  0.00  0.00     0.000 C 
ENDBRANCH  14  15
ENDBRANCH  13  14
ENDBRANCH  12  13
ENDBRANCH   1  12
TORSDOF 4
