REMARK  3 active torsions:
REMARK  status: ('A' for Active; 'I' for Inactive)
REMARK    1  A    between atoms: N_5  and  C_6 
REMARK    2  A    between atoms: C_18  and  C_19 
REMARK    3  A    between atoms: C_19  and  C_20 
ROOT
ATOM      1  C   UNL d   1       7.409   3.430 -14.032  0.00  0.00     0.246 C 
ATOM      2  C   UNL d   1       6.952   4.160 -12.730  0.00  0.00     0.065 C 
ATOM      3  C   UNL d   1       7.440   5.571 -12.537  0.00  0.00    -0.014 A 
ATOM      4  C   UNL d   1       6.547   6.644 -12.628  0.00  0.00    -0.004 A 
ATOM      5  C   UNL d   1       7.052   7.948 -12.452  0.00  0.00    -0.000 A 
ATOM      6  C   UNL d   1       8.403   8.163 -12.114  0.00  0.00     0.001 A 
ATOM      7  C   UNL d   1       9.269   7.069 -11.929  0.00  0.00     0.006 A 
ATOM      8  C   UNL d   1       8.776   5.777 -12.172  0.00  0.00     0.025 A 
ATOM      9  S   UNL d   1       9.805   4.374 -12.037  0.00  0.00    -0.087 SA
ATOM     10  C   UNL d   1      10.002   4.008 -13.737  0.00  0.00     0.027 A 
ATOM     11  C   UNL d   1      11.294   4.093 -14.262  0.00  0.00     0.006 A 
ATOM     12  C   UNL d   1      11.549   3.815 -15.622  0.00  0.00    -0.003 A 
ATOM     13  C   UNL d   1      10.468   3.494 -16.453  0.00  0.00    -0.015 A 
ATOM     14  C   UNL d   1       9.146   3.484 -15.926  0.00  0.00    -0.006 A 
ATOM     15  C   UNL d   1       8.868   3.660 -14.548  0.00  0.00     0.015 A 
ENDROOT
BRANCH   1  16
ATOM     16  N   UNL d   1       7.029   2.006 -14.006  0.00  0.00     0.144 N 
ATOM     17  C   UNL d   1       6.923   1.416 -15.315  0.00  0.00     0.286 C 
ATOM     18  C   UNL d   1       6.685  -0.084 -15.286  0.00  0.00     0.286 C 
ATOM     19  N   UNL d   1       5.449  -0.395 -14.573  0.00  0.00     0.143 N 
ATOM     20  C   UNL d   1       5.221  -1.819 -14.552  0.00  0.00     0.285 C 
ATOM     21  C   UNL d   1       5.543   0.169 -13.235  0.00  0.00     0.286 C 
ATOM     22  C   UNL d   1       5.809   1.674 -13.266  0.00  0.00     0.286 C 
ENDBRANCH   1  16
BRANCH  13  23
ATOM     23  C   UNL d   1      10.656   3.118 -17.918  0.00  0.00     0.094 C 
BRANCH  23  24
ATOM     24  C   UNL d   1      11.107   1.692 -18.190  0.00  0.00     0.165 A 
ATOM     25  N   UNL d   1      10.320   0.607 -18.188  0.00  0.00    -0.215 N 
ATOM     26  N   UNL d   1      11.113  -0.487 -18.371  0.00  0.00    -0.043 NA
ATOM     27  C   UNL d   1       8.941   0.443 -17.838  0.00  0.00     0.157 C 
ATOM     28  N   UNL d   1      12.318  -0.032 -18.550  0.00  0.00    -0.023 NA
ATOM     29  N   UNL d   1      12.362   1.343 -18.434  0.00  0.00    -0.112 NA
ENDBRANCH  23  24
ENDBRANCH  13  23
TORSDOF 3
