REMARK  6 active torsions:
REMARK  status: ('A' for Active; 'I' for Inactive)
REMARK    1  A    between atoms: O_2  and  C_3 
REMARK    2  A    between atoms: C_6  and  N_7 
REMARK    3  A    between atoms: N_10  and  C_11 
REMARK    4  A    between atoms: C_11  and  C_12 
REMARK    5  A    between atoms: C_12  and  C_13 
REMARK    6  A    between atoms: C_13  and  N_14 
ROOT
ATOM      1  C   UNL d   1       8.504   4.616 -12.624  0.00  0.00     0.252 C 
ENDROOT
BRANCH   1   2
ATOM      2  N   UNL d   1       9.415   4.207 -13.688  0.00  0.00     0.141 N 
ATOM      3  C   UNL d   1       9.787   2.811 -13.490  0.00  0.00     0.274 C 
ATOM      4  C   UNL d   1      10.731   2.310 -14.599  0.00  0.00     0.137 C 
ATOM      5  N   UNL d   1      10.119   2.519 -15.903  0.00  0.00    -0.344 N 
ATOM      6  C   UNL d   1       9.586   3.857 -16.116  0.00  0.00     0.137 C 
ATOM      7  C   UNL d   1       8.685   4.266 -14.935  0.00  0.00     0.274 C 
BRANCH   5   8
ATOM      8  C   UNL d   1       9.960   1.491 -16.829  0.00  0.00     0.056 A 
ATOM      9  C   UNL d   1       8.797   1.440 -17.618  0.00  0.00     0.019 A 
ATOM     10  C   UNL d   1       8.619   0.438 -18.583  0.00  0.00     0.026 A 
ATOM     11  C   UNL d   1       9.611  -0.556 -18.785  0.00  0.00     0.094 A 
ATOM     12  C   UNL d   1      10.775  -0.505 -18.002  0.00  0.00     0.026 A 
ATOM     13  C   UNL d   1      10.955   0.502 -17.026  0.00  0.00     0.019 A 
BRANCH  11  14
ATOM     14  O   UNL d   1       9.522  -1.579 -19.701  0.00  0.00    -0.328 OA
ATOM     15  C   UNL d   1       8.352  -1.666 -20.495  0.00  0.00     0.181 C 
ENDBRANCH  11  14
ENDBRANCH   5   8
ENDBRANCH   1   2
BRANCH   1  16
ATOM     16  C   UNL d   1       9.303   4.899 -11.359  0.00  0.00     0.060 C 
BRANCH  16  17
ATOM     17  C   UNL d   1       8.434   5.581 -10.307  0.00  0.00     0.106 C 
BRANCH  17  18
ATOM     18  N   UNL d   1       9.228   6.221  -9.255  0.00  0.00    -0.317 N 
ATOM     19  C   UNL d   1       9.927   7.363  -9.521  0.00  0.00     0.257 C 
ATOM     20  C   UNL d   1      10.704   7.962  -8.387  0.00  0.00     0.052 A 
ATOM     21  O   UNL d   1       9.984   7.899 -10.636  0.00  0.00    -0.267 OA
ATOM     22  C   UNL d   1      10.122   8.245  -7.136  0.00  0.00    -0.018 A 
ATOM     23  C   UNL d   1      12.035   8.286  -8.646  0.00  0.00     0.004 A 
ATOM     24  C   UNL d   1       8.686   7.902  -6.882  0.00  0.00     0.029 C 
ATOM     25  C   UNL d   1      10.883   8.875  -6.116  0.00  0.00    -0.004 A 
ATOM     26  C   UNL d   1       8.464   6.384  -6.835  0.00  0.00     0.029 C 
ATOM     27  C   UNL d   1       9.213   5.584  -7.918  0.00  0.00     0.105 C 
ATOM     28  C   UNL d   1      12.216   9.208  -6.392  0.00  0.00    -0.000 A 
ATOM     29  C   UNL d   1      12.785   8.867  -7.628  0.00  0.00     0.000 A 
ENDBRANCH  17  18
ENDBRANCH  16  17
ENDBRANCH   1  16
TORSDOF 6
