REMARK  1 active torsions:
REMARK  status: ('A' for Active; 'I' for Inactive)
REMARK    1  A    between atoms: N_2  and  C_3 
ROOT
ATOM      1  C   UNL d   1      10.448   8.316  -6.175  0.00  0.00     0.283 C 
ATOM      2  C   UNL d   1      10.234   6.804  -6.447  0.00  0.00     0.066 C 
ATOM      3  C   UNL d   1       9.778   6.495  -7.871  0.00  0.00    -0.003 A 
ATOM      4  C   UNL d   1       9.058   5.388  -8.343  0.00  0.00    -0.003 A 
ATOM      5  C   UNL d   1       8.756   5.285  -9.709  0.00  0.00     0.001 A 
ATOM      6  C   UNL d   1       9.167   6.295 -10.600  0.00  0.00     0.021 A 
ATOM      7  C   UNL d   1       9.857   7.421 -10.146  0.00  0.00     0.099 A 
ATOM      8  N   UNL d   1      10.304   8.514 -10.822  0.00  0.00    -0.224 NA
ATOM      9  C   UNL d   1      10.927   9.171  -9.823  0.00  0.00     0.179 A 
ATOM     10  N   UNL d   1      10.826   8.606  -8.606  0.00  0.00    -0.307 N 
ATOM     11  C   UNL d   1      10.155   7.475  -8.805  0.00  0.00     0.075 A 
ATOM     12  C   UNL d   1      11.300   8.964  -7.290  0.00  0.00     0.144 C 
ENDROOT
BRANCH   1  13
ATOM     13  N   UNL d   1      11.073   8.507  -4.870  0.00  0.00     0.342 N 
ATOM     14  C   UNL d   1      11.026   9.901  -4.447  0.00  0.00     0.328 C 
ENDBRANCH   1  13
TORSDOF 1
