REMARK  6 active torsions:
REMARK  status: ('A' for Active; 'I' for Inactive)
REMARK    1  A    between atoms: O_2  and  C_3 
REMARK    2  A    between atoms: C_8  and  N_9 
REMARK    3  A    between atoms: N_12  and  C_13 
REMARK    4  A    between atoms: C_13  and  C_14 
REMARK    5  A    between atoms: C_14  and  O_15 
REMARK    6  A    between atoms: O_15  and  C_16 
ROOT
ATOM      1  N   UNL d   1       7.998   4.646 -12.650  0.00  0.00    -0.343 N 
ATOM      2  C   UNL d   1       7.324   4.365 -11.386  0.00  0.00     0.137 C 
ATOM      3  C   UNL d   1       8.274   4.663 -10.196  0.00  0.00     0.274 C 
ATOM      4  N   UNL d   1       8.714   6.049 -10.253  0.00  0.00     0.144 N 
ATOM      5  C   UNL d   1       9.457   6.253 -11.502  0.00  0.00     0.274 C 
ATOM      6  C   UNL d   1       8.576   5.978 -12.733  0.00  0.00     0.137 C 
ENDROOT
BRANCH   4   7
ATOM      7  C   UNL d   1       9.528   6.357  -9.077  0.00  0.00     0.283 C 
BRANCH   7   8
ATOM      8  C   UNL d   1       9.759   7.873  -8.880  0.00  0.00     0.184 C 
BRANCH   8   9
ATOM      9  O   UNL d   1      11.089   8.069  -8.424  0.00  0.00    -0.329 OA
BRANCH   9  10
ATOM     10  C   UNL d   1      11.217   8.249  -7.075  0.00  0.00     0.096 A 
ATOM     11  C   UNL d   1      11.395   7.149  -6.215  0.00  0.00     0.047 A 
ATOM     12  C   UNL d   1      11.595   7.397  -4.841  0.00  0.00     0.126 A 
ATOM     13  C   UNL d   1      11.631   8.706  -4.310  0.00  0.00     0.124 A 
ATOM     14  N   UNL d   1      11.845   6.645  -3.716  0.00  0.00    -0.127 NA
ATOM     15  C   UNL d   1      11.432   9.791  -5.184  0.00  0.00     0.025 A 
ATOM     16  N   UNL d   1      11.882   8.655  -2.948  0.00  0.00    -0.127 NA
ATOM     17  C   UNL d   1      11.241   9.562  -6.560  0.00  0.00     0.026 A 
ATOM     18  N   UNL d   1      12.004   7.409  -2.602  0.00  0.00    -0.042 NA
ENDBRANCH   9  10
ENDBRANCH   8   9
ENDBRANCH   7   8
ENDBRANCH   4   7
BRANCH   1  19
ATOM     19  C   UNL d   1       8.198   3.656 -13.632  0.00  0.00     0.079 A 
ATOM     20  C   UNL d   1       9.473   3.411 -14.217  0.00  0.00     0.110 A 
ATOM     21  C   UNL d   1       9.588   2.415 -15.223  0.00  0.00     0.026 A 
ATOM     22  C   UNL d   1       8.470   1.665 -15.628  0.00  0.00     0.002 A 
ATOM     23  C   UNL d   1       7.219   1.895 -15.036  0.00  0.00     0.002 A 
ATOM     24  C   UNL d   1       7.089   2.885 -14.038  0.00  0.00     0.019 A 
BRANCH  20  25
ATOM     25  O   UNL d   1      10.552   4.144 -13.758  0.00  0.00    -0.327 OA
ATOM     26  C   UNL d   1      11.813   3.968 -14.384  0.00  0.00     0.181 C 
ENDBRANCH  20  25
ENDBRANCH   1  19
TORSDOF 6
