REMARK  9 active torsions:
REMARK  status: ('A' for Active; 'I' for Inactive)
REMARK    1  A    between atoms: O_2  and  C_3 
REMARK    2  A    between atoms: C_8  and  N_9 
REMARK    3  A    between atoms: N_12  and  C_13 
REMARK    4  A    between atoms: C_13  and  C_14 
REMARK    5  A    between atoms: C_14  and  C_15 
REMARK    6  A    between atoms: C_15  and  C_16 
REMARK    7  A    between atoms: C_16  and  N_17 
REMARK       I    between atoms: N_17  and  C_18 
REMARK    8  A    between atoms: C_18  and  C_20 
REMARK    9  A    between atoms: C_21  and  C_22 
ROOT
ATOM      1  C   UNL d   1       9.553   3.721 -13.318  0.00  0.00     0.251 C 
ENDROOT
BRANCH   1   2
ATOM      2  N   UNL d   1       8.884   3.427 -14.585  0.00  0.00     0.141 N 
ATOM      3  C   UNL d   1       9.887   3.129 -15.615  0.00  0.00     0.274 C 
ATOM      4  C   UNL d   1       9.199   2.879 -16.975  0.00  0.00     0.137 C 
ATOM      5  N   UNL d   1       8.235   1.791 -16.847  0.00  0.00    -0.343 N 
ATOM      6  C   UNL d   1       7.276   1.953 -15.764  0.00  0.00     0.137 C 
ATOM      7  C   UNL d   1       8.002   2.262 -14.440  0.00  0.00     0.274 C 
BRANCH   5   8
ATOM      8  C   UNL d   1       8.264   0.624 -17.635  0.00  0.00     0.079 A 
ATOM      9  C   UNL d   1       9.488  -0.004 -17.989  0.00  0.00     0.110 A 
ATOM     10  C   UNL d   1       9.462  -1.139 -18.838  0.00  0.00     0.026 A 
ATOM     11  C   UNL d   1       8.244  -1.675 -19.293  0.00  0.00     0.002 A 
ATOM     12  C   UNL d   1       7.033  -1.077 -18.912  0.00  0.00     0.002 A 
ATOM     13  C   UNL d   1       7.045   0.069 -18.092  0.00  0.00     0.019 A 
BRANCH   9  14
ATOM     14  O   UNL d   1      10.662   0.490 -17.458  0.00  0.00    -0.327 OA
ATOM     15  C   UNL d   1      11.886   0.139 -18.080  0.00  0.00     0.181 C 
ENDBRANCH   9  14
ENDBRANCH   5   8
ENDBRANCH   1   2
BRANCH   1  16
ATOM     16  C   UNL d   1       8.634   4.510 -12.368  0.00  0.00     0.037 C 
BRANCH  16  17
ATOM     17  C   UNL d   1       9.367   4.945 -11.093  0.00  0.00     0.029 C 
BRANCH  17  18
ATOM     18  C   UNL d   1       8.488   5.796 -10.173  0.00  0.00     0.129 C 
BRANCH  18  19
ATOM     19  N   UNL d   1       9.110   5.988  -8.867  0.00  0.00    -0.234 NA
ATOM     20  C   UNL d   1       9.983   6.961  -8.562  0.00  0.00     0.275 C 
ATOM     21  O   UNL d   1      10.412   7.770  -9.384  0.00  0.00    -0.266 OA
BRANCH  20  22
ATOM     22  C   UNL d   1      10.346   6.915  -7.157  0.00  0.00     0.062 C 
ATOM     23  C   UNL d   1      11.018   7.929  -6.573  0.00  0.00     0.006 C 
BRANCH  23  24
ATOM     24  C   UNL d   1      11.457   7.948  -5.163  0.00  0.00     0.019 A 
ATOM     25  C   UNL d   1      11.859   9.156  -4.551  0.00  0.00     0.099 A 
ATOM     26  N   UNL d   1      12.251   9.246  -3.261  0.00  0.00    -0.242 NA
ATOM     27  C   UNL d   1      12.258   8.123  -2.517  0.00  0.00     0.099 A 
ATOM     28  C   UNL d   1      11.870   6.869  -3.019  0.00  0.00     0.021 A 
ATOM     29  C   UNL d   1      11.461   6.789  -4.362  0.00  0.00     0.003 A 
ENDBRANCH  23  24
ENDBRANCH  20  22
ENDBRANCH  18  19
ENDBRANCH  17  18
ENDBRANCH  16  17
ENDBRANCH   1  16
TORSDOF 9
