REMARK  2 active torsions:
REMARK  status: ('A' for Active; 'I' for Inactive)
REMARK    1  A    between atoms: C_3  and  N_4 
REMARK    2  A    between atoms: C_8  and  C_9 
ROOT
ATOM      1  C   UNL d   1       4.079  -1.598 -15.736  0.00  0.00     0.078 C 
ATOM      2  C   UNL d   1       4.479  -0.924 -14.796  0.00  0.00    -0.118 C 
ATOM      3  C   UNL d   1       4.934  -0.141 -13.639  0.00  0.00     0.314 C 
ENDROOT
BRANCH   3   4
ATOM      4  N   UNL d   1       5.460   1.167 -13.991  0.00  0.00     0.149 N 
ATOM      5  C   UNL d   1       6.853   1.038 -14.438  0.00  0.00     0.256 C 
ATOM      6  C   UNL d   1       7.433   2.388 -14.911  0.00  0.00     0.056 C 
ATOM      7  C   UNL d   1       7.261   3.446 -13.796  0.00  0.00     0.008 C 
ATOM      8  C   UNL d   1       5.823   3.489 -13.284  0.00  0.00     0.036 C 
ATOM      9  C   UNL d   1       5.329   2.098 -12.878  0.00  0.00     0.252 C 
BRANCH   6  10
ATOM     10  C   UNL d   1       8.898   2.245 -15.371  0.00  0.00    -0.020 A 
ATOM     11  C   UNL d   1       9.762   3.364 -15.355  0.00  0.00     0.006 A 
ATOM     12  C   UNL d   1      11.112   3.233 -15.736  0.00  0.00     0.068 A 
ATOM     13  C   UNL d   1      11.605   1.983 -16.164  0.00  0.00     0.010 A 
ATOM     14  C   UNL d   1      11.985   4.393 -15.680  0.00  0.00     0.101 C 
ATOM     15  C   UNL d   1      10.748   0.871 -16.202  0.00  0.00     0.000 A 
ATOM     16  C   UNL d   1       9.401   1.001 -15.812  0.00  0.00    -0.004 A 
ATOM     17  N   UNL d   1      12.677   5.317 -15.634  0.00  0.00    -0.191 NA
ENDBRANCH   6  10
ENDBRANCH   3   4
TORSDOF 2
