REMARK  8 active torsions:
REMARK  status: ('A' for Active; 'I' for Inactive)
REMARK    1  A    between atoms: C_2  and  C_3 
REMARK    2  A    between atoms: N_15  and  C_16 
REMARK    3  A    between atoms: C_16  and  C_17 
REMARK    4  A    between atoms: C_17  and  C_18 
REMARK    5  A    between atoms: C_18  and  C_19 
REMARK    6  A    between atoms: C_19  and  S_20 
REMARK    7  A    between atoms: S_20  and  C_21 
REMARK    8  A    between atoms: C_24  and  C_25 
ROOT
ATOM      1  C   UNL d   1      11.446   0.749 -19.405  0.00  0.00     0.014 C 
ENDROOT
BRANCH   1   2
ATOM      2  C   UNL d   1      10.929  -0.396 -20.299  0.00  0.00     0.036 C 
BRANCH   2   3
ATOM      3  C   UNL d   1      10.588   0.102 -21.720  0.00  0.00     0.250 C 
BRANCH   3   4
ATOM      4  N   UNL d   1       9.238  -0.263 -22.151  0.00  0.00     0.138 N 
ATOM      5  C   UNL d   1       8.230   0.218 -21.194  0.00  0.00     0.255 C 
ATOM      6  C   UNL d   1       6.782   0.165 -21.725  0.00  0.00     0.062 C 
ATOM      7  C   UNL d   1       6.171  -1.220 -21.585  0.00  0.00    -0.016 A 
ATOM      8  C   UNL d   1       6.708  -2.308 -22.323  0.00  0.00    -0.022 A 
ATOM      9  C   UNL d   1       5.075  -1.456 -20.715  0.00  0.00     0.055 A 
ATOM     10  C   UNL d   1       6.139  -3.603 -22.236  0.00  0.00     0.017 A 
ATOM     11  C   UNL d   1       7.923  -2.113 -23.219  0.00  0.00     0.061 C 
ATOM     12  C   UNL d   1       5.032  -3.839 -21.401  0.00  0.00     0.106 A 
ATOM     13  N   UNL d   1       4.290  -4.973 -21.132  0.00  0.00    -0.224 NA
ATOM     14  C   UNL d   1       4.534  -2.757 -20.645  0.00  0.00     0.125 A 
ATOM     15  C   UNL d   1       3.400  -4.547 -20.219  0.00  0.00     0.159 A 
ATOM     16  O   UNL d   1       3.463  -3.221 -19.883  0.00  0.00    -0.291 OA
ATOM     17  C   UNL d   1       9.186  -1.697 -22.445  0.00  0.00     0.255 C 
ATOM     18 BR   UNL d   1       4.295  -0.086 -19.635  0.00  0.00    -0.047 Br
BRANCH  15  19
ATOM     19  C   UNL d   1       2.341  -5.375 -19.571  0.00  0.00     0.072 C 
ATOM     20  C   UNL d   1       0.988  -5.291 -20.288  0.00  0.00     0.009 C 
ENDBRANCH  15  19
ENDBRANCH   3   4
ENDBRANCH   2   3
ENDBRANCH   1   2
BRANCH   1  21
ATOM     21  C   UNL d   1      11.714   0.267 -17.966  0.00  0.00     0.065 C 
BRANCH  21  22
ATOM     22  S   UNL d   1      10.279  -0.570 -17.195  0.00  0.00    -0.076 SA
BRANCH  22  23
ATOM     23  C   UNL d   1       9.379   0.853 -16.726  0.00  0.00     0.193 A 
ATOM     24  N   UNL d   1       8.828   0.973 -15.509  0.00  0.00    -0.289 N 
ATOM     25  C   UNL d   1       8.271   2.193 -15.571  0.00  0.00     0.167 A 
ATOM     26  C   UNL d   1       8.814   0.014 -14.436  0.00  0.00     0.134 C 
ATOM     27  N   UNL d   1       8.474   2.780 -16.750  0.00  0.00    -0.128 NA
ATOM     28  N   UNL d   1       9.164   1.901 -17.525  0.00  0.00    -0.122 NA
BRANCH  25  29
ATOM     29  C   UNL d   1       7.513   2.787 -14.480  0.00  0.00     0.037 A 
ATOM     30  C   UNL d   1       8.009   3.907 -13.775  0.00  0.00     0.021 A 
ATOM     31  C   UNL d   1       7.244   4.507 -12.744  0.00  0.00     0.081 A 
ATOM     32  C   UNL d   1       9.263   4.470 -14.100  0.00  0.00     0.003 A 
ATOM     33  C   UNL d   1       5.986   3.951 -12.428  0.00  0.00     0.019 A 
ATOM     34  N   UNL d   1       7.676   5.584 -12.058  0.00  0.00    -0.250 NA
ATOM     35  C   UNL d   1       5.506   2.814 -13.089  0.00  0.00     0.002 A 
ATOM     36  C   UNL d   1       6.279   2.233 -14.121  0.00  0.00     0.003 A 
ATOM     37  C   UNL d   1       8.880   6.114 -12.370  0.00  0.00     0.059 A 
ATOM     38  C   UNL d   1       9.316   7.328 -11.583  0.00  0.00     0.052 C 
ATOM     39  C   UNL d   1       9.700   5.585 -13.385  0.00  0.00     0.015 A 
ENDBRANCH  25  29
ENDBRANCH  22  23
ENDBRANCH  21  22
ENDBRANCH   1  21
TORSDOF 8
