REMARK  3 active torsions:
REMARK  status: ('A' for Active; 'I' for Inactive)
REMARK    1  A    between atoms: C_4  and  C_5 
REMARK    2  A    between atoms: N_8  and  C_9 
REMARK    3  A    between atoms: C_9  and  C_10 
ROOT
ATOM      1  C   UNL d   1       9.513   7.679 -10.045  0.00  0.00     0.026 C 
ATOM      2  C   UNL d   1      10.964   8.070 -10.222  0.00  0.00     0.040 C 
ATOM      3  C   UNL d   1      11.366   9.199  -9.288  0.00  0.00     0.251 C 
ATOM      4  N   UNL d   1      11.137   8.805  -7.901  0.00  0.00     0.141 N 
ATOM      5  C   UNL d   1       9.711   8.638  -7.686  0.00  0.00     0.251 C 
ATOM      6  C   UNL d   1       9.297   7.453  -8.524  0.00  0.00     0.040 C 
ENDROOT
BRANCH   4   7
ATOM      7  C   UNL d   1      11.628   9.815  -7.012  0.00  0.00     0.278 C 
BRANCH   7   8
ATOM      8  C   UNL d   1      11.436   9.601  -5.565  0.00  0.00     0.032 C 
ATOM      9  C   UNL d   1      11.600   8.464  -4.776  0.00  0.00     0.017 A 
ATOM     10  C   UNL d   1      11.487   8.805  -3.422  0.00  0.00     0.081 A 
ATOM     11  C   UNL d   1      11.854   7.120  -5.079  0.00  0.00     0.001 A 
ATOM     12  N   UNL d   1      11.130  10.106  -3.442  0.00  0.00    -0.244 NA
ATOM     13  C   UNL d   1      11.698   7.901  -2.351  0.00  0.00     0.019 A 
ATOM     14  C   UNL d   1      11.020  10.555  -4.722  0.00  0.00     0.097 C 
ATOM     15  C   UNL d   1      11.911   6.596  -2.675  0.00  0.00     0.002 A 
ATOM     16  C   UNL d   1      12.040   6.245  -4.029  0.00  0.00     0.000 A 
ENDBRANCH   7   8
ENDBRANCH   4   7
BRANCH   1  17
ATOM     17  C   UNL d   1       9.070   6.489 -10.914  0.00  0.00    -0.022 A 
ATOM     18  C   UNL d   1       9.422   6.430 -12.284  0.00  0.00    -0.004 A 
ATOM     19  C   UNL d   1       9.094   5.307 -13.075  0.00  0.00    -0.000 A 
ATOM     20  C   UNL d   1       8.307   4.281 -12.537  0.00  0.00    -0.000 A 
ATOM     21  C   UNL d   1       7.847   4.388 -11.209  0.00  0.00    -0.000 A 
ATOM     22  C   UNL d   1       8.260   5.448 -10.401  0.00  0.00    -0.004 A 
ENDBRANCH   1  17
TORSDOF 3
