REMARK  7 active torsions:
REMARK  status: ('A' for Active; 'I' for Inactive)
REMARK    1  A    between atoms: O_2  and  C_3 
REMARK    2  A    between atoms: C_6  and  O_7 
REMARK    3  A    between atoms: O_7  and  C_8 
REMARK    4  A    between atoms: C_8  and  C_9 
REMARK    5  A    between atoms: C_9  and  N_10 
REMARK       I    between atoms: N_13  and  C_14 
REMARK    6  A    between atoms: C_14  and  C_16 
REMARK    7  A    between atoms: C_28  and  O_29 
ROOT
ATOM      1  N   UNL d   1       8.835   5.155 -11.489  0.00  0.00     0.144 N 
ATOM      2  C   UNL d   1       9.197   4.963 -10.081  0.00  0.00     0.274 C 
ATOM      3  C   UNL d   1       8.925   6.237  -9.280  0.00  0.00     0.140 C 
ATOM      4  N   UNL d   1       9.663   7.376  -9.876  0.00  0.00    -0.311 N 
ATOM      5  C   UNL d   1      10.503   8.242  -9.224  0.00  0.00     0.275 C 
ATOM      6  O   UNL d   1      10.977   9.237  -9.768  0.00  0.00    -0.266 OA
ATOM      7  C   UNL d   1       9.345   7.566 -11.293  0.00  0.00     0.140 C 
ATOM      8  C   UNL d   1       9.600   6.263 -12.050  0.00  0.00     0.274 C 
ENDROOT
BRANCH   1   9
ATOM      9  C   UNL d   1       9.085   3.912 -12.225  0.00  0.00     0.283 C 
BRANCH   9  10
ATOM     10  C   UNL d   1       9.361   4.056 -13.722  0.00  0.00     0.184 C 
BRANCH  10  11
ATOM     11  O   UNL d   1      10.745   4.323 -13.848  0.00  0.00    -0.329 OA
BRANCH  11  12
ATOM     12  C   UNL d   1      11.258   4.590 -15.095  0.00  0.00     0.096 A 
ATOM     13  C   UNL d   1      12.657   4.579 -15.219  0.00  0.00     0.026 A 
ATOM     14  C   UNL d   1      13.269   4.810 -16.463  0.00  0.00     0.028 A 
ATOM     15  C   UNL d   1      12.481   5.074 -17.610  0.00  0.00     0.116 A 
ATOM     16  C   UNL d   1      11.074   5.116 -17.491  0.00  0.00     0.118 A 
ATOM     17  C   UNL d   1      10.471   4.876 -16.232  0.00  0.00     0.050 A 
BRANCH  15  18
ATOM     18  O   UNL d   1      13.007   5.294 -18.865  0.00  0.00    -0.326 OA
ATOM     19  C   UNL d   1      14.417   5.263 -19.017  0.00  0.00     0.181 C 
ENDBRANCH  15  18
BRANCH  16  20
ATOM     20  O   UNL d   1      10.356   5.385 -18.637  0.00  0.00    -0.326 OA
ATOM     21  C   UNL d   1       8.944   5.487 -18.541  0.00  0.00     0.181 C 
ENDBRANCH  16  20
ENDBRANCH  11  12
ENDBRANCH  10  11
ENDBRANCH   9  10
ENDBRANCH   1   9
BRANCH   5  22
ATOM     22  C   UNL d   1      10.817   8.025  -7.801  0.00  0.00     0.137 A 
ATOM     23  N   UNL d   1      10.963   9.145  -6.991  0.00  0.00    -0.241 NA
ATOM     24  C   UNL d   1      11.268   8.780  -5.693  0.00  0.00     0.082 A 
ATOM     25  C   UNL d   1      11.326   7.357  -5.716  0.00  0.00     0.019 A 
ATOM     26  C   UNL d   1      11.512   9.511  -4.519  0.00  0.00     0.019 A 
ATOM     27  C   UNL d   1      11.088   6.909  -7.056  0.00  0.00     0.025 A 
ATOM     28  C   UNL d   1      11.624   6.701  -4.500  0.00  0.00     0.002 A 
ATOM     29  C   UNL d   1      11.876   7.418  -3.320  0.00  0.00     0.000 A 
ATOM     30  C   UNL d   1      11.832   8.827  -3.327  0.00  0.00     0.002 A 
ENDBRANCH   5  22
TORSDOF 7
