REMARK  4 active torsions:
REMARK  status: ('A' for Active; 'I' for Inactive)
REMARK    1  A    between atoms: C_8  and  C_9 
REMARK    2  A    between atoms: C_9  and  C_10 
REMARK    3  A    between atoms: C_10  and  N_11 
REMARK    4  A    between atoms: N_14  and  C_15 
ROOT
ATOM      1  N   UNL d   1       7.992   2.881 -13.977  0.00  0.00     0.141 N 
ATOM      2  C   UNL d   1       7.020   3.949 -13.699  0.00  0.00     0.274 C 
ATOM      3  C   UNL d   1       7.191   4.520 -12.282  0.00  0.00     0.138 C 
ATOM      4  N   UNL d   1       8.562   4.929 -12.063  0.00  0.00    -0.329 N 
ATOM      5  C   UNL d   1       9.586   3.975 -12.431  0.00  0.00     0.138 C 
ATOM      6  C   UNL d   1       9.350   3.420 -13.848  0.00  0.00     0.274 C 
ENDROOT
BRANCH   1   7
ATOM      7  C   UNL d   1       7.763   2.312 -15.290  0.00  0.00     0.255 C 
BRANCH   7   8
ATOM      8  C   UNL d   1       8.315   0.877 -15.366  0.00  0.00     0.068 C 
BRANCH   8   9
ATOM      9  C   UNL d   1       7.704   0.110 -16.543  0.00  0.00     0.050 A 
ATOM     10  C   UNL d   1       8.406  -0.245 -17.654  0.00  0.00     0.061 A 
ATOM     11  C   UNL d   1       9.877   0.076 -17.855  0.00  0.00     0.052 C 
ATOM     12  N   UNL d   1       7.794  -0.921 -18.713  0.00  0.00    -0.234 NA
ATOM     13  C   UNL d   1       6.543  -1.229 -18.630  0.00  0.00     0.155 A 
ATOM     14  C   UNL d   1       5.782  -1.896 -19.777  0.00  0.00     0.217 C 
ATOM     15  N   UNL d   1       5.752  -0.939 -17.497  0.00  0.00    -0.282 N 
ATOM     16  C   UNL d   1       4.423  -1.227 -20.033  0.00  0.00     0.045 C 
ATOM     17  F   UNL d   1       6.486  -1.874 -20.911  0.00  0.00    -0.229 F 
ATOM     18  C   UNL d   1       3.585  -1.079 -18.751  0.00  0.00     0.028 C 
ATOM     19  C   UNL d   1       4.365  -1.453 -17.476  0.00  0.00     0.111 C 
ATOM     20  C   UNL d   1       6.279  -0.278 -16.425  0.00  0.00     0.259 A 
ATOM     21  O   UNL d   1       5.601  -0.028 -15.426  0.00  0.00    -0.267 OA
ENDBRANCH   8   9
ENDBRANCH   7   8
ENDBRANCH   1   7
BRANCH   4  22
ATOM     22  C   UNL d   1       8.882   6.241 -11.651  0.00  0.00     0.148 A 
ATOM     23  C   UNL d   1       9.493   6.529 -10.369  0.00  0.00     0.042 A 
ATOM     24  C   UNL d   1       9.712   7.928 -10.256  0.00  0.00     0.050 A 
ATOM     25  C   UNL d   1       9.863   5.729  -9.260  0.00  0.00     0.004 A 
ATOM     26  S   UNL d   1       9.069   8.666 -11.715  0.00  0.00     0.015 SA
ATOM     27  C   UNL d   1      10.265   8.512  -9.097  0.00  0.00     0.008 A 
ATOM     28  N   UNL d   1       8.598   7.242 -12.444  0.00  0.00    -0.192 NA
ATOM     29  C   UNL d   1      10.617   7.692  -8.011  0.00  0.00     0.001 A 
ATOM     30  C   UNL d   1      10.411   6.304  -8.095  0.00  0.00     0.000 A 
ENDBRANCH   4  22
TORSDOF 4
