REMARK  9 active torsions:
REMARK  status: ('A' for Active; 'I' for Inactive)
REMARK    1  A    between atoms: C_6  and  C_7 
REMARK    2  A    between atoms: C_10  and  S_11 
REMARK    3  A    between atoms: S_11  and  C_12 
REMARK    4  A    between atoms: C_12  and  C_13 
REMARK    5  A    between atoms: C_13  and  C_14 
REMARK    6  A    between atoms: C_14  and  N_15 
REMARK    7  A    between atoms: C_19  and  C_20 
REMARK    8  A    between atoms: C_24  and  O_25 
REMARK    9  A    between atoms: O_25  and  C_26 
ROOT
ATOM      1  N   UNL d   1       9.180   3.758 -14.525  0.00  0.00     0.137 N 
ATOM      2  C   UNL d   1       8.313   4.880 -14.207  0.00  0.00     0.251 C 
ATOM      3  C   UNL d   1       6.974   4.221 -13.870  0.00  0.00     0.039 A 
ATOM      4  C   UNL d   1       6.675   3.703 -12.489  0.00  0.00     0.008 A 
ATOM      5  C   UNL d   1       7.283   2.810 -13.552  0.00  0.00     0.052 A 
ATOM      6  C   UNL d   1       8.781   2.651 -13.666  0.00  0.00     0.254 C 
ENDROOT
BRANCH   1   7
ATOM      7  C   UNL d   1      10.592   4.115 -14.381  0.00  0.00     0.251 C 
BRANCH   7   8
ATOM      8  C   UNL d   1      11.050   4.676 -15.730  0.00  0.00     0.047 C 
BRANCH   8   9
ATOM      9  C   UNL d   1      12.601   4.737 -15.824  0.00  0.00     0.067 C 
BRANCH   9  10
ATOM     10  S   UNL d   1      13.273   4.877 -17.515  0.00  0.00    -0.075 SA
BRANCH  10  11
ATOM     11  C   UNL d   1      12.855   3.315 -18.223  0.00  0.00     0.193 A 
ATOM     12  N   UNL d   1      11.629   2.803 -18.132  0.00  0.00    -0.122 NA
ATOM     13  N   UNL d   1      11.698   1.586 -18.819  0.00  0.00    -0.126 NA
ATOM     14  C   UNL d   1      12.962   1.495 -19.258  0.00  0.00     0.191 A 
ATOM     15  N   UNL d   1      13.718   2.560 -18.951  0.00  0.00    -0.287 N 
ATOM     16  C   UNL d   1      15.103   2.838 -19.330  0.00  0.00     0.134 C 
BRANCH  14  17
ATOM     17  C   UNL d   1      13.364   0.335 -20.044  0.00  0.00     0.151 A 
ATOM     18  C   UNL d   1      12.627  -0.550 -20.780  0.00  0.00     0.087 A 
ATOM     19  C   UNL d   1      11.129  -0.607 -21.015  0.00  0.00     0.054 C 
ATOM     20  N   UNL d   1      13.483  -1.487 -21.335  0.00  0.00    -0.221 NA
ATOM     21  C   UNL d   1      14.687  -1.113 -20.904  0.00  0.00     0.225 A 
ATOM     22  O   UNL d   1      14.682  -0.000 -20.124  0.00  0.00    -0.282 OA
ENDBRANCH  14  17
ENDBRANCH  10  11
ENDBRANCH   9  10
ENDBRANCH   8   9
ENDBRANCH   7   8
ENDBRANCH   1   7
BRANCH   5  23
ATOM     23  C   UNL d   1       6.478   1.666 -14.153  0.00  0.00    -0.019 A 
ATOM     24  C   UNL d   1       6.707   1.258 -15.476  0.00  0.00     0.020 A 
ATOM     25  C   UNL d   1       5.937   0.228 -16.063  0.00  0.00     0.102 A 
ATOM     26  C   UNL d   1       4.909  -0.387 -15.298  0.00  0.00     0.025 A 
ATOM     27  C   UNL d   1       4.690   0.021 -13.970  0.00  0.00     0.002 A 
ATOM     28  C   UNL d   1       5.478   1.029 -13.398  0.00  0.00    -0.004 A 
BRANCH  25  29
ATOM     29  O   UNL d   1       6.225  -0.091 -17.374  0.00  0.00    -0.254 OA
BRANCH  29  30
ATOM     30  C   UNL d   1       5.516  -1.048 -18.038  0.00  0.00     0.530 C 
ATOM     31  F   UNL d   1       6.051  -1.219 -19.269  0.00  0.00    -0.144 F 
ATOM     32  F   UNL d   1       5.575  -2.248 -17.410  0.00  0.00    -0.144 F 
ATOM     33  F   UNL d   1       4.221  -0.686 -18.209  0.00  0.00    -0.144 F 
ENDBRANCH  29  30
ENDBRANCH  25  29
ENDBRANCH   5  23
TORSDOF 9
