REMARK  5 active torsions:
REMARK  status: ('A' for Active; 'I' for Inactive)
REMARK    1  A    between atoms: S_2  and  C_4 
REMARK    2  A    between atoms: S_2  and  C_11 
REMARK    3  A    between atoms: N_15  and  C_16 
REMARK    4  A    between atoms: C_16  and  C_17 
REMARK    5  A    between atoms: C_17  and  C_18 
ROOT
ATOM      1  C   UNL d   1       8.956   5.382 -11.201  0.00  0.00     0.234 C 
ATOM      2  F   UNL d   1       9.805   4.328 -11.231  0.00  0.00    -0.223 F 
ATOM      3  C   UNL d   1       9.733   6.654 -10.909  0.00  0.00     0.084 C 
ATOM      4  C   UNL d   1      10.304   6.684  -9.504  0.00  0.00     0.254 C 
ATOM      5  N   UNL d   1       9.211   6.577  -8.555  0.00  0.00     0.138 N 
ATOM      6  C   UNL d   1       8.543   5.295  -8.717  0.00  0.00     0.254 C 
ATOM      7  C   UNL d   1       7.926   5.185 -10.104  0.00  0.00     0.084 C 
ENDROOT
BRANCH   1   8
ATOM      8  S   UNL d   1       8.199   5.529 -12.850  0.00  0.00     0.216 S 
ATOM      9  O   UNL d   1       9.311   5.501 -13.823  0.00  0.00    -0.219 OA
ATOM     10  O   UNL d   1       7.262   6.656 -12.833  0.00  0.00    -0.219 OA
BRANCH   8  11
ATOM     11  C   UNL d   1       7.244   4.034 -13.154  0.00  0.00     0.086 A 
ATOM     12  C   UNL d   1       7.706   3.064 -14.083  0.00  0.00     0.012 A 
ATOM     13  C   UNL d   1       6.986   1.877 -14.278  0.00  0.00     0.012 A 
ATOM     14  C   UNL d   1       5.850   1.621 -13.481  0.00  0.00     0.058 A 
ATOM     15  C   UNL d   1       5.422   2.579 -12.541  0.00  0.00     0.012 A 
ATOM     16 CL   UNL d   1       4.977   0.146 -13.667  0.00  0.00    -0.082 Cl
ATOM     17  C   UNL d   1       6.075   3.808 -12.403  0.00  0.00     0.012 A 
ENDBRANCH   8  11
ENDBRANCH   1   8
BRANCH   5  18
ATOM     18  C   UNL d   1       9.735   6.596  -7.203  0.00  0.00     0.255 C 
BRANCH  18  19
ATOM     19  C   UNL d   1      10.207   7.990  -6.761  0.00  0.00     0.064 C 
BRANCH  19  20
ATOM     20  C   UNL d   1      10.885   7.995  -5.396  0.00  0.00     0.007 A 
ATOM     21  C   UNL d   1      11.108   9.225  -4.738  0.00  0.00     0.138 A 
ATOM     22  C   UNL d   1      11.725   9.248  -3.468  0.00  0.00     0.059 A 
ATOM     23  F   UNL d   1      10.700  10.387  -5.308  0.00  0.00    -0.204 F 
ATOM     24  C   UNL d   1      12.106   8.046  -2.847  0.00  0.00     0.142 A 
ATOM     25  C   UNL d   1      11.895   6.820  -3.501  0.00  0.00     0.029 A 
ATOM     26  F   UNL d   1      12.647   8.063  -1.609  0.00  0.00    -0.204 F 
ATOM     27  C   UNL d   1      11.302   6.793  -4.771  0.00  0.00     0.000 A 
ENDBRANCH  19  20
ENDBRANCH  18  19
ENDBRANCH   5  18
TORSDOF 5
