REMARK  3 active torsions:
REMARK  status: ('A' for Active; 'I' for Inactive)
REMARK    1  A    between atoms: C_2  and  C_3 
REMARK    2  A    between atoms: C_3  and  N_4 
REMARK    3  A    between atoms: N_4  and  C_6 
ROOT
ATOM      1  C   UNL d   1      11.491   7.422  -7.096  0.00  0.00     0.246 C 
ATOM      2  C   UNL d   1      11.563   6.307  -6.032  0.00  0.00     0.063 C 
ATOM      3  C   UNL d   1      11.809   6.769  -4.620  0.00  0.00    -0.003 A 
ATOM      4  C   UNL d   1      12.293   6.086  -3.498  0.00  0.00    -0.003 A 
ATOM      5  C   UNL d   1      12.533   6.667  -2.262  0.00  0.00     0.001 A 
ATOM      6  C   UNL d   1      12.256   8.021  -2.065  0.00  0.00     0.021 A 
ATOM      7  C   UNL d   1      11.734   8.719  -3.162  0.00  0.00     0.102 A 
ATOM      8  N   UNL d   1      11.295   9.976  -3.358  0.00  0.00    -0.191 NA
ATOM      9  C   UNL d   1      10.885  10.106  -4.609  0.00  0.00     0.350 A 
ATOM     10  O   UNL d   1      10.483  11.122  -5.088  0.00  0.00    -0.244 OA
ATOM     11  N   UNL d   1      11.010   8.947  -5.245  0.00  0.00    -0.277 N 
ATOM     12  C   UNL d   1      11.546   8.069  -4.354  0.00  0.00     0.078 A 
ATOM     13  C   UNL d   1      10.664   8.622  -6.610  0.00  0.00     0.144 C 
ENDROOT
BRANCH   1  14
ATOM     14  N   UNL d   1      11.040   6.918  -8.406  0.00  0.00     0.139 N 
ATOM     15  C   UNL d   1      11.044   8.007  -9.391  0.00  0.00     0.285 C 
BRANCH  14  16
ATOM     16  C   UNL d   1       9.774   6.198  -8.402  0.00  0.00     0.250 C 
BRANCH  16  17
ATOM     17  C   UNL d   1       9.598   5.344  -9.665  0.00  0.00     0.035 C 
ATOM     18  C   UNL d   1       8.162   4.888  -9.802  0.00  0.00     0.002 C 
ENDBRANCH  16  17
ENDBRANCH  14  16
ENDBRANCH   1  14
TORSDOF 3
