REMARK  5 active torsions:
REMARK  status: ('A' for Active; 'I' for Inactive)
REMARK    1  A    between atoms: O_2  and  C_3 
REMARK    2  A    between atoms: C_22  and  C_24 
REMARK    3  A    between atoms: C_24  and  C_26 
REMARK    4  A    between atoms: C_29  and  O_30 
REMARK    5  A    between atoms: O_30  and  C_31 
ROOT
ATOM      1  C   UNL d   1       7.186  -1.077 -19.045  0.00  0.00     0.097 A 
ATOM      2  C   UNL d   1       5.978  -1.498 -19.658  0.00  0.00     0.024 A 
ATOM      3  C   UNL d   1       4.751  -1.383 -18.982  0.00  0.00     0.002 A 
ATOM      4  C   UNL d   1       4.706  -0.858 -17.680  0.00  0.00     0.003 A 
ATOM      5  C   UNL d   1       5.891  -0.422 -17.039  0.00  0.00     0.044 A 
ATOM      6  C   UNL d   1       7.139  -0.540 -17.719  0.00  0.00     0.064 A 
ATOM      7  C   UNL d   1       8.394  -0.143 -17.003  0.00  0.00     0.200 C 
ATOM      8  O   UNL d   1       9.495  -0.596 -17.346  0.00  0.00    -0.286 OA
ATOM      9  C   UNL d   1       8.239   0.828 -15.873  0.00  0.00     0.069 A 
ATOM     10  C   UNL d   1       9.331   1.618 -15.443  0.00  0.00     0.132 A 
ATOM     11  O   UNL d   1      10.582   1.453 -15.988  0.00  0.00    -0.190 OA
ATOM     12  C   UNL d   1       9.147   2.665 -14.505  0.00  0.00     0.028 A 
ATOM     13  C   UNL d   1       7.867   2.878 -13.928  0.00  0.00     0.006 A 
ATOM     14  C   UNL d   1       6.803   2.015 -14.271  0.00  0.00     0.130 A 
ATOM     15  O   UNL d   1       5.641   2.169 -13.557  0.00  0.00    -0.190 OA
ATOM     16  C   UNL d   1       6.966   1.008 -15.261  0.00  0.00     0.069 A 
ATOM     17  C   UNL d   1       5.811   0.136 -15.655  0.00  0.00     0.198 C 
ATOM     18  O   UNL d   1       4.844  -0.105 -14.936  0.00  0.00    -0.286 OA
ATOM     19  C   UNL d   1       7.617   3.938 -12.825  0.00  0.00     0.066 C 
ATOM     20  C   UNL d   1       8.737   4.945 -12.646  0.00  0.00     0.187 C 
ATOM     21  O   UNL d   1       8.511   5.902 -13.636  0.00  0.00    -0.218 OA
ATOM     22  C   UNL d   1      10.129   4.319 -12.857  0.00  0.00     0.072 C 
ATOM     23  C   UNL d   1      10.332   3.566 -14.168  0.00  0.00     0.145 C 
ENDROOT
BRANCH  23  24
ATOM     24  O   UNL d   1      10.565   4.559 -15.178  0.00  0.00    -0.329 OA
BRANCH  24  25
ATOM     25  C   UNL d   1      11.404   4.227 -16.253  0.00  0.00     0.238 C 
ATOM     26  O   UNL d   1      12.356   5.223 -16.511  0.00  0.00    -0.331 OA
ATOM     27  C   UNL d   1      11.827   6.499 -16.876  0.00  0.00     0.150 C 
ATOM     28  C   UNL d   1      11.034   6.364 -18.198  0.00  0.00     0.216 C 
ATOM     29  C   UNL d   1      13.000   7.489 -16.941  0.00  0.00     0.035 C 
ATOM     30  C   UNL d   1       9.969   5.263 -18.067  0.00  0.00     0.339 C 
ATOM     31  O   UNL d   1      11.956   6.019 -19.216  0.00  0.00    -0.219 OA
ATOM     32  C   UNL d   1      10.570   3.953 -17.529  0.00  0.00     0.103 C 
ATOM     33  N   UNL d   1       9.246   5.063 -19.351  0.00  0.00     0.619 N 
ENDBRANCH  24  25
ENDBRANCH  23  24
BRANCH  20  34
ATOM     34  C   UNL d   1       8.682   5.728 -11.296  0.00  0.00     0.211 C 
ATOM     35  O   UNL d   1       8.330   5.200 -10.241  0.00  0.00    -0.291 OA
BRANCH  34  36
ATOM     36  C   UNL d   1       9.103   7.225 -11.351  0.00  0.00     0.249 C 
ATOM     37  O   UNL d   1       9.464   7.736 -10.081  0.00  0.00    -0.212 OA
ENDBRANCH  34  36
ENDBRANCH  20  34
BRANCH   1  38
ATOM     38  O   UNL d   1       8.413  -1.167 -19.676  0.00  0.00    -0.328 OA
ATOM     39  C   UNL d   1       8.475  -1.679 -20.994  0.00  0.00     0.181 C 
ENDBRANCH   1  38
TORSDOF 5
