REMARK  9 active torsions:
REMARK  status: ('A' for Active; 'I' for Inactive)
REMARK    1  A    between atoms: C_2  and  C_3 
REMARK    2  A    between atoms: C_3  and  N_4 
REMARK    3  A    between atoms: C_19  and  O_20 
REMARK    4  A    between atoms: O_20  and  C_21 
REMARK    5  A    between atoms: C_21  and  C_23 
REMARK    6  A    between atoms: C_23  and  N_24 
REMARK       I    between atoms: N_24  and  C_25 
REMARK    7  A    between atoms: C_25  and  O_27 
REMARK    8  A    between atoms: O_27  and  C_28 
REMARK    9  A    between atoms: C_28  and  C_29 
ROOT
ATOM      1  N   UNL d   1       8.491   0.730 -16.003  0.00  0.00     0.140 N 
ATOM      2  C   UNL d   1       9.848   0.188 -15.906  0.00  0.00     0.255 C 
ATOM      3  C   UNL d   1      10.802   1.250 -16.436  0.00  0.00     0.061 C 
ATOM      4  C   UNL d   1      10.681   2.596 -15.764  0.00  0.00    -0.022 A 
ATOM      5  C   UNL d   1      11.634   3.624 -15.819  0.00  0.00    -0.004 A 
ATOM      6  C   UNL d   1      11.391   4.846 -15.185  0.00  0.00    -0.000 A 
ATOM      7  C   UNL d   1      10.202   5.036 -14.469  0.00  0.00    -0.000 A 
ATOM      8  C   UNL d   1       9.214   4.040 -14.367  0.00  0.00    -0.001 A 
ATOM      9  C   UNL d   1       9.469   2.837 -15.052  0.00  0.00     0.005 A 
ATOM     10  C   UNL d   1       8.364   1.762 -14.983  0.00  0.00     0.245 C 
ATOM     11  C   UNL d   1       6.960   2.406 -15.068  0.00  0.00     0.064 C 
ATOM     12  C   UNL d   1       6.812   3.486 -14.022  0.00  0.00    -0.018 A 
ATOM     13  C   UNL d   1       5.592   3.624 -13.343  0.00  0.00    -0.004 A 
ATOM     14  C   UNL d   1       5.474   4.559 -12.325  0.00  0.00     0.002 A 
ATOM     15  C   UNL d   1       6.532   5.425 -12.018  0.00  0.00     0.025 A 
ATOM     16  C   UNL d   1       7.774   5.284 -12.646  0.00  0.00     0.103 A 
ATOM     17  C   UNL d   1       7.941   4.294 -13.663  0.00  0.00     0.019 A 
ENDROOT
BRANCH  16  18
ATOM     18  O   UNL d   1       8.774   6.064 -12.094  0.00  0.00    -0.275 OA
BRANCH  18  19
ATOM     19  C   UNL d   1       9.466   5.535 -11.095  0.00  0.00     0.301 C 
ATOM     20  O   UNL d   1       9.438   4.386 -10.692  0.00  0.00    -0.262 OA
BRANCH  19  21
ATOM     21  C   UNL d   1      10.409   6.523 -10.483  0.00  0.00     0.227 C 
BRANCH  21  22
ATOM     22  N   UNL d   1       9.710   7.395  -9.614  0.00  0.00    -0.202 NA
ATOM     23  C   UNL d   1       9.708   7.195  -8.254  0.00  0.00     0.384 C 
ATOM     24  O   UNL d   1      10.184   6.247  -7.622  0.00  0.00    -0.236 OA
BRANCH  23  25
ATOM     25  O   UNL d   1       9.139   8.263  -7.701  0.00  0.00    -0.279 OA
BRANCH  25  26
ATOM     26  C   UNL d   1       9.040   8.328  -6.303  0.00  0.00     0.180 C 
BRANCH  26  27
ATOM     27  C   UNL d   1      10.355   8.543  -5.640  0.00  0.00     0.008 A 
ATOM     28  C   UNL d   1      10.906   7.520  -4.831  0.00  0.00    -0.002 A 
ATOM     29  C   UNL d   1      12.126   7.735  -4.165  0.00  0.00    -0.000 A 
ATOM     30  C   UNL d   1      12.819   8.943  -4.449  0.00  0.00    -0.000 A 
ATOM     31  C   UNL d   1      12.300   9.902  -5.313  0.00  0.00    -0.000 A 
ATOM     32  C   UNL d   1      11.054   9.745  -5.894  0.00  0.00    -0.002 A 
ENDBRANCH  26  27
ENDBRANCH  25  26
ENDBRANCH  23  25
ENDBRANCH  21  22
ENDBRANCH  19  21
ENDBRANCH  18  19
ENDBRANCH  16  18
BRANCH   1  33
ATOM     33  C   UNL d   1       7.542  -0.342 -15.740  0.00  0.00     0.251 C 
BRANCH  33  34
ATOM     34  C   UNL d   1       7.131  -0.973 -17.110  0.00  0.00     0.035 C 
ATOM     35  C   UNL d   1       6.173  -0.062 -17.895  0.00  0.00     0.002 C 
ENDBRANCH  33  34
ENDBRANCH   1  33
TORSDOF 9
