REMARK  7 active torsions:
REMARK  status: ('A' for Active; 'I' for Inactive)
REMARK    1  A    between atoms: O_2  and  C_3 
REMARK    2  A    between atoms: C_8  and  N_9 
REMARK    3  A    between atoms: N_12  and  C_13 
REMARK    4  A    between atoms: C_13  and  C_14 
REMARK    5  A    between atoms: C_14  and  C_16 
REMARK    6  A    between atoms: C_16  and  N_17 
REMARK    7  A    between atoms: C_21  and  C_23 
ROOT
ATOM      1  N   UNL d   1       9.227   1.616 -16.153  0.00  0.00    -0.247 N 
ATOM      2  C   UNL d   1      10.423   1.085 -15.851  0.00  0.00     0.348 A 
ATOM      3  O   UNL d   1      10.687   0.395 -14.869  0.00  0.00    -0.245 OA
ATOM      4  N   UNL d   1      11.280   1.435 -16.817  0.00  0.00    -0.209 NA
ATOM      5  C   UNL d   1      10.727   2.361 -17.806  0.00  0.00     0.179 A 
ATOM      6  C   UNL d   1      10.855   1.691 -19.201  0.00  0.00     0.039 C 
ATOM      7  C   UNL d   1       9.276   2.321 -17.281  0.00  0.00     0.265 A 
ATOM      8  O   UNL d   1       8.283   2.787 -17.835  0.00  0.00    -0.269 OA
ENDROOT
BRANCH   1   9
ATOM      9  C   UNL d   1       8.004   1.434 -15.363  0.00  0.00     0.148 C 
BRANCH   9  10
ATOM     10  C   UNL d   1       7.699   2.634 -14.450  0.00  0.00     0.208 C 
ATOM     11  O   UNL d   1       6.536   2.263 -13.752  0.00  0.00    -0.219 OA
BRANCH  10  12
ATOM     12  C   UNL d   1       8.870   3.091 -13.581  0.00  0.00     0.285 C 
BRANCH  12  13
ATOM     13  N   UNL d   1       8.729   4.394 -13.000  0.00  0.00     0.144 N 
ATOM     14  C   UNL d   1      10.001   4.757 -12.400  0.00  0.00     0.274 C 
ATOM     15  C   UNL d   1       9.982   6.129 -11.732  0.00  0.00     0.137 C 
ATOM     16  N   UNL d   1       8.969   6.122 -10.725  0.00  0.00    -0.343 N 
ATOM     17  C   UNL d   1       7.644   5.804 -11.215  0.00  0.00     0.137 C 
ATOM     18  C   UNL d   1       7.705   4.466 -11.945  0.00  0.00     0.274 C 
BRANCH  16  19
ATOM     19  C   UNL d   1       9.220   6.593  -9.407  0.00  0.00     0.079 A 
ATOM     20  C   UNL d   1      10.060   7.711  -9.136  0.00  0.00     0.110 A 
ATOM     21  C   UNL d   1      10.250   8.126  -7.799  0.00  0.00     0.026 A 
ATOM     22  C   UNL d   1       9.563   7.493  -6.749  0.00  0.00     0.002 A 
ATOM     23  C   UNL d   1       8.691   6.435  -7.029  0.00  0.00     0.002 A 
ATOM     24  C   UNL d   1       8.573   5.948  -8.339  0.00  0.00     0.019 A 
BRANCH  20  25
ATOM     25  O   UNL d   1      10.601   8.413 -10.194  0.00  0.00    -0.327 OA
ATOM     26  C   UNL d   1      11.728   9.214  -9.938  0.00  0.00     0.181 C 
ENDBRANCH  20  25
ENDBRANCH  16  19
ENDBRANCH  12  13
ENDBRANCH  10  12
ENDBRANCH   9  10
ENDBRANCH   1   9
BRANCH   5  27
ATOM     27  C   UNL d   1      11.401   3.773 -17.741  0.00  0.00     0.006 A 
ATOM     28  C   UNL d   1      11.000   4.896 -18.536  0.00  0.00    -0.002 A 
ATOM     29  C   UNL d   1      11.720   6.130 -18.461  0.00  0.00    -0.000 A 
ATOM     30  C   UNL d   1       9.905   4.858 -19.441  0.00  0.00    -0.000 A 
ATOM     31  C   UNL d   1      12.842   6.257 -17.614  0.00  0.00    -0.000 A 
ATOM     32  C   UNL d   1      11.338   7.253 -19.236  0.00  0.00    -0.000 A 
ATOM     33  C   UNL d   1      13.254   5.164 -16.835  0.00  0.00    -0.000 A 
ATOM     34  C   UNL d   1      12.548   3.946 -16.901  0.00  0.00    -0.002 A 
ATOM     35  C   UNL d   1      10.219   7.184 -20.084  0.00  0.00    -0.000 A 
ATOM     36  C   UNL d   1       9.504   5.981 -20.175  0.00  0.00    -0.000 A 
ENDBRANCH   5  27
TORSDOF 7
