REMARK  4 active torsions:
REMARK  status: ('A' for Active; 'I' for Inactive)
REMARK       I    between atoms: N_10  and  C_11 
REMARK    1  A    between atoms: C_11  and  C_13 
REMARK    2  A    between atoms: C_13  and  C_14 
REMARK    3  A    between atoms: N_17  and  C_18 
REMARK    4  A    between atoms: C_18  and  C_19 
ROOT
ATOM      1  C   UNL d   1       9.148   6.100 -10.747  0.00  0.00     0.013 C 
ATOM      2  C   UNL d   1       8.559   4.747 -10.332  0.00  0.00     0.036 C 
ATOM      3  C   UNL d   1       7.398   4.357 -11.263  0.00  0.00     0.251 C 
ATOM      4  N   UNL d   1       7.872   4.313 -12.649  0.00  0.00     0.141 N 
ATOM      5  C   UNL d   1       8.239   5.671 -13.052  0.00  0.00     0.251 C 
ATOM      6  C   UNL d   1       9.472   6.075 -12.240  0.00  0.00     0.036 C 
ENDROOT
BRANCH   1   7
ATOM      7  C   UNL d   1      10.379   6.477  -9.886  0.00  0.00     0.088 C 
BRANCH   7   8
ATOM      8  C   UNL d   1      10.225   7.704  -8.986  0.00  0.00     0.237 C 
ATOM      9  N   UNL d   1      10.277   7.503  -7.647  0.00  0.00    -0.301 N 
ATOM     10  C   UNL d   1       9.764   6.333  -6.929  0.00  0.00     0.093 C 
ATOM     11  C   UNL d   1      10.950   8.325  -6.743  0.00  0.00     0.058 A 
ATOM     12  C   UNL d   1       8.244   6.420  -6.907  0.00  0.00     0.025 C 
ATOM     13  C   UNL d   1      10.351   6.404  -5.509  0.00  0.00     0.051 C 
ATOM     14  C   UNL d   1      11.039   7.703  -5.510  0.00  0.00    -0.004 A 
ATOM     15  C   UNL d   1      11.710   8.280  -4.418  0.00  0.00    -0.003 A 
ATOM     16  C   UNL d   1      12.317   9.499  -4.637  0.00  0.00    -0.000 A 
ATOM     17  C   UNL d   1      12.206  10.168  -5.897  0.00  0.00     0.002 A 
ATOM     18  C   UNL d   1      11.505   9.587  -6.953  0.00  0.00     0.017 A 
ATOM     19  O   UNL d   1      10.137   8.823  -9.502  0.00  0.00    -0.272 OA
ENDBRANCH   7   8
ENDBRANCH   1   7
BRANCH   4  20
ATOM     20  C   UNL d   1       6.842   3.777 -13.530  0.00  0.00     0.278 C 
BRANCH  20  21
ATOM     21  C   UNL d   1       7.305   2.653 -14.465  0.00  0.00     0.022 A 
ATOM     22  C   UNL d   1       8.501   2.683 -15.255  0.00  0.00     0.058 A 
ATOM     23  C   UNL d   1       8.765   1.639 -16.156  0.00  0.00     0.041 A 
ATOM     24 CL   UNL d   1       9.678   3.961 -15.265  0.00  0.00    -0.083 Cl
ATOM     25  C   UNL d   1       7.906   0.544 -16.288  0.00  0.00     0.141 A 
ATOM     26  C   UNL d   1       6.740   0.481 -15.505  0.00  0.00     0.029 A 
ATOM     27  F   UNL d   1       8.211  -0.438 -17.168  0.00  0.00    -0.204 F 
ATOM     28  C   UNL d   1       6.443   1.531 -14.602  0.00  0.00     0.001 A 
ENDBRANCH  20  21
ENDBRANCH   4  20
TORSDOF 4
