REMARK  5 active torsions:
REMARK  status: ('A' for Active; 'I' for Inactive)
REMARK    1  A    between atoms: C_2  and  C_3 
REMARK    2  A    between atoms: C_3  and  N_4 
REMARK    3  A    between atoms: N_4  and  C_5 
REMARK    4  A    between atoms: N_4  and  C_8 
REMARK    5  A    between atoms: C_5  and  C_6 
ROOT
ATOM      1  C   UNL d   1       9.462   7.279 -10.036  0.00  0.00     0.224 C 
ATOM      2  C   UNL d   1      10.794   8.018 -10.387  0.00  0.00     0.038 C 
ATOM      3  C   UNL d   1      11.112   9.120  -9.386  0.00  0.00     0.028 C 
ATOM      4  C   UNL d   1      10.945   8.693  -7.940  0.00  0.00    -0.026 A 
ATOM      5  C   UNL d   1      11.566   9.470  -6.939  0.00  0.00    -0.005 A 
ATOM      6  C   UNL d   1      11.490   9.098  -5.588  0.00  0.00    -0.000 A 
ATOM      7  C   UNL d   1      10.787   7.937  -5.246  0.00  0.00    -0.000 A 
ATOM      8  C   UNL d   1      10.126   7.181  -6.237  0.00  0.00    -0.004 A 
ATOM      9  C   UNL d   1      10.185   7.539  -7.588  0.00  0.00    -0.025 A 
ATOM     10  C   UNL d   1       9.466   6.647  -8.616  0.00  0.00     0.053 C 
ATOM     11  C   UNL d   1      10.247   5.348  -8.717  0.00  0.00     0.007 C 
ENDROOT
BRANCH   1  12
ATOM     12  N   UNL d   1       9.070   6.316 -11.101  0.00  0.00     0.135 N 
BRANCH  12  13
ATOM     13  C   UNL d   1       7.848   5.528 -10.800  0.00  0.00     0.250 C 
BRANCH  13  14
ATOM     14  C   UNL d   1       7.304   4.672 -11.977  0.00  0.00     0.035 C 
ATOM     15  C   UNL d   1       6.028   3.901 -11.656  0.00  0.00     0.002 C 
ENDBRANCH  13  14
ENDBRANCH  12  13
BRANCH  12  16
ATOM     16  C   UNL d   1       8.996   6.911 -12.445  0.00  0.00     0.250 C 
BRANCH  16  17
ATOM     17  C   UNL d   1       7.699   7.735 -12.608  0.00  0.00     0.035 C 
ATOM     18  C   UNL d   1       8.017   9.200 -12.274  0.00  0.00     0.002 C 
ENDBRANCH  16  17
ENDBRANCH  12  16
ENDBRANCH   1  12
TORSDOF 5
