REMARK  5 active torsions:
REMARK  status: ('A' for Active; 'I' for Inactive)
REMARK    1  A    between atoms: O_2  and  C_3 
REMARK    2  A    between atoms: C_8  and  N_9 
REMARK    3  A    between atoms: N_12  and  C_13 
REMARK    4  A    between atoms: C_13  and  C_14 
REMARK    5  A    between atoms: N_17  and  C_18 
ROOT
ATOM      1  N   UNL d   1      10.095   3.513 -14.952  0.00  0.00    -0.343 N 
ATOM      2  C   UNL d   1      10.690   3.197 -13.666  0.00  0.00     0.137 C 
ATOM      3  C   UNL d   1       9.777   3.687 -12.516  0.00  0.00     0.275 C 
ATOM      4  N   UNL d   1       9.440   5.107 -12.660  0.00  0.00     0.146 N 
ATOM      5  C   UNL d   1       8.713   5.263 -13.924  0.00  0.00     0.275 C 
ATOM      6  C   UNL d   1       9.617   4.873 -15.124  0.00  0.00     0.137 C 
ENDROOT
BRANCH   4   7
ATOM      7  C   UNL d   1       8.602   5.520 -11.531  0.00  0.00     0.280 C 
BRANCH   7   8
ATOM      8  C   UNL d   1       9.319   6.473 -10.616  0.00  0.00     0.051 A 
ATOM      9  C   UNL d   1       9.525   6.370  -9.271  0.00  0.00     0.100 A 
ATOM     10  N   UNL d   1      10.175   7.519  -8.845  0.00  0.00    -0.229 N 
ATOM     11  N   UNL d   1      10.365   8.372  -9.879  0.00  0.00    -0.164 NA
ATOM     12  C   UNL d   1       9.850   7.756 -10.928  0.00  0.00     0.120 A 
BRANCH  10  13
ATOM     13  C   UNL d   1      10.606   7.859  -7.535  0.00  0.00     0.083 A 
ATOM     14  C   UNL d   1      10.613   6.880  -6.518  0.00  0.00     0.019 A 
ATOM     15  C   UNL d   1      11.061   7.193  -5.223  0.00  0.00     0.002 A 
ATOM     16  C   UNL d   1      11.488   8.501  -4.919  0.00  0.00     0.000 A 
ATOM     17  C   UNL d   1      11.485   9.487  -5.924  0.00  0.00     0.002 A 
ATOM     18  C   UNL d   1      11.049   9.168  -7.225  0.00  0.00     0.019 A 
ENDBRANCH  10  13
ENDBRANCH   7   8
ENDBRANCH   4   7
BRANCH   1  19
ATOM     19  C   UNL d   1       9.870   2.527 -15.922  0.00  0.00     0.079 A 
ATOM     20  C   UNL d   1       9.023   1.416 -15.669  0.00  0.00     0.110 A 
ATOM     21  C   UNL d   1       8.843   0.450 -16.690  0.00  0.00     0.026 A 
ATOM     22  C   UNL d   1       9.489   0.584 -17.932  0.00  0.00     0.002 A 
ATOM     23  C   UNL d   1      10.316   1.692 -18.180  0.00  0.00     0.002 A 
ATOM     24  C   UNL d   1      10.498   2.663 -17.177  0.00  0.00     0.019 A 
BRANCH  20  25
ATOM     25  O   UNL d   1       8.399   1.344 -14.439  0.00  0.00    -0.327 OA
ATOM     26  C   UNL d   1       7.389   0.360 -14.259  0.00  0.00     0.181 C 
ENDBRANCH  20  25
ENDBRANCH   1  19
TORSDOF 5
