REMARK  13 active torsions:
REMARK  status: ('A' for Active; 'I' for Inactive)
REMARK    1  A    between atoms: C_2  and  N_3 
REMARK    2  A    between atoms: N_3  and  C_4 
REMARK    3  A    between atoms: N_3  and  C_20 
REMARK    4  A    between atoms: C_4  and  C_5 
REMARK    5  A    between atoms: C_5  and  C_6 
REMARK    6  A    between atoms: C_6  and  S_7 
REMARK    7  A    between atoms: S_7  and  C_8 
REMARK    8  A    between atoms: C_11  and  C_12 
REMARK    9  A    between atoms: C_20  and  C_21 
REMARK   10  A    between atoms: C_23  and  C_24 
REMARK   11  A    between atoms: C_30  and  O_31 
REMARK   12  A    between atoms: O_31  and  C_32 
REMARK   13  A    between atoms: C_32  and  C_33 
ROOT
ATOM      1  N   UNL d   1       6.841   0.923 -15.781  0.00  0.00     0.137 N 
ENDROOT
BRANCH   1   2
ATOM      2  C   UNL d   1       6.703  -0.518 -15.968  0.00  0.00     0.250 C 
ATOM      3  C   UNL d   1       5.280  -0.972 -16.243  0.00  0.00     0.037 C 
ENDBRANCH   1   2
BRANCH   1   4
ATOM      4  C   UNL d   1       6.416   1.324 -14.436  0.00  0.00     0.251 C 
BRANCH   4   5
ATOM      5  C   UNL d   1       6.451   2.861 -14.260  0.00  0.00     0.047 C 
BRANCH   5   6
ATOM      6  C   UNL d   1       5.725   3.329 -13.001  0.00  0.00     0.067 C 
BRANCH   6   7
ATOM      7  S   UNL d   1       5.833   5.136 -12.843  0.00  0.00    -0.075 SA
BRANCH   7   8
ATOM      8  C   UNL d   1       7.191   5.299 -11.728  0.00  0.00     0.193 A 
ATOM      9  N   UNL d   1       7.981   6.402 -11.685  0.00  0.00    -0.289 N 
ATOM     10  C   UNL d   1       8.819   6.100 -10.662  0.00  0.00     0.167 A 
ATOM     11  C   UNL d   1       7.765   7.612 -12.539  0.00  0.00     0.134 C 
ATOM     12  N   UNL d   1       8.582   4.859 -10.161  0.00  0.00    -0.128 NA
ATOM     13  N   UNL d   1       7.530   4.351 -10.836  0.00  0.00    -0.122 NA
BRANCH  10  14
ATOM     14  C   UNL d   1       9.850   6.953 -10.071  0.00  0.00     0.036 A 
ATOM     15  C   UNL d   1      10.368   8.064 -10.745  0.00  0.00     0.003 A 
ATOM     16  C   UNL d   1      11.377   8.801 -10.186  0.00  0.00     0.000 A 
ATOM     17  C   UNL d   1      11.933   8.499  -8.916  0.00  0.00     0.000 A 
ATOM     18  C   UNL d   1      11.410   7.392  -8.208  0.00  0.00     0.000 A 
ATOM     19  C   UNL d   1      10.373   6.612  -8.765  0.00  0.00     0.003 A 
ENDBRANCH  10  14
ENDBRANCH   7   8
ENDBRANCH   6   7
ENDBRANCH   5   6
ENDBRANCH   4   5
ENDBRANCH   1   4
BRANCH   1  20
ATOM     20  C   UNL d   1       8.226   1.298 -16.050  0.00  0.00     0.251 C 
BRANCH  20  21
ATOM     21  C   UNL d   1       9.265   0.429 -15.347  0.00  0.00     0.038 A 
ATOM     22  C   UNL d   1      10.724   0.585 -15.714  0.00  0.00     0.026 A 
ATOM     23  C   UNL d   1       9.960  -0.643 -16.142  0.00  0.00     0.007 A 
BRANCH  22  24
ATOM     24  C   UNL d   1      11.118   1.603 -16.735  0.00  0.00     0.002 A 
ATOM     25  C   UNL d   1      10.921   2.982 -16.497  0.00  0.00     0.090 A 
ATOM     26  C   UNL d   1      11.196   3.892 -17.548  0.00  0.00     0.026 A 
ATOM     27  C   UNL d   1      11.736   3.464 -18.753  0.00  0.00     0.032 A 
ATOM     28  C   UNL d   1      11.954   2.088 -18.982  0.00  0.00     0.140 A 
ATOM     29  C   UNL d   1      11.636   1.164 -17.978  0.00  0.00     0.027 A 
ATOM     30  F   UNL d   1      12.441   1.661 -20.170  0.00  0.00    -0.204 F 
BRANCH  25  31
ATOM     31  O   UNL d   1      10.469   3.352 -15.247  0.00  0.00    -0.328 OA
BRANCH  31  32
ATOM     32  C   UNL d   1      10.422   4.734 -14.915  0.00  0.00     0.187 C 
BRANCH  32  33
ATOM     33  C   UNL d   1      11.852   5.354 -14.921  0.00  0.00     0.226 C 
ATOM     34  F   UNL d   1      12.573   4.787 -13.934  0.00  0.00    -0.232 F 
ENDBRANCH  32  33
ENDBRANCH  31  32
ENDBRANCH  25  31
ENDBRANCH  22  24
ENDBRANCH  20  21
ENDBRANCH   1  20
TORSDOF 13
