REMARK  7 active torsions:
REMARK  status: ('A' for Active; 'I' for Inactive)
REMARK       I    between atoms: C_2  and  N_3 
REMARK    1  A    between atoms: C_2  and  C_21 
REMARK    2  A    between atoms: N_3  and  C_4 
REMARK    3  A    between atoms: C_4  and  C_5 
REMARK    4  A    between atoms: C_5  and  C_6 
REMARK    5  A    between atoms: C_6  and  C_7 
REMARK    6  A    between atoms: C_7  and  N_8 
REMARK    7  A    between atoms: N_11  and  C_12 
ROOT
ATOM      1  N   UNL d   1       7.951   5.047 -11.961  0.00  0.00     0.141 N 
ATOM      2  C   UNL d   1       8.839   4.095 -12.645  0.00  0.00     0.274 C 
ATOM      3  C   UNL d   1       8.262   3.712 -14.025  0.00  0.00     0.137 C 
ATOM      4  N   UNL d   1       6.898   3.212 -13.880  0.00  0.00    -0.344 N 
ATOM      5  C   UNL d   1       5.999   4.074 -13.116  0.00  0.00     0.137 C 
ATOM      6  C   UNL d   1       6.636   4.431 -11.764  0.00  0.00     0.274 C 
ENDROOT
BRANCH   1   7
ATOM      7  C   UNL d   1       8.482   5.416 -10.651  0.00  0.00     0.251 C 
BRANCH   7   8
ATOM      8  C   UNL d   1       9.512   6.556 -10.759  0.00  0.00     0.037 C 
BRANCH   8   9
ATOM      9  C   UNL d   1      10.220   6.836  -9.422  0.00  0.00     0.029 C 
BRANCH   9  10
ATOM     10  C   UNL d   1       9.298   7.460  -8.359  0.00  0.00     0.129 C 
BRANCH  10  11
ATOM     11  N   UNL d   1       9.935   7.485  -7.051  0.00  0.00    -0.234 NA
ATOM     12  C   UNL d   1      10.757   8.442  -6.598  0.00  0.00     0.275 C 
ATOM     13  O   UNL d   1      11.053   9.451  -7.235  0.00  0.00    -0.266 OA
BRANCH  12  14
ATOM     14  C   UNL d   1      11.249   8.247  -5.193  0.00  0.00     0.058 A 
ATOM     15  C   UNL d   1      11.464   6.951  -4.667  0.00  0.00     0.005 A 
ATOM     16  C   UNL d   1      11.950   6.788  -3.353  0.00  0.00     0.000 A 
ATOM     17  C   UNL d   1      12.244   7.914  -2.564  0.00  0.00     0.000 A 
ATOM     18  C   UNL d   1      12.039   9.202  -3.085  0.00  0.00     0.000 A 
ATOM     19  C   UNL d   1      11.549   9.372  -4.394  0.00  0.00     0.005 A 
ENDBRANCH  12  14
ENDBRANCH  10  11
ENDBRANCH   9  10
ENDBRANCH   8   9
ENDBRANCH   7   8
ENDBRANCH   1   7
BRANCH   4  20
ATOM     20  C   UNL d   1       6.509   1.941 -14.348  0.00  0.00     0.056 A 
ATOM     21  C   UNL d   1       5.530   1.181 -13.660  0.00  0.00     0.018 A 
ATOM     22  C   UNL d   1       5.070  -0.038 -14.187  0.00  0.00     0.013 A 
ATOM     23  C   UNL d   1       5.605  -0.532 -15.389  0.00  0.00     0.058 A 
ATOM     24  C   UNL d   1       6.599   0.194 -16.067  0.00  0.00     0.013 A 
ATOM     25 CL   UNL d   1       5.049  -2.024 -16.036  0.00  0.00    -0.082 Cl
ATOM     26  C   UNL d   1       7.052   1.423 -15.550  0.00  0.00     0.018 A 
ENDBRANCH   4  20
TORSDOF 7
