REMARK  6 active torsions:
REMARK  status: ('A' for Active; 'I' for Inactive)
REMARK    1  A    between atoms: O_2  and  C_3 
REMARK    2  A    between atoms: C_6  and  N_7 
REMARK    3  A    between atoms: N_10  and  C_11 
REMARK    4  A    between atoms: C_11  and  C_12 
REMARK    5  A    between atoms: C_12  and  C_13 
REMARK    6  A    between atoms: C_19  and  C_20 
ROOT
ATOM      1  C   UNL d   1       8.276   5.599 -11.467  0.00  0.00     0.253 C 
ENDROOT
BRANCH   1   2
ATOM      2  N   UNL d   1       9.434   5.755 -10.592  0.00  0.00     0.141 N 
ATOM      3  C   UNL d   1       9.867   7.155 -10.600  0.00  0.00     0.274 C 
ATOM      4  C   UNL d   1      11.075   7.351  -9.675  0.00  0.00     0.137 C 
ATOM      5  N   UNL d   1      10.730   6.891  -8.339  0.00  0.00    -0.344 N 
ATOM      6  C   UNL d   1      10.189   5.544  -8.248  0.00  0.00     0.137 C 
ATOM      7  C   UNL d   1       9.028   5.387  -9.235  0.00  0.00     0.274 C 
BRANCH   5   8
ATOM      8  C   UNL d   1      10.934   7.663  -7.186  0.00  0.00     0.056 A 
ATOM      9  C   UNL d   1      11.244   7.024  -5.971  0.00  0.00     0.019 A 
ATOM     10  C   UNL d   1      11.460   7.768  -4.798  0.00  0.00     0.026 A 
ATOM     11  C   UNL d   1      11.349   9.183  -4.814  0.00  0.00     0.094 A 
ATOM     12  C   UNL d   1      11.053   9.818  -6.036  0.00  0.00     0.026 A 
ATOM     13  C   UNL d   1      10.835   9.068  -7.210  0.00  0.00     0.019 A 
BRANCH  11  14
ATOM     14  O   UNL d   1      11.464   9.970  -3.692  0.00  0.00    -0.328 OA
ATOM     15  C   UNL d   1      11.943   9.355  -2.507  0.00  0.00     0.181 C 
ENDBRANCH  11  14
ENDBRANCH   5   8
ENDBRANCH   1   2
BRANCH   1  16
ATOM     16  C   UNL d   1       8.652   4.731 -12.688  0.00  0.00     0.070 C 
BRANCH  16  17
ATOM     17  C   UNL d   1       7.436   4.085 -13.379  0.00  0.00     0.139 C 
ATOM     18  C   UNL d   1       7.811   3.003 -14.385  0.00  0.00     0.001 A 
ATOM     19  C   UNL d   1       7.023   1.833 -14.470  0.00  0.00    -0.021 A 
ATOM     20  C   UNL d   1       8.891   3.174 -15.277  0.00  0.00    -0.002 A 
ATOM     21  C   UNL d   1       5.850   1.628 -13.523  0.00  0.00     0.058 C 
ATOM     22  C   UNL d   1       7.323   0.844 -15.425  0.00  0.00     0.000 A 
ATOM     23  C   UNL d   1       5.404   2.945 -12.873  0.00  0.00     0.147 C 
ATOM     24  O   UNL d   1       6.560   3.597 -12.357  0.00  0.00    -0.352 OA
ATOM     25  C   UNL d   1       8.393   1.015 -16.326  0.00  0.00     0.059 A 
ATOM     26  C   UNL d   1       9.177   2.183 -16.234  0.00  0.00     0.005 A 
BRANCH  25  27
ATOM     27  C   UNL d   1       8.721  -0.032 -17.346  0.00  0.00     0.297 C 
ATOM     28  N   UNL d   1       7.677  -0.609 -17.941  0.00  0.00    -0.102 N 
ATOM     29  O   UNL d   1       9.871  -0.316 -17.638  0.00  0.00    -0.264 OA
ENDBRANCH  25  27
ENDBRANCH  16  17
ENDBRANCH   1  16
TORSDOF 6
