REMARK  4 active torsions:
REMARK  status: ('A' for Active; 'I' for Inactive)
REMARK       I    between atoms: N_9  and  C_10 
REMARK    1  A    between atoms: C_10  and  C_12 
REMARK    2  A    between atoms: C_12  and  N_13 
REMARK    3  A    between atoms: N_16  and  C_17 
REMARK    4  A    between atoms: C_17  and  C_18 
ROOT
ATOM      1  N   UNL d   1       8.885   5.251 -12.383  0.00  0.00     0.151 N 
ATOM      2  C   UNL d   1       7.986   4.585 -11.449  0.00  0.00     0.286 C 
ATOM      3  C   UNL d   1       8.554   4.504 -10.022  0.00  0.00     0.286 C 
ATOM      4  N   UNL d   1       8.841   5.826  -9.473  0.00  0.00     0.146 N 
ATOM      5  C   UNL d   1       9.690   6.497 -10.448  0.00  0.00     0.286 C 
ATOM      6  C   UNL d   1       9.132   6.582 -11.839  0.00  0.00     0.286 C 
ENDROOT
BRANCH   1   7
ATOM      7  C   UNL d   1       8.340   5.344 -13.731  0.00  0.00     0.337 C 
BRANCH   7   8
ATOM      8  C   UNL d   1       9.117   4.470 -14.748  0.00  0.00     0.271 C 
ATOM      9  N   UNL d   1       8.691   3.181 -14.997  0.00  0.00    -0.299 N 
ATOM     10  C   UNL d   1       7.577   2.483 -14.456  0.00  0.00     0.058 A 
ATOM     11  C   UNL d   1       9.453   2.333 -15.937  0.00  0.00     0.092 C 
ATOM     12  C   UNL d   1       7.704   1.111 -14.816  0.00  0.00    -0.005 A 
ATOM     13  C   UNL d   1       6.430   2.878 -13.712  0.00  0.00     0.017 A 
ATOM     14  C   UNL d   1       8.893   0.890 -15.723  0.00  0.00     0.045 C 
ATOM     15  C   UNL d   1       6.792   0.145 -14.372  0.00  0.00    -0.003 A 
ATOM     16  C   UNL d   1       8.504   0.123 -17.013  0.00  0.00     0.007 C 
ATOM     17  C   UNL d   1       5.697   0.540 -13.568  0.00  0.00    -0.000 A 
ATOM     18  C   UNL d   1       5.537   1.926 -13.269  0.00  0.00     0.002 A 
ATOM     19  C   UNL d   1       9.358   2.830 -17.418  0.00  0.00     0.025 C 
ATOM     20  O   UNL d   1      10.073   4.950 -15.337  0.00  0.00    -0.270 OA
ENDBRANCH   7   8
ENDBRANCH   1   7
BRANCH   4  21
ATOM     21  C   UNL d   1       9.435   5.699  -8.146  0.00  0.00     0.277 C 
BRANCH  21  22
ATOM     22  C   UNL d   1      10.118   6.944  -7.599  0.00  0.00     0.011 A 
ATOM     23  C   UNL d   1      11.253   7.526  -8.241  0.00  0.00    -0.002 A 
ATOM     24  C   UNL d   1      11.799   8.719  -7.825  0.00  0.00     0.011 A 
ATOM     25  C   UNL d   1      11.256   9.343  -6.684  0.00  0.00     0.058 A 
ATOM     26  C   UNL d   1      10.200   8.758  -5.994  0.00  0.00     0.011 A 
ATOM     27 CL   UNL d   1      11.825  10.827  -6.089  0.00  0.00    -0.082 Cl
ATOM     28  C   UNL d   1       9.607   7.565  -6.444  0.00  0.00    -0.002 A 
ENDBRANCH  21  22
ENDBRANCH   4  21
TORSDOF 4
