REMARK  4 active torsions:
REMARK  status: ('A' for Active; 'I' for Inactive)
REMARK    1  A    between atoms: C_2  and  C_3 
REMARK       I    between atoms: C_2  and  N_18 
REMARK    2  A    between atoms: C_3  and  N_4 
REMARK    3  A    between atoms: N_7  and  C_8 
REMARK    4  A    between atoms: C_8  and  C_9 
ROOT
ATOM      1  N   UNL d   1       8.905   0.561 -16.684  0.00  0.00     0.151 N 
ATOM      2  C   UNL d   1       9.251  -0.726 -17.172  0.00  0.00     0.286 C 
ATOM      3  C   UNL d   1      10.137  -0.648 -18.417  0.00  0.00     0.286 C 
ATOM      4  N   UNL d   1       9.536   0.189 -19.468  0.00  0.00     0.146 N 
ATOM      5  C   UNL d   1       9.168   1.511 -18.948  0.00  0.00     0.286 C 
ATOM      6  C   UNL d   1       8.261   1.393 -17.715  0.00  0.00     0.286 C 
ENDROOT
BRANCH   1   7
ATOM      7  C   UNL d   1       8.221   0.564 -15.396  0.00  0.00     0.337 C 
BRANCH   7   8
ATOM      8  C   UNL d   1       7.919   1.913 -14.746  0.00  0.00     0.268 C 
ATOM      9  O   UNL d   1       6.792   2.016 -14.245  0.00  0.00    -0.270 OA
ATOM     10  N   UNL d   1       8.835   2.938 -14.734  0.00  0.00    -0.320 N 
ATOM     11  C   UNL d   1       8.654   4.226 -14.007  0.00  0.00     0.084 C 
ATOM     12  C   UNL d   1      10.082   2.982 -15.556  0.00  0.00     0.104 C 
ATOM     13  C   UNL d   1       9.894   4.496 -13.083  0.00  0.00     0.021 C 
ATOM     14  C   UNL d   1       7.356   4.398 -13.182  0.00  0.00     0.022 C 
ATOM     15  C   UNL d   1      11.225   4.446 -13.865  0.00  0.00     0.004 C 
ATOM     16  C   UNL d   1       9.775   5.846 -12.350  0.00  0.00     0.002 C 
ATOM     17  C   UNL d   1      11.316   3.161 -14.670  0.00  0.00     0.024 C 
ATOM     18  C   UNL d   1       8.469   5.966 -11.561  0.00  0.00     0.000 C 
ATOM     19  C   UNL d   1       7.268   5.756 -12.476  0.00  0.00     0.002 C 
ENDBRANCH   7   8
ENDBRANCH   1   7
BRANCH   4  20
ATOM     20  C   UNL d   1      10.345   0.252 -20.689  0.00  0.00     0.277 C 
BRANCH  20  21
ATOM     21  C   UNL d   1      11.854   0.325 -20.467  0.00  0.00     0.011 A 
ATOM     22  C   UNL d   1      12.685  -0.673 -21.036  0.00  0.00    -0.002 A 
ATOM     23  C   UNL d   1      14.074  -0.668 -20.781  0.00  0.00     0.011 A 
ATOM     24  C   UNL d   1      14.636   0.328 -19.957  0.00  0.00     0.058 A 
ATOM     25  C   UNL d   1      13.807   1.325 -19.395  0.00  0.00     0.011 A 
ATOM     26 CL   UNL d   1      16.336   0.342 -19.646  0.00  0.00    -0.082 Cl
ATOM     27  C   UNL d   1      12.424   1.340 -19.661  0.00  0.00    -0.002 A 
ENDBRANCH  20  21
ENDBRANCH   4  20
TORSDOF 4
