REMARK  6 active torsions:
REMARK  status: ('A' for Active; 'I' for Inactive)
REMARK    1  A    between atoms: C_2  and  C_3 
REMARK    2  A    between atoms: C_2  and  C_23 
REMARK    3  A    between atoms: C_3  and  C_4 
REMARK    4  A    between atoms: C_4  and  C_5 
REMARK    5  A    between atoms: C_5  and  N_6 
REMARK    6  A    between atoms: C_13  and  C_14 
ROOT
ATOM      1  N   UNL d   1       8.859   4.711 -11.338  0.00  0.00     0.140 N 
ATOM      2  C   UNL d   1       8.749   6.065 -11.893  0.00  0.00     0.251 C 
ATOM      3  C   UNL d   1       8.041   5.995 -13.242  0.00  0.00     0.038 C 
ATOM      4  C   UNL d   1       8.830   5.134 -14.235  0.00  0.00     0.039 C 
ATOM      5  C   UNL d   1       9.065   3.748 -13.641  0.00  0.00     0.184 A 
ATOM      6  C   UNL d   1       9.673   3.878 -12.228  0.00  0.00     0.285 C 
ATOM      7  O   UNL d   1       7.831   3.021 -13.647  0.00  0.00    -0.326 OA
ATOM      8  C   UNL d   1       7.955   1.918 -14.437  0.00  0.00     0.097 A 
ATOM      9  C   UNL d   1       9.165   1.791 -14.985  0.00  0.00     0.064 A 
ATOM     10  C   UNL d   1       9.969   2.897 -14.526  0.00  0.00     0.202 A 
ATOM     11  O   UNL d   1      11.150   3.138 -14.773  0.00  0.00    -0.289 OA
ENDROOT
BRANCH   1  12
ATOM     12  C   UNL d   1       9.480   4.768 -10.018  0.00  0.00     0.251 C 
BRANCH  12  13
ATOM     13  C   UNL d   1       8.482   5.270  -8.960  0.00  0.00     0.043 C 
BRANCH  13  14
ATOM     14  C   UNL d   1       9.150   5.925  -7.752  0.00  0.00     0.071 C 
BRANCH  14  15
ATOM     15  C   UNL d   1       9.917   7.232  -8.037  0.00  0.00     0.173 C 
ATOM     16  O   UNL d   1       9.941   7.727  -9.163  0.00  0.00    -0.291 OA
BRANCH  15  17
ATOM     17  C   UNL d   1      10.628   7.846  -6.885  0.00  0.00     0.035 A 
ATOM     18  C   UNL d   1      11.179   9.138  -7.019  0.00  0.00     0.005 A 
ATOM     19  C   UNL d   1      11.858   9.736  -5.935  0.00  0.00     0.030 A 
ATOM     20  C   UNL d   1      11.994   9.032  -4.720  0.00  0.00     0.140 A 
ATOM     21  C   UNL d   1      11.470   7.739  -4.592  0.00  0.00     0.030 A 
ATOM     22  F   UNL d   1      12.647   9.584  -3.673  0.00  0.00    -0.204 F 
ATOM     23  C   UNL d   1      10.786   7.149  -5.666  0.00  0.00     0.005 A 
ENDBRANCH  15  17
ENDBRANCH  14  15
ENDBRANCH  13  14
ENDBRANCH  12  13
ENDBRANCH   1  12
BRANCH   8  24
ATOM     24  C   UNL d   1       6.801   1.035 -14.633  0.00  0.00     0.022 A 
ATOM     25  C   UNL d   1       6.781   0.131 -15.720  0.00  0.00     0.002 A 
ATOM     26  C   UNL d   1       5.683  -0.733 -15.903  0.00  0.00     0.000 A 
ATOM     27  C   UNL d   1       4.607  -0.708 -15.001  0.00  0.00     0.000 A 
ATOM     28  C   UNL d   1       4.630   0.181 -13.910  0.00  0.00     0.000 A 
ATOM     29  C   UNL d   1       5.724   1.053 -13.724  0.00  0.00     0.002 A 
ENDBRANCH   8  24
TORSDOF 6
