REMARK  8 active torsions:
REMARK  status: ('A' for Active; 'I' for Inactive)
REMARK    1  A    between atoms: O_2  and  C_3 
REMARK    2  A    between atoms: C_7  and  C_8 
REMARK    3  A    between atoms: N_12  and  C_13 
REMARK    4  A    between atoms: C_13  and  C_14 
REMARK    5  A    between atoms: C_14  and  C_15 
REMARK    6  A    between atoms: C_15  and  S_16 
REMARK    7  A    between atoms: S_16  and  C_17 
REMARK    8  A    between atoms: C_20  and  C_21 
ROOT
ATOM      1  C   UNL d   1       8.563   4.210 -12.696  0.00  0.00     0.251 C 
ENDROOT
BRANCH   1   2
ATOM      2  N   UNL d   1       8.662   5.115 -11.550  0.00  0.00     0.137 N 
ATOM      3  C   UNL d   1       7.431   5.085 -10.808  0.00  0.00     0.251 C 
ATOM      4  C   UNL d   1       7.857   5.493  -9.409  0.00  0.00     0.039 A 
ATOM      5  C   UNL d   1       9.295   5.261  -9.201  0.00  0.00     0.052 A 
ATOM      6  C   UNL d   1       8.262   4.606  -8.287  0.00  0.00     0.008 A 
ATOM      7  C   UNL d   1       9.643   4.686 -10.534  0.00  0.00     0.254 C 
BRANCH   5   8
ATOM      8  C   UNL d   1      10.146   6.469  -8.739  0.00  0.00    -0.019 A 
ATOM      9  C   UNL d   1      10.955   7.230  -9.638  0.00  0.00    -0.004 A 
ATOM     10  C   UNL d   1      11.781   8.280  -9.188  0.00  0.00     0.002 A 
ATOM     11  C   UNL d   1      11.768   8.645  -7.825  0.00  0.00     0.024 A 
ATOM     12  C   UNL d   1      10.897   7.962  -6.927  0.00  0.00     0.094 A 
ATOM     13  C   UNL d   1      10.098   6.889  -7.391  0.00  0.00     0.020 A 
BRANCH  12  14
ATOM     14  O   UNL d   1      10.773   8.252  -5.590  0.00  0.00    -0.328 OA
ATOM     15  C   UNL d   1      11.637   9.211  -5.035  0.00  0.00     0.181 C 
ENDBRANCH  12  14
ENDBRANCH   5   8
ENDBRANCH   1   2
BRANCH   1  16
ATOM     16  C   UNL d   1       9.945   4.030 -13.329  0.00  0.00     0.047 C 
BRANCH  16  17
ATOM     17  C   UNL d   1       9.859   3.194 -14.613  0.00  0.00     0.067 C 
BRANCH  17  18
ATOM     18  S   UNL d   1      11.486   2.824 -15.315  0.00  0.00    -0.075 SA
BRANCH  18  19
ATOM     19  C   UNL d   1      11.899   4.387 -16.024  0.00  0.00     0.193 A 
ATOM     20  N   UNL d   1      12.390   4.495 -17.275  0.00  0.00    -0.287 N 
ATOM     21  C   UNL d   1      12.539   5.833 -17.407  0.00  0.00     0.191 A 
ATOM     22  C   UNL d   1      12.707   3.437 -18.222  0.00  0.00     0.134 C 
ATOM     23  N   UNL d   1      12.214   6.498 -16.294  0.00  0.00    -0.126 NA
ATOM     24  N   UNL d   1      11.796   5.556 -15.390  0.00  0.00    -0.122 NA
BRANCH  21  25
ATOM     25  C   UNL d   1      13.020   6.528 -18.596  0.00  0.00     0.151 A 
ATOM     26  C   UNL d   1      13.578   7.771 -18.770  0.00  0.00     0.087 A 
ATOM     27  N   UNL d   1      13.869   7.931 -20.117  0.00  0.00    -0.221 NA
ATOM     28  C   UNL d   1      13.903   8.831 -17.763  0.00  0.00     0.054 C 
ATOM     29  C   UNL d   1      13.471   6.795 -20.681  0.00  0.00     0.225 A 
ATOM     30  O   UNL d   1      12.959   5.893 -19.807  0.00  0.00    -0.282 OA
ENDBRANCH  21  25
ENDBRANCH  18  19
ENDBRANCH  17  18
ENDBRANCH  16  17
ENDBRANCH   1  16
TORSDOF 8
