REMARK  5 active torsions:
REMARK  status: ('A' for Active; 'I' for Inactive)
REMARK    1  A    between atoms: N_4  and  C_5 
REMARK    2  A    between atoms: N_18  and  C_19 
REMARK    3  A    between atoms: C_19  and  C_20 
REMARK    4  A    between atoms: C_20  and  C_21 
REMARK    5  A    between atoms: C_28  and  C_29 
ROOT
ATOM      1  C   UNL d   1       9.886   2.362 -15.219  0.00  0.00     0.037 C 
ATOM      2  C   UNL d   1      10.363   3.664 -15.915  0.00  0.00     0.241 C 
ATOM      3  C   UNL d   1      11.590   3.303 -16.777  0.00  0.00     0.135 C 
ATOM      4  N   UNL d   1      12.157   4.465 -17.446  0.00  0.00    -0.344 N 
ATOM      5  C   UNL d   1      12.455   5.592 -16.588  0.00  0.00     0.137 C 
ATOM      6  C   UNL d   1      11.215   5.909 -15.742  0.00  0.00     0.274 C 
ATOM      7  N   UNL d   1      10.719   4.747 -14.975  0.00  0.00     0.139 N 
ENDROOT
BRANCH   7   8
ATOM      8  C   UNL d   1       9.552   5.133 -14.182  0.00  0.00     0.253 C 
BRANCH   8   9
ATOM      9  C   UNL d   1       9.954   5.970 -12.962  0.00  0.00     0.070 C 
BRANCH   9  10
ATOM     10  C   UNL d   1       8.920   6.054 -11.865  0.00  0.00     0.145 C 
ATOM     11  C   UNL d   1       9.460   6.598 -10.572  0.00  0.00     0.031 A 
ATOM     12  C   UNL d   1       9.150   6.074  -9.350  0.00  0.00    -0.004 A 
ATOM     13  S   UNL d   1      10.404   8.069 -10.406  0.00  0.00    -0.084 SA
ATOM     14  C   UNL d   1       8.260   4.883  -9.242  0.00  0.00     0.060 C 
ATOM     15  C   UNL d   1       9.700   6.827  -8.275  0.00  0.00     0.065 A 
ATOM     16  C   UNL d   1       7.541   4.616 -10.594  0.00  0.00     0.147 C 
ATOM     17  O   UNL d   1       8.520   4.706 -11.608  0.00  0.00    -0.351 OA
ATOM     18  C   UNL d   1      10.488   7.857  -8.676  0.00  0.00     0.099 A 
ATOM     19 CL   UNL d   1       9.340   6.461  -6.677  0.00  0.00    -0.082 Cl
BRANCH  18  20
ATOM     20  C   UNL d   1      11.270   8.813  -7.872  0.00  0.00     0.303 C 
ATOM     21  N   UNL d   1      12.590   8.775  -8.042  0.00  0.00    -0.102 N 
ATOM     22  O   UNL d   1      10.744   9.556  -7.057  0.00  0.00    -0.263 OA
ENDBRANCH  18  20
ENDBRANCH   9  10
ENDBRANCH   8   9
ENDBRANCH   7   8
BRANCH   4  23
ATOM     23  C   UNL d   1      12.392   4.505 -18.839  0.00  0.00     0.056 A 
ATOM     24  C   UNL d   1      13.105   3.479 -19.526  0.00  0.00     0.016 A 
ATOM     25  C   UNL d   1      13.299   3.581 -20.933  0.00  0.00     0.004 A 
ATOM     26  C   UNL d   1      13.665   2.361 -18.854  0.00  0.00     0.004 A 
ATOM     27  C   UNL d   1      12.799   4.693 -21.637  0.00  0.00     0.000 A 
ATOM     28  C   UNL d   1      14.004   2.572 -21.631  0.00  0.00     0.030 A 
ATOM     29  C   UNL d   1      12.104   5.707 -20.958  0.00  0.00     0.002 A 
ATOM     30  C   UNL d   1      11.904   5.615 -19.565  0.00  0.00     0.017 A 
ATOM     31  C   UNL d   1      14.516   1.455 -20.944  0.00  0.00     0.140 A 
ATOM     32  F   UNL d   1      15.189   0.489 -21.611  0.00  0.00    -0.204 F 
ATOM     33  C   UNL d   1      14.337   1.352 -19.560  0.00  0.00     0.030 A 
ENDBRANCH   4  23
TORSDOF 5
