REMARK  1 active torsions:
REMARK  status: ('A' for Active; 'I' for Inactive)
REMARK    1  A    between atoms: C_5  and  C_6 
ROOT
ATOM      1  C   UNL d   1       7.675   1.908 -15.549  0.00  0.00     0.068 C 
ATOM      2  C   UNL d   1       7.043   0.705 -14.808  0.00  0.00     0.129 C 
ATOM      3  N   UNL d   1       5.695   0.947 -14.317  0.00  0.00    -0.294 NA
ATOM      4  C   UNL d   1       5.585   1.915 -13.235  0.00  0.00     0.124 C 
ATOM      5  C   UNL d   1       5.908   3.362 -13.639  0.00  0.00     0.053 C 
ATOM      6  C   UNL d   1       7.403   3.655 -13.669  0.00  0.00    -0.011 A 
ATOM      7  C   UNL d   1       8.250   2.959 -14.576  0.00  0.00    -0.017 A 
ATOM      8  C   UNL d   1       9.633   3.266 -14.585  0.00  0.00     0.025 A 
ATOM      9  C   UNL d   1      10.170   4.235 -13.722  0.00  0.00     0.157 A 
ATOM     10  O   UNL d   1      11.506   4.514 -13.771  0.00  0.00    -0.188 OA
ATOM     11  C   UNL d   1       9.327   4.915 -12.823  0.00  0.00     0.166 A 
ATOM     12  O   UNL d   1       9.824   5.858 -11.966  0.00  0.00    -0.187 OA
ATOM     13  C   UNL d   1       7.950   4.635 -12.803  0.00  0.00     0.081 A 
ATOM     14 CL   UNL d   1       6.964   5.539 -11.710  0.00  0.00    -0.081 Cl
ENDROOT
BRANCH   1  15
ATOM     15  C   UNL d   1       8.684   1.425 -16.599  0.00  0.00    -0.016 A 
ATOM     16  C   UNL d   1       9.512   0.303 -16.353  0.00  0.00    -0.002 A 
ATOM     17  C   UNL d   1      10.414  -0.140 -17.335  0.00  0.00     0.027 A 
ATOM     18  C   UNL d   1      10.524   0.540 -18.557  0.00  0.00     0.131 A 
ATOM     19  O   UNL d   1      11.420   0.097 -19.485  0.00  0.00    -0.190 OA
ATOM     20  C   UNL d   1       9.719   1.669 -18.809  0.00  0.00     0.027 A 
ATOM     21  C   UNL d   1       8.805   2.110 -17.831  0.00  0.00    -0.002 A 
ENDBRANCH   1  15
TORSDOF 1
