REMARK  7 active torsions:
REMARK  status: ('A' for Active; 'I' for Inactive)
REMARK    1  A    between atoms: C_3  and  C_4 
REMARK       I    between atoms: C_4  and  N_6 
REMARK    2  A    between atoms: N_6  and  C_7 
REMARK    3  A    between atoms: C_7  and  C_8 
REMARK    4  A    between atoms: C_8  and  C_9 
REMARK    5  A    between atoms: C_9  and  N_10 
REMARK    6  A    between atoms: N_13  and  C_14 
REMARK    7  A    between atoms: C_25  and  C_26 
ROOT
ATOM      1  C   UNL d   1       8.863   5.677 -13.008  0.00  0.00     0.131 C 
ENDROOT
BRANCH   1   2
ATOM      2  N   UNL d   1       8.544   4.398 -13.638  0.00  0.00    -0.234 NA
ATOM      3  C   UNL d   1       9.454   3.525 -14.107  0.00  0.00     0.276 C 
ATOM      4  O   UNL d   1      10.659   3.693 -13.919  0.00  0.00    -0.266 OA
BRANCH   3   5
ATOM      5  C   UNL d   1       8.902   2.397 -14.916  0.00  0.00     0.071 A 
ATOM      6  C   UNL d   1       9.632   1.608 -15.780  0.00  0.00     0.042 A 
ATOM      7  C   UNL d   1      11.086   1.612 -16.162  0.00  0.00     0.050 C 
ATOM      8  N   UNL d   1       8.766   0.680 -16.356  0.00  0.00    -0.329 N 
ATOM      9  C   UNL d   1       7.482   0.885 -15.843  0.00  0.00     0.060 A 
ATOM     10  C   UNL d   1       9.186  -0.347 -17.311  0.00  0.00     0.130 C 
ATOM     11  C   UNL d   1       7.559   1.925 -14.960  0.00  0.00     0.023 A 
BRANCH   9  12
ATOM     12  C   UNL d   1       6.319   0.068 -16.198  0.00  0.00     0.016 A 
ATOM     13  C   UNL d   1       6.024  -0.253 -17.543  0.00  0.00     0.001 A 
ATOM     14  C   UNL d   1       4.948  -1.105 -17.860  0.00  0.00     0.000 A 
ATOM     15  C   UNL d   1       4.099  -1.588 -16.843  0.00  0.00     0.000 A 
ATOM     16  C   UNL d   1       4.337  -1.221 -15.507  0.00  0.00     0.000 A 
ATOM     17  C   UNL d   1       5.450  -0.410 -15.187  0.00  0.00     0.001 A 
ENDBRANCH   9  12
ENDBRANCH   3   5
ENDBRANCH   1   2
BRANCH   1  18
ATOM     18  C   UNL d   1       8.902   5.566 -11.477  0.00  0.00     0.062 C 
BRANCH  18  19
ATOM     19  C   UNL d   1       9.430   6.855 -10.825  0.00  0.00     0.253 C 
BRANCH  19  20
ATOM     20  N   UNL d   1       9.877   6.603  -9.451  0.00  0.00     0.141 N 
ATOM     21  C   UNL d   1      11.160   7.270  -9.221  0.00  0.00     0.274 C 
ATOM     22  C   UNL d   1      11.652   7.026  -7.777  0.00  0.00     0.137 C 
ATOM     23  N   UNL d   1      10.641   7.435  -6.836  0.00  0.00    -0.344 N 
ATOM     24  C   UNL d   1       9.312   6.904  -7.046  0.00  0.00     0.137 C 
ATOM     25  C   UNL d   1       8.897   7.142  -8.505  0.00  0.00     0.274 C 
BRANCH  23  26
ATOM     26  C   UNL d   1      10.937   8.295  -5.780  0.00  0.00     0.068 A 
ATOM     27  C   UNL d   1      11.514   7.822  -4.585  0.00  0.00     0.084 A 
ATOM     28  C   UNL d   1      11.780   8.663  -3.498  0.00  0.00     0.070 A 
ATOM     29 CL   UNL d   1      11.912   6.197  -4.407  0.00  0.00    -0.080 Cl
ATOM     30  C   UNL d   1      11.463   9.998  -3.615  0.00  0.00     0.012 A 
ATOM     31 CL   UNL d   1      12.439   8.065  -2.021  0.00  0.00    -0.081 Cl
ATOM     32  C   UNL d   1      10.913  10.492  -4.821  0.00  0.00     0.002 A 
ATOM     33  C   UNL d   1      10.655   9.650  -5.914  0.00  0.00     0.018 A 
ENDBRANCH  23  26
ENDBRANCH  19  20
ENDBRANCH  18  19
ENDBRANCH   1  18
TORSDOF 7
