REMARK  7 active torsions:
REMARK  status: ('A' for Active; 'I' for Inactive)
REMARK    1  A    between atoms: C_2  and  C_3 
REMARK       I    between atoms: C_2  and  N_11 
REMARK    2  A    between atoms: C_14  and  C_16 
REMARK    3  A    between atoms: C_16  and  N_17 
REMARK    4  A    between atoms: N_17  and  C_18 
REMARK    5  A    between atoms: C_18  and  C_19 
REMARK    6  A    between atoms: C_19  and  O_20 
REMARK    7  A    between atoms: O_20  and  C_21 
ROOT
ATOM      1  O   UNL d   1       8.895   1.222 -15.086  0.00  0.00    -0.267 OA
ATOM      2  C   UNL d   1       7.828   1.704 -14.691  0.00  0.00     0.257 C 
ATOM      3  N   UNL d   1       7.728   2.951 -14.164  0.00  0.00    -0.317 N 
ATOM      4  C   UNL d   1       8.896   3.858 -14.137  0.00  0.00     0.107 C 
ATOM      5  C   UNL d   1       9.167   4.351 -12.712  0.00  0.00     0.059 C 
ATOM      6  C   UNL d   1       7.913   5.007 -12.095  0.00  0.00     0.172 C 
ATOM      7  F   UNL d   1       7.624   6.136 -12.767  0.00  0.00    -0.238 F 
ATOM      8  C   UNL d   1       6.699   4.071 -12.207  0.00  0.00     0.059 C 
ATOM      9  C   UNL d   1       6.486   3.594 -13.658  0.00  0.00     0.107 C 
ENDROOT
BRANCH   6  10
ATOM     10  C   UNL d   1       8.173   5.367 -10.630  0.00  0.00     0.323 C 
BRANCH  10  11
ATOM     11  N   UNL d   1       9.216   6.374 -10.517  0.00  0.00     0.345 N 
BRANCH  11  12
ATOM     12  C   UNL d   1       9.892   6.245  -9.240  0.00  0.00     0.323 C 
BRANCH  12  13
ATOM     13  C   UNL d   1       8.930   6.554  -8.072  0.00  0.00     0.187 C 
BRANCH  13  14
ATOM     14  O   UNL d   1       9.637   6.533  -6.846  0.00  0.00    -0.329 OA
BRANCH  14  15
ATOM     15  C   UNL d   1      10.401   7.626  -6.515  0.00  0.00     0.096 A 
ATOM     16  C   UNL d   1      11.083   7.568  -5.276  0.00  0.00     0.042 A 
ATOM     17  C   UNL d   1      11.871   8.680  -4.877  0.00  0.00     0.083 A 
ATOM     18  C   UNL d   1      11.200   6.585  -4.249  0.00  0.00     0.024 A 
ATOM     19  C   UNL d   1      12.021   9.794  -5.704  0.00  0.00     0.019 A 
ATOM     20  N   UNL d   1      12.411   8.361  -3.650  0.00  0.00    -0.244 NA
ATOM     21  C   UNL d   1      11.350   9.826  -6.925  0.00  0.00     0.004 A 
ATOM     22  C   UNL d   1      10.538   8.769  -7.340  0.00  0.00     0.024 A 
ATOM     23  C   UNL d   1      11.998   7.101  -3.262  0.00  0.00     0.099 A 
ENDBRANCH  14  15
ENDBRANCH  13  14
ENDBRANCH  12  13
ENDBRANCH  11  12
ENDBRANCH  10  11
ENDBRANCH   6  10
BRANCH   2  24
ATOM     24  C   UNL d   1       6.580   0.891 -14.877  0.00  0.00     0.057 A 
ATOM     25  C   UNL d   1       6.291   0.320 -16.137  0.00  0.00     0.018 A 
ATOM     26  C   UNL d   1       5.114  -0.430 -16.337  0.00  0.00     0.085 A 
ATOM     27  C   UNL d   1       4.218  -0.606 -15.269  0.00  0.00     0.151 A 
ATOM     28 CL   UNL d   1       4.744  -1.093 -17.887  0.00  0.00    -0.080 Cl
ATOM     29  C   UNL d   1       4.509  -0.041 -14.008  0.00  0.00     0.031 A 
ATOM     30  F   UNL d   1       3.059  -1.279 -15.449  0.00  0.00    -0.203 F 
ATOM     31  C   UNL d   1       5.695   0.654 -13.795  0.00  0.00     0.007 A 
ENDBRANCH   2  24
TORSDOF 7
