REMARK  5 active torsions:
REMARK  status: ('A' for Active; 'I' for Inactive)
REMARK       I    between atoms: C_2  and  N_4 
REMARK    1  A    between atoms: N_4  and  C_5 
REMARK    2  A    between atoms: C_11  and  C_12 
REMARK    3  A    between atoms: C_12  and  C_13 
REMARK    4  A    between atoms: C_13  and  N_14 
REMARK    5  A    between atoms: N_17  and  C_18 
ROOT
ATOM      1  N   UNL d   1       9.350   5.842  -9.916  0.00  0.00     0.141 N 
ATOM      2  C   UNL d   1       9.817   7.200 -10.211  0.00  0.00     0.274 C 
ATOM      3  C   UNL d   1      11.084   7.492  -9.407  0.00  0.00     0.138 C 
ATOM      4  N   UNL d   1      10.854   7.284  -7.978  0.00  0.00    -0.329 N 
ATOM      5  C   UNL d   1      10.240   6.009  -7.642  0.00  0.00     0.138 C 
ATOM      6  C   UNL d   1       9.006   5.758  -8.501  0.00  0.00     0.274 C 
ENDROOT
BRANCH   1   7
ATOM      7  C   UNL d   1       8.154   5.516 -10.672  0.00  0.00     0.255 C 
BRANCH   7   8
ATOM      8  C   UNL d   1       8.469   5.354 -12.169  0.00  0.00     0.062 C 
BRANCH   8   9
ATOM      9  C   UNL d   1       7.696   4.243 -12.861  0.00  0.00    -0.020 A 
ATOM     10  C   UNL d   1       6.426   3.800 -12.401  0.00  0.00    -0.005 A 
ATOM     11  C   UNL d   1       5.798   2.689 -13.002  0.00  0.00    -0.005 A 
ATOM     12  C   UNL d   1       6.429   2.040 -14.069  0.00  0.00    -0.024 A 
ATOM     13  C   UNL d   1       5.955   0.826 -14.824  0.00  0.00     0.028 C 
ATOM     14  C   UNL d   1       7.654   2.498 -14.547  0.00  0.00    -0.004 A 
ATOM     15  C   UNL d   1       7.118   0.508 -15.788  0.00  0.00     0.034 C 
ATOM     16  C   UNL d   1       8.121   1.690 -15.719  0.00  0.00     0.129 C 
ATOM     17  C   UNL d   1       8.305   3.594 -13.960  0.00  0.00    -0.007 A 
BRANCH  16  18
ATOM     18  N   UNL d   1       9.507   1.254 -15.607  0.00  0.00    -0.235 NA
ATOM     19  C   UNL d   1      10.261   0.806 -16.619  0.00  0.00     0.252 C 
ATOM     20  C   UNL d   1       9.655   0.689 -18.019  0.00  0.00     0.100 C 
ATOM     21  O   UNL d   1      11.426   0.475 -16.440  0.00  0.00    -0.271 OA
ENDBRANCH  16  18
ENDBRANCH   8   9
ENDBRANCH   7   8
ENDBRANCH   1   7
BRANCH   4  22
ATOM     22  C   UNL d   1      11.110   8.264  -6.994  0.00  0.00     0.148 A 
ATOM     23  C   UNL d   1      11.421   7.968  -5.595  0.00  0.00     0.042 A 
ATOM     24  C   UNL d   1      11.636   9.182  -4.885  0.00  0.00     0.050 A 
ATOM     25  C   UNL d   1      11.573   6.777  -4.841  0.00  0.00     0.004 A 
ATOM     26  S   UNL d   1      11.470  10.482  -6.038  0.00  0.00     0.015 SA
ATOM     27  C   UNL d   1      11.949   9.227  -3.508  0.00  0.00     0.008 A 
ATOM     28  N   UNL d   1      11.103   9.534  -7.339  0.00  0.00    -0.192 NA
ATOM     29  C   UNL d   1      12.060   8.029  -2.788  0.00  0.00     0.001 A 
ATOM     30  C   UNL d   1      11.869   6.807  -3.462  0.00  0.00     0.000 A 
ENDBRANCH   4  22
TORSDOF 5
