REMARK  7 active torsions:
REMARK  status: ('A' for Active; 'I' for Inactive)
REMARK    1  A    between atoms: C_6  and  C_7 
REMARK    2  A    between atoms: C_10  and  S_11 
REMARK    3  A    between atoms: S_11  and  C_12 
REMARK    4  A    between atoms: C_12  and  C_13 
REMARK    5  A    between atoms: C_13  and  C_14 
REMARK    6  A    between atoms: C_14  and  N_15 
REMARK    7  A    between atoms: C_22  and  C_23 
ROOT
ATOM      1  C   UNL d   1       9.594   0.189 -19.790  0.00  0.00     0.067 C 
ENDROOT
BRANCH   1   2
ATOM      2  S   UNL d   1       8.746  -1.099 -18.829  0.00  0.00    -0.075 SA
BRANCH   2   3
ATOM      3  C   UNL d   1       8.776  -0.310 -17.255  0.00  0.00     0.193 A 
ATOM      4  N   UNL d   1       9.827  -0.349 -16.433  0.00  0.00    -0.122 NA
ATOM      5  N   UNL d   1       9.456   0.387 -15.331  0.00  0.00    -0.128 NA
ATOM      6  C   UNL d   1       8.206   0.810 -15.573  0.00  0.00     0.167 A 
ATOM      7  N   UNL d   1       7.724   0.379 -16.765  0.00  0.00    -0.289 N 
ATOM      8  C   UNL d   1       6.416   0.569 -17.381  0.00  0.00     0.134 C 
BRANCH   6   9
ATOM      9  C   UNL d   1       7.456   1.633 -14.624  0.00  0.00     0.037 A 
ATOM     10  C   UNL d   1       7.915   2.900 -14.165  0.00  0.00     0.021 A 
ATOM     11  C   UNL d   1       9.145   3.456 -14.597  0.00  0.00     0.003 A 
ATOM     12  C   UNL d   1       7.131   3.658 -13.242  0.00  0.00     0.081 A 
ATOM     13  C   UNL d   1       9.563   4.694 -14.079  0.00  0.00     0.015 A 
ATOM     14  C   UNL d   1       8.722   5.350 -13.162  0.00  0.00     0.059 A 
ATOM     15  C   UNL d   1       9.118   6.683 -12.565  0.00  0.00     0.052 C 
ATOM     16  N   UNL d   1       7.534   4.853 -12.768  0.00  0.00    -0.250 NA
ATOM     17  C   UNL d   1       5.896   3.127 -12.803  0.00  0.00     0.019 A 
ATOM     18  C   UNL d   1       5.461   1.861 -13.228  0.00  0.00     0.002 A 
ATOM     19  C   UNL d   1       6.233   1.121 -14.138  0.00  0.00     0.003 A 
ENDBRANCH   6   9
ENDBRANCH   2   3
ENDBRANCH   1   2
BRANCH   1  20
ATOM     20  C   UNL d   1      11.095   0.286 -19.462  0.00  0.00     0.047 C 
BRANCH  20  21
ATOM     21  C   UNL d   1      11.753   1.477 -20.165  0.00  0.00     0.251 C 
BRANCH  21  22
ATOM     22  N   UNL d   1      13.195   1.499 -19.908  0.00  0.00     0.138 N 
ATOM     23  C   UNL d   1      13.600   1.935 -18.567  0.00  0.00     0.255 C 
ATOM     24  C   UNL d   1      13.329   3.412 -18.220  0.00  0.00     0.061 C 
ATOM     25  C   UNL d   1      14.334   4.379 -18.827  0.00  0.00    -0.022 A 
ATOM     26  C   UNL d   1      14.521   4.475 -20.229  0.00  0.00    -0.022 A 
ATOM     27  C   UNL d   1      15.092   5.200 -17.963  0.00  0.00     0.022 A 
ATOM     28  C   UNL d   1      13.720   3.610 -21.190  0.00  0.00     0.061 C 
ATOM     29  C   UNL d   1      15.461   5.390 -20.765  0.00  0.00     0.017 A 
ATOM     30  C   UNL d   1      13.954   2.101 -21.000  0.00  0.00     0.255 C 
ATOM     31  C   UNL d   1      16.214   6.220 -19.911  0.00  0.00     0.106 A 
ATOM     32  C   UNL d   1      16.009   6.099 -18.526  0.00  0.00     0.119 A 
ATOM     33  N   UNL d   1      17.183   7.175 -20.152  0.00  0.00    -0.224 NA
ATOM     34  O   UNL d   1      16.853   6.983 -17.887  0.00  0.00    -0.292 OA
ATOM     35  C   UNL d   1      17.533   7.568 -18.919  0.00  0.00     0.158 A 
BRANCH  35  36
ATOM     36  C   UNL d   1      18.540   8.609 -18.581  0.00  0.00     0.064 A 
ATOM     37  C   UNL d   1      19.512   8.385 -17.448  0.00  0.00     0.009 A 
ATOM     38  C   UNL d   1      20.001   8.370 -18.876  0.00  0.00     0.009 A 
ENDBRANCH  35  36
ENDBRANCH  21  22
ENDBRANCH  20  21
ENDBRANCH   1  20
TORSDOF 7
