REMARK  10 active torsions:
REMARK  status: ('A' for Active; 'I' for Inactive)
REMARK       I    between atoms: C_2  and  N_3 
REMARK    1  A    between atoms: C_2  and  C_28 
REMARK    2  A    between atoms: N_3  and  C_4 
REMARK    3  A    between atoms: C_4  and  C_5 
REMARK    4  A    between atoms: C_5  and  C_6 
REMARK    5  A    between atoms: C_6  and  C_7 
REMARK    6  A    between atoms: C_7  and  N_8 
REMARK    7  A    between atoms: C_11  and  N_12 
REMARK    8  A    between atoms: N_12  and  C_13 
REMARK    9  A    between atoms: N_12  and  C_20 
REMARK   10  A    between atoms: C_13  and  C_14 
ROOT
ATOM      1  N   UNL d   1       9.062   4.181 -13.198  0.00  0.00     0.137 N 
ATOM      2  C   UNL d   1      10.165   3.651 -13.990  0.00  0.00     0.252 C 
ATOM      3  C   UNL d   1       9.778   2.267 -14.549  0.00  0.00     0.058 C 
ATOM      4  C   UNL d   1       8.490   2.336 -15.387  0.00  0.00     0.086 C 
ATOM      5  C   UNL d   1       7.392   3.058 -14.591  0.00  0.00     0.058 C 
ATOM      6  C   UNL d   1       7.892   4.405 -14.041  0.00  0.00     0.252 C 
ENDROOT
BRANCH   1   7
ATOM      7  C   UNL d   1       9.457   5.461 -12.600  0.00  0.00     0.250 C 
BRANCH   7   8
ATOM      8  C   UNL d   1       8.648   5.732 -11.330  0.00  0.00     0.037 C 
BRANCH   8   9
ATOM      9  C   UNL d   1       9.393   5.235 -10.085  0.00  0.00     0.029 C 
BRANCH   9  10
ATOM     10  C   UNL d   1       8.571   5.458  -8.803  0.00  0.00     0.129 C 
BRANCH  10  11
ATOM     11  N   UNL d   1       9.279   6.145  -7.730  0.00  0.00    -0.234 NA
ATOM     12  C   UNL d   1       9.952   7.302  -7.846  0.00  0.00     0.275 C 
ATOM     13  O   UNL d   1      10.095   7.916  -8.891  0.00  0.00    -0.266 OA
BRANCH  12  14
ATOM     14  C   UNL d   1      10.494   7.866  -6.562  0.00  0.00     0.058 A 
ATOM     15  C   UNL d   1      10.962   7.041  -5.522  0.00  0.00     0.005 A 
ATOM     16  C   UNL d   1      11.457   7.614  -4.350  0.00  0.00     0.000 A 
ATOM     17  C   UNL d   1      11.513   9.020  -4.206  0.00  0.00     0.000 A 
ATOM     18  C   UNL d   1      11.905   6.782  -3.295  0.00  0.00     0.000 A 
ATOM     19  C   UNL d   1      11.067   9.852  -5.254  0.00  0.00     0.000 A 
ATOM     20  C   UNL d   1      11.995   9.599  -3.014  0.00  0.00     0.000 A 
ATOM     21  C   UNL d   1      10.576   9.267  -6.428  0.00  0.00     0.005 A 
ATOM     22  C   UNL d   1      12.464   8.758  -1.984  0.00  0.00     0.000 A 
ATOM     23  C   UNL d   1      12.399   7.360  -2.112  0.00  0.00     0.000 A 
ENDBRANCH  12  14
ENDBRANCH  10  11
ENDBRANCH   9  10
ENDBRANCH   8   9
ENDBRANCH   7   8
ENDBRANCH   1   7
BRANCH   4  24
ATOM     24  N   UNL d   1       8.050   1.013 -15.781  0.00  0.00    -0.346 N 
BRANCH  24  25
ATOM     25  C   UNL d   1       7.583   0.054 -14.778  0.00  0.00     0.128 C 
BRANCH  25  26
ATOM     26  C   UNL d   1       6.111  -0.291 -14.870  0.00  0.00     0.000 A 
ATOM     27  C   UNL d   1       5.645  -1.131 -15.906  0.00  0.00    -0.002 A 
ATOM     28  C   UNL d   1       4.278  -1.462 -16.000  0.00  0.00    -0.000 A 
ATOM     29  C   UNL d   1       3.378  -0.944 -15.057  0.00  0.00    -0.000 A 
ATOM     30  C   UNL d   1       3.835  -0.109 -14.019  0.00  0.00    -0.000 A 
ATOM     31  C   UNL d   1       5.202   0.215 -13.921  0.00  0.00    -0.002 A 
ENDBRANCH  25  26
ENDBRANCH  24  25
BRANCH  24  32
ATOM     32  C   UNL d   1       7.960   0.647 -17.144  0.00  0.00     0.056 A 
ATOM     33  C   UNL d   1       6.985   1.234 -17.976  0.00  0.00     0.017 A 
ATOM     34  C   UNL d   1       6.832   0.807 -19.310  0.00  0.00     0.002 A 
ATOM     35  C   UNL d   1       7.662  -0.209 -19.824  0.00  0.00     0.000 A 
ATOM     36  C   UNL d   1       8.637  -0.802 -18.997  0.00  0.00     0.002 A 
ATOM     37  C   UNL d   1       8.781  -0.377 -17.662  0.00  0.00     0.017 A 
ENDBRANCH  24  32
ENDBRANCH   4  24
TORSDOF 10
