REMARK  9 active torsions:
REMARK  status: ('A' for Active; 'I' for Inactive)
REMARK    1  A    between atoms: C_5  and  O_6 
REMARK    2  A    between atoms: O_6  and  C_7 
REMARK    3  A    between atoms: C_7  and  C_8 
REMARK    4  A    between atoms: C_8  and  N_9 
REMARK    5  A    between atoms: N_9  and  C_10 
REMARK    6  A    between atoms: C_10  and  C_11 
REMARK    7  A    between atoms: C_11  and  C_12 
REMARK    8  A    between atoms: C_12  and  O_13 
REMARK    9  A    between atoms: O_13  and  C_14 
ROOT
ATOM      1  N   UNL d   1       9.061   6.436  -8.624  0.00  0.00     0.342 N 
ENDROOT
BRANCH   1   2
ATOM      2  C   UNL d   1       9.264   5.565  -9.766  0.00  0.00     0.323 C 
BRANCH   2   3
ATOM      3  C   UNL d   1       8.973   6.319 -11.082  0.00  0.00     0.187 C 
BRANCH   3   4
ATOM      4  O   UNL d   1       7.665   5.996 -11.549  0.00  0.00    -0.329 OA
BRANCH   4   5
ATOM      5  C   UNL d   1       7.514   4.900 -12.372  0.00  0.00     0.094 A 
ATOM      6  C   UNL d   1       6.240   4.298 -12.402  0.00  0.00     0.024 A 
ATOM      7  C   UNL d   1       5.989   3.195 -13.241  0.00  0.00    -0.002 A 
ATOM      8  C   UNL d   1       7.012   2.690 -14.069  0.00  0.00    -0.022 A 
ATOM      9  C   UNL d   1       6.775   1.507 -14.975  0.00  0.00     0.031 C 
ATOM     10  C   UNL d   1       8.288   3.284 -14.040  0.00  0.00    -0.002 A 
ATOM     11  C   UNL d   1       8.539   4.384 -13.207  0.00  0.00     0.024 A 
ENDBRANCH   4   5
ENDBRANCH   3   4
ENDBRANCH   2   3
ENDBRANCH   1   2
BRANCH   1  12
ATOM     12  C   UNL d   1      10.105   7.452  -8.529  0.00  0.00     0.293 C 
BRANCH  12  13
ATOM     13  C   UNL d   1       9.883   8.256  -7.236  0.00  0.00     0.071 C 
BRANCH  13  14
ATOM     14  C   UNL d   1      11.092   9.200  -7.003  0.00  0.00     0.151 C 
BRANCH  14  15
ATOM     15  O   UNL d   1      11.128   9.795  -5.710  0.00  0.00    -0.331 OA
BRANCH  15  16
ATOM     16  C   UNL d   1      11.495   8.980  -4.664  0.00  0.00     0.094 A 
ATOM     17  C   UNL d   1      11.835   9.572  -3.412  0.00  0.00     0.024 A 
ATOM     18  C   UNL d   1      12.242   8.753  -2.327  0.00  0.00     0.002 A 
ATOM     19  C   UNL d   1      12.238   7.343  -2.463  0.00  0.00     0.000 A 
ATOM     20  C   UNL d   1      11.889   6.784  -3.716  0.00  0.00     0.002 A 
ATOM     21  C   UNL d   1      11.591   7.579  -4.809  0.00  0.00     0.024 A 
ENDBRANCH  15  16
ENDBRANCH  14  15
ENDBRANCH  13  14
ENDBRANCH  12  13
ENDBRANCH   1  12
TORSDOF 9
