REMARK  9 active torsions:
REMARK  status: ('A' for Active; 'I' for Inactive)
REMARK    1  A    between atoms: C_8  and  O_9 
REMARK    2  A    between atoms: O_9  and  C_10 
REMARK    3  A    between atoms: C_10  and  C_11 
REMARK    4  A    between atoms: C_11  and  C_12 
REMARK    5  A    between atoms: C_12  and  C_13 
REMARK    6  A    between atoms: C_13  and  N_14 
REMARK    7  A    between atoms: N_14  and  C_15 
REMARK    8  A    between atoms: C_15  and  C_16 
REMARK    9  A    between atoms: C_18  and  C_19 
ROOT
ATOM      1  C   UNL d   1       9.049   8.954 -11.294  0.00  0.00     0.041 C 
ENDROOT
BRANCH   1   2
ATOM      2  C   UNL d   1       8.670   7.557 -11.741  0.00  0.00     0.035 C 
BRANCH   2   3
ATOM      3  C   UNL d   1       7.324   7.479 -12.501  0.00  0.00     0.149 C 
BRANCH   3   4
ATOM      4  O   UNL d   1       6.638   6.286 -12.155  0.00  0.00    -0.331 OA
BRANCH   4   5
ATOM      5  C   UNL d   1       7.008   5.127 -12.786  0.00  0.00     0.096 A 
ATOM      6  C   UNL d   1       8.185   4.972 -13.569  0.00  0.00     0.024 A 
ATOM      7  C   UNL d   1       8.441   3.770 -14.241  0.00  0.00     0.004 A 
ATOM      8  C   UNL d   1       7.507   2.724 -14.158  0.00  0.00     0.018 A 
ATOM      9  C   UNL d   1       7.718   1.440 -14.817  0.00  0.00     0.006 A 
ATOM     10  C   UNL d   1       6.343   2.870 -13.373  0.00  0.00     0.087 A 
ATOM     11  C   UNL d   1       6.835   0.432 -14.669  0.00  0.00     0.063 A 
ATOM     12  C   UNL d   1       5.630   0.573 -13.842  0.00  0.00     0.279 A 
ATOM     13  O   UNL d   1       4.795  -0.311 -13.683  0.00  0.00    -0.265 OA
ATOM     14  N   UNL d   1       5.463   1.769 -13.240  0.00  0.00    -0.208 NA
ATOM     15  C   UNL d   1       6.106   4.060 -12.669  0.00  0.00     0.043 A 
ENDBRANCH   4   5
ENDBRANCH   3   4
ENDBRANCH   2   3
ENDBRANCH   1   2
BRANCH   1  16
ATOM     16  C   UNL d   1       9.572   8.995  -9.870  0.00  0.00     0.290 C 
BRANCH  16  17
ATOM     17  N   UNL d   1      10.634   8.014  -9.740  0.00  0.00     0.339 N 
BRANCH  17  18
ATOM     18  C   UNL d   1      10.998   8.016  -8.324  0.00  0.00     0.290 C 
BRANCH  18  19
ATOM     19  C   UNL d   1      10.528   6.686  -7.659  0.00  0.00     0.041 A 
ATOM     20  C   UNL d   1      10.482   6.638  -6.137  0.00  0.00     0.025 A 
ATOM     21  C   UNL d   1       9.199   6.554  -6.921  0.00  0.00     0.007 A 
BRANCH  20  22
ATOM     22  C   UNL d   1      10.828   7.830  -5.280  0.00  0.00    -0.011 C 
ATOM     23  C   UNL d   1      11.673   7.757  -4.128  0.00  0.00     0.064 C 
ATOM     24  C   UNL d   1      11.932   8.878  -3.338  0.00  0.00     0.068 C 
ATOM     25 CL   UNL d   1      12.234   6.355  -3.374  0.00  0.00    -0.082 Cl
ATOM     26  C   UNL d   1      11.379  10.071  -3.697  0.00  0.00     0.012 C 
ATOM     27 CL   UNL d   1      12.827   8.773  -1.853  0.00  0.00    -0.082 Cl
ATOM     28  C   UNL d   1      10.633  10.204  -4.884  0.00  0.00     0.001 C 
ATOM     29  C   UNL d   1      10.250   9.079  -5.613  0.00  0.00    -0.003 C 
ENDBRANCH  20  22
ENDBRANCH  18  19
ENDBRANCH  17  18
ENDBRANCH  16  17
ENDBRANCH   1  16
TORSDOF 9
