REMARK  1 active torsions:
REMARK  status: ('A' for Active; 'I' for Inactive)
REMARK    1  A    between atoms: C_7  and  C_8 
ROOT
ATOM      1  O   UNL d   1      11.711  10.392  -5.738  0.00  0.00    -0.264 OA
ATOM      2  C   UNL d   1      11.664   9.471  -4.927  0.00  0.00     0.276 C 
ATOM      3  O   UNL d   1      12.120   9.583  -3.653  0.00  0.00    -0.301 OA
ATOM      4  C   UNL d   1      11.881   8.570  -2.693  0.00  0.00     0.152 C 
ATOM      5  C   UNL d   1      12.319   7.209  -3.240  0.00  0.00     0.034 C 
ATOM      6  C   UNL d   1      11.614   6.883  -4.569  0.00  0.00     0.017 C 
ATOM      7  C   UNL d   1      11.006   8.115  -5.283  0.00  0.00     0.109 C 
ENDROOT
BRANCH   7   8
ATOM      8  C   UNL d   1      10.827   7.877  -6.782  0.00  0.00    -0.013 A 
ATOM      9  C   UNL d   1       9.622   7.330  -7.280  0.00  0.00    -0.004 A 
ATOM     10  C   UNL d   1       9.465   7.104  -8.664  0.00  0.00    -0.000 A 
ATOM     11  C   UNL d   1      10.495   7.439  -9.562  0.00  0.00    -0.000 A 
ATOM     12  C   UNL d   1      11.697   7.987  -9.066  0.00  0.00    -0.000 A 
ATOM     13  C   UNL d   1      11.865   8.179  -7.683  0.00  0.00    -0.004 A 
ENDBRANCH   7   8
TORSDOF 1
