REMARK  6 active torsions:
REMARK  status: ('A' for Active; 'I' for Inactive)
REMARK    1  A    between atoms: C_4  and  C_5 
REMARK    2  A    between atoms: C_5  and  C_6 
REMARK    3  A    between atoms: C_6  and  C_7 
REMARK    4  A    between atoms: C_12  and  O_13 
REMARK    5  A    between atoms: O_13  and  C_14 
REMARK    6  A    between atoms: C_14  and  C_15 
ROOT
ATOM      1  C   UNL d   1       8.289   5.243 -12.244  0.00  0.00     0.001 A 
ATOM      2  C   UNL d   1       6.889   5.031 -12.168  0.00  0.00    -0.002 A 
ATOM      3  C   UNL d   1       6.278   4.065 -12.982  0.00  0.00    -0.000 A 
ATOM      4  C   UNL d   1       7.065   3.289 -13.853  0.00  0.00     0.002 A 
ATOM      5  C   UNL d   1       8.459   3.451 -13.881  0.00  0.00     0.024 A 
ATOM      6  C   UNL d   1       9.085   4.471 -13.125  0.00  0.00     0.090 A 
ENDROOT
BRANCH   1   7
ATOM      7  C   UNL d   1       8.921   6.310 -11.360  0.00  0.00     0.033 C 
BRANCH   7   8
ATOM      8  C   UNL d   1       9.214   5.769  -9.950  0.00  0.00     0.031 C 
BRANCH   8   9
ATOM      9  C   UNL d   1       9.861   6.804  -9.045  0.00  0.00    -0.022 A 
ATOM     10  C   UNL d   1       9.265   7.149  -7.814  0.00  0.00    -0.004 A 
ATOM     11  C   UNL d   1       9.856   8.126  -6.989  0.00  0.00    -0.000 A 
ATOM     12  C   UNL d   1      11.052   8.757  -7.385  0.00  0.00    -0.000 A 
ATOM     13  C   UNL d   1      11.654   8.411  -8.610  0.00  0.00    -0.000 A 
ATOM     14  C   UNL d   1      11.060   7.441  -9.436  0.00  0.00    -0.004 A 
ENDBRANCH   8   9
ENDBRANCH   7   8
ENDBRANCH   1   7
BRANCH   6  15
ATOM     15  O   UNL d   1      10.442   4.744 -13.195  0.00  0.00    -0.326 OA
BRANCH  15  16
ATOM     16  C   UNL d   1      11.254   4.129 -14.188  0.00  0.00     0.175 C 
BRANCH  16  17
ATOM     17  C   UNL d   1      11.124   4.787 -15.563  0.00  0.00     0.008 A 
ATOM     18  C   UNL d   1      12.159   5.638 -16.044  0.00  0.00    -0.002 A 
ATOM     19  C   UNL d   1      12.061   6.260 -17.310  0.00  0.00    -0.000 A 
ATOM     20  C   UNL d   1      10.918   6.044 -18.109  0.00  0.00    -0.000 A 
ATOM     21  C   UNL d   1       9.880   5.200 -17.630  0.00  0.00    -0.000 A 
ATOM     22  C   UNL d   1       9.986   4.567 -16.382  0.00  0.00    -0.002 A 
ENDBRANCH  16  17
ENDBRANCH  15  16
ENDBRANCH   6  15
TORSDOF 6
