REMARK  8 active torsions:
REMARK  status: ('A' for Active; 'I' for Inactive)
REMARK    1  A    between atoms: C_2  and  C_3 
REMARK    2  A    between atoms: C_3  and  C_5 
REMARK    3  A    between atoms: C_5  and  C_6 
REMARK       I    between atoms: C_6  and  N_8 
REMARK    4  A    between atoms: N_8  and  C_9 
REMARK    5  A    between atoms: C_12  and  C_13 
REMARK    6  A    between atoms: C_13  and  C_14 
REMARK    7  A    between atoms: C_14  and  N_15 
REMARK    8  A    between atoms: N_18  and  C_19 
ROOT
ATOM      1  C   UNL d   1       7.800   5.389 -10.857  0.00  0.00     0.250 C 
ENDROOT
BRANCH   1   2
ATOM      2  C   UNL d   1       8.870   6.483 -10.738  0.00  0.00     0.035 C 
BRANCH   2   3
ATOM      3  C   UNL d   1       9.160   6.859  -9.270  0.00  0.00     0.002 C 
ATOM      4  C   UNL d   1      10.194   5.902  -8.677  0.00  0.00     0.002 C 
ATOM      5  C   UNL d   1      10.603   6.292  -7.253  0.00  0.00     0.024 C 
ATOM      6  C   UNL d   1      11.073   7.757  -7.172  0.00  0.00     0.106 C 
ATOM      7  C   UNL d   1      10.007   8.691  -7.742  0.00  0.00     0.024 C 
ATOM      8  C   UNL d   1       9.659   8.315  -9.173  0.00  0.00     0.002 C 
BRANCH   6   9
ATOM      9  N   UNL d   1      11.364   8.095  -5.790  0.00  0.00    -0.240 NA
ATOM     10  C   UNL d   1      12.030   9.191  -5.385  0.00  0.00     0.254 C 
ATOM     11  O   UNL d   1      12.196  10.198  -6.064  0.00  0.00    -0.271 OA
BRANCH  10  12
ATOM     12  C   UNL d   1      12.714   9.096  -4.029  0.00  0.00     0.122 C 
BRANCH  12  13
ATOM     13  C   UNL d   1      11.736   8.879  -2.866  0.00  0.00     0.162 C 
ATOM     14  O   UNL d   1      12.260   9.432  -1.677  0.00  0.00    -0.223 OA
BRANCH  13  15
ATOM     15  C   UNL d   1      11.451   7.391  -2.589  0.00  0.00     0.034 C 
ATOM     16  C   UNL d   1      12.657   6.606  -2.097  0.00  0.00     0.003 C 
ENDBRANCH  13  15
ENDBRANCH  12  13
ENDBRANCH  10  12
ENDBRANCH   6   9
ENDBRANCH   2   3
ENDBRANCH   1   2
BRANCH   1  17
ATOM     17  N   UNL d   1       7.547   5.039 -12.250  0.00  0.00     0.141 N 
ATOM     18  C   UNL d   1       6.322   4.226 -12.329  0.00  0.00     0.274 C 
ATOM     19  C   UNL d   1       6.028   3.843 -13.791  0.00  0.00     0.138 C 
ATOM     20  N   UNL d   1       7.212   3.183 -14.344  0.00  0.00    -0.330 N 
ATOM     21  C   UNL d   1       8.469   3.894 -14.207  0.00  0.00     0.138 C 
ATOM     22  C   UNL d   1       8.682   4.254 -12.749  0.00  0.00     0.274 C 
BRANCH  20  23
ATOM     23  C   UNL d   1       7.113   1.988 -15.074  0.00  0.00     0.138 A 
ATOM     24  C   UNL d   1       7.888   1.709 -16.232  0.00  0.00     0.036 A 
ATOM     25  C   UNL d   1       7.707   0.515 -16.908  0.00  0.00     0.095 A 
ATOM     26  C   UNL d   1       8.917   2.519 -16.974  0.00  0.00     0.064 C 
ATOM     27  C   UNL d   1       6.745  -0.407 -16.459  0.00  0.00     0.045 A 
ATOM     28  O   UNL d   1       8.528   0.359 -17.987  0.00  0.00    -0.331 OA
ATOM     29  C   UNL d   1       6.020  -0.064 -15.300  0.00  0.00     0.103 A 
ATOM     30  N   UNL d   1       6.202   1.092 -14.624  0.00  0.00    -0.228 NA
ATOM     31  C   UNL d   1       9.403   1.502 -18.032  0.00  0.00     0.154 C 
ENDBRANCH  20  23
ENDBRANCH   1  17
TORSDOF 8
