REMARK  7 active torsions:
REMARK  status: ('A' for Active; 'I' for Inactive)
REMARK    1  A    between atoms: C_2  and  C_3 
REMARK    2  A    between atoms: C_3  and  N_4 
REMARK    3  A    between atoms: N_4  and  C_5 
REMARK    4  A    between atoms: N_4  and  C_8 
REMARK    5  A    between atoms: C_5  and  C_6 
REMARK    6  A    between atoms: C_8  and  C_9 
REMARK    7  A    between atoms: C_9  and  C_10 
ROOT
ATOM      1  C   UNL d   1      11.134   7.884  -6.806  0.00  0.00    -0.022 A 
ATOM      2  C   UNL d   1      10.997   9.201  -7.299  0.00  0.00    -0.004 A 
ATOM      3  C   UNL d   1      11.100  10.294  -6.417  0.00  0.00     0.001 A 
ATOM      4  C   UNL d   1      11.275  10.111  -5.046  0.00  0.00     0.019 A 
ATOM      5  C   UNL d   1      11.490   8.810  -4.584  0.00  0.00     0.081 A 
ATOM      6  C   UNL d   1      11.413   7.726  -5.441  0.00  0.00     0.001 A 
ATOM      7  C   UNL d   1      11.662   6.471  -4.669  0.00  0.00     0.117 A 
ATOM      8  C   UNL d   1      11.908   7.077  -3.275  0.00  0.00     0.260 A 
ATOM      9  O   UNL d   1      12.119   6.410  -2.272  0.00  0.00    -0.270 OA
ATOM     10  N   UNL d   1      11.811   8.409  -3.303  0.00  0.00    -0.212 NA
ENDROOT
BRANCH   1  11
ATOM     11  C   UNL d   1      11.040   6.740  -7.779  0.00  0.00     0.061 C 
BRANCH  11  12
ATOM     12  C   UNL d   1       9.696   6.768  -8.501  0.00  0.00     0.255 C 
BRANCH  12  13
ATOM     13  N   UNL d   1       9.747   5.851  -9.649  0.00  0.00     0.137 N 
BRANCH  13  14
ATOM     14  C   UNL d   1       9.626   4.430  -9.337  0.00  0.00     0.250 C 
BRANCH  14  15
ATOM     15  C   UNL d   1       8.324   4.143  -8.553  0.00  0.00     0.035 C 
ATOM     16  C   UNL d   1       8.230   2.770  -7.784  0.00  0.00     0.002 C 
ENDBRANCH  14  15
ENDBRANCH  13  14
BRANCH  13  17
ATOM     17  C   UNL d   1       8.806   6.213 -10.711  0.00  0.00     0.250 C 
BRANCH  17  18
ATOM     18  C   UNL d   1       9.155   7.573 -11.350  0.00  0.00     0.035 C 
ATOM     19  C   UNL d   1       8.115   7.924 -12.396  0.00  0.00     0.002 C 
ENDBRANCH  17  18
ENDBRANCH  13  17
ENDBRANCH  12  13
ENDBRANCH  11  12
ENDBRANCH   1  11
TORSDOF 7
