REMARK  0 active torsions:
REMARK  status: ('A' for Active; 'I' for Inactive)
ROOT
ATOM      1  C   UNL d   1      11.620   9.467  -5.221  0.00  0.00    -0.007 A 
ATOM      2  C   UNL d   1      11.834   8.740  -4.059  0.00  0.00     0.002 A 
ATOM      3  C   UNL d   1      11.660   7.375  -4.007  0.00  0.00     0.090 A 
ATOM      4  C   UNL d   1      11.217   6.655  -5.133  0.00  0.00     0.022 A 
ATOM      5  C   UNL d   1      10.969   7.356  -6.330  0.00  0.00     0.005 A 
ATOM      6  C   UNL d   1      11.200   8.745  -6.357  0.00  0.00    -0.024 A 
ATOM      7  C   UNL d   1      10.901   9.523  -7.575  0.00  0.00     0.028 C 
ATOM      8  C   UNL d   1      10.784   8.746  -8.894  0.00  0.00     0.044 C 
ATOM      9  C   UNL d   1       9.884   7.542  -8.655  0.00  0.00     0.288 C 
ATOM     10  N   UNL d   1       9.603   6.791  -9.882  0.00  0.00     0.343 N 
ATOM     11  C   UNL d   1       8.761   5.624  -9.586  0.00  0.00     0.322 C 
ATOM     12  C   UNL d   1       9.398   4.782  -8.481  0.00  0.00     0.181 C 
ATOM     13  O   UNL d   1       9.600   5.587  -7.348  0.00  0.00    -0.348 OA
ATOM     14  C   UNL d   1      10.537   6.636  -7.597  0.00  0.00     0.171 C 
ATOM     15  O   UNL d   1      11.934   6.848  -2.787  0.00  0.00    -0.331 OA
ATOM     16  C   UNL d   1      12.207   7.950  -1.915  0.00  0.00     0.154 C 
ATOM     17  C   UNL d   1      12.276   9.240  -2.738  0.00  0.00     0.061 C 
ENDROOT
TORSDOF 0
