REMARK  3 active torsions:
REMARK  status: ('A' for Active; 'I' for Inactive)
REMARK    1  A    between atoms: C_3  and  C_4 
REMARK    2  A    between atoms: C_4  and  N_5 
REMARK    3  A    between atoms: C_8  and  C_9 
ROOT
ATOM      1  N   UNL d   1      10.210   7.354  -9.999  0.00  0.00     0.145 N 
ATOM      2  C   UNL d   1       9.141   7.668  -9.069  0.00  0.00     0.251 C 
ATOM      3  C   UNL d   1       9.528   7.532  -7.634  0.00  0.00     0.040 C 
ATOM      4  C   UNL d   1      10.737   8.435  -7.335  0.00  0.00     0.029 C 
ATOM      5  C   UNL d   1      11.857   8.197  -8.356  0.00  0.00     0.040 C 
ATOM      6  C   UNL d   1      11.310   8.306  -9.787  0.00  0.00     0.251 C 
ENDROOT
BRANCH   1   7
ATOM      7  C   UNL d   1       9.649   7.475 -11.362  0.00  0.00     0.313 C 
BRANCH   7   8
ATOM      8  C   UNL d   1       8.878   6.251 -11.848  0.00  0.00     0.154 A 
ATOM      9  N   UNL d   1       9.263   5.375 -12.851  0.00  0.00    -0.312 N 
ATOM     10  C   UNL d   1      10.488   5.364 -13.630  0.00  0.00     0.132 C 
ATOM     11  C   UNL d   1       8.216   4.486 -13.049  0.00  0.00     0.079 A 
ATOM     12  C   UNL d   1       7.219   4.921 -12.126  0.00  0.00     0.099 A 
ATOM     13  C   UNL d   1       8.002   3.369 -13.899  0.00  0.00     0.019 A 
ATOM     14  N   UNL d   1       7.668   5.958 -11.352  0.00  0.00    -0.229 NA
ATOM     15  C   UNL d   1       5.982   4.255 -12.067  0.00  0.00     0.021 A 
ATOM     16  C   UNL d   1       5.775   3.110 -12.879  0.00  0.00     0.002 A 
ATOM     17  C   UNL d   1       6.765   2.675 -13.793  0.00  0.00     0.002 A 
ENDBRANCH   7   8
ENDBRANCH   1   7
BRANCH   4  18
ATOM     18  C   UNL d   1      11.213   8.201  -5.912  0.00  0.00     0.005 A 
ATOM     19  C   UNL d   1      11.599   9.306  -5.122  0.00  0.00     0.136 A 
ATOM     20  C   UNL d   1      12.065   9.101  -3.799  0.00  0.00     0.029 A 
ATOM     21  F   UNL d   1      11.530  10.554  -5.634  0.00  0.00    -0.204 F 
ATOM     22  C   UNL d   1      12.130   7.801  -3.267  0.00  0.00     0.002 A 
ATOM     23  C   UNL d   1      11.744   6.704  -4.060  0.00  0.00    -0.000 A 
ATOM     24  C   UNL d   1      11.300   6.900  -5.380  0.00  0.00    -0.002 A 
ENDBRANCH   4  18
TORSDOF 3
