REMARK  4 active torsions:
REMARK  status: ('A' for Active; 'I' for Inactive)
REMARK    1  A    between atoms: C_16  and  C_17 
REMARK       I    between atoms: C_17  and  N_19 
REMARK    2  A    between atoms: N_19  and  C_20 
REMARK    3  A    between atoms: C_20  and  C_21 
REMARK    4  A    between atoms: C_21  and  C_22 
ROOT
ATOM      1  C   UNL d   1      10.060   5.159 -15.144  0.00  0.00     0.134 C 
ATOM      2  N   UNL d   1       9.034   4.301 -14.526  0.00  0.00    -0.293 N 
ATOM      3  C   UNL d   1       8.701   3.151 -15.170  0.00  0.00     0.261 C 
ATOM      4  O   UNL d   1       9.167   2.853 -16.287  0.00  0.00    -0.267 OA
ATOM      5  C   UNL d   1       7.815   2.124 -14.520  0.00  0.00     0.065 A 
ATOM      6  C   UNL d   1       8.235   0.809 -14.601  0.00  0.00     0.005 A 
ATOM      7  C   UNL d   1       7.360  -0.195 -14.173  0.00  0.00     0.000 A 
ATOM      8  C   UNL d   1       6.128   0.066 -13.584  0.00  0.00     0.001 A 
ATOM      9  C   UNL d   1       5.679   1.376 -13.499  0.00  0.00     0.009 A 
ATOM     10  C   UNL d   1       6.534   2.391 -14.001  0.00  0.00     0.065 A 
ATOM     11  S   UNL d   1       5.911   4.005 -13.999  0.00  0.00     0.090 S 
ATOM     12  O   UNL d   1       4.642   3.881 -13.170  0.00  0.00    -0.247 OA
ATOM     13  C   UNL d   1       7.167   4.628 -12.890  0.00  0.00     0.076 A 
ATOM     14  C   UNL d   1       6.721   5.131 -11.649  0.00  0.00     0.011 A 
ATOM     15  C   UNL d   1       7.659   5.599 -10.747  0.00  0.00     0.005 A 
ATOM     16  C   UNL d   1       9.028   5.610 -10.998  0.00  0.00     0.059 A 
ATOM     17  C   UNL d   1       9.454   5.146 -12.259  0.00  0.00     0.023 A 
ATOM     18  C   UNL d   1       8.536   4.657 -13.223  0.00  0.00     0.071 A 
ENDROOT
BRANCH  16  19
ATOM     19  C   UNL d   1       9.947   6.197  -9.983  0.00  0.00     0.275 C 
ATOM     20  O   UNL d   1      10.807   7.019 -10.299  0.00  0.00    -0.266 OA
ATOM     21  N   UNL d   1       9.817   5.771  -8.732  0.00  0.00    -0.234 NA
BRANCH  21  22
ATOM     22  C   UNL d   1      10.654   6.270  -7.652  0.00  0.00     0.134 C 
BRANCH  22  23
ATOM     23  C   UNL d   1       9.797   7.052  -6.666  0.00  0.00     0.059 C 
BRANCH  23  24
ATOM     24  C   UNL d   1      10.624   7.719  -5.635  0.00  0.00     0.009 A 
ATOM     25  S   UNL d   1      11.457   6.790  -4.422  0.00  0.00    -0.091 SA
ATOM     26  C   UNL d   1      12.071   8.243  -3.677  0.00  0.00     0.035 A 
ATOM     27  C   UNL d   1      11.622   9.364  -4.321  0.00  0.00     0.007 A 
ATOM     28  C   UNL d   1      10.809   9.064  -5.450  0.00  0.00     0.003 A 
ENDBRANCH  23  24
ENDBRANCH  22  23
ENDBRANCH  21  22
ENDBRANCH  16  19
TORSDOF 4
