REMARK  10 active torsions:
REMARK  status: ('A' for Active; 'I' for Inactive)
REMARK    1  A    between atoms: O_2  and  C_3 
REMARK    2  A    between atoms: C_8  and  C_9 
REMARK    3  A    between atoms: C_11  and  C_12 
REMARK    4  A    between atoms: C_12  and  N_13 
REMARK    5  A    between atoms: N_13  and  C_14 
REMARK    6  A    between atoms: C_14  and  C_15 
REMARK    7  A    between atoms: C_15  and  C_16 
REMARK    8  A    between atoms: C_19  and  N_20 
REMARK    9  A    between atoms: N_20  and  S_21 
REMARK   10  A    between atoms: S_21  and  C_24 
ROOT
ATOM      1  C   UNL d   1       8.812   6.750 -11.186  0.00  0.00     0.002 C 
ATOM      2  C   UNL d   1       9.791   5.694 -10.674  0.00  0.00     0.002 C 
ATOM      3  C   UNL d   1      10.228   5.956  -9.238  0.00  0.00     0.025 C 
ATOM      4  C   UNL d   1      10.891   7.326  -9.090  0.00  0.00     0.116 C 
ATOM      5  C   UNL d   1       9.937   8.425  -9.600  0.00  0.00     0.025 C 
ATOM      6  C   UNL d   1       9.456   8.162 -11.024  0.00  0.00     0.002 C 
ENDROOT
BRANCH   1   7
ATOM      7  C   UNL d   1       8.400   6.550 -12.647  0.00  0.00     0.038 C 
BRANCH   7   8
ATOM      8  C   UNL d   1       8.049   5.100 -13.023  0.00  0.00     0.290 C 
BRANCH   8   9
ATOM      9  N   UNL d   1       8.637   4.816 -14.314  0.00  0.00     0.339 N 
BRANCH   9  10
ATOM     10  C   UNL d   1       8.693   3.381 -14.495  0.00  0.00     0.290 C 
BRANCH  10  11
ATOM     11  C   UNL d   1       9.938   2.789 -13.843  0.00  0.00     0.041 A 
ATOM     12  C   UNL d   1      10.646   1.604 -14.475  0.00  0.00     0.026 A 
ATOM     13  C   UNL d   1      11.300   2.970 -14.475  0.00  0.00     0.007 A 
BRANCH  12  14
ATOM     14  C   UNL d   1      10.142   0.993 -15.745  0.00  0.00    -0.000 A 
ATOM     15  C   UNL d   1       8.835   0.452 -15.812  0.00  0.00     0.090 A 
ATOM     16  C   UNL d   1       8.353  -0.020 -17.056  0.00  0.00     0.024 A 
ATOM     17  C   UNL d   1       9.173   0.004 -18.200  0.00  0.00     0.002 A 
ATOM     18  C   UNL d   1      10.481   0.517 -18.117  0.00  0.00    -0.000 A 
ATOM     19  C   UNL d   1      10.958   1.013 -16.893  0.00  0.00    -0.002 A 
BRANCH  15  20
ATOM     20  O   UNL d   1       8.087   0.438 -14.651  0.00  0.00    -0.328 OA
ATOM     21  C   UNL d   1       6.716   0.078 -14.730  0.00  0.00     0.181 C 
ENDBRANCH  15  20
ENDBRANCH  12  14
ENDBRANCH  10  11
ENDBRANCH   9  10
ENDBRANCH   8   9
ENDBRANCH   7   8
ENDBRANCH   1   7
BRANCH   4  22
ATOM     22  N   UNL d   1      11.291   7.540  -7.698  0.00  0.00    -0.187 NA
BRANCH  22  23
ATOM     23  S   UNL d   1      10.107   7.852  -6.499  0.00  0.00     0.281 S 
ATOM     24  O   UNL d   1       9.525   9.161  -6.776  0.00  0.00    -0.199 OA
ATOM     25  O   UNL d   1       9.246   6.681  -6.390  0.00  0.00    -0.199 OA
BRANCH  23  26
ATOM     26  C   UNL d   1      11.066   8.000  -5.049  0.00  0.00     0.105 A 
ATOM     27  C   UNL d   1      11.344   9.270  -4.517  0.00  0.00     0.013 A 
ATOM     28  C   UNL d   1      12.078   9.366  -3.326  0.00  0.00     0.001 A 
ATOM     29  C   UNL d   1      12.544   8.201  -2.690  0.00  0.00     0.000 A 
ATOM     30  C   UNL d   1      12.260   6.927  -3.231  0.00  0.00     0.001 A 
ATOM     31  C   UNL d   1      11.515   6.827  -4.424  0.00  0.00     0.013 A 
ENDBRANCH  23  26
ENDBRANCH  22  23
ENDBRANCH   4  22
TORSDOF 10
