REMARK  7 active torsions:
REMARK  status: ('A' for Active; 'I' for Inactive)
REMARK    1  A    between atoms: O_2  and  C_3 
REMARK    2  A    between atoms: C_8  and  N_9 
REMARK    3  A    between atoms: N_12  and  C_13 
REMARK    4  A    between atoms: C_13  and  C_14 
REMARK    5  A    between atoms: C_14  and  C_15 
REMARK    6  A    between atoms: C_15  and  C_16 
REMARK    7  A    between atoms: C_16  and  N_17 
ROOT
ATOM      1  C   UNL d   1       9.134   5.610 -12.013  0.00  0.00     0.027 C 
ENDROOT
BRANCH   1   2
ATOM      2  C   UNL d   1       8.534   6.685 -11.121  0.00  0.00     0.037 C 
BRANCH   2   3
ATOM      3  C   UNL d   1       9.586   7.539 -10.392  0.00  0.00     0.251 C 
BRANCH   3   4
ATOM      4  N   UNL d   1       9.975   6.920  -9.131  0.00  0.00     0.141 N 
ATOM      5  C   UNL d   1      11.301   7.389  -8.773  0.00  0.00     0.274 C 
ATOM      6  C   UNL d   1      11.717   6.686  -7.475  0.00  0.00     0.137 C 
ATOM      7  N   UNL d   1      10.804   6.939  -6.401  0.00  0.00    -0.343 N 
ATOM      8  C   UNL d   1       9.424   6.674  -6.722  0.00  0.00     0.137 C 
ATOM      9  C   UNL d   1       9.065   7.340  -8.056  0.00  0.00     0.274 C 
BRANCH   7  10
ATOM     10  C   UNL d   1      11.218   7.509  -5.187  0.00  0.00     0.079 A 
ATOM     11  C   UNL d   1      11.370   8.897  -5.064  0.00  0.00     0.110 A 
ATOM     12  C   UNL d   1      11.741   9.437  -3.803  0.00  0.00     0.026 A 
ATOM     13  C   UNL d   1      11.995   8.603  -2.702  0.00  0.00     0.002 A 
ATOM     14  C   UNL d   1      11.875   7.216  -2.840  0.00  0.00     0.002 A 
ATOM     15  C   UNL d   1      11.484   6.676  -4.089  0.00  0.00     0.019 A 
BRANCH  11  16
ATOM     16  O   UNL d   1      11.105   9.658  -6.177  0.00  0.00    -0.327 OA
ATOM     17  C   UNL d   1      11.747  10.907  -6.255  0.00  0.00     0.181 C 
ENDBRANCH  11  16
ENDBRANCH   7  10
ENDBRANCH   3   4
ENDBRANCH   2   3
ENDBRANCH   1   2
BRANCH   1  18
ATOM     18  C   UNL d   1       8.331   5.425 -13.314  0.00  0.00     0.112 C 
BRANCH  18  19
ATOM     19  N   UNL d   1       8.895   4.362 -14.174  0.00  0.00    -0.264 N 
ATOM     20  C   UNL d   1      10.143   4.541 -14.692  0.00  0.00     0.263 A 
ATOM     21  C   UNL d   1      10.737   3.462 -15.548  0.00  0.00     0.056 A 
ATOM     22  O   UNL d   1      10.826   5.550 -14.501  0.00  0.00    -0.267 OA
ATOM     23  C   UNL d   1      12.029   3.604 -16.097  0.00  0.00     0.005 A 
ATOM     24  C   UNL d   1      10.021   2.281 -15.834  0.00  0.00     0.009 A 
ATOM     25  C   UNL d   1      12.591   2.615 -16.909  0.00  0.00     0.000 A 
ATOM     26  C   UNL d   1      11.864   1.446 -17.181  0.00  0.00     0.000 A 
ATOM     27  C   UNL d   1      10.578   1.260 -16.648  0.00  0.00     0.000 A 
ATOM     28  C   UNL d   1       9.806   0.118 -16.913  0.00  0.00     0.000 A 
ATOM     29  C   UNL d   1       8.501   0.023 -16.417  0.00  0.00     0.000 A 
ATOM     30  C   UNL d   1       7.982   1.017 -15.582  0.00  0.00     0.005 A 
ATOM     31  C   UNL d   1       8.729   2.169 -15.274  0.00  0.00     0.056 A 
ATOM     32  C   UNL d   1       8.145   3.246 -14.401  0.00  0.00     0.263 A 
ATOM     33  O   UNL d   1       6.996   3.103 -13.984  0.00  0.00    -0.267 OA
ENDBRANCH  18  19
ENDBRANCH   1  18
TORSDOF 7
