REMARK  6 active torsions:
REMARK  status: ('A' for Active; 'I' for Inactive)
REMARK    1  A    between atoms: C_7  and  N_8 
REMARK    2  A    between atoms: N_11  and  C_12 
REMARK    3  A    between atoms: C_12  and  C_13 
REMARK    4  A    between atoms: C_13  and  C_15 
REMARK    5  A    between atoms: C_15  and  N_16 
REMARK    6  A    between atoms: C_20  and  C_22 
ROOT
ATOM      1  C   UNL d   1       9.068   6.151  -8.651  0.00  0.00     0.208 C 
ATOM      2  O   UNL d   1       8.347   6.264  -7.449  0.00  0.00    -0.219 OA
ENDROOT
BRANCH   1   3
ATOM      3  C   UNL d   1       8.040   5.458  -9.574  0.00  0.00     0.285 C 
BRANCH   3   4
ATOM      4  N   UNL d   1       8.353   5.381 -10.981  0.00  0.00     0.144 N 
ATOM      5  C   UNL d   1       9.562   4.631 -11.153  0.00  0.00     0.274 C 
ATOM      6  C   UNL d   1      10.036   4.585 -12.597  0.00  0.00     0.137 C 
ATOM      7  N   UNL d   1       8.961   4.082 -13.443  0.00  0.00    -0.344 N 
ATOM      8  C   UNL d   1       7.654   4.730 -13.254  0.00  0.00     0.137 C 
ATOM      9  C   UNL d   1       7.287   4.765 -11.759  0.00  0.00     0.274 C 
BRANCH   7  10
ATOM     10  C   UNL d   1       9.160   3.009 -14.338  0.00  0.00     0.052 A 
ATOM     11  C   UNL d   1      10.362   2.842 -15.087  0.00  0.00    -0.006 A 
ATOM     12  C   UNL d   1      10.479   1.741 -15.964  0.00  0.00    -0.003 A 
ATOM     13  C   UNL d   1      11.539   3.816 -15.042  0.00  0.00     0.033 C 
ATOM     14  C   UNL d   1       9.434   0.817 -16.124  0.00  0.00    -0.004 A 
ATOM     15  C   UNL d   1       8.242   0.978 -15.398  0.00  0.00    -0.020 A 
ATOM     16  C   UNL d   1       7.100  -0.012 -15.561  0.00  0.00     0.031 C 
ATOM     17  C   UNL d   1       8.113   2.067 -14.510  0.00  0.00     0.012 A 
ENDBRANCH   7  10
ENDBRANCH   3   4
ENDBRANCH   1   3
BRANCH   1  18
ATOM     18  C   UNL d   1       9.595   7.501  -9.226  0.00  0.00     0.148 C 
BRANCH  18  19
ATOM     19  N   UNL d   1      10.602   8.136  -8.392  0.00  0.00    -0.247 N 
ATOM     20  C   UNL d   1      10.301   8.734  -7.234  0.00  0.00     0.265 A 
ATOM     21  C   UNL d   1      11.586   9.228  -6.580  0.00  0.00     0.179 A 
ATOM     22  O   UNL d   1       9.191   8.792  -6.720  0.00  0.00    -0.269 OA
ATOM     23  N   UNL d   1      12.512   8.791  -7.631  0.00  0.00    -0.209 NA
ATOM     24  C   UNL d   1      11.645  10.756  -6.397  0.00  0.00     0.039 C 
ATOM     25  C   UNL d   1      11.909   8.196  -8.654  0.00  0.00     0.348 A 
ATOM     26  O   UNL d   1      12.480   7.759  -9.653  0.00  0.00    -0.245 OA
BRANCH  21  27
ATOM     27  C   UNL d   1      11.745   8.504  -5.247  0.00  0.00     0.006 A 
ATOM     28  C   UNL d   1      11.909   9.208  -4.020  0.00  0.00     0.000 A 
ATOM     29  C   UNL d   1      12.137   8.553  -2.800  0.00  0.00     0.029 A 
ATOM     30  C   UNL d   1      12.192   7.152  -2.792  0.00  0.00     0.140 A 
ATOM     31  C   UNL d   1      12.007   6.455  -3.984  0.00  0.00     0.029 A 
ATOM     32  F   UNL d   1      12.468   6.478  -1.657  0.00  0.00    -0.204 F 
ATOM     33  C   UNL d   1      11.758   7.094  -5.199  0.00  0.00     0.000 A 
ENDBRANCH  21  27
ENDBRANCH  18  19
ENDBRANCH   1  18
TORSDOF 6
