REMARK  9 active torsions:
REMARK  status: ('A' for Active; 'I' for Inactive)
REMARK    1  A    between atoms: C_8  and  O_9 
REMARK    2  A    between atoms: O_9  and  C_10 
REMARK    3  A    between atoms: C_10  and  C_11 
REMARK    4  A    between atoms: C_11  and  C_12 
REMARK    5  A    between atoms: C_12  and  C_13 
REMARK    6  A    between atoms: C_13  and  N_14 
REMARK    7  A    between atoms: C_17  and  C_18 
REMARK    8  A    between atoms: N_20  and  C_21 
REMARK    9  A    between atoms: C_21  and  C_22 
ROOT
ATOM      1  N   UNL d   1      10.868   0.458 -17.761  0.00  0.00     0.142 N 
ATOM      2  C   UNL d   1      11.139   1.895 -17.773  0.00  0.00     0.276 C 
ATOM      3  C   UNL d   1      10.389   2.690 -16.748  0.00  0.00     0.005 C 
ATOM      4  C   UNL d   1       9.360   2.183 -16.065  0.00  0.00    -0.021 C 
ATOM      5  C   UNL d   1       8.894   0.774 -16.382  0.00  0.00     0.061 C 
ATOM      6  C   UNL d   1       9.429   0.250 -17.716  0.00  0.00     0.255 C 
ENDROOT
BRANCH   1   7
ATOM      7  C   UNL d   1      11.439  -0.247 -18.913  0.00  0.00     0.251 C 
BRANCH   7   8
ATOM      8  C   UNL d   1      12.959  -0.043 -19.087  0.00  0.00     0.038 C 
BRANCH   8   9
ATOM      9  C   UNL d   1      13.302   1.267 -19.836  0.00  0.00     0.035 C 
BRANCH   9  10
ATOM     10  C   UNL d   1      14.818   1.552 -19.850  0.00  0.00     0.149 C 
BRANCH  10  11
ATOM     11  O   UNL d   1      15.071   2.915 -20.211  0.00  0.00    -0.331 OA
BRANCH  11  12
ATOM     12  C   UNL d   1      14.752   3.912 -19.304  0.00  0.00     0.096 A 
ATOM     13  C   UNL d   1      14.134   3.644 -18.062  0.00  0.00     0.024 A 
ATOM     14  C   UNL d   1      13.741   4.680 -17.210  0.00  0.00    -0.001 A 
ATOM     15  C   UNL d   1      14.057   6.003 -17.540  0.00  0.00    -0.004 A 
ATOM     16  C   UNL d   1      13.766   7.131 -16.569  0.00  0.00     0.038 C 
ATOM     17  C   UNL d   1      14.726   6.295 -18.755  0.00  0.00     0.082 A 
ATOM     18  C   UNL d   1      13.568   8.463 -17.309  0.00  0.00     0.095 C 
ATOM     19  C   UNL d   1      14.630   8.697 -18.397  0.00  0.00     0.256 C 
ATOM     20  O   UNL d   1      15.019   9.831 -18.654  0.00  0.00    -0.270 OA
ATOM     21  N   UNL d   1      15.094   7.626 -19.059  0.00  0.00    -0.212 NA
ATOM     22  C   UNL d   1      15.056   5.250 -19.647  0.00  0.00     0.043 A 
ENDBRANCH  11  12
ENDBRANCH  10  11
ENDBRANCH   9  10
ENDBRANCH   8   9
ENDBRANCH   7   8
ENDBRANCH   1   7
BRANCH   4  23
ATOM     23  C   UNL d   1       8.694   2.973 -15.016  0.00  0.00     0.015 A 
ATOM     24  C   UNL d   1       7.531   2.568 -14.271  0.00  0.00     0.017 A 
ATOM     25  C   UNL d   1       7.227   3.686 -13.427  0.00  0.00     0.060 A 
ATOM     26  C   UNL d   1       6.705   1.418 -14.177  0.00  0.00     0.002 A 
ATOM     27  N   UNL d   1       8.199   4.664 -13.631  0.00  0.00    -0.322 N 
ATOM     28  C   UNL d   1       6.117   3.652 -12.564  0.00  0.00     0.017 A 
ATOM     29  C   UNL d   1       9.068   4.230 -14.630  0.00  0.00     0.076 A 
ATOM     30  C   UNL d   1       5.373   2.454 -12.435  0.00  0.00     0.002 A 
ATOM     31  C   UNL d   1       5.648   1.356 -13.242  0.00  0.00     0.000 A 
BRANCH  27  32
ATOM     32  C   UNL d   1       8.330   5.925 -12.926  0.00  0.00     0.133 C 
BRANCH  32  33
ATOM     33  C   UNL d   1       8.815   5.761 -11.487  0.00  0.00     0.000 A 
ATOM     34  C   UNL d   1       8.296   4.787 -10.638  0.00  0.00    -0.002 A 
ATOM     35  C   UNL d   1       8.705   4.689  -9.313  0.00  0.00    -0.000 A 
ATOM     36  C   UNL d   1       9.704   5.543  -8.797  0.00  0.00    -0.000 A 
ATOM     37  C   UNL d   1      10.262   6.529  -9.649  0.00  0.00    -0.000 A 
ATOM     38  C   UNL d   1       9.811   6.655 -10.989  0.00  0.00    -0.002 A 
ENDBRANCH  32  33
ENDBRANCH  27  32
ENDBRANCH   4  23
TORSDOF 9
