REMARK  1 active torsions:
REMARK  status: ('A' for Active; 'I' for Inactive)
REMARK    1  A    between atoms: C_17  and  C_18 
ROOT
ATOM      1  C   UNL d   1       8.421   7.684  -6.495  0.00  0.00     0.286 C 
ATOM      2  N   UNL d   1       9.613   7.697  -7.291  0.00  0.00     0.141 N 
ATOM      3  C   UNL d   1       9.988   6.306  -7.500  0.00  0.00     0.255 C 
ATOM      4  C   UNL d   1      10.692   6.196  -8.788  0.00  0.00     0.063 C 
ATOM      5  C   UNL d   1       9.970   6.649  -9.976  0.00  0.00    -0.005 A 
ATOM      6  C   UNL d   1      10.205   7.815 -10.636  0.00  0.00     0.055 A 
ATOM      7  N   UNL d   1       9.300   7.908 -11.668  0.00  0.00    -0.250 NA
ATOM      8  C   UNL d   1       8.506   6.787 -11.715  0.00  0.00     0.081 A 
ATOM      9  C   UNL d   1       7.421   6.427 -12.515  0.00  0.00     0.019 A 
ATOM     10  C   UNL d   1       6.771   5.204 -12.315  0.00  0.00     0.002 A 
ATOM     11  C   UNL d   1       7.203   4.377 -11.273  0.00  0.00     0.000 A 
ATOM     12  C   UNL d   1       8.261   4.768 -10.435  0.00  0.00     0.001 A 
ATOM     13  C   UNL d   1       8.924   5.973 -10.642  0.00  0.00     0.015 A 
ATOM     14  C   UNL d   1      11.232   8.852 -10.358  0.00  0.00     0.046 C 
ATOM     15  C   UNL d   1      10.972   9.692  -9.118  0.00  0.00     0.009 C 
ATOM     16  C   UNL d   1      11.595   9.167  -7.796  0.00  0.00     0.038 C 
ATOM     17  C   UNL d   1      10.581   8.670  -6.742  0.00  0.00     0.242 C 
ENDROOT
BRANCH  17  18
ATOM     18  C   UNL d   1      11.243   8.328  -5.394  0.00  0.00     0.009 A 
ATOM     19  C   UNL d   1      12.071   9.292  -4.762  0.00  0.00    -0.002 A 
ATOM     20  C   UNL d   1      12.653   8.996  -3.511  0.00  0.00    -0.000 A 
ATOM     21  C   UNL d   1      12.486   7.738  -2.895  0.00  0.00    -0.000 A 
ATOM     22  C   UNL d   1      11.679   6.785  -3.531  0.00  0.00    -0.000 A 
ATOM     23  C   UNL d   1      11.038   7.085  -4.739  0.00  0.00    -0.002 A 
ENDBRANCH  17  18
TORSDOF 1
