REMARK  6 active torsions:
REMARK  status: ('A' for Active; 'I' for Inactive)
REMARK       I    between atoms: C_2  and  N_3 
REMARK    1  A    between atoms: C_2  and  C_27 
REMARK    2  A    between atoms: N_3  and  C_4 
REMARK    3  A    between atoms: C_7  and  C_8 
REMARK    4  A    between atoms: C_8  and  C_9 
REMARK    5  A    between atoms: C_9  and  N_10 
REMARK    6  A    between atoms: C_13  and  C_14 
ROOT
ATOM      1  C   UNL d   1       8.182   5.012 -10.525  0.00  0.00     0.250 C 
ENDROOT
BRANCH   1   2
ATOM      2  C   UNL d   1       8.482   5.276 -12.016  0.00  0.00     0.035 C 
BRANCH   2   3
ATOM      3  C   UNL d   1       8.352   4.012 -12.876  0.00  0.00     0.002 C 
ATOM      4  C   UNL d   1       6.922   3.422 -12.867  0.00  0.00     0.002 C 
ATOM      5  C   UNL d   1       6.771   2.159 -13.769  0.00  0.00     0.024 C 
ATOM      6  C   UNL d   1       7.238   2.459 -15.182  0.00  0.00     0.106 C 
ATOM      7  C   UNL d   1       8.667   3.069 -15.210  0.00  0.00     0.024 C 
ATOM      8  C   UNL d   1       8.791   4.306 -14.319  0.00  0.00     0.002 C 
BRANCH   6   9
ATOM      9  N   UNL d   1       7.187   1.240 -15.973  0.00  0.00    -0.238 NA
ATOM     10  C   UNL d   1       7.289   1.182 -17.302  0.00  0.00     0.279 C 
ATOM     11  O   UNL d   1       7.612   2.137 -18.008  0.00  0.00    -0.268 OA
BRANCH  10  12
ATOM     12  C   UNL d   1       6.938  -0.156 -17.931  0.00  0.00     0.195 C 
ATOM     13  O   UNL d   1       5.868  -0.732 -17.192  0.00  0.00    -0.347 OA
ATOM     14  C   UNL d   1       5.306  -1.737 -18.017  0.00  0.00     0.143 C 
ATOM     15  C   UNL d   1       5.288  -1.105 -19.412  0.00  0.00     0.035 C 
ATOM     16  C   UNL d   1       6.376  -0.049 -19.358  0.00  0.00     0.042 C 
ENDBRANCH  10  12
ENDBRANCH   6   9
ENDBRANCH   2   3
ENDBRANCH   1   2
BRANCH   1  17
ATOM     17  N   UNL d   1       8.736   5.984  -9.601  0.00  0.00     0.137 N 
ATOM     18  C   UNL d   1       8.355   5.650  -8.221  0.00  0.00     0.251 C 
ATOM     19  C   UNL d   1       8.832   6.720  -7.227  0.00  0.00     0.040 C 
ATOM     20  C   UNL d   1      10.350   6.917  -7.324  0.00  0.00     0.028 C 
ATOM     21  C   UNL d   1      10.728   7.153  -8.788  0.00  0.00     0.040 C 
ATOM     22  C   UNL d   1      10.197   6.043  -9.680  0.00  0.00     0.251 C 
BRANCH  20  23
ATOM     23  C   UNL d   1      10.816   8.036  -6.447  0.00  0.00     0.004 A 
ATOM     24  C   UNL d   1      11.289   7.929  -5.101  0.00  0.00     0.021 A 
ATOM     25  C   UNL d   1      11.586   9.254  -4.685  0.00  0.00     0.100 A 
ATOM     26  C   UNL d   1      11.487   6.897  -4.158  0.00  0.00     0.002 A 
ATOM     27  O   UNL d   1      11.335  10.129  -5.721  0.00  0.00    -0.305 OA
ATOM     28  C   UNL d   1      12.037   9.557  -3.397  0.00  0.00     0.025 A 
ATOM     29  C   UNL d   1      10.882   9.367  -6.763  0.00  0.00     0.118 A 
ATOM     30  C   UNL d   1      12.259   8.511  -2.488  0.00  0.00     0.002 A 
ATOM     31  C   UNL d   1      11.973   7.180  -2.864  0.00  0.00     0.000 A 
ENDBRANCH  20  23
ENDBRANCH   1  17
TORSDOF 6
