REMARK  4 active torsions:
REMARK  status: ('A' for Active; 'I' for Inactive)
REMARK    1  A    between atoms: N_5  and  C_6 
REMARK    2  A    between atoms: C_18  and  O_19 
REMARK    3  A    between atoms: O_19  and  S_20 
REMARK    4  A    between atoms: S_20  and  C_23 
ROOT
ATOM      1  C   UNL d   1       6.910   2.023 -14.142  0.00  0.00     0.142 C 
ATOM      2  N   UNL d   1       6.510   3.011 -13.398  0.00  0.00    -0.227 NA
ATOM      3  C   UNL d   1       7.212   4.195 -13.115  0.00  0.00     0.101 A 
ATOM      4  C   UNL d   1       6.398   5.279 -12.732  0.00  0.00     0.021 A 
ATOM      5  C   UNL d   1       6.951   6.527 -12.398  0.00  0.00     0.002 A 
ATOM      6  C   UNL d   1       8.345   6.695 -12.401  0.00  0.00     0.002 A 
ATOM      7  C   UNL d   1       9.180   5.608 -12.707  0.00  0.00     0.021 A 
ATOM      8  C   UNL d   1       8.627   4.367 -13.066  0.00  0.00     0.099 A 
ATOM      9  N   UNL d   1       9.524   3.357 -13.413  0.00  0.00    -0.244 NA
ATOM     10  C   UNL d   1       9.386   2.649 -14.598  0.00  0.00     0.084 A 
ATOM     11  C   UNL d   1      10.550   2.522 -15.411  0.00  0.00     0.021 A 
ATOM     12  C   UNL d   1      10.463   1.867 -16.641  0.00  0.00     0.027 A 
ATOM     13  C   UNL d   1       9.227   1.371 -17.092  0.00  0.00     0.114 A 
ATOM     14  C   UNL d   1       8.054   1.504 -16.292  0.00  0.00     0.030 A 
ATOM     15  C   UNL d   1       8.146   2.087 -15.018  0.00  0.00     0.053 A 
ENDROOT
BRANCH  13  16
ATOM     16  O   UNL d   1       9.144   0.708 -18.280  0.00  0.00    -0.224 OA
BRANCH  16  17
ATOM     17  S   UNL d   1       9.159   1.667 -19.667  0.00  0.00     0.374 S 
ATOM     18  O   UNL d   1       7.860   2.366 -19.696  0.00  0.00    -0.189 OA
ATOM     19  O   UNL d   1      10.430   2.389 -19.690  0.00  0.00    -0.189 OA
BRANCH  17  20
ATOM     20  C   UNL d   1       9.185   0.344 -20.963  0.00  0.00     0.524 C 
ATOM     21  F   UNL d   1      10.201   0.591 -21.791  0.00  0.00    -0.155 F 
ATOM     22  F   UNL d   1       9.363  -0.848 -20.390  0.00  0.00    -0.155 F 
ATOM     23  F   UNL d   1       8.035   0.359 -21.634  0.00  0.00    -0.155 F 
ENDBRANCH  17  20
ENDBRANCH  16  17
ENDBRANCH  13  16
BRANCH   1  24
ATOM     24  N   UNL d   1       6.240   0.796 -14.113  0.00  0.00    -0.330 N 
ATOM     25  C   UNL d   1       6.757  -0.515 -14.541  0.00  0.00     0.138 C 
ATOM     26  C   UNL d   1       5.848  -1.097 -15.636  0.00  0.00     0.274 C 
ATOM     27  N   UNL d   1       4.512  -1.313 -15.096  0.00  0.00     0.143 N 
ATOM     28  C   UNL d   1       3.675  -1.845 -16.168  0.00  0.00     0.286 C 
ATOM     29  C   UNL d   1       3.986  -0.017 -14.674  0.00  0.00     0.274 C 
ATOM     30  C   UNL d   1       4.875   0.630 -13.590  0.00  0.00     0.138 C 
ENDBRANCH   1  24
TORSDOF 4
