REMARK  8 active torsions:
REMARK  status: ('A' for Active; 'I' for Inactive)
REMARK    1  A    between atoms: N_13  and  C_14 
REMARK    2  A    between atoms: C_14  and  C_15 
REMARK    3  A    between atoms: C_15  and  C_16 
REMARK    4  A    between atoms: C_16  and  C_17 
REMARK    5  A    between atoms: C_17  and  C_18 
REMARK    6  A    between atoms: C_18  and  C_19 
REMARK    7  A    between atoms: C_19  and  N_20 
REMARK    8  A    between atoms: N_23  and  C_24 
ROOT
ATOM      1  C   UNL d   1       6.816   2.873 -14.321  0.00  0.00     0.002 C 
ENDROOT
BRANCH   1   2
ATOM      2  C   UNL d   1       8.279   2.380 -14.581  0.00  0.00     0.025 C 
BRANCH   2   3
ATOM      3  C   UNL d   1       8.539   1.705 -15.924  0.00  0.00     0.109 C 
BRANCH   3   4
ATOM      4  N   UNL d   1       7.452   0.869 -16.402  0.00  0.00    -0.296 N 
ATOM      5  C   UNL d   1       6.664   0.040 -15.668  0.00  0.00     0.261 A 
ATOM      6  O   UNL d   1       6.718  -0.254 -14.473  0.00  0.00    -0.267 OA
ATOM      7  C   UNL d   1       5.655  -0.451 -16.634  0.00  0.00     0.058 A 
ATOM      8  C   UNL d   1       5.937   0.022 -17.894  0.00  0.00     0.021 A 
ATOM      9  C   UNL d   1       4.557  -1.301 -16.467  0.00  0.00     0.005 A 
ATOM     10  C   UNL d   1       5.255  -0.284 -19.071  0.00  0.00     0.002 A 
ATOM     11  C   UNL d   1       7.042   0.841 -17.762  0.00  0.00     0.063 A 
ATOM     12  C   UNL d   1       4.172  -1.182 -18.912  0.00  0.00     0.000 A 
ATOM     13  C   UNL d   1       5.784   0.300 -20.245  0.00  0.00     0.000 A 
ATOM     14  C   UNL d   1       3.834  -1.679 -17.622  0.00  0.00     0.000 A 
ATOM     15  C   UNL d   1       6.913   1.163 -20.175  0.00  0.00     0.002 A 
ATOM     16  C   UNL d   1       7.541   1.450 -18.933  0.00  0.00     0.017 A 
ENDBRANCH   3   4
ENDBRANCH   2   3
ENDBRANCH   1   2
BRANCH   1  17
ATOM     17  C   UNL d   1       6.639   3.962 -13.269  0.00  0.00     0.002 C 
BRANCH  17  18
ATOM     18  C   UNL d   1       7.907   4.283 -12.472  0.00  0.00     0.035 C 
BRANCH  18  19
ATOM     19  C   UNL d   1       7.581   4.812 -11.086  0.00  0.00     0.250 C 
BRANCH  19  20
ATOM     20  N   UNL d   1       8.823   5.116 -10.396  0.00  0.00     0.141 N 
ATOM     21  C   UNL d   1       8.527   5.183  -8.963  0.00  0.00     0.274 C 
ATOM     22  C   UNL d   1       9.791   5.534  -8.189  0.00  0.00     0.137 C 
ATOM     23  N   UNL d   1      10.275   6.790  -8.703  0.00  0.00    -0.344 N 
ATOM     24  C   UNL d   1      10.549   6.866 -10.110  0.00  0.00     0.137 C 
ATOM     25  C   UNL d   1       9.316   6.419 -10.878  0.00  0.00     0.274 C 
BRANCH  23  26
ATOM     26  C   UNL d   1      10.700   7.770  -7.829  0.00  0.00     0.067 A 
ATOM     27  C   UNL d   1      11.957   8.398  -7.951  0.00  0.00     0.073 A 
ATOM     28  C   UNL d   1      12.277   9.437  -7.105  0.00  0.00     0.013 A 
ATOM     29 CL   UNL d   1      13.123   8.005  -9.152  0.00  0.00    -0.081 Cl
ATOM     30  C   UNL d   1      11.430   9.883  -6.097  0.00  0.00     0.001 A 
ATOM     31  C   UNL d   1      10.198   9.237  -5.936  0.00  0.00     0.002 A 
ATOM     32  C   UNL d   1       9.818   8.184  -6.803  0.00  0.00     0.018 A 
ENDBRANCH  23  26
ENDBRANCH  19  20
ENDBRANCH  18  19
ENDBRANCH  17  18
ENDBRANCH   1  17
TORSDOF 8
