REMARK  8 active torsions:
REMARK  status: ('A' for Active; 'I' for Inactive)
REMARK    1  A    between atoms: C_6  and  C_7 
REMARK    2  A    between atoms: C_10  and  S_11 
REMARK    3  A    between atoms: S_11  and  C_12 
REMARK    4  A    between atoms: C_12  and  C_13 
REMARK    5  A    between atoms: C_13  and  C_14 
REMARK    6  A    between atoms: C_14  and  C_15 
REMARK    7  A    between atoms: C_15  and  N_16 
REMARK    8  A    between atoms: C_23  and  C_24 
ROOT
ATOM      1  C   UNL d   1      16.932   2.160 -21.911  0.00  0.00     0.036 C 
ENDROOT
BRANCH   1   2
ATOM      2  C   UNL d   1      18.443   2.365 -22.083  0.00  0.00     0.014 C 
BRANCH   2   3
ATOM      3  C   UNL d   1      18.787   3.366 -23.201  0.00  0.00     0.065 C 
BRANCH   3   4
ATOM      4  S   UNL d   1      17.965   4.982 -23.039  0.00  0.00    -0.076 SA
BRANCH   4   5
ATOM      5  C   UNL d   1      18.959   5.665 -21.761  0.00  0.00     0.193 A 
ATOM      6  N   UNL d   1      18.734   5.493 -20.460  0.00  0.00    -0.122 NA
ATOM      7  N   UNL d   1      19.748   6.169 -19.823  0.00  0.00    -0.128 NA
ATOM      8  C   UNL d   1      20.487   6.725 -20.794  0.00  0.00     0.167 A 
ATOM      9  N   UNL d   1      20.024   6.439 -22.031  0.00  0.00    -0.289 N 
ATOM     10  C   UNL d   1      20.520   6.850 -23.333  0.00  0.00     0.134 C 
BRANCH   8  11
ATOM     11  C   UNL d   1      21.655   7.561 -20.521  0.00  0.00     0.037 A 
ATOM     12  C   UNL d   1      21.578   8.743 -19.732  0.00  0.00     0.021 A 
ATOM     13  C   UNL d   1      20.357   9.198 -19.175  0.00  0.00     0.003 A 
ATOM     14  C   UNL d   1      22.748   9.516 -19.486  0.00  0.00     0.081 A 
ATOM     15  C   UNL d   1      20.348  10.361 -18.389  0.00  0.00     0.015 A 
ATOM     16  C   UNL d   1      21.559  11.043 -18.191  0.00  0.00     0.059 A 
ATOM     17  C   UNL d   1      21.611  12.299 -17.352  0.00  0.00     0.052 C 
ATOM     18  N   UNL d   1      22.728  10.634 -18.729  0.00  0.00    -0.250 NA
ATOM     19  C   UNL d   1      23.970   9.095 -20.049  0.00  0.00     0.019 A 
ATOM     20  C   UNL d   1      24.047   7.938 -20.844  0.00  0.00     0.002 A 
ATOM     21  C   UNL d   1      22.892   7.175 -21.078  0.00  0.00     0.003 A 
ENDBRANCH   8  11
ENDBRANCH   4   5
ENDBRANCH   3   4
ENDBRANCH   2   3
ENDBRANCH   1   2
BRANCH   1  22
ATOM     22  C   UNL d   1      16.561   1.120 -20.837  0.00  0.00     0.250 C 
BRANCH  22  23
ATOM     23  N   UNL d   1      15.114   1.069 -20.637  0.00  0.00     0.138 N 
ATOM     24  C   UNL d   1      14.601   2.242 -19.922  0.00  0.00     0.255 C 
ATOM     25  C   UNL d   1      13.109   2.449 -20.202  0.00  0.00     0.062 C 
ATOM     26  C   UNL d   1      12.201   1.640 -19.288  0.00  0.00    -0.016 A 
ATOM     27  C   UNL d   1      12.289   0.220 -19.269  0.00  0.00    -0.022 A 
ATOM     28  C   UNL d   1      11.254   2.293 -18.453  0.00  0.00     0.055 A 
ATOM     29  C   UNL d   1      13.271  -0.533 -20.160  0.00  0.00     0.061 C 
ATOM     30  C   UNL d   1      11.440  -0.535 -18.427  0.00  0.00     0.017 A 
ATOM     31  C   UNL d   1      14.750  -0.166 -19.946  0.00  0.00     0.255 C 
ATOM     32  C   UNL d   1      10.504   0.105 -17.590  0.00  0.00     0.106 A 
ATOM     33  C   UNL d   1      10.432   1.510 -17.632  0.00  0.00     0.125 A 
ATOM     34  N   UNL d   1       9.583  -0.378 -16.688  0.00  0.00    -0.217 NA
ATOM     35  O   UNL d   1       9.439   1.913 -16.759  0.00  0.00    -0.284 OA
ATOM     36  C   UNL d   1       8.979   0.734 -16.236  0.00  0.00     0.256 A 
ATOM     37 BR   UNL d   1      11.041   4.191 -18.398  0.00  0.00    -0.047 Br
BRANCH  36  38
ATOM     38  C   UNL d   1       7.873   0.795 -15.228  0.00  0.00     0.458 C 
ATOM     39  F   UNL d   1       8.312   0.388 -14.041  0.00  0.00    -0.163 F 
ATOM     40  F   UNL d   1       7.411   2.038 -15.095  0.00  0.00    -0.163 F 
ATOM     41  F   UNL d   1       6.856   0.015 -15.590  0.00  0.00    -0.163 F 
ENDBRANCH  36  38
ENDBRANCH  22  23
ENDBRANCH   1  22
TORSDOF 8
