REMARK  7 active torsions:
REMARK  status: ('A' for Active; 'I' for Inactive)
REMARK       I    between atoms: C_2  and  N_3 
REMARK    1  A    between atoms: C_2  and  C_20 
REMARK    2  A    between atoms: N_3  and  C_4 
REMARK    3  A    between atoms: C_4  and  C_5 
REMARK    4  A    between atoms: C_5  and  C_6 
REMARK    5  A    between atoms: C_6  and  C_7 
REMARK    6  A    between atoms: C_7  and  N_8 
REMARK    7  A    between atoms: N_11  and  C_12 
ROOT
ATOM      1  C   UNL d   1       9.036   6.592 -10.986  0.00  0.00     0.037 C 
ENDROOT
BRANCH   1   2
ATOM      2  C   UNL d   1       9.366   5.624 -12.127  0.00  0.00     0.029 C 
BRANCH   2   3
ATOM      3  C   UNL d   1       8.117   4.909 -12.671  0.00  0.00     0.129 C 
BRANCH   3   4
ATOM      4  N   UNL d   1       8.492   3.885 -13.636  0.00  0.00    -0.234 NA
ATOM      5  C   UNL d   1       7.668   2.940 -14.117  0.00  0.00     0.275 C 
ATOM      6  O   UNL d   1       6.469   2.888 -13.851  0.00  0.00    -0.266 OA
BRANCH   5   7
ATOM      7  C   UNL d   1       8.304   1.956 -15.062  0.00  0.00     0.058 A 
ATOM      8  C   UNL d   1       7.531   1.353 -16.080  0.00  0.00     0.005 A 
ATOM      9  C   UNL d   1       8.112   0.415 -16.960  0.00  0.00     0.007 A 
ATOM     10  C   UNL d   1       9.469   0.066 -16.823  0.00  0.00     0.035 A 
ATOM     11  C   UNL d   1      10.242   0.650 -15.802  0.00  0.00     0.007 A 
ATOM     12 BR   UNL d   1      10.252  -1.203 -18.004  0.00  0.00    -0.049 Br
ATOM     13  C   UNL d   1       9.662   1.581 -14.920  0.00  0.00     0.005 A 
ENDBRANCH   5   7
ENDBRANCH   3   4
ENDBRANCH   2   3
ENDBRANCH   1   2
BRANCH   1  14
ATOM     14  C   UNL d   1      10.291   7.170 -10.289  0.00  0.00     0.251 C 
BRANCH  14  15
ATOM     15  N   UNL d   1      10.009   7.779  -8.990  0.00  0.00     0.141 N 
ATOM     16  C   UNL d   1      11.182   8.551  -8.557  0.00  0.00     0.274 C 
ATOM     17  C   UNL d   1      10.899   9.250  -7.207  0.00  0.00     0.137 C 
ATOM     18  N   UNL d   1      10.501   8.263  -6.223  0.00  0.00    -0.344 N 
ATOM     19  C   UNL d   1       9.408   7.387  -6.621  0.00  0.00     0.137 C 
ATOM     20  C   UNL d   1       9.722   6.746  -7.981  0.00  0.00     0.274 C 
BRANCH  18  21
ATOM     21  C   UNL d   1      11.143   8.166  -4.984  0.00  0.00     0.056 A 
ATOM     22  C   UNL d   1      11.452   9.337  -4.262  0.00  0.00     0.017 A 
ATOM     23  C   UNL d   1      12.059   9.252  -2.997  0.00  0.00     0.002 A 
ATOM     24  C   UNL d   1      12.382   8.002  -2.447  0.00  0.00     0.000 A 
ATOM     25  C   UNL d   1      12.088   6.829  -3.166  0.00  0.00     0.002 A 
ATOM     26  C   UNL d   1      11.460   6.907  -4.427  0.00  0.00     0.017 A 
ENDBRANCH  18  21
ENDBRANCH  14  15
ENDBRANCH   1  14
TORSDOF 7
