REMARK  6 active torsions:
REMARK  status: ('A' for Active; 'I' for Inactive)
REMARK    1  A    between atoms: O_2  and  C_3 
REMARK    2  A    between atoms: C_8  and  C_9 
REMARK       I    between atoms: C_9  and  N_11 
REMARK    3  A    between atoms: N_14  and  C_15 
REMARK    4  A    between atoms: C_15  and  C_16 
REMARK    5  A    between atoms: C_16  and  O_17 
REMARK    6  A    between atoms: O_17  and  C_18 
ROOT
ATOM      1  C   UNL d   1       9.038   7.323 -11.893  0.00  0.00     0.275 C 
ATOM      2  O   UNL d   1       8.553   8.317 -12.431  0.00  0.00    -0.266 OA
ATOM      3  N   UNL d   1       9.833   7.418 -10.809  0.00  0.00    -0.311 N 
ATOM      4  C   UNL d   1      10.023   6.376  -9.820  0.00  0.00     0.140 C 
ATOM      5  C   UNL d   1       9.749   6.950  -8.424  0.00  0.00     0.274 C 
ATOM      6  N   UNL d   1      10.581   8.112  -8.128  0.00  0.00     0.144 N 
ATOM      7  C   UNL d   1      10.332   9.132  -9.134  0.00  0.00     0.274 C 
ATOM      8  C   UNL d   1      10.630   8.596 -10.526  0.00  0.00     0.140 C 
ENDROOT
BRANCH   1   9
ATOM      9  C   UNL d   1       8.831   5.993 -12.483  0.00  0.00     0.137 A 
ATOM     10  N   UNL d   1       7.552   5.553 -12.766  0.00  0.00    -0.241 NA
ATOM     11  C   UNL d   1       7.579   4.292 -13.330  0.00  0.00     0.082 A 
ATOM     12  C   UNL d   1       6.566   3.411 -13.737  0.00  0.00     0.021 A 
ATOM     13  C   UNL d   1       8.957   3.958 -13.461  0.00  0.00     0.021 A 
ATOM     14  C   UNL d   1       6.913   2.171 -14.307  0.00  0.00     0.026 A 
ATOM     15  C   UNL d   1       8.266   1.801 -14.461  0.00  0.00     0.094 A 
ATOM     16  C   UNL d   1       9.276   2.710 -14.050  0.00  0.00     0.026 A 
ATOM     17  C   UNL d   1       9.722   5.033 -12.905  0.00  0.00     0.025 A 
BRANCH  15  18
ATOM     18  O   UNL d   1       8.517   0.544 -14.970  0.00  0.00    -0.328 OA
ATOM     19  C   UNL d   1       9.871   0.142 -15.126  0.00  0.00     0.181 C 
ENDBRANCH  15  18
ENDBRANCH   1   9
BRANCH   6  20
ATOM     20  C   UNL d   1      10.188   8.661  -6.825  0.00  0.00     0.283 C 
BRANCH  20  21
ATOM     21  C   UNL d   1      11.348   9.606  -6.332  0.00  0.00     0.184 C 
BRANCH  21  22
ATOM     22  O   UNL d   1      11.329   9.810  -4.930  0.00  0.00    -0.327 OA
BRANCH  22  23
ATOM     23  C   UNL d   1      11.702   8.758  -4.118  0.00  0.00     0.113 A 
ATOM     24  C   UNL d   1      11.751   7.402  -4.512  0.00  0.00     0.123 A 
ATOM     25  N   UNL d   1      11.985   6.414  -3.614  0.00  0.00    -0.240 NA
ATOM     26  C   UNL d   1      12.284   6.715  -2.339  0.00  0.00     0.099 A 
ATOM     27  C   UNL d   1      12.367   8.039  -1.882  0.00  0.00     0.023 A 
ATOM     28  C   UNL d   1      12.031   9.080  -2.774  0.00  0.00     0.027 A 
ENDBRANCH  22  23
ENDBRANCH  21  22
ENDBRANCH  20  21
ENDBRANCH   6  20
TORSDOF 6
