REMARK  0 active torsions:
REMARK  status: ('A' for Active; 'I' for Inactive)
ROOT
ATOM      1  N   UNL d   1       9.056   7.568  -7.696  0.00  0.00     0.616 N 
ATOM      2  C   UNL d   1      10.474   7.436  -7.979  0.00  0.00     0.307 C 
ATOM      3  C   UNL d   1      11.104   8.825  -8.129  0.00  0.00     0.044 C 
ATOM      4  C   UNL d   1      11.004   9.640  -6.828  0.00  0.00     0.028 C 
ATOM      5  C   UNL d   1      11.325   8.869  -5.563  0.00  0.00    -0.026 A 
ATOM      6  C   UNL d   1      11.531   9.571  -4.359  0.00  0.00    -0.003 A 
ATOM      7  C   UNL d   1      11.860   8.881  -3.176  0.00  0.00     0.027 A 
ATOM      8  C   UNL d   1      11.940   7.474  -3.187  0.00  0.00     0.131 A 
ATOM      9  O   UNL d   1      12.232   6.789  -2.044  0.00  0.00    -0.190 OA
ATOM     10  C   UNL d   1      11.694   6.774  -4.381  0.00  0.00     0.023 A 
ATOM     11  C   UNL d   1      11.382   7.455  -5.571  0.00  0.00    -0.022 A 
ATOM     12  C   UNL d   1      11.159   6.660  -6.849  0.00  0.00     0.065 C 
ENDROOT
TORSDOF 0
