REMARK  7 active torsions:
REMARK  status: ('A' for Active; 'I' for Inactive)
REMARK    1  A    between atoms: C_3  and  C_4 
REMARK    2  A    between atoms: C_4  and  C_5 
REMARK       I    between atoms: C_5  and  N_7 
REMARK    3  A    between atoms: N_7  and  C_8 
REMARK    4  A    between atoms: C_11  and  C_12 
REMARK    5  A    between atoms: C_12  and  C_13 
REMARK    6  A    between atoms: C_13  and  N_14 
REMARK    7  A    between atoms: C_17  and  C_18 
ROOT
ATOM      1  N   UNL d   1       9.649   7.513 -10.172  0.00  0.00     0.137 N 
ATOM      2  C   UNL d   1      11.084   7.790 -10.072  0.00  0.00     0.251 C 
ATOM      3  C   UNL d   1      11.390   8.537  -8.781  0.00  0.00     0.040 C 
ATOM      4  C   UNL d   1      10.929   7.734  -7.555  0.00  0.00     0.028 C 
ATOM      5  C   UNL d   1       9.467   7.306  -7.729  0.00  0.00     0.040 C 
ATOM      6  C   UNL d   1       9.260   6.614  -9.075  0.00  0.00     0.251 C 
ENDROOT
BRANCH   1   7
ATOM      7  C   UNL d   1       9.380   6.932 -11.485  0.00  0.00     0.250 C 
BRANCH   7   8
ATOM      8  C   UNL d   1       7.881   6.641 -11.760  0.00  0.00     0.035 C 
BRANCH   8   9
ATOM      9  C   UNL d   1       7.604   5.555 -12.807  0.00  0.00     0.002 C 
ATOM     10  C   UNL d   1       8.449   4.301 -12.533  0.00  0.00     0.002 C 
ATOM     11  C   UNL d   1       8.101   3.184 -13.509  0.00  0.00     0.024 C 
ATOM     12  C   UNL d   1       6.594   2.819 -13.475  0.00  0.00     0.106 C 
ATOM     13  C   UNL d   1       5.735   4.050 -13.745  0.00  0.00     0.024 C 
ATOM     14  C   UNL d   1       6.100   5.189 -12.783  0.00  0.00     0.002 C 
BRANCH  12  15
ATOM     15  N   UNL d   1       6.363   1.769 -14.459  0.00  0.00    -0.240 NA
ATOM     16  C   UNL d   1       5.836   0.567 -14.193  0.00  0.00     0.256 C 
ATOM     17  O   UNL d   1       5.259   0.295 -13.142  0.00  0.00    -0.270 OA
BRANCH  16  18
ATOM     18  C   UNL d   1       6.024  -0.504 -15.261  0.00  0.00     0.115 C 
BRANCH  18  19
ATOM     19  C   UNL d   1       5.157  -0.367 -16.495  0.00  0.00    -0.021 C 
ATOM     20  C   UNL d   1       4.521  -1.393 -17.080  0.00  0.00    -0.030 C 
ATOM     21  C   UNL d   1       3.670  -1.263 -18.318  0.00  0.00     0.030 C 
ENDBRANCH  18  19
ENDBRANCH  16  18
ENDBRANCH  12  15
ENDBRANCH   8   9
ENDBRANCH   7   8
ENDBRANCH   1   7
BRANCH   4  22
ATOM     22  C   UNL d   1      11.093   8.522  -6.288  0.00  0.00     0.004 A 
ATOM     23  C   UNL d   1      11.477   8.043  -5.000  0.00  0.00     0.021 A 
ATOM     24  C   UNL d   1      11.485   9.175  -4.144  0.00  0.00     0.100 A 
ATOM     25  C   UNL d   1      11.843   6.803  -4.434  0.00  0.00     0.002 A 
ATOM     26  O   UNL d   1      11.081  10.286  -4.843  0.00  0.00    -0.305 OA
ATOM     27  C   UNL d   1      11.864   9.114  -2.803  0.00  0.00     0.025 A 
ATOM     28  C   UNL d   1      10.902   9.875  -6.133  0.00  0.00     0.118 A 
ATOM     29  C   UNL d   1      12.244   7.871  -2.269  0.00  0.00     0.002 A 
ATOM     30  C   UNL d   1      12.224   6.713  -3.079  0.00  0.00     0.000 A 
ENDBRANCH   4  22
TORSDOF 7
