REMARK  7 active torsions:
REMARK  status: ('A' for Active; 'I' for Inactive)
REMARK    1  A    between atoms: O_2  and  C_3 
REMARK    2  A    between atoms: C_9  and  C_10 
REMARK    3  A    between atoms: C_12  and  C_13 
REMARK    4  A    between atoms: C_13  and  N_14 
REMARK    5  A    between atoms: N_14  and  C_15 
REMARK    6  A    between atoms: N_18  and  C_19 
REMARK    7  A    between atoms: C_19  and  C_20 
ROOT
ATOM      1  C   UNL d   1       9.438   4.118 -13.514  0.00  0.00     0.184 A 
ATOM      2  N   UNL d   1       9.840   4.878 -12.505  0.00  0.00    -0.222 NA
ATOM      3  C   UNL d   1       8.710   5.099 -11.738  0.00  0.00     0.122 A 
ATOM      4  C   UNL d   1       7.642   4.522 -12.373  0.00  0.00     0.141 A 
ATOM      5  O   UNL d   1       8.088   3.889 -13.505  0.00  0.00    -0.286 OA
ENDROOT
BRANCH   3   6
ATOM      6  C   UNL d   1       8.747   5.856 -10.442  0.00  0.00     0.338 C 
BRANCH   6   7
ATOM      7  N   UNL d   1       9.820   6.824 -10.241  0.00  0.00     0.346 N 
BRANCH   7   8
ATOM      8  C   UNL d   1       9.763   7.523  -8.957  0.00  0.00     0.292 C 
ATOM      9  C   UNL d   1      10.025   6.593  -7.765  0.00  0.00     0.286 C 
ATOM     10  N   UNL d   1      10.722   7.422  -6.805  0.00  0.00     0.144 N 
ATOM     11  C   UNL d   1      11.655   8.167  -7.632  0.00  0.00     0.253 C 
ATOM     12  C   UNL d   1      10.856   8.597  -8.855  0.00  0.00     0.073 C 
BRANCH  10  13
ATOM     13  C   UNL d   1      11.338   6.671  -5.714  0.00  0.00     0.277 C 
BRANCH  13  14
ATOM     14  C   UNL d   1      11.663   7.490  -4.473  0.00  0.00     0.011 A 
ATOM     15  C   UNL d   1      12.063   6.798  -3.309  0.00  0.00    -0.002 A 
ATOM     16  C   UNL d   1      12.348   7.503  -2.123  0.00  0.00    -0.000 A 
ATOM     17  C   UNL d   1      12.262   8.905  -2.102  0.00  0.00    -0.000 A 
ATOM     18  C   UNL d   1      11.847   9.595  -3.250  0.00  0.00    -0.000 A 
ATOM     19  C   UNL d   1      11.520   8.896  -4.428  0.00  0.00    -0.002 A 
ENDBRANCH  13  14
ENDBRANCH  10  13
ENDBRANCH   7   8
ENDBRANCH   6   7
ENDBRANCH   3   6
BRANCH   1  20
ATOM     20  C   UNL d   1      10.250   3.573 -14.590  0.00  0.00     0.064 A 
ATOM     21  C   UNL d   1      10.014   2.285 -15.121  0.00  0.00     0.098 A 
ATOM     22  C   UNL d   1      10.828   1.822 -16.186  0.00  0.00     0.025 A 
ATOM     23  C   UNL d   1      11.858   2.632 -16.706  0.00  0.00     0.009 A 
ATOM     24  C   UNL d   1      12.092   3.907 -16.164  0.00  0.00     0.035 A 
ATOM     25 BR   UNL d   1      13.479   5.004 -16.866  0.00  0.00    -0.049 Br
ATOM     26  C   UNL d   1      11.292   4.376 -15.111  0.00  0.00     0.012 A 
BRANCH  21  27
ATOM     27  O   UNL d   1       8.995   1.532 -14.568  0.00  0.00    -0.328 OA
ATOM     28  C   UNL d   1       8.791   0.213 -15.045  0.00  0.00     0.181 C 
ENDBRANCH  21  27
ENDBRANCH   1  20
TORSDOF 7
