REMARK  1 active torsions:
REMARK  status: ('A' for Active; 'I' for Inactive)
REMARK    1  A    between atoms: C_4  and  C_5 
ROOT
ATOM      1  C   UNL d   1       9.222   5.198 -12.499  0.00  0.00     0.079 C 
ATOM      2  N   UNL d   1      10.240   5.540 -13.191  0.00  0.00    -0.244 NA
ATOM      3  C   UNL d   1      10.684   5.047 -14.441  0.00  0.00     0.100 A 
ATOM      4  C   UNL d   1      11.463   5.935 -15.235  0.00  0.00     0.032 A 
ATOM      5  C   UNL d   1      11.998   5.556 -16.480  0.00  0.00     0.059 A 
ATOM      6 CL   UNL d   1      12.829   6.725 -17.447  0.00  0.00    -0.082 Cl
ATOM      7  C   UNL d   1      11.817   4.226 -16.930  0.00  0.00     0.013 A 
ATOM      8  C   UNL d   1      11.089   3.310 -16.140  0.00  0.00     0.021 A 
ATOM      9  C   UNL d   1      10.521   3.717 -14.916  0.00  0.00     0.099 A 
ATOM     10  N   UNL d   1       9.752   2.796 -14.215  0.00  0.00    -0.244 NA
ATOM     11  C   UNL d   1       8.461   3.116 -13.804  0.00  0.00     0.083 A 
ATOM     12  C   UNL d   1       7.443   2.190 -14.138  0.00  0.00     0.021 A 
ATOM     13  C   UNL d   1       6.109   2.455 -13.774  0.00  0.00     0.031 A 
ATOM     14  C   UNL d   1       5.796   3.672 -13.138  0.00  0.00     0.140 A 
ATOM     15  F   UNL d   1       4.506   3.953 -12.858  0.00  0.00    -0.204 F 
ATOM     16  C   UNL d   1       6.810   4.581 -12.803  0.00  0.00     0.033 A 
ATOM     17  C   UNL d   1       8.168   4.296 -13.062  0.00  0.00     0.037 A 
ENDROOT
BRANCH   1  18
ATOM     18  C   UNL d   1       9.138   5.701 -11.069  0.00  0.00    -0.005 C 
ATOM     19  C   UNL d   1       9.905   6.724 -10.607  0.00  0.00     0.004 C 
ATOM     20  C   UNL d   1       9.866   7.290  -9.193  0.00  0.00     0.241 C 
ATOM     21  C   UNL d   1      11.188   6.949  -8.503  0.00  0.00     0.040 C 
ATOM     22  N   UNL d   1       8.741   6.783  -8.422  0.00  0.00     0.141 N 
ATOM     23  C   UNL d   1       8.482   5.359  -8.596  0.00  0.00     0.255 C 
ATOM     24  C   UNL d   1       8.737   7.238  -7.028  0.00  0.00     0.286 C 
ATOM     25  C   UNL d   1       8.134   5.102 -10.084  0.00  0.00     0.063 C 
ENDBRANCH   1  18
TORSDOF 1
