REMARK  4 active torsions:
REMARK  status: ('A' for Active; 'I' for Inactive)
REMARK    1  A    between atoms: C_8  and  C_9 
REMARK    2  A    between atoms: C_9  and  C_10 
REMARK    3  A    between atoms: C_10  and  N_11 
REMARK    4  A    between atoms: N_14  and  C_15 
ROOT
ATOM      1  N   UNL d   1       9.098   6.283  -9.979  0.00  0.00     0.141 N 
ATOM      2  C   UNL d   1       9.124   5.873  -8.566  0.00  0.00     0.274 C 
ATOM      3  C   UNL d   1       8.877   7.095  -7.644  0.00  0.00     0.138 C 
ATOM      4  N   UNL d   1       9.899   8.085  -7.939  0.00  0.00    -0.330 N 
ATOM      5  C   UNL d   1       9.982   8.510  -9.338  0.00  0.00     0.138 C 
ATOM      6  C   UNL d   1      10.155   7.271 -10.235  0.00  0.00     0.274 C 
ENDROOT
BRANCH   1   7
ATOM      7  C   UNL d   1       9.229   5.124 -10.860  0.00  0.00     0.255 C 
BRANCH   7   8
ATOM      8  C   UNL d   1       8.842   5.477 -12.312  0.00  0.00     0.068 C 
BRANCH   8   9
ATOM      9  C   UNL d   1       8.780   4.261 -13.232  0.00  0.00     0.050 A 
ATOM     10  C   UNL d   1       7.619   3.611 -13.516  0.00  0.00     0.061 A 
ATOM     11  C   UNL d   1       6.282   3.995 -12.904  0.00  0.00     0.052 C 
ATOM     12  N   UNL d   1       7.585   2.540 -14.411  0.00  0.00    -0.234 NA
ATOM     13  C   UNL d   1       8.684   2.142 -14.967  0.00  0.00     0.153 A 
ATOM     14  C   UNL d   1       8.738   1.012 -16.007  0.00  0.00     0.208 C 
ATOM     15  N   UNL d   1       9.936   2.746 -14.699  0.00  0.00    -0.283 N 
ATOM     16  C   UNL d   1       9.566   1.422 -17.237  0.00  0.00     0.043 C 
ATOM     17  O   UNL d   1       7.440   0.656 -16.450  0.00  0.00    -0.215 OA
ATOM     18  C   UNL d   1      10.957   1.957 -16.859  0.00  0.00     0.028 C 
ATOM     19  C   UNL d   1      11.132   2.159 -15.340  0.00  0.00     0.111 C 
ATOM     20  C   UNL d   1      10.036   3.825 -13.867  0.00  0.00     0.259 A 
ATOM     21  O   UNL d   1      11.114   4.397 -13.666  0.00  0.00    -0.267 OA
ENDBRANCH   8   9
ENDBRANCH   7   8
ENDBRANCH   1   7
BRANCH   4  22
ATOM     22  C   UNL d   1      10.745   8.633  -6.947  0.00  0.00     0.144 A 
ATOM     23  C   UNL d   1      11.132   7.992  -5.734  0.00  0.00     0.058 A 
ATOM     24  C   UNL d   1      11.963   8.766  -4.867  0.00  0.00     0.115 A 
ATOM     25  C   UNL d   1      10.912   6.697  -5.179  0.00  0.00     0.012 A 
ATOM     26  N   UNL d   1      12.441   9.984  -5.141  0.00  0.00    -0.217 NA
ATOM     27  S   UNL d   1      12.351   7.956  -3.363  0.00  0.00    -0.067 SA
ATOM     28  C   UNL d   1      12.021  10.431  -6.312  0.00  0.00     0.201 A 
ATOM     29  N   UNL d   1      11.226   9.858  -7.193  0.00  0.00    -0.207 NA
ATOM     30  C   UNL d   1      11.511   6.552  -3.944  0.00  0.00     0.037 A 
ENDBRANCH   4  22
TORSDOF 4
