REMARK  4 active torsions:
REMARK  status: ('A' for Active; 'I' for Inactive)
REMARK    1  A    between atoms: C_2  and  N_5 
REMARK    2  A    between atoms: N_5  and  C_6 
REMARK    3  A    between atoms: C_6  and  C_7 
REMARK    4  A    between atoms: C_7  and  C_9 
ROOT
ATOM      1  C   UNL d   1      10.941   8.999  -6.544  0.00  0.00     0.011 A 
ATOM      2  C   UNL d   1      11.832   8.858  -7.632  0.00  0.00     0.011 A 
ATOM      3  C   UNL d   1      11.583   7.974  -8.664  0.00  0.00     0.071 A 
ATOM      4 CL   UNL d   1      12.700   8.035  -9.974  0.00  0.00    -0.081 Cl
ATOM      5  C   UNL d   1      10.486   7.075  -8.599  0.00  0.00     0.091 A 
ATOM      6  N   UNL d   1      10.250   6.113  -9.573  0.00  0.00    -0.099 NA
ATOM      7  C   UNL d   1       9.635   7.137  -7.469  0.00  0.00     0.071 A 
ATOM      8 CL   UNL d   1       8.332   6.015  -7.303  0.00  0.00    -0.081 Cl
ATOM      9  C   UNL d   1       9.848   8.116  -6.461  0.00  0.00     0.011 A 
ENDROOT
BRANCH   1  10
ATOM     10  C   UNL d   1      11.210  10.066  -5.513  0.00  0.00     0.198 C 
ATOM     11  O   UNL d   1      11.859  11.137  -6.142  0.00  0.00    -0.216 OA
BRANCH  10  12
ATOM     12  C   UNL d   1      12.149   9.569  -4.388  0.00  0.00     0.157 C 
BRANCH  12  13
ATOM     13  N   UNL d   1      11.400   8.662  -3.531  0.00  0.00    -0.296 NA
BRANCH  13  14
ATOM     14  C   UNL d   1      12.047   7.746  -2.620  0.00  0.00     0.080 C 
ATOM     15  C   UNL d   1      12.675   8.502  -1.453  0.00  0.00     0.024 C 
ATOM     16  C   UNL d   1      13.058   6.938  -3.367  0.00  0.00     0.024 C 
ATOM     17  C   UNL d   1      11.028   6.739  -2.056  0.00  0.00     0.024 C 
ENDBRANCH  13  14
ENDBRANCH  12  13
ENDBRANCH  10  12
ENDBRANCH   1  10
TORSDOF 4
