REMARK  5 active torsions:
REMARK  status: ('A' for Active; 'I' for Inactive)
REMARK    1  A    between atoms: N_12  and  C_13 
REMARK    2  A    between atoms: C_13  and  C_14 
REMARK    3  A    between atoms: C_14  and  C_15 
REMARK    4  A    between atoms: C_15  and  N_16 
REMARK    5  A    between atoms: C_19  and  N_20 
ROOT
ATOM      1  N   UNL d   1       9.858   6.766  -9.539  0.00  0.00     0.137 N 
ATOM      2  C   UNL d   1      11.134   7.473  -9.656  0.00  0.00     0.252 C 
ATOM      3  C   UNL d   1      11.363   8.322  -8.415  0.00  0.00     0.058 C 
ATOM      4  C   UNL d   1      11.311   7.489  -7.101  0.00  0.00     0.094 C 
ATOM      5  C   UNL d   1      10.009   6.670  -7.086  0.00  0.00     0.058 C 
ATOM      6  C   UNL d   1       9.852   5.868  -8.385  0.00  0.00     0.252 C 
ENDROOT
BRANCH   1   7
ATOM      7  C   UNL d   1       9.655   6.000 -10.759  0.00  0.00     0.252 C 
BRANCH   7   8
ATOM      8  C   UNL d   1       8.171   5.695 -11.027  0.00  0.00     0.060 C 
BRANCH   8   9
ATOM      9  C   UNL d   1       7.813   5.818 -12.532  0.00  0.00     0.111 C 
BRANCH   9  10
ATOM     10  N   UNL d   1       8.241   4.625 -13.291  0.00  0.00    -0.299 N 
ATOM     11  C   UNL d   1       9.510   4.571 -13.786  0.00  0.00     0.238 C 
ATOM     12  O   UNL d   1      10.307   5.508 -13.717  0.00  0.00    -0.272 OA
ATOM     13  C   UNL d   1       9.992   3.279 -14.434  0.00  0.00     0.093 C 
ATOM     14  C   UNL d   1       8.869   2.552 -15.186  0.00  0.00     0.038 C 
ATOM     15  C   UNL d   1       7.599   2.483 -14.364  0.00  0.00    -0.004 A 
ATOM     16  C   UNL d   1       7.324   3.532 -13.445  0.00  0.00     0.058 A 
ATOM     17  C   UNL d   1       6.717   1.386 -14.476  0.00  0.00     0.027 A 
ATOM     18  C   UNL d   1       6.139   3.465 -12.659  0.00  0.00     0.019 A 
ATOM     19  C   UNL d   1       5.269   2.376 -12.797  0.00  0.00     0.031 A 
ATOM     20  C   UNL d   1       5.554   1.333 -13.690  0.00  0.00     0.140 A 
ATOM     21  F   UNL d   1       4.685   0.300 -13.829  0.00  0.00    -0.204 F 
ENDBRANCH   9  10
ENDBRANCH   8   9
ENDBRANCH   7   8
ENDBRANCH   1   7
BRANCH   4  22
ATOM     22  N   UNL d   1      11.411   8.309  -5.878  0.00  0.00    -0.281 N 
ATOM     23  C   UNL d   1      11.759   7.824  -4.611  0.00  0.00     0.082 A 
ATOM     24  C   UNL d   1      11.740   8.899  -3.741  0.00  0.00     0.102 A 
ATOM     25  C   UNL d   1      12.092   6.537  -4.188  0.00  0.00     0.019 A 
ATOM     26  N   UNL d   1      11.326  10.002  -4.463  0.00  0.00    -0.191 NA
ATOM     27  C   UNL d   1      12.067   8.796  -2.393  0.00  0.00     0.021 A 
ATOM     28  C   UNL d   1      11.127   9.632  -5.739  0.00  0.00     0.350 A 
ATOM     29  O   UNL d   1      10.764  10.386  -6.612  0.00  0.00    -0.244 OA
ATOM     30  C   UNL d   1      12.423   7.516  -1.958  0.00  0.00     0.002 A 
ATOM     31  C   UNL d   1      12.438   6.405  -2.830  0.00  0.00     0.002 A 
ENDBRANCH   4  22
TORSDOF 5
