REMARK  7 active torsions:
REMARK  status: ('A' for Active; 'I' for Inactive)
REMARK    1  A    between atoms: S_2  and  N_4 
REMARK    2  A    between atoms: S_2  and  C_22 
REMARK    3  A    between atoms: N_4  and  C_5 
REMARK    4  A    between atoms: N_8  and  C_9 
REMARK    5  A    between atoms: C_9  and  C_10 
REMARK    6  A    between atoms: C_10  and  C_11 
REMARK    7  A    between atoms: C_11  and  C_12 
ROOT
ATOM      1  C   UNL d   1       8.109   5.232 -12.438  0.00  0.00     0.151 C 
ATOM      2  C   UNL d   1       7.087   5.295 -11.298  0.00  0.00     0.063 C 
ATOM      3  C   UNL d   1       7.933   5.387 -10.034  0.00  0.00     0.252 C 
ATOM      4  N   UNL d   1       9.171   5.987 -10.489  0.00  0.00     0.139 N 
ATOM      5  C   UNL d   1       9.460   5.269 -11.721  0.00  0.00     0.275 C 
ENDROOT
BRANCH   4   6
ATOM      6  C   UNL d   1      10.239   5.862  -9.507  0.00  0.00     0.251 C 
BRANCH   6   7
ATOM      7  C   UNL d   1      10.095   6.893  -8.385  0.00  0.00     0.042 C 
BRANCH   7   8
ATOM      8  C   UNL d   1      11.376   7.038  -7.552  0.00  0.00     0.050 C 
BRANCH   8   9
ATOM      9  C   UNL d   1      11.274   8.139  -6.536  0.00  0.00     0.088 A 
ATOM     10  C   UNL d   1      11.473   8.112  -5.138  0.00  0.00     0.041 A 
ATOM     11  C   UNL d   1      11.359   9.413  -4.648  0.00  0.00     0.126 A 
ATOM     12  C   UNL d   1      11.843   7.064  -4.266  0.00  0.00     0.003 A 
ATOM     13  O   UNL d   1      11.089  10.209  -5.749  0.00  0.00    -0.211 OA
ATOM     14  C   UNL d   1      11.543   9.730  -3.297  0.00  0.00     0.027 A 
ATOM     15  N   UNL d   1      11.070   9.401  -6.920  0.00  0.00    -0.131 NA
ATOM     16  C   UNL d   1      11.894   8.686  -2.423  0.00  0.00     0.002 A 
ATOM     17  C   UNL d   1      12.046   7.364  -2.896  0.00  0.00     0.000 A 
ENDBRANCH   8   9
ENDBRANCH   7   8
ENDBRANCH   6   7
ENDBRANCH   4   6
BRANCH   1  18
ATOM     18  N   UNL d   1       7.948   4.007 -13.220  0.00  0.00    -0.185 NA
BRANCH  18  19
ATOM     19  S   UNL d   1       9.131   3.596 -14.404  0.00  0.00     0.281 S 
ATOM     20  O   UNL d   1       9.342   4.782 -15.249  0.00  0.00    -0.199 OA
ATOM     21  O   UNL d   1      10.261   2.976 -13.699  0.00  0.00    -0.199 OA
BRANCH  19  22
ATOM     22  C   UNL d   1       8.318   2.331 -15.376  0.00  0.00     0.105 A 
ATOM     23  C   UNL d   1       8.590   2.247 -16.755  0.00  0.00     0.015 A 
ATOM     24  C   UNL d   1       7.938   1.269 -17.532  0.00  0.00     0.030 A 
ATOM     25  C   UNL d   1       7.015   0.387 -16.931  0.00  0.00     0.140 A 
ATOM     26  C   UNL d   1       6.739   0.483 -15.552  0.00  0.00     0.030 A 
ATOM     27  F   UNL d   1       6.400  -0.560 -17.679  0.00  0.00    -0.204 F 
ATOM     28  C   UNL d   1       7.387   1.458 -14.773  0.00  0.00     0.015 A 
ENDBRANCH  19  22
ENDBRANCH  18  19
ENDBRANCH   1  18
TORSDOF 7
