REMARK  3 active torsions:
REMARK  status: ('A' for Active; 'I' for Inactive)
REMARK    1  A    between atoms: C_2  and  C_3 
REMARK    2  A    between atoms: N_16  and  C_17 
REMARK    3  A    between atoms: C_17  and  C_18 
ROOT
ATOM      1  O   UNL d   1      10.798   9.977  -6.715  0.00  0.00    -0.221 OA
ATOM      2  C   UNL d   1      11.060   8.611  -6.666  0.00  0.00     0.148 C 
ATOM      3  C   UNL d   1      12.195   8.299  -7.688  0.00  0.00     0.051 C 
ATOM      4  C   UNL d   1      11.693   8.192  -9.145  0.00  0.00     0.065 C 
ATOM      5  C   UNL d   1      11.002   9.460  -9.629  0.00  0.00     0.018 C 
ATOM      6  C   UNL d   1       9.534   9.231  -9.248  0.00  0.00     0.018 C 
ATOM      7  C   UNL d   1       9.497   7.881  -8.558  0.00  0.00     0.065 C 
ATOM      8  C   UNL d   1       9.753   7.886  -7.047  0.00  0.00     0.051 C 
ATOM      9  N   UNL d   1      10.611   7.190  -9.176  0.00  0.00    -0.254 NA
ENDROOT
BRANCH   9  10
ATOM     10  C   UNL d   1      10.251   6.822 -10.552  0.00  0.00     0.049 C 
BRANCH  10  11
ATOM     11  C   UNL d   1       9.201   5.804 -10.877  0.00  0.00     0.038 C 
ATOM     12  C   UNL d   1       8.927   5.189 -12.164  0.00  0.00     0.026 A 
ATOM     13  C   UNL d   1       7.796   4.378 -11.931  0.00  0.00     0.100 A 
ATOM     14  C   UNL d   1       9.432   5.195 -13.486  0.00  0.00     0.002 A 
ATOM     15  O   UNL d   1       7.468   4.376 -10.613  0.00  0.00    -0.305 OA
ATOM     16  C   UNL d   1       7.126   3.636 -12.913  0.00  0.00     0.025 A 
ATOM     17  C   UNL d   1       8.348   5.201  -9.991  0.00  0.00     0.124 C 
ATOM     18  C   UNL d   1       7.684   3.594 -14.181  0.00  0.00     0.002 A 
ATOM     19  C   UNL d   1       8.826   4.377 -14.474  0.00  0.00     0.000 A 
ENDBRANCH  10  11
ENDBRANCH   9  10
BRANCH   2  20
ATOM     20  C   UNL d   1      11.473   8.254  -5.236  0.00  0.00     0.005 A 
ATOM     21  C   UNL d   1      11.492   6.908  -4.787  0.00  0.00     0.000 A 
ATOM     22  C   UNL d   1      11.880   6.622  -3.461  0.00  0.00     0.029 A 
ATOM     23  C   UNL d   1      12.271   7.668  -2.600  0.00  0.00     0.140 A 
ATOM     24  C   UNL d   1      12.259   8.993  -3.032  0.00  0.00     0.029 A 
ATOM     25  F   UNL d   1      12.655   7.402  -1.343  0.00  0.00    -0.204 F 
ATOM     26  C   UNL d   1      11.858   9.283  -4.338  0.00  0.00     0.000 A 
ENDBRANCH   2  20
TORSDOF 3
