REMARK  6 active torsions:
REMARK  status: ('A' for Active; 'I' for Inactive)
REMARK    1  A    between atoms: O_2  and  C_3 
REMARK    2  A    between atoms: C_12  and  C_13 
REMARK       I    between atoms: C_13  and  N_15 
REMARK    3  A    between atoms: N_15  and  C_16 
REMARK    4  A    between atoms: C_16  and  C_17 
REMARK    5  A    between atoms: N_20  and  C_21 
REMARK    6  A    between atoms: C_21  and  C_22 
ROOT
ATOM      1  C   UNL d   1       9.126   6.560 -12.032  0.00  0.00     0.277 C 
ATOM      2  O   UNL d   1       8.854   7.681 -12.439  0.00  0.00    -0.266 OA
ATOM      3  N   UNL d   1       9.860   6.312 -10.949  0.00  0.00    -0.234 NA
ENDROOT
BRANCH   3   4
ATOM      4  C   UNL d   1      10.618   7.314 -10.220  0.00  0.00     0.129 C 
BRANCH   4   5
ATOM      5  C   UNL d   1       9.745   8.057  -9.211  0.00  0.00     0.029 C 
ATOM      6  C   UNL d   1       8.946   7.100  -8.320  0.00  0.00     0.037 C 
ATOM      7  C   UNL d   1       9.858   6.323  -7.380  0.00  0.00     0.251 C 
ATOM      8  N   UNL d   1      10.579   7.278  -6.535  0.00  0.00     0.141 N 
ATOM      9  C   UNL d   1      11.455   8.123  -7.345  0.00  0.00     0.251 C 
ATOM     10  C   UNL d   1      10.586   8.954  -8.302  0.00  0.00     0.037 C 
BRANCH   8  11
ATOM     11  C   UNL d   1      11.348   6.554  -5.530  0.00  0.00     0.277 C 
BRANCH  11  12
ATOM     12  C   UNL d   1      11.731   7.376  -4.317  0.00  0.00     0.011 A 
ATOM     13  C   UNL d   1      12.259   6.698  -3.202  0.00  0.00    -0.002 A 
ATOM     14  C   UNL d   1      12.619   7.408  -2.046  0.00  0.00    -0.000 A 
ATOM     15  C   UNL d   1      12.479   8.806  -2.011  0.00  0.00    -0.000 A 
ATOM     16  C   UNL d   1      11.933   9.489  -3.114  0.00  0.00    -0.000 A 
ATOM     17  C   UNL d   1      11.541   8.780  -4.261  0.00  0.00    -0.002 A 
ENDBRANCH  11  12
ENDBRANCH   8  11
ENDBRANCH   4   5
ENDBRANCH   3   4
BRANCH   1  18
ATOM     18  C   UNL d   1       8.724   5.307 -12.748  0.00  0.00     0.080 A 
ATOM     19  C   UNL d   1       7.369   5.035 -13.044  0.00  0.00     0.099 A 
ATOM     20  C   UNL d   1       7.024   3.859 -13.717  0.00  0.00     0.024 A 
ATOM     21  C   UNL d   1       8.010   2.953 -14.148  0.00  0.00     0.002 A 
ATOM     22  C   UNL d   1       9.376   3.227 -13.875  0.00  0.00     0.000 A 
ATOM     23  C   UNL d   1       7.661   1.789 -14.855  0.00  0.00     0.000 A 
ATOM     24  C   UNL d   1      10.373   2.333 -14.322  0.00  0.00     0.000 A 
ATOM     25  C   UNL d   1       9.723   4.391 -13.166  0.00  0.00     0.007 A 
ATOM     26  C   UNL d   1      10.013   1.154 -14.998  0.00  0.00     0.000 A 
ATOM     27  C   UNL d   1       8.657   0.881 -15.268  0.00  0.00     0.000 A 
BRANCH  19  28
ATOM     28  O   UNL d   1       6.370   5.934 -12.771  0.00  0.00    -0.328 OA
ATOM     29  C   UNL d   1       5.892   5.900 -11.451  0.00  0.00     0.181 C 
ENDBRANCH  19  28
ENDBRANCH   1  18
TORSDOF 6
