REMARK  11 active torsions:
REMARK  status: ('A' for Active; 'I' for Inactive)
REMARK    1  A    between atoms: C_2  and  N_3 
REMARK    2  A    between atoms: N_3  and  C_4 
REMARK    3  A    between atoms: N_3  and  C_20 
REMARK    4  A    between atoms: C_4  and  C_5 
REMARK    5  A    between atoms: C_5  and  C_6 
REMARK    6  A    between atoms: C_6  and  C_7 
REMARK    7  A    between atoms: C_7  and  N_8 
REMARK       I    between atoms: N_8  and  C_9 
REMARK    8  A    between atoms: C_9  and  C_11 
REMARK    9  A    between atoms: C_20  and  C_21 
REMARK   10  A    between atoms: C_23  and  C_24 
REMARK   11  A    between atoms: C_30  and  O_31 
ROOT
ATOM      1  N   UNL d   1       9.152   3.094 -15.278  0.00  0.00     0.137 N 
ENDROOT
BRANCH   1   2
ATOM      2  C   UNL d   1       9.450   1.666 -15.540  0.00  0.00     0.250 C 
ATOM      3  C   UNL d   1      10.957   1.274 -15.464  0.00  0.00     0.037 C 
ENDBRANCH   1   2
BRANCH   1   4
ATOM      4  C   UNL d   1       9.583   3.425 -13.908  0.00  0.00     0.250 C 
BRANCH   4   5
ATOM      5  C   UNL d   1       9.002   4.763 -13.438  0.00  0.00     0.037 C 
BRANCH   5   6
ATOM      6  C   UNL d   1       9.234   4.993 -11.932  0.00  0.00     0.029 C 
BRANCH   6   7
ATOM      7  C   UNL d   1       9.004   6.465 -11.525  0.00  0.00     0.129 C 
BRANCH   7   8
ATOM      8  N   UNL d   1       9.473   6.676 -10.163  0.00  0.00    -0.233 NA
ATOM      9  C   UNL d   1      10.070   7.788  -9.720  0.00  0.00     0.293 C 
ATOM     10  O   UNL d   1      10.272   8.790 -10.424  0.00  0.00    -0.264 OA
BRANCH   9  11
ATOM     11  C   UNL d   1      10.475   7.785  -8.307  0.00  0.00     0.139 A 
ATOM     12  N   UNL d   1      10.916   8.961  -7.731  0.00  0.00    -0.241 NA
ATOM     13  C   UNL d   1      11.277   8.770  -6.415  0.00  0.00     0.082 A 
ATOM     14  C   UNL d   1      11.059   7.382  -6.167  0.00  0.00     0.019 A 
ATOM     15  C   UNL d   1      11.768   9.636  -5.423  0.00  0.00     0.019 A 
ATOM     16  C   UNL d   1      10.564   6.783  -7.371  0.00  0.00     0.025 A 
ATOM     17  C   UNL d   1      11.371   6.902  -4.870  0.00  0.00     0.002 A 
ATOM     18  C   UNL d   1      11.864   7.763  -3.870  0.00  0.00     0.000 A 
ATOM     19  C   UNL d   1      12.057   9.130  -4.140  0.00  0.00     0.002 A 
ENDBRANCH   9  11
ENDBRANCH   7   8
ENDBRANCH   6   7
ENDBRANCH   5   6
ENDBRANCH   4   5
ENDBRANCH   1   4
BRANCH   1  20
ATOM     20  C   UNL d   1       9.830   4.011 -16.207  0.00  0.00     0.251 C 
BRANCH  20  21
ATOM     21  C   UNL d   1       9.592   3.787 -17.713  0.00  0.00     0.038 A 
ATOM     22  C   UNL d   1      10.479   4.494 -18.728  0.00  0.00     0.026 A 
ATOM     23  C   UNL d   1       9.025   4.897 -18.564  0.00  0.00     0.007 A 
BRANCH  22  24
ATOM     24  C   UNL d   1      11.590   5.403 -18.356  0.00  0.00     0.002 C 
ATOM     25  C   UNL d   1      11.610   6.732 -18.838  0.00  0.00     0.090 C 
ATOM     26  C   UNL d   1      12.628   7.617 -18.398  0.00  0.00     0.026 C 
ATOM     27  C   UNL d   1      13.580   7.191 -17.457  0.00  0.00     0.032 C 
ATOM     28  C   UNL d   1      13.575   5.850 -17.016  0.00  0.00     0.140 C 
ATOM     29  C   UNL d   1      12.635   4.953 -17.507  0.00  0.00     0.027 C 
ATOM     30  F   UNL d   1      14.474   5.458 -16.087  0.00  0.00    -0.204 F 
BRANCH  25  31
ATOM     31  O   UNL d   1      10.604   7.100 -19.711  0.00  0.00    -0.328 OA
ATOM     32  C   UNL d   1      10.694   8.357 -20.357  0.00  0.00     0.181 C 
ENDBRANCH  25  31
ENDBRANCH  22  24
ENDBRANCH  20  21
ENDBRANCH   1  20
TORSDOF 11
