REMARK  14 active torsions:
REMARK  status: ('A' for Active; 'I' for Inactive)
REMARK    1  A    between atoms: C_2  and  C_3 
REMARK    2  A    between atoms: C_3  and  N_4 
REMARK    3  A    between atoms: C_19  and  O_20 
REMARK    4  A    between atoms: O_20  and  C_21 
REMARK    5  A    between atoms: C_21  and  C_22 
REMARK    6  A    between atoms: C_22  and  C_23 
REMARK    7  A    between atoms: C_23  and  N_24 
REMARK    8  A    between atoms: C_26  and  C_27 
REMARK    9  A    between atoms: C_27  and  C_28 
REMARK   10  A    between atoms: C_28  and  C_29 
REMARK   11  A    between atoms: C_29  and  C_30 
REMARK   12  A    between atoms: C_30  and  N_31 
REMARK   13  A    between atoms: N_34  and  C_35 
REMARK   14  A    between atoms: C_40  and  O_41 
ROOT
ATOM      1  C   UNL d   1      11.375   1.025 -19.230  0.00  0.00     0.132 C 
ENDROOT
BRANCH   1   2
ATOM      2  C   UNL d   1      12.402   2.114 -18.865  0.00  0.00     0.059 C 
BRANCH   2   3
ATOM      3  C   UNL d   1      13.815   1.829 -19.417  0.00  0.00     0.151 C 
BRANCH   3   4
ATOM      4  O   UNL d   1      14.563   3.042 -19.481  0.00  0.00    -0.331 OA
BRANCH   4   5
ATOM      5  C   UNL d   1      14.356   3.919 -20.531  0.00  0.00     0.094 A 
ATOM      6  C   UNL d   1      13.502   3.601 -21.623  0.00  0.00     0.024 A 
ATOM      7  C   UNL d   1      13.397   4.447 -22.735  0.00  0.00     0.002 A 
ATOM      8  C   UNL d   1      14.143   5.630 -22.779  0.00  0.00    -0.004 A 
ATOM      9  C   UNL d   1      14.968   5.973 -21.693  0.00  0.00    -0.018 A 
ATOM     10  C   UNL d   1      15.799   7.225 -21.788  0.00  0.00     0.064 C 
ATOM     11  C   UNL d   1      15.062   5.159 -20.538  0.00  0.00     0.018 A 
ATOM     12  C   UNL d   1      17.161   7.073 -21.081  0.00  0.00     0.245 C 
ATOM     13  N   UNL d   1      17.973   8.289 -21.233  0.00  0.00     0.140 N 
ATOM     14  C   UNL d   1      17.013   6.537 -19.643  0.00  0.00     0.005 A 
ATOM     15  C   UNL d   1      19.253   8.014 -20.591  0.00  0.00     0.255 C 
ATOM     16  C   UNL d   1      19.073   7.854 -19.075  0.00  0.00     0.061 C 
ATOM     17  C   UNL d   1      17.944   6.925 -18.643  0.00  0.00    -0.022 A 
ATOM     18  C   UNL d   1      17.746   6.462 -17.332  0.00  0.00    -0.004 A 
ATOM     19  C   UNL d   1      16.638   5.650 -17.046  0.00  0.00    -0.000 A 
ATOM     20  C   UNL d   1      15.757   5.259 -18.070  0.00  0.00    -0.000 A 
ATOM     21  C   UNL d   1      15.934   5.635 -19.427  0.00  0.00    -0.001 A 
BRANCH  13  22
ATOM     22  C   UNL d   1      17.335   9.524 -20.756  0.00  0.00     0.251 C 
BRANCH  22  23
ATOM     23  C   UNL d   1      16.697  10.326 -21.915  0.00  0.00     0.035 C 
ATOM     24  C   UNL d   1      15.529  11.195 -21.434  0.00  0.00     0.002 C 
ENDBRANCH  22  23
ENDBRANCH  13  22
ENDBRANCH   4   5
ENDBRANCH   3   4
ENDBRANCH   2   3
ENDBRANCH   1   2
BRANCH   1  25
ATOM     25  N   UNL d   1      10.085   1.235 -18.592  0.00  0.00    -0.231 N 
ATOM     26  N   UNL d   1       9.548   2.479 -18.535  0.00  0.00    -0.064 NA
ATOM     27  N   UNL d   1       8.419   2.382 -17.907  0.00  0.00    -0.133 NA
ATOM     28  C   UNL d   1       8.214   1.057 -17.535  0.00  0.00     0.101 A 
ATOM     29  C   UNL d   1       9.245   0.299 -18.023  0.00  0.00     0.113 A 
BRANCH  28  30
ATOM     30  C   UNL d   1       6.968   0.623 -16.832  0.00  0.00     0.049 C 
BRANCH  30  31
ATOM     31  C   UNL d   1       5.834   0.330 -17.825  0.00  0.00     0.009 C 
BRANCH  31  32
ATOM     32  C   UNL d   1       4.808  -0.656 -17.238  0.00  0.00     0.036 C 
BRANCH  32  33
ATOM     33  C   UNL d   1       3.567  -0.881 -18.140  0.00  0.00     0.250 C 
BRANCH  33  34
ATOM     34  N   UNL d   1       3.736  -1.863 -19.211  0.00  0.00     0.141 N 
ATOM     35  C   UNL d   1       3.821  -3.220 -18.650  0.00  0.00     0.274 C 
ATOM     36  C   UNL d   1       3.961  -4.259 -19.778  0.00  0.00     0.137 C 
ATOM     37  N   UNL d   1       5.049  -3.910 -20.685  0.00  0.00    -0.343 N 
ATOM     38  C   UNL d   1       5.035  -2.560 -21.214  0.00  0.00     0.137 C 
ATOM     39  C   UNL d   1       4.901  -1.585 -20.038  0.00  0.00     0.274 C 
BRANCH  37  40
ATOM     40  C   UNL d   1       6.140  -4.788 -20.889  0.00  0.00     0.079 A 
ATOM     41  C   UNL d   1       6.831  -5.384 -19.810  0.00  0.00     0.110 A 
ATOM     42  C   UNL d   1       7.862  -6.322 -20.095  0.00  0.00     0.026 A 
ATOM     43  C   UNL d   1       8.190  -6.647 -21.426  0.00  0.00     0.002 A 
ATOM     44  C   UNL d   1       7.522  -6.022 -22.484  0.00  0.00     0.002 A 
ATOM     45  C   UNL d   1       6.502  -5.083 -22.217  0.00  0.00     0.019 A 
BRANCH  41  46
ATOM     46  O   UNL d   1       6.487  -5.029 -18.520  0.00  0.00    -0.327 OA
ATOM     47  C   UNL d   1       7.221  -5.571 -17.433  0.00  0.00     0.181 C 
ENDBRANCH  41  46
ENDBRANCH  37  40
ENDBRANCH  33  34
ENDBRANCH  32  33
ENDBRANCH  31  32
ENDBRANCH  30  31
ENDBRANCH  28  30
ENDBRANCH   1  25
TORSDOF 14
