REMARK  12 active torsions:
REMARK  status: ('A' for Active; 'I' for Inactive)
REMARK    1  A    between atoms: O_2  and  C_3 
REMARK    2  A    between atoms: C_9  and  C_10 
REMARK    3  A    between atoms: C_12  and  C_13 
REMARK    4  A    between atoms: C_13  and  N_14 
REMARK    5  A    between atoms: N_14  and  C_15 
REMARK    6  A    between atoms: N_14  and  C_31 
REMARK    7  A    between atoms: C_15  and  C_16 
REMARK    8  A    between atoms: C_16  and  C_17 
REMARK    9  A    between atoms: C_17  and  S_18 
REMARK   10  A    between atoms: S_18  and  C_19 
REMARK   11  A    between atoms: C_22  and  C_23 
REMARK   12  A    between atoms: C_31  and  C_32 
ROOT
ATOM      1  N   UNL d   1      11.193   2.263 -17.026  0.00  0.00     0.137 N 
ENDROOT
BRANCH   1   2
ATOM      2  C   UNL d   1      11.993   3.224 -16.224  0.00  0.00     0.251 C 
BRANCH   2   3
ATOM      3  C   UNL d   1      12.784   4.213 -17.078  0.00  0.00     0.038 A 
ATOM      4  C   UNL d   1      12.639   5.708 -16.830  0.00  0.00     0.026 A 
ATOM      5  C   UNL d   1      13.896   4.986 -16.395  0.00  0.00     0.007 A 
BRANCH   4   6
ATOM      6  C   UNL d   1      12.641   6.660 -17.987  0.00  0.00     0.002 A 
ATOM      7  C   UNL d   1      11.501   6.781 -18.815  0.00  0.00     0.090 A 
ATOM      8  C   UNL d   1      11.567   7.661 -19.931  0.00  0.00     0.026 A 
ATOM      9  C   UNL d   1      12.738   8.390 -20.197  0.00  0.00     0.032 A 
ATOM     10  C   UNL d   1      13.851   8.284 -19.340  0.00  0.00     0.140 A 
ATOM     11  F   UNL d   1      14.985   8.979 -19.590  0.00  0.00    -0.204 F 
ATOM     12  C   UNL d   1      13.788   7.425 -18.236  0.00  0.00     0.027 A 
BRANCH   7  13
ATOM     13  O   UNL d   1      10.389   6.030 -18.500  0.00  0.00    -0.328 OA
ATOM     14  C   UNL d   1       9.208   6.219 -19.265  0.00  0.00     0.181 C 
ENDBRANCH   7  13
ENDBRANCH   4   6
ENDBRANCH   2   3
ENDBRANCH   1   2
BRANCH   1  15
ATOM     15  C   UNL d   1      10.196   1.517 -16.247  0.00  0.00     0.251 C 
BRANCH  15  16
ATOM     16  C   UNL d   1       9.023   2.439 -15.908  0.00  0.00     0.047 C 
BRANCH  16  17
ATOM     17  C   UNL d   1       8.089   1.893 -14.794  0.00  0.00     0.067 C 
BRANCH  17  18
ATOM     18  S   UNL d   1       6.995   3.192 -14.083  0.00  0.00    -0.075 SA
BRANCH  18  19
ATOM     19  C   UNL d   1       8.139   4.349 -13.351  0.00  0.00     0.193 A 
ATOM     20  N   UNL d   1       8.062   4.720 -12.057  0.00  0.00    -0.289 N 
ATOM     21  C   UNL d   1       9.113   5.565 -11.914  0.00  0.00     0.167 A 
ATOM     22  C   UNL d   1       7.059   4.352 -11.084  0.00  0.00     0.134 C 
ATOM     23  N   UNL d   1       9.813   5.678 -13.048  0.00  0.00    -0.128 NA
ATOM     24  N   UNL d   1       9.122   4.969 -14.009  0.00  0.00    -0.122 NA
BRANCH  21  25
ATOM     25  C   UNL d   1       9.490   6.327 -10.734  0.00  0.00     0.036 A 
ATOM     26  C   UNL d   1       9.558   5.739  -9.457  0.00  0.00     0.003 A 
ATOM     27  C   UNL d   1       9.875   6.521  -8.329  0.00  0.00     0.000 A 
ATOM     28  C   UNL d   1      10.211   7.886  -8.486  0.00  0.00     0.000 A 
ATOM     29  C   UNL d   1      10.226   8.464  -9.777  0.00  0.00     0.000 A 
ATOM     30  C   UNL d   1       9.837   7.687 -10.887  0.00  0.00     0.003 A 
ENDBRANCH  21  25
ENDBRANCH  18  19
ENDBRANCH  17  18
ENDBRANCH  16  17
ENDBRANCH  15  16
ENDBRANCH   1  15
BRANCH   1  31
ATOM     31  C   UNL d   1      12.094   1.292 -17.631  0.00  0.00     0.250 C 
BRANCH  31  32
ATOM     32  C   UNL d   1      11.400   0.518 -18.735  0.00  0.00     0.033 A 
ATOM     33  C   UNL d   1      12.031  -0.720 -19.325  0.00  0.00     0.002 A 
ATOM     34  C   UNL d   1      10.801  -0.844 -18.465  0.00  0.00     0.002 A 
ENDBRANCH  31  32
ENDBRANCH   1  31
TORSDOF 12
