REMARK  8 active torsions:
REMARK  status: ('A' for Active; 'I' for Inactive)
REMARK    1  A    between atoms: O_2  and  C_3 
REMARK    2  A    between atoms: C_8  and  C_9 
REMARK    3  A    between atoms: C_11  and  C_12 
REMARK    4  A    between atoms: C_12  and  N_13 
REMARK    5  A    between atoms: N_13  and  C_14 
REMARK    6  A    between atoms: C_14  and  C_15 
REMARK    7  A    between atoms: C_15  and  C_16 
REMARK    8  A    between atoms: C_19  and  N_20 
REMARK       I    between atoms: N_20  and  C_21 
REMARK       I    between atoms: C_21  and  N_23 
ROOT
ATOM      1  C   UNL d   1       9.257   5.104 -10.654  0.00  0.00     0.290 C 
ENDROOT
BRANCH   1   2
ATOM      2  N   UNL d   1       9.463   6.351  -9.955  0.00  0.00     0.339 N 
BRANCH   2   3
ATOM      3  C   UNL d   1      10.025   6.066  -8.651  0.00  0.00     0.290 C 
BRANCH   3   4
ATOM      4  C   UNL d   1      10.497   7.371  -8.076  0.00  0.00     0.041 A 
ATOM      5  C   UNL d   1      11.527   7.346  -6.965  0.00  0.00     0.026 A 
ATOM      6  C   UNL d   1      11.900   7.907  -8.322  0.00  0.00     0.007 A 
BRANCH   5   7
ATOM      7  C   UNL d   1      11.384   8.239  -5.779  0.00  0.00    -0.000 A 
ATOM      8  C   UNL d   1      11.771   7.817  -4.471  0.00  0.00     0.090 A 
ATOM      9  C   UNL d   1      11.666   8.739  -3.406  0.00  0.00     0.024 A 
ATOM     10  C   UNL d   1      11.147   9.990  -3.664  0.00  0.00     0.002 A 
ATOM     11  C   UNL d   1      10.705  10.383  -4.922  0.00  0.00    -0.000 A 
ATOM     12  C   UNL d   1      10.866   9.512  -5.997  0.00  0.00    -0.002 A 
BRANCH   8  13
ATOM     13  O   UNL d   1      12.229   6.551  -4.257  0.00  0.00    -0.328 OA
ATOM     14  C   UNL d   1      12.643   6.223  -2.945  0.00  0.00     0.181 C 
ENDBRANCH   8  13
ENDBRANCH   5   7
ENDBRANCH   3   4
ENDBRANCH   2   3
ENDBRANCH   1   2
BRANCH   1  15
ATOM     15  C   UNL d   1       8.631   5.416 -12.011  0.00  0.00     0.038 C 
BRANCH  15  16
ATOM     16  C   UNL d   1       8.139   4.125 -12.686  0.00  0.00     0.002 C 
ATOM     17  C   UNL d   1       9.288   3.287 -13.334  0.00  0.00     0.002 C 
ATOM     18  C   UNL d   1       8.840   2.055 -14.172  0.00  0.00     0.025 C 
ATOM     19  C   UNL d   1       7.781   2.471 -15.181  0.00  0.00     0.108 C 
ATOM     20  C   UNL d   1       6.626   3.194 -14.439  0.00  0.00     0.025 C 
ATOM     21  C   UNL d   1       7.100   4.454 -13.722  0.00  0.00     0.002 C 
BRANCH  19  22
ATOM     22  N   UNL d   1       7.259   1.292 -15.865  0.00  0.00    -0.221 NA
ATOM     23  C   UNL d   1       7.014   1.116 -17.162  0.00  0.00     0.342 C 
ATOM     24  O   UNL d   1       7.324   1.943 -18.031  0.00  0.00    -0.245 OA
ATOM     25  N   UNL d   1       6.420  -0.074 -17.446  0.00  0.00    -0.297 N 
ATOM     26  C   UNL d   1       6.160  -0.429 -18.843  0.00  0.00     0.130 C 
ATOM     27  C   UNL d   1       5.834  -1.004 -16.457  0.00  0.00     0.130 C 
ENDBRANCH  19  22
ENDBRANCH  15  16
ENDBRANCH   1  15
TORSDOF 8
