REMARK  8 active torsions:
REMARK  status: ('A' for Active; 'I' for Inactive)
REMARK    1  A    between atoms: C_3  and  S_4 
REMARK    2  A    between atoms: S_4  and  C_5 
REMARK    3  A    between atoms: C_5  and  C_6 
REMARK    4  A    between atoms: C_6  and  C_7 
REMARK    5  A    between atoms: C_7  and  N_8 
REMARK    6  A    between atoms: N_13  and  C_14 
REMARK    7  A    between atoms: C_17  and  C_18 
REMARK    8  A    between atoms: C_28  and  C_29 
ROOT
ATOM      1  N   UNL d   1      10.413   0.625 -17.311  0.00  0.00     0.139 N 
ATOM      2  C   UNL d   1      11.570   0.330 -18.148  0.00  0.00     0.252 C 
ATOM      3  C   UNL d   1      10.966  -0.406 -19.342  0.00  0.00     0.058 C 
ATOM      4  C   UNL d   1      10.522   0.470 -20.517  0.00  0.00     0.028 C 
ATOM      5  C   UNL d   1       9.174  -0.130 -20.916  0.00  0.00     0.102 C 
ATOM      6  N   UNL d   1       8.587  -0.603 -19.672  0.00  0.00    -0.348 N 
ATOM      7  C   UNL d   1       9.685  -1.035 -18.809  0.00  0.00     0.117 C 
ATOM      8  C   UNL d   1       9.557  -0.555 -17.365  0.00  0.00     0.272 C 
ENDROOT
BRANCH   1   9
ATOM      9  C   UNL d   1      10.799   1.023 -15.960  0.00  0.00     0.251 C 
BRANCH   9  10
ATOM     10  C   UNL d   1       9.585   1.255 -15.050  0.00  0.00     0.047 C 
BRANCH  10  11
ATOM     11  C   UNL d   1       8.565   2.240 -15.643  0.00  0.00     0.067 C 
BRANCH  11  12
ATOM     12  S   UNL d   1       7.380   2.790 -14.391  0.00  0.00    -0.075 SA
BRANCH  12  13
ATOM     13  C   UNL d   1       8.384   3.915 -13.459  0.00  0.00     0.193 A 
ATOM     14  N   UNL d   1       8.008   4.386 -12.254  0.00  0.00    -0.287 N 
ATOM     15  C   UNL d   1       6.781   4.096 -11.531  0.00  0.00     0.134 C 
ATOM     16  C   UNL d   1       9.053   5.168 -11.902  0.00  0.00     0.186 A 
ATOM     17  N   UNL d   1       9.995   5.193 -12.854  0.00  0.00    -0.127 NA
ATOM     18  N   UNL d   1       9.566   4.378 -13.864  0.00  0.00    -0.122 NA
BRANCH  16  19
ATOM     19  C   UNL d   1       9.230   5.888 -10.631  0.00  0.00     0.136 A 
ATOM     20  N   UNL d   1       9.844   7.098 -10.700  0.00  0.00    -0.238 NA
ATOM     21  C   UNL d   1      10.005   7.779  -9.542  0.00  0.00     0.120 A 
ATOM     22  C   UNL d   1       9.586   7.243  -8.304  0.00  0.00     0.120 A 
ATOM     23  N   UNL d   1       9.030   6.016  -8.213  0.00  0.00    -0.239 NA
ATOM     24  C   UNL d   1       8.848   5.347  -9.379  0.00  0.00     0.121 A 
ENDBRANCH  16  19
ENDBRANCH  12  13
ENDBRANCH  11  12
ENDBRANCH  10  11
ENDBRANCH   9  10
ENDBRANCH   1   9
BRANCH   6  25
ATOM     25  C   UNL d   1       7.419  -1.393 -19.757  0.00  0.00     0.056 A 
ATOM     26  C   UNL d   1       6.469  -1.164 -20.784  0.00  0.00     0.017 A 
ATOM     27  C   UNL d   1       5.335  -1.984 -20.914  0.00  0.00     0.005 A 
ATOM     28  C   UNL d   1       5.117  -3.051 -20.022  0.00  0.00     0.072 A 
ATOM     29  C   UNL d   1       6.036  -3.265 -18.972  0.00  0.00     0.005 A 
ATOM     30  C   UNL d   1       7.171  -2.447 -18.846  0.00  0.00     0.017 A 
BRANCH  28  31
ATOM     31  C   UNL d   1       3.913  -3.959 -20.166  0.00  0.00     0.419 C 
ATOM     32  F   UNL d   1       3.021  -3.615 -19.241  0.00  0.00    -0.166 F 
ATOM     33  F   UNL d   1       3.356  -3.856 -21.375  0.00  0.00    -0.166 F 
ATOM     34  F   UNL d   1       4.276  -5.228 -19.972  0.00  0.00    -0.166 F 
ENDBRANCH  28  31
ENDBRANCH   6  25
TORSDOF 8
