REMARK  7 active torsions:
REMARK  status: ('A' for Active; 'I' for Inactive)
REMARK    1  A    between atoms: C_2  and  C_3 
REMARK    2  A    between atoms: N_14  and  C_15 
REMARK    3  A    between atoms: C_15  and  C_16 
REMARK    4  A    between atoms: C_16  and  C_17 
REMARK    5  A    between atoms: C_17  and  S_18 
REMARK    6  A    between atoms: S_18  and  C_19 
REMARK    7  A    between atoms: C_22  and  C_23 
ROOT
ATOM      1  C   UNL d   1       9.955   1.685 -23.338  0.00  0.00     0.067 C 
ENDROOT
BRANCH   1   2
ATOM      2  C   UNL d   1      10.449   2.193 -21.966  0.00  0.00     0.047 C 
BRANCH   2   3
ATOM      3  C   UNL d   1      11.935   1.799 -21.702  0.00  0.00     0.251 C 
BRANCH   3   4
ATOM      4  N   UNL d   1      12.313   1.917 -20.291  0.00  0.00     0.138 N 
ATOM      5  C   UNL d   1      11.481   1.059 -19.432  0.00  0.00     0.255 C 
ATOM      6  C   UNL d   1      12.016   0.870 -18.008  0.00  0.00     0.061 C 
ATOM      7  C   UNL d   1      11.681   2.046 -17.097  0.00  0.00    -0.024 A 
ATOM      8  C   UNL d   1      12.161   3.344 -17.376  0.00  0.00    -0.022 A 
ATOM      9  C   UNL d   1      10.860   1.835 -15.972  0.00  0.00     0.004 A 
ATOM     10  C   UNL d   1      11.838   4.417 -16.509  0.00  0.00     0.015 A 
ATOM     11  C   UNL d   1      13.023   3.619 -18.591  0.00  0.00     0.061 C 
ATOM     12  C   UNL d   1      11.040   4.223 -15.361  0.00  0.00     0.087 A 
ATOM     13  N   UNL d   1      10.677   5.186 -14.419  0.00  0.00    -0.243 NA
ATOM     14  C   UNL d   1      10.540   2.913 -15.118  0.00  0.00     0.048 A 
ATOM     15  C   UNL d   1       9.901   4.636 -13.473  0.00  0.00     0.088 A 
ATOM     16  S   UNL d   1       9.529   2.925 -13.688  0.00  0.00    -0.071 SA
ATOM     17  C   UNL d   1      12.309   3.330 -19.920  0.00  0.00     0.255 C 
BRANCH  15  18
ATOM     18  C   UNL d   1       9.328   5.427 -12.346  0.00  0.00     0.053 C 
ATOM     19  C   UNL d   1       7.902   5.907 -12.633  0.00  0.00     0.007 C 
ENDBRANCH  15  18
ENDBRANCH   3   4
ENDBRANCH   2   3
ENDBRANCH   1   2
BRANCH   1  20
ATOM     20  S   UNL d   1       8.149   1.420 -23.389  0.00  0.00    -0.075 SA
BRANCH  20  21
ATOM     21  C   UNL d   1       7.863   0.366 -22.001  0.00  0.00     0.193 A 
ATOM     22  N   UNL d   1       6.655   0.267 -21.418  0.00  0.00    -0.289 N 
ATOM     23  C   UNL d   1       6.880  -0.522 -20.357  0.00  0.00     0.167 A 
ATOM     24  C   UNL d   1       5.391   0.875 -21.861  0.00  0.00     0.134 C 
ATOM     25  N   UNL d   1       8.168  -0.928 -20.290  0.00  0.00    -0.128 NA
ATOM     26  N   UNL d   1       8.793  -0.374 -21.360  0.00  0.00    -0.122 NA
BRANCH  23  27
ATOM     27  C   UNL d   1       5.864  -0.954 -19.412  0.00  0.00     0.037 A 
ATOM     28  C   UNL d   1       5.872  -0.605 -18.030  0.00  0.00     0.021 A 
ATOM     29  C   UNL d   1       4.863  -1.110 -17.159  0.00  0.00     0.081 A 
ATOM     30  C   UNL d   1       6.868   0.234 -17.481  0.00  0.00     0.003 A 
ATOM     31  C   UNL d   1       3.868  -1.949 -17.702  0.00  0.00     0.019 A 
ATOM     32  N   UNL d   1       4.835  -0.807 -15.840  0.00  0.00    -0.250 NA
ATOM     33  C   UNL d   1       3.860  -2.291 -19.064  0.00  0.00     0.002 A 
ATOM     34  C   UNL d   1       4.847  -1.789 -19.915  0.00  0.00     0.003 A 
ATOM     35  C   UNL d   1       5.793  -0.010 -15.332  0.00  0.00     0.059 A 
ATOM     36  C   UNL d   1       5.697   0.284 -13.855  0.00  0.00     0.052 C 
ATOM     37  C   UNL d   1       6.831   0.541 -16.110  0.00  0.00     0.015 A 
ENDBRANCH  23  27
ENDBRANCH  20  21
ENDBRANCH   1  20
TORSDOF 7
