REMARK  5 active torsions:
REMARK  status: ('A' for Active; 'I' for Inactive)
REMARK    1  A    between atoms: O_2  and  C_3 
REMARK    2  A    between atoms: C_8  and  N_9 
REMARK    3  A    between atoms: N_12  and  C_13 
REMARK    4  A    between atoms: C_13  and  N_14 
REMARK       I    between atoms: N_14  and  C_15 
REMARK    5  A    between atoms: C_15  and  C_17 
ROOT
ATOM      1  N   UNL d   1      11.423   7.236  -7.133  0.00  0.00    -0.344 N 
ATOM      2  C   UNL d   1      12.200   7.928  -8.157  0.00  0.00     0.119 C 
ATOM      3  C   UNL d   1      11.277   8.395  -9.299  0.00  0.00     0.102 C 
ATOM      4  N   UNL d   1      10.473   7.275  -9.811  0.00  0.00    -0.232 NA
ATOM      5  C   UNL d   1       9.628   6.760  -8.718  0.00  0.00     0.102 C 
ATOM      6  C   UNL d   1      10.503   6.210  -7.581  0.00  0.00     0.119 C 
ENDROOT
BRANCH   4   7
ATOM      7  C   UNL d   1       9.661   7.739 -10.925  0.00  0.00     0.152 C 
BRANCH   7   8
ATOM      8  N   UNL d   1       8.746   6.788 -11.533  0.00  0.00    -0.194 NA
ATOM      9  C   UNL d   1       9.058   5.739 -12.304  0.00  0.00     0.280 C 
ATOM     10  O   UNL d   1      10.190   5.489 -12.722  0.00  0.00    -0.265 OA
BRANCH   9  11
ATOM     11  C   UNL d   1       7.930   4.839 -12.693  0.00  0.00     0.058 A 
ATOM     12  C   UNL d   1       8.165   3.833 -13.661  0.00  0.00     0.005 A 
ATOM     13  C   UNL d   1       7.132   2.959 -14.036  0.00  0.00     0.000 A 
ATOM     14  C   UNL d   1       5.877   3.058 -13.421  0.00  0.00     0.000 A 
ATOM     15  C   UNL d   1       5.635   4.054 -12.466  0.00  0.00     0.000 A 
ATOM     16  C   UNL d   1       6.657   4.930 -12.076  0.00  0.00     0.005 A 
ENDBRANCH   9  11
ENDBRANCH   7   8
ENDBRANCH   4   7
BRANCH   1  17
ATOM     17  C   UNL d   1      11.425   7.644  -5.784  0.00  0.00     0.079 A 
ATOM     18  C   UNL d   1      11.345   9.003  -5.415  0.00  0.00     0.110 A 
ATOM     19  C   UNL d   1      11.475   9.368  -4.053  0.00  0.00     0.026 A 
ATOM     20  C   UNL d   1      11.742   8.396  -3.069  0.00  0.00     0.002 A 
ATOM     21  C   UNL d   1      11.835   7.046  -3.434  0.00  0.00     0.002 A 
ATOM     22  C   UNL d   1      11.675   6.680  -4.780  0.00  0.00     0.019 A 
BRANCH  18  23
ATOM     23  O   UNL d   1      11.063   9.896  -6.417  0.00  0.00    -0.327 OA
ATOM     24  C   UNL d   1      11.760  11.110  -6.340  0.00  0.00     0.181 C 
ENDBRANCH  18  23
ENDBRANCH   1  17
TORSDOF 5
