REMARK  2 active torsions:
REMARK  status: ('A' for Active; 'I' for Inactive)
REMARK    1  A    between atoms: C_2  and  C_3 
REMARK    2  A    between atoms: C_3  and  N_4 
ROOT
ATOM      1  N   UNL d   1      11.055   2.406 -16.849  0.00  0.00     0.140 N 
ATOM      2  C   UNL d   1      11.314   3.805 -16.526  0.00  0.00     0.251 C 
ATOM      3  C   UNL d   1      10.046   4.227 -15.797  0.00  0.00     0.042 C 
ATOM      4  C   UNL d   1       9.786   3.021 -14.904  0.00  0.00     0.055 C 
ATOM      5  C   UNL d   1       8.367   2.926 -14.345  0.00  0.00    -0.024 A 
ATOM      6  C   UNL d   1       7.848   4.036 -13.643  0.00  0.00    -0.004 A 
ATOM      7  C   UNL d   1       6.558   3.992 -13.088  0.00  0.00     0.000 A 
ATOM      8  C   UNL d   1       5.781   2.831 -13.218  0.00  0.00     0.010 A 
ATOM      9  C   UNL d   1       6.279   1.708 -13.909  0.00  0.00     0.064 A 
ATOM     10  C   UNL d   1       5.436   0.524 -13.987  0.00  0.00     0.101 C 
ATOM     11  N   UNL d   1       4.758  -0.410 -14.051  0.00  0.00    -0.191 NA
ATOM     12  C   UNL d   1       7.581   1.751 -14.486  0.00  0.00    -0.016 A 
ATOM     13  C   UNL d   1       8.155   0.552 -15.240  0.00  0.00     0.029 C 
ATOM     14  C   UNL d   1       9.148   0.972 -16.325  0.00  0.00     0.038 C 
ATOM     15  C   UNL d   1      10.281   1.827 -15.746  0.00  0.00     0.224 C 
ENDROOT
BRANCH   1  16
ATOM     16  C   UNL d   1      12.246   1.626 -17.172  0.00  0.00     0.276 C 
BRANCH  16  17
ATOM     17  C   UNL d   1      13.023   2.197 -18.345  0.00  0.00     0.009 C 
ATOM     18  C   UNL d   1      13.471   1.468 -19.377  0.00  0.00    -0.003 C 
ENDBRANCH  16  17
ENDBRANCH   1  16
TORSDOF 2
