REMARK  3 active torsions:
REMARK  status: ('A' for Active; 'I' for Inactive)
REMARK    1  A    between atoms: C_5  and  N_6 
REMARK    2  A    between atoms: N_9  and  C_10 
REMARK    3  A    between atoms: C_10  and  C_11 
ROOT
ATOM      1  N   UNL d   1      11.464   4.064 -15.105  0.00  0.00     0.149 N 
ATOM      2  C   UNL d   1      10.279   4.700 -15.721  0.00  0.00     0.286 C 
ATOM      3  C   UNL d   1       9.305   5.143 -14.660  0.00  0.00     0.286 C 
ATOM      4  N   UNL d   1       8.860   4.065 -13.795  0.00  0.00     0.146 N 
ATOM      5  C   UNL d   1      10.024   3.403 -13.200  0.00  0.00     0.286 C 
ATOM      6  C   UNL d   1      11.045   2.947 -14.254  0.00  0.00     0.286 C 
ENDROOT
BRANCH   1   7
ATOM      7  C   UNL d   1      12.496   3.700 -16.089  0.00  0.00     0.301 C 
ATOM      8  C   UNL d   1      13.134   4.933 -16.746  0.00  0.00     0.269 C 
ATOM      9  N   UNL d   1      13.820   4.772 -17.910  0.00  0.00    -0.296 N 
ATOM     10  O   UNL d   1      13.059   6.028 -16.165  0.00  0.00    -0.270 OA
ATOM     11  C   UNL d   1      14.494   5.931 -18.495  0.00  0.00     0.133 C 
ATOM     12  C   UNL d   1      13.829   3.520 -18.619  0.00  0.00     0.058 A 
ATOM     13  C   UNL d   1      12.968   2.449 -18.253  0.00  0.00    -0.004 A 
ATOM     14  C   UNL d   1      14.695   3.300 -19.720  0.00  0.00     0.017 A 
ATOM     15  C   UNL d   1      11.995   2.667 -17.131  0.00  0.00     0.071 C 
ATOM     16  C   UNL d   1      12.979   1.215 -18.943  0.00  0.00    -0.003 A 
ATOM     17  C   UNL d   1      13.878   1.020 -20.021  0.00  0.00    -0.000 A 
ATOM     18  C   UNL d   1      14.734   2.071 -20.399  0.00  0.00     0.002 A 
ENDBRANCH   1   7
BRANCH   4  19
ATOM     19  C   UNL d   1       7.890   4.501 -12.790  0.00  0.00     0.277 C 
BRANCH  19  20
ATOM     20  C   UNL d   1       8.462   5.311 -11.624  0.00  0.00     0.011 A 
ATOM     21  C   UNL d   1       9.195   6.508 -11.835  0.00  0.00    -0.002 A 
ATOM     22  C   UNL d   1       9.845   7.147 -10.771  0.00  0.00     0.011 A 
ATOM     23  C   UNL d   1       9.654   6.705  -9.451  0.00  0.00     0.058 A 
ATOM     24  C   UNL d   1       8.845   5.566  -9.211  0.00  0.00     0.011 A 
ATOM     25 CL   UNL d   1      10.352   7.601  -8.143  0.00  0.00    -0.082 Cl
ATOM     26  C   UNL d   1       8.274   4.868 -10.298  0.00  0.00    -0.002 A 
ENDBRANCH  19  20
ENDBRANCH   4  19
TORSDOF 3
