REMARK  1 active torsions:
REMARK  status: ('A' for Active; 'I' for Inactive)
REMARK    1  A    between atoms: C_4  and  C_5 
ROOT
ATOM      1  C   UNL d   1      11.145   2.212 -16.491  0.00  0.00     0.060 C 
ATOM      2  C   UNL d   1      11.778   1.177 -17.440  0.00  0.00     0.009 C 
ATOM      3  C   UNL d   1      10.713   0.386 -18.208  0.00  0.00     0.036 C 
ATOM      4  C   UNL d   1       9.663  -0.191 -17.248  0.00  0.00     0.251 C 
ATOM      5  N   UNL d   1       9.025   0.894 -16.506  0.00  0.00     0.141 N 
ATOM      6  C   UNL d   1       7.891   0.382 -15.723  0.00  0.00     0.255 C 
ATOM      7  C   UNL d   1       7.057   1.555 -15.157  0.00  0.00     0.063 C 
ATOM      8  C   UNL d   1       7.948   2.570 -14.515  0.00  0.00    -0.003 A 
ATOM      9  C   UNL d   1       9.290   2.581 -14.761  0.00  0.00     0.086 A 
ATOM     10  N   UNL d   1       9.879   3.603 -14.034  0.00  0.00    -0.248 NA
ATOM     11  C   UNL d   1       8.914   4.306 -13.333  0.00  0.00     0.081 A 
ATOM     12  C   UNL d   1       8.993   5.422 -12.484  0.00  0.00     0.019 A 
ATOM     13  C   UNL d   1       7.816   5.929 -11.902  0.00  0.00     0.002 A 
ATOM     14  C   UNL d   1       6.577   5.315 -12.171  0.00  0.00     0.000 A 
ATOM     15  C   UNL d   1       6.507   4.194 -13.022  0.00  0.00     0.001 A 
ATOM     16  C   UNL d   1       7.672   3.663 -13.627  0.00  0.00     0.015 A 
ATOM     17  C   UNL d   1      10.002   1.588 -15.636  0.00  0.00     0.262 C 
ENDROOT
BRANCH   1  18
ATOM     18  C   UNL d   1      10.808   3.539 -17.183  0.00  0.00    -0.020 A 
ATOM     19  C   UNL d   1       9.745   3.654 -18.109  0.00  0.00    -0.004 A 
ATOM     20  C   UNL d   1       9.458   4.891 -18.717  0.00  0.00    -0.000 A 
ATOM     21  C   UNL d   1      10.227   6.026 -18.409  0.00  0.00    -0.000 A 
ATOM     22  C   UNL d   1      11.292   5.922 -17.494  0.00  0.00    -0.000 A 
ATOM     23  C   UNL d   1      11.581   4.685 -16.886  0.00  0.00    -0.004 A 
ENDBRANCH   1  18
TORSDOF 1
