REMARK  1 active torsions:
REMARK  status: ('A' for Active; 'I' for Inactive)
REMARK    1  A    between atoms: O_2  and  S_3 
ROOT
ATOM      1  S   UNL d   1       8.477   5.350 -12.385  0.00  0.00     0.281 S 
ATOM      2  C   UNL d   1       8.516   5.555 -10.563  0.00  0.00     0.171 C 
ATOM      3  O   UNL d   1       7.744   4.121 -12.736  0.00  0.00    -0.198 OA
ATOM      4  O   UNL d   1       9.830   5.589 -12.916  0.00  0.00    -0.198 OA
ENDROOT
BRANCH   1   5
ATOM      5  O   UNL d   1       7.518   6.669 -12.823  0.00  0.00    -0.253 OA
ATOM      6  C   UNL d   1       6.150   6.580 -12.447  0.00  0.00     0.197 C 
ENDBRANCH   1   5
TORSDOF 1
