REMARK  2 active torsions:
REMARK  status: ('A' for Active; 'I' for Inactive)
REMARK    1  A    between atoms: N_13  and  C_14 
REMARK    2  A    between atoms: C_14  and  C_15 
ROOT
ATOM      1  N   UNL d   1       6.227   4.352 -13.078  0.00  0.00    -0.120 N 
ATOM      2  C   UNL d   1       7.167   5.002 -12.310  0.00  0.00     0.215 A 
ATOM      3  N   UNL d   1       7.609   4.519 -11.161  0.00  0.00    -0.219 NA
ATOM      4  C   UNL d   1       8.493   5.425 -10.576  0.00  0.00     0.089 A 
ATOM      5  C   UNL d   1       9.119   5.323  -9.320  0.00  0.00     0.015 A 
ATOM      6  C   UNL d   1      10.022   6.320  -8.886  0.00  0.00    -0.022 A 
ATOM      7  C   UNL d   1      10.341   7.422  -9.692  0.00  0.00    -0.024 A 
ATOM      8  C   UNL d   1       9.717   7.545 -10.943  0.00  0.00     0.004 A 
ATOM      9  C   UNL d   1       8.816   6.554 -11.371  0.00  0.00     0.050 A 
ATOM     10  S   UNL d   1       7.860   6.519 -12.829  0.00  0.00    -0.045 SA
ATOM     11  C   UNL d   1      11.316   8.486  -9.215  0.00  0.00     0.061 C 
ATOM     12  C   UNL d   1      10.878   9.178  -7.908  0.00  0.00     0.255 C 
ATOM     13  N   UNL d   1      11.205   8.419  -6.698  0.00  0.00     0.144 N 
ATOM     14  C   UNL d   1      10.303   7.277  -6.549  0.00  0.00     0.255 C 
ATOM     15  C   UNL d   1      10.654   6.183  -7.546  0.00  0.00     0.061 C 
ENDROOT
BRANCH  13  16
ATOM     16  C   UNL d   1      11.143   9.302  -5.529  0.00  0.00     0.297 C 
BRANCH  16  17
ATOM     17  C   UNL d   1      11.661   8.865  -4.174  0.00  0.00     0.113 A 
ATOM     18  C   UNL d   1      11.863   9.638  -3.051  0.00  0.00     0.117 A 
ATOM     19  N   UNL d   1      12.282   8.776  -2.065  0.00  0.00    -0.221 NA
ATOM     20  C   UNL d   1      12.321   7.556  -2.583  0.00  0.00     0.199 A 
ATOM     21  N   UNL d   1      11.998   7.549  -3.866  0.00  0.00    -0.225 NA
ENDBRANCH  16  17
ENDBRANCH  13  16
TORSDOF 2
