REMARK  2 active torsions:
REMARK  status: ('A' for Active; 'I' for Inactive)
REMARK    1  A    between atoms: C_2  and  O_3 
REMARK    2  A    between atoms: O_3  and  C_4 
REMARK       I    between atoms: C_4  and  N_6 
ROOT
ATOM      1  C   UNL d   1       9.787   3.563 -19.709  0.00  0.00     0.365 C 
ATOM      2  O   UNL d   1      10.081   4.681 -20.144  0.00  0.00    -0.238 OA
ATOM      3  N   UNL d   1       9.404   3.264 -18.402  0.00  0.00    -0.296 N 
ATOM      4  C   UNL d   1       9.460   4.309 -17.380  0.00  0.00     0.111 C 
ATOM      5  C   UNL d   1       9.405   3.762 -15.941  0.00  0.00     0.046 C 
ATOM      6  C   UNL d   1       8.299   2.713 -15.679  0.00  0.00    -0.039 C 
ATOM      7  C   UNL d   1       7.651   2.579 -14.499  0.00  0.00     0.009 C 
ATOM      8  C   UNL d   1       7.994   3.501 -13.395  0.00  0.00    -0.003 A 
ATOM      9  C   UNL d   1       9.295   3.473 -12.880  0.00  0.00     0.001 A 
ATOM     10  C   UNL d   1       9.586   4.218 -11.752  0.00  0.00     0.011 A 
ATOM     11  C   UNL d   1       8.657   5.050 -11.114  0.00  0.00     0.057 A 
ATOM     12 CL   UNL d   1       9.095   5.940  -9.704  0.00  0.00    -0.082 Cl
ATOM     13  C   UNL d   1       7.353   5.099 -11.635  0.00  0.00     0.007 A 
ATOM     14  C   UNL d   1       7.034   4.309 -12.765  0.00  0.00    -0.021 A 
ATOM     15  C   UNL d   1       5.623   4.281 -13.252  0.00  0.00     0.031 C 
ATOM     16  C   UNL d   1       4.948   2.956 -12.867  0.00  0.00     0.033 C 
ATOM     17  C   UNL d   1       5.448   1.657 -13.529  0.00  0.00    -0.004 C 
ATOM     18  C   UNL d   1       4.484   0.601 -13.607  0.00  0.00    -0.001 C 
ATOM     19  C   UNL d   1       4.807  -0.625 -14.216  0.00  0.00     0.020 C 
ATOM     20  C   UNL d   1       6.088  -0.729 -14.752  0.00  0.00     0.099 C 
ATOM     21  N   UNL d   1       7.005   0.251 -14.693  0.00  0.00    -0.244 NA
ATOM     22  C   UNL d   1       6.674   1.462 -14.192  0.00  0.00     0.077 C 
ATOM     23  C   UNL d   1       7.877   1.963 -16.955  0.00  0.00     0.046 C 
ATOM     24  C   UNL d   1       8.942   1.927 -18.011  0.00  0.00     0.111 C 
ENDROOT
BRANCH   1  25
ATOM     25  O   UNL d   1       9.805   2.436 -20.446  0.00  0.00    -0.285 OA
BRANCH  25  26
ATOM     26  C   UNL d   1      10.169   2.466 -21.807  0.00  0.00     0.154 C 
ATOM     27  C   UNL d   1      10.119   1.040 -22.367  0.00  0.00     0.035 C 
ENDBRANCH  25  26
ENDBRANCH   1  25
TORSDOF 2
