REMARK  8 active torsions:
REMARK  status: ('A' for Active; 'I' for Inactive)
REMARK    1  A    between atoms: O_2  and  C_3 
REMARK    2  A    between atoms: C_8  and  N_9 
REMARK    3  A    between atoms: N_12  and  C_13 
REMARK    4  A    between atoms: C_13  and  C_14 
REMARK    5  A    between atoms: C_14  and  C_16 
REMARK    6  A    between atoms: C_16  and  C_17 
REMARK    7  A    between atoms: C_17  and  N_18 
REMARK    8  A    between atoms: C_20  and  C_21 
ROOT
ATOM      1  C   UNL d   1       9.726   4.334 -15.197  0.00  0.00     0.188 C 
ATOM      2  O   UNL d   1       9.938   5.228 -16.269  0.00  0.00    -0.221 OA
ENDROOT
BRANCH   1   3
ATOM      3  C   UNL d   1      10.516   3.057 -15.587  0.00  0.00     0.283 C 
BRANCH   3   4
ATOM      4  N   UNL d   1       9.709   1.909 -15.997  0.00  0.00     0.144 N 
ATOM      5  C   UNL d   1       8.512   2.297 -16.770  0.00  0.00     0.274 C 
ATOM      6  C   UNL d   1       7.684   1.109 -17.270  0.00  0.00     0.137 C 
ATOM      7  N   UNL d   1       7.382   0.292 -16.114  0.00  0.00    -0.343 N 
ATOM      8  C   UNL d   1       8.510  -0.134 -15.308  0.00  0.00     0.137 C 
ATOM      9  C   UNL d   1       9.323   1.082 -14.849  0.00  0.00     0.274 C 
BRANCH   7  10
ATOM     10  C   UNL d   1       6.089  -0.150 -15.825  0.00  0.00     0.079 A 
ATOM     11  C   UNL d   1       5.385   0.312 -14.679  0.00  0.00     0.110 A 
ATOM     12  C   UNL d   1       4.063  -0.154 -14.466  0.00  0.00     0.026 A 
ATOM     13  C   UNL d   1       3.467  -1.049 -15.368  0.00  0.00     0.002 A 
ATOM     14  C   UNL d   1       4.183  -1.529 -16.474  0.00  0.00     0.002 A 
ATOM     15  C   UNL d   1       5.489  -1.072 -16.706  0.00  0.00     0.019 A 
BRANCH  11  16
ATOM     16  O   UNL d   1       5.990   1.252 -13.861  0.00  0.00    -0.327 OA
ATOM     17  C   UNL d   1       5.316   1.634 -12.668  0.00  0.00     0.181 C 
ENDBRANCH  11  16
ENDBRANCH   7  10
ENDBRANCH   3   4
ENDBRANCH   1   3
BRANCH   1  18
ATOM     18  C   UNL d   1      10.121   4.991 -13.855  0.00  0.00     0.061 C 
BRANCH  18  19
ATOM     19  C   UNL d   1       8.879   5.472 -13.068  0.00  0.00     0.132 C 
BRANCH  19  20
ATOM     20  N   UNL d   1       9.229   6.272 -11.913  0.00  0.00    -0.230 N 
ATOM     21  N   UNL d   1       9.426   7.605 -12.047  0.00  0.00    -0.064 NA
ATOM     22  N   UNL d   1       9.850   8.044 -10.908  0.00  0.00    -0.129 NA
ATOM     23  C   UNL d   1       9.838   7.003  -9.981  0.00  0.00     0.123 A 
ATOM     24  C   UNL d   1       9.456   5.858 -10.620  0.00  0.00     0.118 A 
BRANCH  23  25
ATOM     25  C   UNL d   1      10.168   7.246  -8.586  0.00  0.00     0.021 A 
ATOM     26  C   UNL d   1      11.109   8.229  -8.228  0.00  0.00     0.003 A 
ATOM     27  C   UNL d   1      11.387   8.464  -6.862  0.00  0.00     0.018 A 
ATOM     28  C   UNL d   1      10.778   7.699  -5.844  0.00  0.00     0.081 A 
ATOM     29  C   UNL d   1      12.317   9.438  -6.480  0.00  0.00     0.003 A 
ATOM     30  C   UNL d   1       9.810   6.769  -6.228  0.00  0.00     0.019 A 
ATOM     31  N   UNL d   1      11.091   7.843  -4.538  0.00  0.00    -0.244 NA
ATOM     32  C   UNL d   1       9.510   6.521  -7.577  0.00  0.00     0.003 A 
ATOM     33  C   UNL d   1      11.984   8.792  -4.183  0.00  0.00     0.099 A 
ATOM     34  C   UNL d   1      12.650   9.589  -5.128  0.00  0.00     0.021 A 
ENDBRANCH  23  25
ENDBRANCH  19  20
ENDBRANCH  18  19
ENDBRANCH   1  18
TORSDOF 8
