REMARK  7 active torsions:
REMARK  status: ('A' for Active; 'I' for Inactive)
REMARK    1  A    between atoms: O_2  and  C_3 
REMARK    2  A    between atoms: C_8  and  O_9 
REMARK    3  A    between atoms: C_14  and  C_15 
REMARK    4  A    between atoms: C_15  and  N_16 
REMARK    5  A    between atoms: N_19  and  C_20 
REMARK    6  A    between atoms: C_20  and  C_21 
REMARK    7  A    between atoms: C_23  and  C_24 
ROOT
ATOM      1  C   UNL d   1       7.001  -2.577 -19.112  0.00  0.00     0.118 A 
ATOM      2  C   UNL d   1       8.260  -2.427 -18.497  0.00  0.00     0.050 A 
ATOM      3  C   UNL d   1       8.728  -1.184 -18.052  0.00  0.00     0.097 A 
ATOM      4  C   UNL d   1       7.877  -0.061 -18.152  0.00  0.00     0.040 A 
ATOM      5  C   UNL d   1       6.611  -0.190 -18.749  0.00  0.00     0.029 A 
ATOM      6  C   UNL d   1       6.170  -1.447 -19.234  0.00  0.00     0.116 A 
ATOM      7  C   UNL d   1       8.363   1.221 -17.641  0.00  0.00     0.092 C 
ATOM      8  N   UNL d   1       7.878   2.363 -17.851  0.00  0.00    -0.136 NA
ATOM      9  O   UNL d   1       8.789   3.324 -17.354  0.00  0.00    -0.237 OA
ATOM     10  C   UNL d   1      10.034   2.676 -17.079  0.00  0.00     0.188 C 
ATOM     11  C   UNL d   1       9.633   1.223 -16.882  0.00  0.00     0.105 C 
ATOM     12  C   UNL d   1      10.596   0.166 -17.442  0.00  0.00     0.157 C 
ATOM     13  O   UNL d   1       9.983  -1.123 -17.479  0.00  0.00    -0.330 OA
ENDROOT
BRANCH  10  14
ATOM     14  C   UNL d   1      10.805   3.296 -15.888  0.00  0.00     0.283 C 
BRANCH  14  15
ATOM     15  N   UNL d   1       9.998   4.010 -14.888  0.00  0.00     0.144 N 
ATOM     16  C   UNL d   1       9.007   3.162 -14.227  0.00  0.00     0.286 C 
ATOM     17  C   UNL d   1       8.162   3.952 -13.222  0.00  0.00     0.286 C 
ATOM     18  N   UNL d   1       8.997   4.512 -12.177  0.00  0.00     0.145 N 
ATOM     19  C   UNL d   1       9.991   5.366 -12.804  0.00  0.00     0.286 C 
ATOM     20  C   UNL d   1      10.840   4.610 -13.856  0.00  0.00     0.286 C 
BRANCH  18  21
ATOM     21  C   UNL d   1       8.203   5.237 -11.187  0.00  0.00     0.273 C 
BRANCH  21  22
ATOM     22  C   UNL d   1       9.027   5.588  -9.957  0.00  0.00    -0.011 C 
ATOM     23  C   UNL d   1       9.472   4.392  -9.128  0.00  0.00     0.028 C 
ATOM     24  C   UNL d   1       9.276   6.866  -9.627  0.00  0.00    -0.007 C 
BRANCH  24  25
ATOM     25  C   UNL d   1       9.860   7.419  -8.386  0.00  0.00    -0.001 A 
ATOM     26  C   UNL d   1       9.667   6.789  -7.124  0.00  0.00    -0.000 A 
ATOM     27  C   UNL d   1      10.282   7.302  -5.969  0.00  0.00    -0.000 A 
ATOM     28  C   UNL d   1      11.044   8.475  -6.033  0.00  0.00    -0.000 A 
ATOM     29  C   UNL d   1      11.206   9.131  -7.271  0.00  0.00    -0.000 A 
ATOM     30  C   UNL d   1      10.619   8.597  -8.438  0.00  0.00    -0.000 A 
ENDBRANCH  24  25
ENDBRANCH  21  22
ENDBRANCH  18  21
ENDBRANCH  14  15
ENDBRANCH  10  14
BRANCH   6  31
ATOM     31  O   UNL d   1       4.959  -1.629 -19.847  0.00  0.00    -0.326 OA
ATOM     32  C   UNL d   1       3.894  -0.797 -19.440  0.00  0.00     0.181 C 
ENDBRANCH   6  31
BRANCH   1  33
ATOM     33  O   UNL d   1       6.521  -3.785 -19.584  0.00  0.00    -0.326 OA
ATOM     34  C   UNL d   1       7.266  -4.964 -19.310  0.00  0.00     0.181 C 
ENDBRANCH   1  33
TORSDOF 7
