REMARK  5 active torsions:
REMARK  status: ('A' for Active; 'I' for Inactive)
REMARK    1  A    between atoms: C_7  and  C_8 
REMARK    2  A    between atoms: C_8  and  C_9 
REMARK    3  A    between atoms: C_9  and  C_10 
REMARK    4  A    between atoms: C_10  and  N_11 
REMARK    5  A    between atoms: N_14  and  C_15 
ROOT
ATOM      1  N   UNL d   1       9.359   1.717 -16.348  0.00  0.00    -0.191 NA
ATOM      2  C   UNL d   1       8.729   2.193 -15.506  0.00  0.00     0.101 C 
ATOM      3  C   UNL d   1       7.928   2.791 -14.447  0.00  0.00     0.068 A 
ATOM      4  C   UNL d   1       6.654   2.264 -14.160  0.00  0.00     0.010 A 
ATOM      5  C   UNL d   1       5.861   2.845 -13.153  0.00  0.00     0.001 A 
ATOM      6  C   UNL d   1       6.344   3.957 -12.429  0.00  0.00     0.001 A 
ATOM      7  C   UNL d   1       7.622   4.501 -12.701  0.00  0.00     0.017 A 
ATOM      8  C   UNL d   1       8.403   3.912 -13.724  0.00  0.00     0.011 A 
ENDROOT
BRANCH   7   9
ATOM      9  C   UNL d   1       8.092   5.702 -11.960  0.00  0.00     0.090 C 
ATOM     10  N   UNL d   1       8.287   6.788 -12.595  0.00  0.00    -0.101 NA
ATOM     11  O   UNL d   1       8.666   7.867 -11.732  0.00  0.00    -0.061 OA
BRANCH   9  12
ATOM     12  C   UNL d   1       8.296   5.513 -10.450  0.00  0.00     0.084 C 
BRANCH  12  13
ATOM     13  C   UNL d   1       9.687   5.966  -9.920  0.00  0.00     0.257 C 
BRANCH  13  14
ATOM     14  N   UNL d   1       9.548   6.860  -8.774  0.00  0.00     0.141 N 
ATOM     15  C   UNL d   1       9.351   6.068  -7.559  0.00  0.00     0.274 C 
ATOM     16  C   UNL d   1       9.191   6.980  -6.332  0.00  0.00     0.138 C 
ATOM     17  N   UNL d   1      10.311   7.900  -6.228  0.00  0.00    -0.330 N 
ATOM     18  C   UNL d   1      10.591   8.670  -7.424  0.00  0.00     0.138 C 
ATOM     19  C   UNL d   1      10.739   7.709  -8.621  0.00  0.00     0.274 C 
BRANCH  17  20
ATOM     20  C   UNL d   1      11.098   8.022  -5.073  0.00  0.00     0.140 A 
ATOM     21  N   UNL d   1      11.456   6.891  -4.415  0.00  0.00    -0.227 NA
ATOM     22  C   UNL d   1      12.167   7.003  -3.273  0.00  0.00     0.101 A 
ATOM     23  C   UNL d   1      12.568   8.238  -2.734  0.00  0.00     0.021 A 
ATOM     24  C   UNL d   1      12.200   9.405  -3.414  0.00  0.00     0.005 A 
ATOM     25  C   UNL d   1      11.462   9.305  -4.604  0.00  0.00     0.037 A 
ENDBRANCH  17  20
ENDBRANCH  13  14
ENDBRANCH  12  13
ENDBRANCH   9  12
ENDBRANCH   7   9
TORSDOF 5
