REMARK  9 active torsions:
REMARK  status: ('A' for Active; 'I' for Inactive)
REMARK    1  A    between atoms: C_2  and  C_4 
REMARK    2  A    between atoms: C_9  and  O_10 
REMARK    3  A    between atoms: O_10  and  C_11 
REMARK    4  A    between atoms: C_11  and  C_12 
REMARK    5  A    between atoms: C_12  and  C_13 
REMARK    6  A    between atoms: C_13  and  N_14 
REMARK    7  A    between atoms: N_17  and  C_18 
REMARK    8  A    between atoms: N_26  and  C_27 
REMARK    9  A    between atoms: C_27  and  C_28 
ROOT
ATOM      1  N   UNL d   1       9.217   5.918 -10.747  0.00  0.00     0.141 N 
ATOM      2  C   UNL d   1       8.218   4.976 -10.248  0.00  0.00     0.274 C 
ATOM      3  C   UNL d   1       7.076   4.827 -11.283  0.00  0.00     0.137 C 
ATOM      4  N   UNL d   1       7.563   4.453 -12.614  0.00  0.00    -0.344 N 
ATOM      5  C   UNL d   1       8.650   5.323 -13.070  0.00  0.00     0.137 C 
ATOM      6  C   UNL d   1       9.749   5.350 -11.983  0.00  0.00     0.274 C 
ENDROOT
BRANCH   4   7
ATOM      7  C   UNL d   1       7.090   3.308 -13.308  0.00  0.00     0.058 A 
ATOM      8  C   UNL d   1       7.837   2.634 -14.321  0.00  0.00     0.033 A 
ATOM      9  C   UNL d   1       7.248   1.454 -14.911  0.00  0.00     0.062 A 
ATOM     10  C   UNL d   1       9.133   2.782 -14.954  0.00  0.00     0.021 A 
ATOM     11  C   UNL d   1       6.026   0.922 -14.468  0.00  0.00     0.017 A 
ATOM     12  N   UNL d   1       8.103   1.030 -15.917  0.00  0.00    -0.322 N 
ATOM     13  C   UNL d   1       5.354   1.557 -13.426  0.00  0.00     0.003 A 
ATOM     14  C   UNL d   1       5.837   2.764 -12.897  0.00  0.00     0.017 A 
ATOM     15  C   UNL d   1       9.227   1.825 -15.931  0.00  0.00     0.076 A 
BRANCH  12  16
ATOM     16  C   UNL d   1       7.897  -0.093 -16.793  0.00  0.00     0.133 C 
BRANCH  16  17
ATOM     17  C   UNL d   1       7.320   0.357 -18.114  0.00  0.00     0.003 A 
ATOM     18  C   UNL d   1       5.948   0.174 -18.382  0.00  0.00     0.027 A 
ATOM     19  C   UNL d   1       5.414   0.578 -19.617  0.00  0.00     0.140 A 
ATOM     20  C   UNL d   1       6.243   1.188 -20.578  0.00  0.00     0.030 A 
ATOM     21  F   UNL d   1       4.103   0.379 -19.876  0.00  0.00    -0.204 F 
ATOM     22  C   UNL d   1       7.610   1.389 -20.309  0.00  0.00     0.002 A 
ATOM     23  C   UNL d   1       8.149   0.974 -19.077  0.00  0.00    -0.002 A 
ENDBRANCH  16  17
ENDBRANCH  12  16
ENDBRANCH   4   7
BRANCH   1  24
ATOM     24  C   UNL d   1      10.264   6.080  -9.741  0.00  0.00     0.253 C 
BRANCH  24  25
ATOM     25  C   UNL d   1       9.826   6.950  -8.546  0.00  0.00     0.068 C 
BRANCH  25  26
ATOM     26  C   UNL d   1      10.717   6.694  -7.337  0.00  0.00     0.151 C 
BRANCH  26  27
ATOM     27  O   UNL d   1      10.564   7.782  -6.449  0.00  0.00    -0.331 OA
BRANCH  27  28
ATOM     28  C   UNL d   1      11.183   7.707  -5.220  0.00  0.00     0.099 A 
ATOM     29  C   UNL d   1      11.572   8.902  -4.594  0.00  0.00     0.082 A 
ATOM     30  C   UNL d   1      12.105   8.945  -3.282  0.00  0.00     0.007 A 
ATOM     31  C   UNL d   1      12.266   7.754  -2.585  0.00  0.00     0.000 A 
ATOM     32  C   UNL d   1      11.893   6.545  -3.196  0.00  0.00     0.002 A 
ATOM     33  C   UNL d   1      11.367   6.526  -4.505  0.00  0.00     0.024 A 
BRANCH  29  34
ATOM     34  C   UNL d   1      11.378  10.178  -5.315  0.00  0.00     0.299 C 
ATOM     35  N   UNL d   1      12.024  10.355  -6.428  0.00  0.00    -0.102 N 
ATOM     36  O   UNL d   1      10.650  11.031  -4.808  0.00  0.00    -0.264 OA
ENDBRANCH  29  34
ENDBRANCH  27  28
ENDBRANCH  26  27
ENDBRANCH  25  26
ENDBRANCH  24  25
ENDBRANCH   1  24
TORSDOF 9
