REMARK  7 active torsions:
REMARK  status: ('A' for Active; 'I' for Inactive)
REMARK    1  A    between atoms: C_5  and  C_6 
REMARK    2  A    between atoms: N_14  and  C_15 
REMARK    3  A    between atoms: C_15  and  C_16 
REMARK    4  A    between atoms: C_16  and  C_18 
REMARK    5  A    between atoms: C_18  and  C_19 
REMARK    6  A    between atoms: C_19  and  N_20 
REMARK       I    between atoms: N_20  and  C_21 
REMARK    7  A    between atoms: C_21  and  C_23 
ROOT
ATOM      1  C   UNL d   1       9.012   4.929 -12.738  0.00  0.00     0.188 C 
ATOM      2  O   UNL d   1       7.806   4.355 -12.272  0.00  0.00    -0.221 OA
ENDROOT
BRANCH   1   3
ATOM      3  C   UNL d   1       9.909   3.852 -13.392  0.00  0.00     0.283 C 
BRANCH   3   4
ATOM      4  N   UNL d   1       9.495   3.368 -14.720  0.00  0.00     0.143 N 
ATOM      5  C   UNL d   1      10.539   2.594 -15.400  0.00  0.00     0.249 C 
ATOM      6  C   UNL d   1      11.075   1.399 -14.595  0.00  0.00     0.038 C 
ATOM      7  C   UNL d   1      10.044   2.095 -16.774  0.00  0.00     0.176 C 
ATOM      8  O   UNL d   1       8.901   1.256 -16.590  0.00  0.00    -0.348 OA
ATOM      9  C   UNL d   1       7.813   1.919 -15.943  0.00  0.00     0.172 C 
ATOM     10  C   UNL d   1       8.297   2.552 -14.621  0.00  0.00     0.284 C 
BRANCH   9  11
ATOM     11  C   UNL d   1       6.656   0.967 -15.697  0.00  0.00     0.026 A 
ATOM     12  C   UNL d   1       6.164   0.159 -16.741  0.00  0.00     0.098 A 
ATOM     13  N   UNL d   1       5.111  -0.673 -16.604  0.00  0.00    -0.230 NA
ATOM     14  C   UNL d   1       4.521  -0.746 -15.396  0.00  0.00     0.151 A 
ATOM     15  C   UNL d   1       4.923   0.007 -14.284  0.00  0.00     0.033 A 
ATOM     16  N   UNL d   1       3.458  -1.618 -15.271  0.00  0.00    -0.080 NA
ATOM     17  C   UNL d   1       6.003   0.881 -14.440  0.00  0.00     0.002 A 
ENDBRANCH   9  11
ENDBRANCH   3   4
ENDBRANCH   1   3
BRANCH   1  18
ATOM     18  C   UNL d   1       9.687   5.521 -11.495  0.00  0.00     0.061 C 
BRANCH  18  19
ATOM     19  C   UNL d   1       8.849   6.596 -10.781  0.00  0.00     0.132 C 
BRANCH  19  20
ATOM     20  N   UNL d   1       9.502   7.108  -9.582  0.00  0.00    -0.233 NA
ATOM     21  C   UNL d   1       9.731   6.407  -8.469  0.00  0.00     0.293 C 
ATOM     22  O   UNL d   1       9.562   5.191  -8.392  0.00  0.00    -0.264 OA
BRANCH  21  23
ATOM     23  C   UNL d   1      10.259   7.178  -7.328  0.00  0.00     0.139 A 
ATOM     24  N   UNL d   1      10.819   6.492  -6.271  0.00  0.00    -0.241 NA
ATOM     25  C   UNL d   1      11.230   7.352  -5.276  0.00  0.00     0.082 A 
ATOM     26  C   UNL d   1      10.893   8.654  -5.747  0.00  0.00     0.019 A 
ATOM     27  C   UNL d   1      11.857   7.137  -4.035  0.00  0.00     0.019 A 
ATOM     28  C   UNL d   1      10.267   8.518  -7.032  0.00  0.00     0.025 A 
ATOM     29  C   UNL d   1      11.215   9.744  -4.902  0.00  0.00     0.002 A 
ATOM     30  C   UNL d   1      11.856   9.543  -3.662  0.00  0.00     0.000 A 
ATOM     31  C   UNL d   1      12.185   8.243  -3.229  0.00  0.00     0.002 A 
ENDBRANCH  21  23
ENDBRANCH  19  20
ENDBRANCH  18  19
ENDBRANCH   1  18
TORSDOF 7
