REMARK  6 active torsions:
REMARK  status: ('A' for Active; 'I' for Inactive)
REMARK    1  A    between atoms: O_2  and  C_3 
REMARK    2  A    between atoms: C_8  and  N_9 
REMARK    3  A    between atoms: N_12  and  C_13 
REMARK    4  A    between atoms: C_13  and  C_14 
REMARK    5  A    between atoms: C_14  and  C_16 
REMARK    6  A    between atoms: C_16  and  N_17 
ROOT
ATOM      1  N   UNL d   1       6.599   2.953 -14.041  0.00  0.00    -0.343 N 
ATOM      2  C   UNL d   1       8.007   3.353 -14.108  0.00  0.00     0.137 C 
ATOM      3  C   UNL d   1       8.381   4.183 -12.882  0.00  0.00     0.274 C 
ATOM      4  N   UNL d   1       7.471   5.307 -12.704  0.00  0.00     0.144 N 
ATOM      5  C   UNL d   1       6.107   4.819 -12.510  0.00  0.00     0.274 C 
ATOM      6  C   UNL d   1       5.619   4.005 -13.708  0.00  0.00     0.137 C 
ENDROOT
BRANCH   4   7
ATOM      7  C   UNL d   1       7.843   6.055 -11.509  0.00  0.00     0.285 C 
BRANCH   7   8
ATOM      8  C   UNL d   1       9.218   6.744 -11.543  0.00  0.00     0.208 C 
ATOM      9  O   UNL d   1       9.070   8.129 -11.336  0.00  0.00    -0.219 OA
BRANCH   8  10
ATOM     10  C   UNL d   1      10.207   6.173 -10.489  0.00  0.00     0.148 C 
BRANCH  10  11
ATOM     11  N   UNL d   1       9.960   6.591  -9.105  0.00  0.00    -0.247 N 
ATOM     12  C   UNL d   1      10.605   7.607  -8.524  0.00  0.00     0.261 A 
ATOM     13  C   UNL d   1      10.060   7.783  -7.122  0.00  0.00     0.160 A 
ATOM     14  O   UNL d   1      11.516   8.289  -9.001  0.00  0.00    -0.270 OA
ATOM     15  N   UNL d   1       9.066   6.735  -7.126  0.00  0.00    -0.213 NA
ATOM     16  C   UNL d   1       9.402   9.147  -6.971  0.00  0.00     0.034 C 
ATOM     17  C   UNL d   1      11.121   7.509  -6.048  0.00  0.00     0.034 C 
ATOM     18  C   UNL d   1       9.094   6.009  -8.250  0.00  0.00     0.348 A 
ATOM     19  O   UNL d   1       8.460   4.976  -8.437  0.00  0.00    -0.245 OA
ENDBRANCH  10  11
ENDBRANCH   8  10
ENDBRANCH   7   8
ENDBRANCH   4   7
BRANCH   1  20
ATOM     20  C   UNL d   1       6.206   1.643 -14.238  0.00  0.00     0.079 A 
ATOM     21  C   UNL d   1       6.744   0.862 -15.298  0.00  0.00     0.110 A 
ATOM     22  C   UNL d   1       6.262  -0.465 -15.488  0.00  0.00     0.026 A 
ATOM     23  C   UNL d   1       5.248  -0.984 -14.671  0.00  0.00     0.002 A 
ATOM     24  C   UNL d   1       4.666  -0.180 -13.676  0.00  0.00     0.002 A 
ATOM     25  C   UNL d   1       5.186   1.105 -13.431  0.00  0.00     0.019 A 
BRANCH  21  26
ATOM     26  O   UNL d   1       7.663   1.445 -16.145  0.00  0.00    -0.327 OA
ATOM     27  C   UNL d   1       8.312   0.630 -17.104  0.00  0.00     0.181 C 
ENDBRANCH  21  26
ENDBRANCH   1  20
TORSDOF 6
