REMARK  6 active torsions:
REMARK  status: ('A' for Active; 'I' for Inactive)
REMARK    1  A    between atoms: O_2  and  C_3 
REMARK    2  A    between atoms: C_3  and  C_4 
REMARK    3  A    between atoms: C_3  and  C_17 
REMARK    4  A    between atoms: C_4  and  N_5 
REMARK    5  A    between atoms: N_8  and  C_9 
REMARK    6  A    between atoms: C_17  and  C_20 
ROOT
ATOM      1  C   UNL d   1       7.832   5.491 -12.605  0.00  0.00     0.191 C 
ENDROOT
BRANCH   1   2
ATOM      2  O   UNL d   1       7.916   6.827 -13.048  0.00  0.00    -0.346 OA
ATOM      3  C   UNL d   1       6.773   7.633 -12.836  0.00  0.00     0.175 C 
ENDBRANCH   1   2
BRANCH   1   4
ATOM      4  C   UNL d   1       7.771   5.367 -11.051  0.00  0.00     0.286 C 
BRANCH   4   5
ATOM      5  N   UNL d   1       9.022   5.651 -10.341  0.00  0.00     0.144 N 
ATOM      6  C   UNL d   1       9.471   7.046 -10.446  0.00  0.00     0.274 C 
ATOM      7  C   UNL d   1      10.792   7.328  -9.737  0.00  0.00     0.138 C 
ATOM      8  N   UNL d   1      10.695   6.862  -8.345  0.00  0.00    -0.330 N 
ATOM      9  C   UNL d   1      10.191   5.504  -8.187  0.00  0.00     0.138 C 
ATOM     10  C   UNL d   1       8.893   5.304  -8.948  0.00  0.00     0.274 C 
BRANCH   8  11
ATOM     11  C   UNL d   1      11.050   7.672  -7.242  0.00  0.00     0.140 A 
ATOM     12  N   UNL d   1      11.345   8.962  -7.480  0.00  0.00    -0.227 NA
ATOM     13  C   UNL d   1      11.691   9.764  -6.452  0.00  0.00     0.101 A 
ATOM     14  C   UNL d   1      11.761   9.331  -5.115  0.00  0.00     0.021 A 
ATOM     15  C   UNL d   1      11.456   7.977  -4.859  0.00  0.00     0.005 A 
ATOM     16  C   UNL d   1      11.107   7.140  -5.926  0.00  0.00     0.037 A 
ENDBRANCH   8  11
ENDBRANCH   4   5
ENDBRANCH   1   4
BRANCH   1  17
ATOM     17  C   UNL d   1       8.983   4.662 -13.251  0.00  0.00     0.117 C 
ATOM     18  N   UNL d   1      10.192   5.029 -13.028  0.00  0.00    -0.098 NA
ATOM     19  O   UNL d   1      11.179   4.056 -13.475  0.00  0.00    -0.061 OA
BRANCH  17  20
ATOM     20  C   UNL d   1       8.561   3.546 -14.155  0.00  0.00     0.018 A 
ATOM     21  C   UNL d   1       7.397   2.801 -13.886  0.00  0.00    -0.003 A 
ATOM     22  C   UNL d   1       6.985   1.747 -14.730  0.00  0.00    -0.022 A 
ATOM     23  C   UNL d   1       7.737   1.419 -15.868  0.00  0.00    -0.004 A 
ATOM     24  C   UNL d   1       5.732   0.961 -14.387  0.00  0.00     0.031 C 
ATOM     25  C   UNL d   1       8.907   2.154 -16.157  0.00  0.00    -0.000 A 
ATOM     26  C   UNL d   1       9.298   3.220 -15.329  0.00  0.00     0.001 A 
ENDBRANCH  17  20
ENDBRANCH   1  17
TORSDOF 6
