REMARK  8 active torsions:
REMARK  status: ('A' for Active; 'I' for Inactive)
REMARK    1  A    between atoms: C_2  and  C_3 
REMARK    2  A    between atoms: C_2  and  C_23 
REMARK    3  A    between atoms: C_3  and  C_4 
REMARK    4  A    between atoms: C_4  and  C_5 
REMARK    5  A    between atoms: C_5  and  N_6 
REMARK    6  A    between atoms: C_9  and  C_10 
REMARK    7  A    between atoms: C_10  and  C_11 
REMARK    8  A    between atoms: C_11  and  C_12 
ROOT
ATOM      1  N   UNL d   1       8.928   6.101 -11.565  0.00  0.00     0.137 N 
ATOM      2  C   UNL d   1       7.519   6.179 -11.970  0.00  0.00     0.250 C 
ATOM      3  C   UNL d   1       7.291   5.322 -13.223  0.00  0.00     0.035 C 
ATOM      4  C   UNL d   1       7.692   3.862 -13.020  0.00  0.00     0.004 C 
ATOM      5  C   UNL d   1       9.125   3.838 -12.452  0.00  0.00     0.035 C 
ATOM      6  C   UNL d   1       9.220   4.716 -11.206  0.00  0.00     0.250 C 
ENDROOT
BRANCH   1   7
ATOM      7  C   UNL d   1       9.091   6.972 -10.412  0.00  0.00     0.251 C 
BRANCH   7   8
ATOM      8  C   UNL d   1      10.556   7.215 -10.017  0.00  0.00     0.043 C 
BRANCH   8   9
ATOM      9  C   UNL d   1      10.711   7.999  -8.699  0.00  0.00     0.071 C 
BRANCH   9  10
ATOM     10  C   UNL d   1      10.523   7.126  -7.446  0.00  0.00     0.173 C 
ATOM     11  O   UNL d   1      10.047   5.998  -7.546  0.00  0.00    -0.291 OA
BRANCH  10  12
ATOM     12  C   UNL d   1      11.014   7.684  -6.158  0.00  0.00     0.035 A 
ATOM     13  C   UNL d   1      11.025   9.078  -5.926  0.00  0.00     0.005 A 
ATOM     14  C   UNL d   1      11.452   9.585  -4.682  0.00  0.00     0.030 A 
ATOM     15  C   UNL d   1      11.870   8.703  -3.663  0.00  0.00     0.140 A 
ATOM     16  C   UNL d   1      11.858   7.318  -3.888  0.00  0.00     0.030 A 
ATOM     17  F   UNL d   1      12.261   9.189  -2.463  0.00  0.00    -0.204 F 
ATOM     18  C   UNL d   1      11.421   6.810  -5.124  0.00  0.00     0.005 A 
ENDBRANCH  10  12
ENDBRANCH   9  10
ENDBRANCH   8   9
ENDBRANCH   7   8
ENDBRANCH   1   7
BRANCH   4  19
ATOM     19  C   UNL d   1       7.576   3.078 -14.347  0.00  0.00     0.005 C 
BRANCH  19  20
ATOM     20  C   UNL d   1       7.719   1.562 -14.190  0.00  0.00     0.028 C 
BRANCH  20  21
ATOM     21  C   UNL d   1       7.710   0.863 -15.503  0.00  0.00    -0.002 A 
ATOM     22  C   UNL d   1       8.842   0.562 -16.332  0.00  0.00     0.015 A 
ATOM     23  C   UNL d   1       8.367  -0.124 -17.488  0.00  0.00     0.081 A 
ATOM     24  C   UNL d   1      10.236   0.794 -16.240  0.00  0.00     0.001 A 
ATOM     25  N   UNL d   1       6.998  -0.215 -17.330  0.00  0.00    -0.244 NA
ATOM     26  C   UNL d   1       9.236  -0.571 -18.499  0.00  0.00     0.019 A 
ATOM     27  C   UNL d   1       6.603   0.367 -16.140  0.00  0.00     0.095 A 
ATOM     28  C   UNL d   1      10.616  -0.321 -18.381  0.00  0.00     0.002 A 
ATOM     29  C   UNL d   1      11.110   0.367 -17.258  0.00  0.00     0.000 A 
ENDBRANCH  20  21
ENDBRANCH  19  20
ENDBRANCH   4  19
TORSDOF 8
