REMARK  6 active torsions:
REMARK  status: ('A' for Active; 'I' for Inactive)
REMARK       I    between atoms: C_2  and  N_3 
REMARK    1  A    between atoms: C_2  and  C_27 
REMARK    2  A    between atoms: N_3  and  C_4 
REMARK    3  A    between atoms: C_7  and  C_8 
REMARK    4  A    between atoms: C_8  and  C_9 
REMARK    5  A    between atoms: C_9  and  N_10 
REMARK    6  A    between atoms: N_13  and  C_14 
ROOT
ATOM      1  C   UNL d   1       8.961   4.044 -13.210  0.00  0.00     0.250 C 
ENDROOT
BRANCH   1   2
ATOM      2  C   UNL d   1       9.311   4.484 -14.627  0.00  0.00     0.035 C 
BRANCH   2   3
ATOM      3  C   UNL d   1      10.402   3.634 -15.269  0.00  0.00     0.002 C 
ATOM      4  C   UNL d   1       9.932   2.173 -15.454  0.00  0.00     0.002 C 
ATOM      5  C   UNL d   1      11.001   1.338 -16.152  0.00  0.00     0.024 C 
ATOM      6  C   UNL d   1      11.406   1.968 -17.491  0.00  0.00     0.106 C 
ATOM      7  C   UNL d   1      11.901   3.406 -17.299  0.00  0.00     0.024 C 
ATOM      8  C   UNL d   1      10.833   4.262 -16.607  0.00  0.00     0.002 C 
BRANCH   6   9
ATOM      9  N   UNL d   1      12.459   1.183 -18.115  0.00  0.00    -0.238 NA
ATOM     10  C   UNL d   1      12.259   0.176 -18.983  0.00  0.00     0.279 C 
ATOM     11  O   UNL d   1      11.140  -0.192 -19.335  0.00  0.00    -0.268 OA
BRANCH  10  12
ATOM     12  C   UNL d   1      13.516  -0.512 -19.521  0.00  0.00     0.195 C 
ATOM     13  O   UNL d   1      14.637   0.357 -19.472  0.00  0.00    -0.347 OA
ATOM     14  C   UNL d   1      15.639  -0.227 -20.290  0.00  0.00     0.143 C 
ATOM     15  C   UNL d   1      14.861  -0.715 -21.511  0.00  0.00     0.035 C 
ATOM     16  C   UNL d   1      13.436  -0.889 -21.008  0.00  0.00     0.042 C 
ENDBRANCH  10  12
ENDBRANCH   6   9
ENDBRANCH   2   3
ENDBRANCH   1   2
BRANCH   1  17
ATOM     17  N   UNL d   1       7.947   4.915 -12.616  0.00  0.00     0.141 N 
ATOM     18  C   UNL d   1       7.532   4.454 -11.286  0.00  0.00     0.274 C 
ATOM     19  C   UNL d   1       8.744   4.463 -10.315  0.00  0.00     0.137 C 
ATOM     20  N   UNL d   1       9.328   5.810 -10.270  0.00  0.00    -0.343 N 
ATOM     21  C   UNL d   1       9.578   6.429 -11.578  0.00  0.00     0.137 C 
ATOM     22  C   UNL d   1       8.340   6.322 -12.458  0.00  0.00     0.274 C 
BRANCH  20  23
ATOM     23  C   UNL d   1       9.597   6.472  -9.065  0.00  0.00     0.081 A 
ATOM     24  C   UNL d   1      10.546   7.505  -8.985  0.00  0.00     0.135 A 
ATOM     25  C   UNL d   1      10.795   8.198  -7.808  0.00  0.00     0.121 A 
ATOM     26  O   UNL d   1      11.362   7.989  -9.957  0.00  0.00    -0.298 OA
ATOM     27  C   UNL d   1      10.140   7.876  -6.614  0.00  0.00     0.026 A 
ATOM     28  O   UNL d   1      11.741   9.142  -8.034  0.00  0.00    -0.299 OA
ATOM     29  C   UNL d   1       9.199   6.823  -6.656  0.00  0.00     0.004 A 
ATOM     30  C   UNL d   1       8.922   6.144  -7.873  0.00  0.00     0.019 A 
ATOM     31  C   UNL d   1      12.091   9.027  -9.384  0.00  0.00     0.304 A 
ENDBRANCH  20  23
ENDBRANCH   1  17
TORSDOF 6
