REMARK  6 active torsions:
REMARK  status: ('A' for Active; 'I' for Inactive)
REMARK    1  A    between atoms: C_3  and  S_4 
REMARK    2  A    between atoms: S_4  and  C_5 
REMARK    3  A    between atoms: C_5  and  C_6 
REMARK    4  A    between atoms: C_6  and  C_7 
REMARK    5  A    between atoms: C_7  and  N_8 
REMARK    6  A    between atoms: C_18  and  C_19 
ROOT
ATOM      1  C   UNL d   1       7.526   2.459 -14.826  0.00  0.00     0.134 C 
ATOM      2  N   UNL d   1       8.761   3.130 -14.437  0.00  0.00    -0.289 N 
ATOM      3  C   UNL d   1       8.912   4.134 -13.554  0.00  0.00     0.193 A 
ATOM      4  N   UNL d   1      10.173   4.557 -13.435  0.00  0.00    -0.122 NA
ATOM      5  N   UNL d   1      10.902   3.779 -14.302  0.00  0.00    -0.128 NA
ATOM      6  C   UNL d   1      10.034   2.927 -14.862  0.00  0.00     0.167 A 
ENDROOT
BRANCH   3   7
ATOM      7  S   UNL d   1       7.531   4.808 -12.680  0.00  0.00    -0.075 SA
BRANCH   7   8
ATOM      8  C   UNL d   1       8.257   6.356 -12.062  0.00  0.00     0.067 C 
BRANCH   8   9
ATOM      9  C   UNL d   1       8.959   6.159 -10.709  0.00  0.00     0.047 C 
BRANCH   9  10
ATOM     10  C   UNL d   1       9.719   7.424 -10.287  0.00  0.00     0.251 C 
BRANCH  10  11
ATOM     11  N   UNL d   1      10.341   7.265  -8.973  0.00  0.00     0.137 N 
ATOM     12  C   UNL d   1      11.415   8.251  -8.848  0.00  0.00     0.250 C 
ATOM     13  C   UNL d   1      12.117   8.097  -7.488  0.00  0.00     0.035 C 
ATOM     14  C   UNL d   1      11.151   8.259  -6.292  0.00  0.00     0.004 C 
ATOM     15  C   UNL d   1       9.969   7.298  -6.529  0.00  0.00     0.035 C 
ATOM     16  C   UNL d   1      10.664   9.712  -6.195  0.00  0.00     0.000 C 
ATOM     17  C   UNL d   1      11.846   7.921  -4.958  0.00  0.00     0.000 C 
ATOM     18  C   UNL d   1       9.335   7.471  -7.924  0.00  0.00     0.250 C 
ENDBRANCH  10  11
ENDBRANCH   9  10
ENDBRANCH   8   9
ENDBRANCH   7   8
ENDBRANCH   3   7
BRANCH   6  19
ATOM     19  C   UNL d   1      10.456   1.917 -15.834  0.00  0.00     0.036 A 
ATOM     20  C   UNL d   1      11.455   2.228 -16.790  0.00  0.00     0.003 A 
ATOM     21  C   UNL d   1      11.856   1.264 -17.737  0.00  0.00     0.000 A 
ATOM     22  C   UNL d   1      11.256  -0.010 -17.747  0.00  0.00     0.000 A 
ATOM     23  C   UNL d   1      10.262  -0.323 -16.802  0.00  0.00     0.000 A 
ATOM     24  C   UNL d   1       9.881   0.628 -15.837  0.00  0.00     0.003 A 
ENDBRANCH   6  19
TORSDOF 6
