REMARK  6 active torsions:
REMARK  status: ('A' for Active; 'I' for Inactive)
REMARK       I    between atoms: C_2  and  N_3 
REMARK    1  A    between atoms: C_2  and  C_30 
REMARK    2  A    between atoms: N_3  and  C_4 
REMARK    3  A    between atoms: C_4  and  C_5 
REMARK    4  A    between atoms: C_5  and  C_6 
REMARK    5  A    between atoms: C_6  and  C_7 
REMARK    6  A    between atoms: C_7  and  N_8 
ROOT
ATOM      1  N   UNL d   1       8.250   4.025 -13.082  0.00  0.00     0.138 N 
ATOM      2  C   UNL d   1       7.615   2.964 -13.873  0.00  0.00     0.255 C 
ATOM      3  C   UNL d   1       8.668   2.047 -14.554  0.00  0.00     0.057 C 
ATOM      4  C   UNL d   1       9.644   2.880 -15.418  0.00  0.00    -0.039 C 
ATOM      5  C   UNL d   1      10.040   2.530 -16.705  0.00  0.00     0.009 C 
ATOM      6  C   UNL d   1       9.453   1.348 -17.348  0.00  0.00    -0.003 A 
ATOM      7  C   UNL d   1       8.057   1.224 -17.481  0.00  0.00     0.001 A 
ATOM      8  C   UNL d   1       7.477   0.093 -18.042  0.00  0.00     0.011 A 
ATOM      9  C   UNL d   1       8.303  -0.958 -18.527  0.00  0.00     0.057 A 
ATOM     10 CL   UNL d   1       7.595  -2.378 -19.214  0.00  0.00    -0.082 Cl
ATOM     11  C   UNL d   1       9.697  -0.871 -18.377  0.00  0.00     0.007 A 
ATOM     12  C   UNL d   1      10.285   0.275 -17.789  0.00  0.00    -0.021 A 
ATOM     13  C   UNL d   1      11.789   0.367 -17.620  0.00  0.00     0.031 C 
ATOM     14  C   UNL d   1      12.430   1.439 -18.513  0.00  0.00     0.033 C 
ATOM     15  C   UNL d   1      12.027   2.910 -18.331  0.00  0.00    -0.004 A 
ATOM     16  C   UNL d   1      12.867   3.847 -18.981  0.00  0.00    -0.001 A 
ATOM     17  C   UNL d   1      12.615   5.221 -18.820  0.00  0.00     0.020 A 
ATOM     18  C   UNL d   1      11.506   5.587 -18.035  0.00  0.00     0.099 A 
ATOM     19  N   UNL d   1      10.683   4.711 -17.456  0.00  0.00    -0.244 NA
ATOM     20  C   UNL d   1      10.920   3.399 -17.522  0.00  0.00     0.077 A 
ATOM     21  C   UNL d   1      10.170   4.108 -14.648  0.00  0.00     0.057 C 
ATOM     22  C   UNL d   1       9.018   4.865 -13.994  0.00  0.00     0.255 C 
ENDROOT
BRANCH   1  23
ATOM     23  C   UNL d   1       7.225   4.779 -12.349  0.00  0.00     0.250 C 
BRANCH  23  24
ATOM     24  C   UNL d   1       7.709   6.159 -11.827  0.00  0.00     0.037 C 
BRANCH  24  25
ATOM     25  C   UNL d   1       8.600   6.001 -10.577  0.00  0.00     0.029 C 
BRANCH  25  26
ATOM     26  C   UNL d   1       9.552   7.196 -10.394  0.00  0.00     0.129 C 
BRANCH  26  27
ATOM     27  N   UNL d   1      10.023   7.270  -9.017  0.00  0.00    -0.234 NA
ATOM     28  C   UNL d   1      10.691   8.315  -8.507  0.00  0.00     0.281 C 
ATOM     29  O   UNL d   1      11.044   9.281  -9.180  0.00  0.00    -0.265 OA
BRANCH  28  30
ATOM     30  C   UNL d   1      10.964   8.231  -7.061  0.00  0.00     0.087 A 
ATOM     31  S   UNL d   1      11.233   9.739  -6.227  0.00  0.00    -0.082 SA
ATOM     32  C   UNL d   1      11.540   8.896  -4.715  0.00  0.00     0.030 A 
ATOM     33  C   UNL d   1      11.455   7.482  -4.907  0.00  0.00     0.007 A 
ATOM     34  C   UNL d   1      11.836   9.450  -3.458  0.00  0.00     0.006 A 
ATOM     35  C   UNL d   1      11.126   7.120  -6.264  0.00  0.00     0.012 A 
ATOM     36  C   UNL d   1      11.726   6.679  -3.772  0.00  0.00     0.001 A 
ATOM     37  C   UNL d   1      12.024   7.221  -2.516  0.00  0.00     0.000 A 
ATOM     38  C   UNL d   1      12.089   8.613  -2.356  0.00  0.00     0.001 A 
ENDBRANCH  28  30
ENDBRANCH  26  27
ENDBRANCH  25  26
ENDBRANCH  24  25
ENDBRANCH  23  24
ENDBRANCH   1  23
TORSDOF 6
