REMARK  7 active torsions:
REMARK  status: ('A' for Active; 'I' for Inactive)
REMARK    1  A    between atoms: S_2  and  N_4 
REMARK    2  A    between atoms: S_2  and  C_23 
REMARK    3  A    between atoms: N_4  and  C_5 
REMARK    4  A    between atoms: C_5  and  C_6 
REMARK    5  A    between atoms: C_6  and  C_7 
REMARK    6  A    between atoms: C_7  and  N_8 
REMARK    7  A    between atoms: N_11  and  C_12 
ROOT
ATOM      1  N   UNL d   1       7.668   4.804 -11.646  0.00  0.00     0.141 N 
ATOM      2  C   UNL d   1       8.651   4.117 -12.492  0.00  0.00     0.274 C 
ATOM      3  C   UNL d   1       8.047   3.781 -13.866  0.00  0.00     0.138 C 
ATOM      4  N   UNL d   1       6.782   3.046 -13.781  0.00  0.00    -0.329 N 
ATOM      5  C   UNL d   1       5.817   3.682 -12.906  0.00  0.00     0.138 C 
ATOM      6  C   UNL d   1       6.465   3.971 -11.553  0.00  0.00     0.274 C 
ENDROOT
BRANCH   1   7
ATOM      7  C   UNL d   1       8.257   5.042 -10.337  0.00  0.00     0.253 C 
BRANCH   7   8
ATOM      8  C   UNL d   1       9.220   6.237 -10.479  0.00  0.00     0.062 C 
BRANCH   8   9
ATOM      9  C   UNL d   1      10.057   6.370  -9.221  0.00  0.00     0.141 C 
BRANCH   9  10
ATOM     10  N   UNL d   1      10.989   7.474  -9.406  0.00  0.00    -0.185 NA
BRANCH  10  11
ATOM     11  S   UNL d   1      10.586   9.036  -8.926  0.00  0.00     0.281 S 
ATOM     12  O   UNL d   1      11.442   9.931  -9.684  0.00  0.00    -0.199 OA
ATOM     13  O   UNL d   1       9.132   9.183  -8.971  0.00  0.00    -0.199 OA
BRANCH  11  14
ATOM     14  C   UNL d   1      10.990   9.083  -7.181  0.00  0.00     0.106 A 
ATOM     15  C   UNL d   1      11.101   7.856  -6.450  0.00  0.00     0.025 A 
ATOM     16  C   UNL d   1      11.393   7.869  -5.058  0.00  0.00     0.069 A 
ATOM     17  C   UNL d   1      11.511   9.096  -4.373  0.00  0.00     0.068 A 
ATOM     18 CL   UNL d   1      11.645   6.372  -4.218  0.00  0.00    -0.082 Cl
ATOM     19  C   UNL d   1      11.300  10.290  -5.094  0.00  0.00     0.013 A 
ATOM     20 CL   UNL d   1      11.962   9.161  -2.698  0.00  0.00    -0.082 Cl
ATOM     21  C   UNL d   1      11.118  10.315  -6.493  0.00  0.00     0.014 A 
ENDBRANCH  11  14
ENDBRANCH  10  11
ENDBRANCH   9  10
ENDBRANCH   8   9
ENDBRANCH   7   8
ENDBRANCH   1   7
BRANCH   4  22
ATOM     22  C   UNL d   1       6.536   1.820 -14.426  0.00  0.00     0.148 A 
ATOM     23  C   UNL d   1       7.115   1.483 -15.719  0.00  0.00     0.042 A 
ATOM     24  C   UNL d   1       6.612   0.227 -16.148  0.00  0.00     0.050 A 
ATOM     25  C   UNL d   1       8.007   2.148 -16.607  0.00  0.00     0.004 A 
ATOM     26  S   UNL d   1       5.520  -0.375 -14.913  0.00  0.00     0.015 SA
ATOM     27  C   UNL d   1       6.976  -0.346 -17.383  0.00  0.00     0.008 A 
ATOM     28  N   UNL d   1       5.699   0.935 -13.892  0.00  0.00    -0.192 NA
ATOM     29  C   UNL d   1       7.880   0.335 -18.225  0.00  0.00     0.001 A 
ATOM     30  C   UNL d   1       8.393   1.581 -17.833  0.00  0.00     0.000 A 
ENDBRANCH   4  22
TORSDOF 7
