REMARK  7 active torsions:
REMARK  status: ('A' for Active; 'I' for Inactive)
REMARK    1  A    between atoms: O_2  and  C_3 
REMARK    2  A    between atoms: C_8  and  N_9 
REMARK    3  A    between atoms: N_12  and  C_13 
REMARK    4  A    between atoms: C_13  and  C_14 
REMARK    5  A    between atoms: C_14  and  C_16 
REMARK    6  A    between atoms: C_16  and  N_17 
REMARK    7  A    between atoms: C_21  and  C_23 
ROOT
ATOM      1  C   UNL d   1       7.290   1.238 -15.075  0.00  0.00     0.208 C 
ATOM      2  O   UNL d   1       5.928   0.966 -14.798  0.00  0.00    -0.219 OA
ENDROOT
BRANCH   1   3
ATOM      3  C   UNL d   1       7.477   2.771 -15.117  0.00  0.00     0.285 C 
BRANCH   3   4
ATOM      4  N   UNL d   1       8.383   3.286 -14.107  0.00  0.00     0.144 N 
ATOM      5  C   UNL d   1       9.072   4.503 -14.553  0.00  0.00     0.274 C 
ATOM      6  C   UNL d   1      10.075   5.036 -13.500  0.00  0.00     0.137 C 
ATOM      7  N   UNL d   1       9.360   5.247 -12.249  0.00  0.00    -0.343 N 
ATOM      8  C   UNL d   1       8.488   4.208 -11.821  0.00  0.00     0.137 C 
ATOM      9  C   UNL d   1       7.605   3.678 -12.936  0.00  0.00     0.274 C 
BRANCH   7  10
ATOM     10  C   UNL d   1       9.394   6.447 -11.508  0.00  0.00     0.079 A 
ATOM     11  C   UNL d   1       9.790   6.529 -10.143  0.00  0.00     0.110 A 
ATOM     12  C   UNL d   1       9.857   7.804  -9.527  0.00  0.00     0.026 A 
ATOM     13  C   UNL d   1       9.500   8.947 -10.231  0.00  0.00     0.002 A 
ATOM     14  C   UNL d   1       9.051   8.823 -11.572  0.00  0.00     0.002 A 
ATOM     15  C   UNL d   1       9.042   7.596 -12.209  0.00  0.00     0.019 A 
BRANCH  11  16
ATOM     16  O   UNL d   1      10.164   5.441  -9.391  0.00  0.00    -0.327 OA
ATOM     17  C   UNL d   1       9.175   4.643  -8.799  0.00  0.00     0.181 C 
ENDBRANCH  11  16
ENDBRANCH   7  10
ENDBRANCH   3   4
ENDBRANCH   1   3
BRANCH   1  18
ATOM     18  C   UNL d   1       7.632   0.570 -16.428  0.00  0.00     0.148 C 
BRANCH  18  19
ATOM     19  N   UNL d   1       8.945   0.966 -16.970  0.00  0.00    -0.247 N 
ATOM     20  C   UNL d   1       9.136   1.857 -17.955  0.00  0.00     0.265 A 
ATOM     21  C   UNL d   1      10.635   1.989 -18.227  0.00  0.00     0.181 A 
ATOM     22  O   UNL d   1       8.259   2.475 -18.566  0.00  0.00    -0.269 OA
ATOM     23  N   UNL d   1      11.098   0.990 -17.275  0.00  0.00    -0.209 NA
ATOM     24  C   UNL d   1      10.983   1.519 -19.658  0.00  0.00     0.039 C 
ATOM     25  C   UNL d   1      10.109   0.448 -16.553  0.00  0.00     0.348 A 
ATOM     26  O   UNL d   1      10.259  -0.401 -15.679  0.00  0.00    -0.245 OA
BRANCH  21  27
ATOM     27  C   UNL d   1      11.119   3.433 -17.943  0.00  0.00     0.034 A 
ATOM     28  C   UNL d   1      11.728   3.827 -16.718  0.00  0.00     0.138 A 
ATOM     29  C   UNL d   1      12.133   5.163 -16.514  0.00  0.00     0.029 A 
ATOM     30  F   UNL d   1      11.892   2.958 -15.692  0.00  0.00    -0.204 F 
ATOM     31  C   UNL d   1      11.949   6.130 -17.518  0.00  0.00     0.002 A 
ATOM     32  C   UNL d   1      11.356   5.757 -18.734  0.00  0.00    -0.000 A 
ATOM     33  C   UNL d   1      10.939   4.430 -18.936  0.00  0.00     0.000 A 
ENDBRANCH  21  27
ENDBRANCH  18  19
ENDBRANCH   1  18
TORSDOF 7
