REMARK  4 active torsions:
REMARK  status: ('A' for Active; 'I' for Inactive)
REMARK    1  A    between atoms: S_2  and  C_3 
REMARK    2  A    between atoms: S_2  and  C_9 
REMARK    3  A    between atoms: C_12  and  C_13 
REMARK    4  A    between atoms: C_14  and  C_15 
ROOT
ATOM      1  C   UNL d   1       8.692   6.046 -11.281  0.00  0.00     0.080 A 
ATOM      2  C   UNL d   1       8.438   5.058 -10.330  0.00  0.00     0.012 A 
ATOM      3  C   UNL d   1       9.016   5.193  -9.057  0.00  0.00     0.020 A 
ATOM      4  C   UNL d   1       9.798   6.340  -8.785  0.00  0.00     0.082 A 
ATOM      5  N   UNL d   1      10.020   7.316  -9.707  0.00  0.00    -0.243 NA
ATOM      6  C   UNL d   1       9.470   7.162 -10.930  0.00  0.00     0.108 A 
ENDROOT
BRANCH   4   7
ATOM      7  C   UNL d   1      10.345   6.517  -7.447  0.00  0.00     0.019 C 
ATOM      8  C   UNL d   1      10.533   7.700  -6.825  0.00  0.00     0.004 C 
BRANCH   8   9
ATOM      9  C   UNL d   1      11.098   7.892  -5.472  0.00  0.00     0.028 A 
ATOM     10  C   UNL d   1      11.312   9.200  -4.974  0.00  0.00     0.142 A 
ATOM     11  C   UNL d   1      11.856   9.392  -3.685  0.00  0.00     0.059 A 
ATOM     12  F   UNL d   1      10.994  10.281  -5.726  0.00  0.00    -0.204 F 
ATOM     13  C   UNL d   1      12.215   8.294  -2.887  0.00  0.00     0.142 A 
ATOM     14  C   UNL d   1      12.021   6.991  -3.376  0.00  0.00     0.030 A 
ATOM     15  F   UNL d   1      12.730   8.484  -1.649  0.00  0.00    -0.204 F 
ATOM     16  C   UNL d   1      11.460   6.793  -4.654  0.00  0.00     0.004 A 
ENDBRANCH   8   9
ENDBRANCH   4   7
BRANCH   1  17
ATOM     17  S   UNL d   1       7.972   5.920 -12.931  0.00  0.00     0.090 S 
ATOM     18  O   UNL d   1       6.661   5.144 -12.766  0.00  0.00    -0.247 OA
BRANCH  17  19
ATOM     19  C   UNL d   1       9.193   4.726 -13.590  0.00  0.00     0.060 A 
ATOM     20  C   UNL d   1      10.445   5.181 -14.041  0.00  0.00     0.009 A 
ATOM     21  C   UNL d   1      11.403   4.259 -14.507  0.00  0.00     0.001 A 
ATOM     22  C   UNL d   1      11.107   2.882 -14.516  0.00  0.00     0.000 A 
ATOM     23  C   UNL d   1       9.842   2.430 -14.081  0.00  0.00     0.001 A 
ATOM     24  C   UNL d   1       8.876   3.355 -13.629  0.00  0.00     0.009 A 
ENDBRANCH  17  19
ENDBRANCH   1  17
TORSDOF 4
