REMARK  2 active torsions:
REMARK  status: ('A' for Active; 'I' for Inactive)
REMARK    1  A    between atoms: C_2  and  C_3 
REMARK    2  A    between atoms: C_3  and  N_4 
ROOT
ATOM      1  N   UNL d   1      11.119   8.583  -4.345  0.00  0.00     0.140 N 
ATOM      2  C   UNL d   1      11.781   9.829  -4.739  0.00  0.00     0.251 C 
ATOM      3  C   UNL d   1      11.934   9.816  -6.266  0.00  0.00     0.042 C 
ATOM      4  C   UNL d   1      11.442   8.413  -6.623  0.00  0.00     0.055 C 
ATOM      5  C   UNL d   1      10.902   8.159  -8.008  0.00  0.00    -0.022 A 
ATOM      6  C   UNL d   1      11.480   8.823  -9.098  0.00  0.00    -0.004 A 
ATOM      7  C   UNL d   1      11.041   8.534 -10.393  0.00  0.00     0.002 A 
ATOM      8  C   UNL d   1      10.044   7.574 -10.608  0.00  0.00     0.027 A 
ATOM      9  C   UNL d   1       9.490   6.881  -9.525  0.00  0.00     0.127 A 
ATOM     10  O   UNL d   1       8.516   5.965  -9.754  0.00  0.00    -0.191 OA
ATOM     11  C   UNL d   1       9.903   7.190  -8.213  0.00  0.00    -0.001 A 
ATOM     12  C   UNL d   1       9.239   6.475  -7.038  0.00  0.00     0.030 C 
ATOM     13  C   UNL d   1       9.909   6.718  -5.675  0.00  0.00     0.038 C 
ATOM     14  C   UNL d   1      10.422   8.167  -5.557  0.00  0.00     0.224 C 
ENDROOT
BRANCH   1  15
ATOM     15  C   UNL d   1      12.048   7.566  -3.817  0.00  0.00     0.276 C 
BRANCH  15  16
ATOM     16  C   UNL d   1      12.605   7.845  -2.428  0.00  0.00     0.009 C 
ATOM     17  C   UNL d   1      12.604   9.010  -1.783  0.00  0.00    -0.003 C 
ENDBRANCH  15  16
ENDBRANCH   1  15
TORSDOF 2
