REMARK  0 active torsions:
REMARK  status: ('A' for Active; 'I' for Inactive)
ROOT
ATOM      1  C   UNL d   1       8.726   8.098  -7.224  0.00  0.00     0.000 C 
ATOM      2  C   UNL d   1      10.131   7.537  -7.617  0.00  0.00     0.004 C 
ATOM      3  C   UNL d   1      10.649   6.695  -6.408  0.00  0.00     0.029 C 
ATOM      4  C   UNL d   1      11.226   7.528  -5.316  0.00  0.00     0.014 A 
ATOM      5  C   UNL d   1      11.582   7.252  -4.029  0.00  0.00     0.119 A 
ATOM      6  N   UNL d   1      12.064   8.434  -3.502  0.00  0.00    -0.147 NA
ATOM      7  N   UNL d   1      12.037   9.452  -4.381  0.00  0.00    -0.153 NA
ATOM      8  C   UNL d   1      11.546   8.909  -5.471  0.00  0.00     0.078 A 
ATOM      9  C   UNL d   1      11.374   9.657  -6.743  0.00  0.00     0.047 C 
ATOM     10  C   UNL d   1      11.131   8.702  -7.942  0.00  0.00     0.006 C 
ATOM     11  C   UNL d   1      10.727   9.438  -9.238  0.00  0.00     0.000 C 
ATOM     12  C   UNL d   1      10.677   8.485 -10.422  0.00  0.00     0.000 C 
ATOM     13  C   UNL d   1       9.708   7.326 -10.190  0.00  0.00     0.000 C 
ATOM     14  C   UNL d   1      10.071   6.606  -8.875  0.00  0.00     0.000 C 
ATOM     15  C   UNL d   1       9.131   5.409  -8.665  0.00  0.00     0.000 C 
ATOM     16  C   UNL d   1       9.021   4.492  -9.890  0.00  0.00     0.002 C 
ATOM     17  C   UNL d   1       8.644   5.205 -11.212  0.00  0.00     0.026 C 
ATOM     18  C   UNL d   1       7.183   5.663 -11.135  0.00  0.00     0.002 C 
ATOM     19  C   UNL d   1       9.642   6.345 -11.382  0.00  0.00     0.002 C 
ATOM     20  C   UNL d   1       9.273   6.901 -12.762  0.00  0.00     0.003 C 
ATOM     21  C   UNL d   1       8.836   5.657 -13.580  0.00  0.00     0.030 C 
ATOM     22  C   UNL d   1       8.754   4.494 -12.591  0.00  0.00     0.127 C 
ATOM     23  C   UNL d   1       9.952   3.585 -12.751  0.00  0.00     0.033 C 
ATOM     24  O   UNL d   1       7.616   3.748 -12.957  0.00  0.00    -0.226 OA
ENDROOT
TORSDOF 0
