REMARK  8 active torsions:
REMARK  status: ('A' for Active; 'I' for Inactive)
REMARK    1  A    between atoms: N_13  and  C_14 
REMARK    2  A    between atoms: C_14  and  C_15 
REMARK    3  A    between atoms: C_15  and  C_16 
REMARK    4  A    between atoms: C_16  and  C_17 
REMARK    5  A    between atoms: C_17  and  C_18 
REMARK    6  A    between atoms: C_18  and  C_19 
REMARK    7  A    between atoms: C_19  and  N_20 
REMARK    8  A    between atoms: N_23  and  C_24 
ROOT
ATOM      1  C   UNL d   1       6.731   2.998 -13.744  0.00  0.00     0.002 C 
ENDROOT
BRANCH   1   2
ATOM      2  C   UNL d   1       8.018   2.316 -14.251  0.00  0.00     0.025 C 
BRANCH   2   3
ATOM      3  C   UNL d   1       7.909   0.785 -14.354  0.00  0.00     0.109 C 
BRANCH   3   4
ATOM      4  N   UNL d   1       6.973   0.344 -15.378  0.00  0.00    -0.296 N 
ATOM      5  C   UNL d   1       5.839  -0.376 -15.181  0.00  0.00     0.261 A 
ATOM      6  O   UNL d   1       5.345  -0.778 -14.125  0.00  0.00    -0.267 OA
ATOM      7  C   UNL d   1       5.273  -0.563 -16.545  0.00  0.00     0.058 A 
ATOM      8  C   UNL d   1       6.083   0.053 -17.475  0.00  0.00     0.021 A 
ATOM      9  C   UNL d   1       4.124  -1.229 -17.008  0.00  0.00     0.005 A 
ATOM     10  C   UNL d   1       5.884   0.102 -18.855  0.00  0.00     0.002 A 
ATOM     11  C   UNL d   1       7.133   0.606 -16.767  0.00  0.00     0.063 A 
ATOM     12  C   UNL d   1       4.723  -0.555 -19.317  0.00  0.00     0.000 A 
ATOM     13  C   UNL d   1       6.874   0.796 -19.585  0.00  0.00     0.000 A 
ATOM     14  C   UNL d   1       3.858  -1.219 -18.403  0.00  0.00     0.000 A 
ATOM     15  C   UNL d   1       7.980   1.384 -18.916  0.00  0.00     0.002 A 
ATOM     16  C   UNL d   1       8.125   1.288 -17.509  0.00  0.00     0.017 A 
ENDBRANCH   3   4
ENDBRANCH   2   3
ENDBRANCH   1   2
BRANCH   1  17
ATOM     17  C   UNL d   1       6.968   4.427 -13.223  0.00  0.00     0.002 C 
BRANCH  17  18
ATOM     18  C   UNL d   1       7.826   4.492 -11.944  0.00  0.00     0.035 C 
BRANCH  18  19
ATOM     19  C   UNL d   1       8.039   5.928 -11.447  0.00  0.00     0.250 C 
BRANCH  19  20
ATOM     20  N   UNL d   1       9.206   5.990 -10.567  0.00  0.00     0.141 N 
ATOM     21  C   UNL d   1       9.794   7.332 -10.618  0.00  0.00     0.274 C 
ATOM     22  C   UNL d   1      11.016   7.446  -9.696  0.00  0.00     0.138 C 
ATOM     23  N   UNL d   1      10.661   7.048  -8.337  0.00  0.00    -0.330 N 
ATOM     24  C   UNL d   1       9.983   5.759  -8.230  0.00  0.00     0.138 C 
ATOM     25  C   UNL d   1       8.788   5.693  -9.193  0.00  0.00     0.274 C 
BRANCH  23  26
ATOM     26  C   UNL d   1      10.937   7.852  -7.215  0.00  0.00     0.140 A 
ATOM     27  N   UNL d   1      11.077   9.184  -7.408  0.00  0.00    -0.227 NA
ATOM     28  C   UNL d   1      11.337   9.984  -6.352  0.00  0.00     0.101 A 
ATOM     29  C   UNL d   1      11.466   9.503  -5.039  0.00  0.00     0.021 A 
ATOM     30  C   UNL d   1      11.351   8.121  -4.833  0.00  0.00     0.005 A 
ATOM     31  C   UNL d   1      11.068   7.280  -5.923  0.00  0.00     0.037 A 
ENDBRANCH  23  26
ENDBRANCH  19  20
ENDBRANCH  18  19
ENDBRANCH  17  18
ENDBRANCH   1  17
TORSDOF 8
