REMARK  11 active torsions:
REMARK  status: ('A' for Active; 'I' for Inactive)
REMARK    1  A    between atoms: C_2  and  O_3 
REMARK    2  A    between atoms: O_3  and  C_4 
REMARK    3  A    between atoms: C_10  and  C_11 
REMARK    4  A    between atoms: C_13  and  C_14 
REMARK    5  A    between atoms: C_14  and  N_15 
REMARK    6  A    between atoms: N_15  and  C_17 
REMARK    7  A    between atoms: C_17  and  C_18 
REMARK    8  A    between atoms: C_18  and  C_19 
REMARK    9  A    between atoms: C_19  and  S_20 
REMARK   10  A    between atoms: S_20  and  C_21 
REMARK   11  A    between atoms: C_24  and  C_25 
ROOT
ATOM      1  N   UNL d   1       9.683   3.611 -14.255  0.00  0.00     0.139 N 
ATOM      2  C   UNL d   1      10.972   2.938 -14.122  0.00  0.00     0.285 C 
ENDROOT
BRANCH   1   3
ATOM      3  C   UNL d   1       9.520   4.478 -13.097  0.00  0.00     0.251 C 
BRANCH   3   4
ATOM      4  C   UNL d   1       8.272   5.337 -13.164  0.00  0.00     0.038 A 
ATOM      5  C   UNL d   1       7.799   6.054 -11.925  0.00  0.00     0.026 A 
ATOM      6  C   UNL d   1       8.417   6.819 -13.052  0.00  0.00     0.007 A 
BRANCH   5   7
ATOM      7  C   UNL d   1       8.514   5.830 -10.646  0.00  0.00     0.002 C 
ATOM      8  C   UNL d   1       9.475   6.713 -10.167  0.00  0.00     0.090 C 
ATOM      9  C   UNL d   1      10.232   6.348  -9.027  0.00  0.00     0.026 C 
ATOM     10  C   UNL d   1       9.836   5.258  -8.263  0.00  0.00     0.032 C 
ATOM     11  C   UNL d   1       8.886   4.353  -8.733  0.00  0.00     0.140 C 
ATOM     12  F   UNL d   1       8.611   3.200  -8.059  0.00  0.00    -0.204 F 
ATOM     13  C   UNL d   1       8.254   4.654  -9.935  0.00  0.00     0.027 C 
BRANCH   8  14
ATOM     14  O   UNL d   1       9.668   7.915 -10.797  0.00  0.00    -0.331 OA
BRANCH  14  15
ATOM     15  C   UNL d   1      10.751   8.712 -10.425  0.00  0.00     0.149 C 
ATOM     16  C   UNL d   1      10.487   9.409  -9.082  0.00  0.00     0.035 C 
ENDBRANCH  14  15
ENDBRANCH   8  14
ENDBRANCH   5   7
ENDBRANCH   3   4
ENDBRANCH   1   3
BRANCH   1  17
ATOM     17  C   UNL d   1       9.640   4.393 -15.484  0.00  0.00     0.251 C 
BRANCH  17  18
ATOM     18  C   UNL d   1       9.802   3.482 -16.702  0.00  0.00     0.047 C 
BRANCH  18  19
ATOM     19  C   UNL d   1       9.558   4.234 -18.025  0.00  0.00     0.067 C 
BRANCH  19  20
ATOM     20  S   UNL d   1      10.349   5.886 -18.162  0.00  0.00    -0.075 SA
BRANCH  20  21
ATOM     21  C   UNL d   1      12.062   5.487 -17.929  0.00  0.00     0.193 A 
ATOM     22  N   UNL d   1      13.039   6.389 -18.158  0.00  0.00    -0.289 N 
ATOM     23  C   UNL d   1      14.142   5.689 -17.836  0.00  0.00     0.167 A 
ATOM     24  C   UNL d   1      12.911   7.736 -18.651  0.00  0.00     0.134 C 
ATOM     25  N   UNL d   1      13.870   4.450 -17.406  0.00  0.00    -0.128 NA
ATOM     26  N   UNL d   1      12.548   4.336 -17.524  0.00  0.00    -0.122 NA
BRANCH  23  27
ATOM     27  C   UNL d   1      15.509   6.120 -17.943  0.00  0.00     0.036 A 
ATOM     28  C   UNL d   1      15.930   6.833 -19.083  0.00  0.00     0.003 A 
ATOM     29  C   UNL d   1      17.255   7.264 -19.182  0.00  0.00     0.000 A 
ATOM     30  C   UNL d   1      18.168   6.957 -18.155  0.00  0.00     0.000 A 
ATOM     31  C   UNL d   1      17.762   6.220 -17.029  0.00  0.00     0.000 A 
ATOM     32  C   UNL d   1      16.436   5.789 -16.919  0.00  0.00     0.003 A 
ENDBRANCH  23  27
ENDBRANCH  20  21
ENDBRANCH  19  20
ENDBRANCH  18  19
ENDBRANCH  17  18
ENDBRANCH   1  17
TORSDOF 11
