REMARK  8 active torsions:
REMARK  status: ('A' for Active; 'I' for Inactive)
REMARK    1  A    between atoms: N_2  and  C_3 
REMARK    2  A    between atoms: N_2  and  C_22 
REMARK    3  A    between atoms: C_3  and  C_4 
REMARK    4  A    between atoms: C_4  and  C_5 
REMARK    5  A    between atoms: C_5  and  C_7 
REMARK    6  A    between atoms: C_7  and  N_8 
REMARK    7  A    between atoms: N_11  and  C_12 
REMARK    8  A    between atoms: C_22  and  C_23 
ROOT
ATOM      1  C   UNL d   1       7.312   1.722 -14.039  0.00  0.00     0.070 C 
ENDROOT
BRANCH   1   2
ATOM      2  C   UNL d   1       6.973   1.643 -15.543  0.00  0.00     0.253 C 
BRANCH   2   3
ATOM      3  N   UNL d   1       7.579   0.515 -16.257  0.00  0.00     0.144 N 
ATOM      4  C   UNL d   1       7.273   0.689 -17.700  0.00  0.00     0.286 C 
BRANCH   3   5
ATOM      5  C   UNL d   1       9.028   0.386 -15.999  0.00  0.00     0.277 C 
BRANCH   5   6
ATOM      6  C   UNL d   1       9.858   1.664 -16.192  0.00  0.00     0.011 A 
ATOM      7  C   UNL d   1       9.819   2.356 -17.438  0.00  0.00    -0.006 A 
ATOM      8  C   UNL d   1      10.475   3.590 -17.491  0.00  0.00    -0.018 A 
ATOM      9  C   UNL d   1      11.257   4.090 -16.423  0.00  0.00    -0.004 A 
ATOM     10  C   UNL d   1      10.491   4.513 -18.697  0.00  0.00     0.053 A 
ATOM     11  C   UNL d   1      11.372   3.367 -15.219  0.00  0.00    -0.001 A 
ATOM     12  C   UNL d   1      11.868   5.327 -16.886  0.00  0.00    -0.004 A 
ATOM     13  C   UNL d   1      10.644   2.155 -15.091  0.00  0.00    -0.002 A 
ATOM     14  C   UNL d   1      11.427   5.579 -18.197  0.00  0.00    -0.018 A 
ATOM     15  C   UNL d   1      12.752   6.177 -16.239  0.00  0.00    -0.000 A 
ATOM     16  C   UNL d   1      11.847   6.718 -18.898  0.00  0.00    -0.004 A 
ATOM     17  C   UNL d   1      12.736   7.591 -18.244  0.00  0.00    -0.000 A 
ATOM     18  C   UNL d   1      13.188   7.325 -16.930  0.00  0.00    -0.000 A 
ENDBRANCH   5   6
ENDBRANCH   3   5
ENDBRANCH   2   3
ENDBRANCH   1   2
BRANCH   1  19
ATOM     19  C   UNL d   1       6.939   3.055 -13.379  0.00  0.00     0.188 C 
ATOM     20  O   UNL d   1       5.821   3.631 -13.998  0.00  0.00    -0.221 OA
BRANCH  19  21
ATOM     21  C   UNL d   1       8.119   4.056 -13.408  0.00  0.00     0.283 C 
BRANCH  21  22
ATOM     22  N   UNL d   1       8.059   5.083 -12.380  0.00  0.00     0.144 N 
ATOM     23  C   UNL d   1       8.445   4.527 -11.083  0.00  0.00     0.274 C 
ATOM     24  C   UNL d   1       8.407   5.553  -9.955  0.00  0.00     0.137 C 
ATOM     25  N   UNL d   1       9.240   6.683 -10.322  0.00  0.00    -0.344 N 
ATOM     26  C   UNL d   1       8.926   7.277 -11.642  0.00  0.00     0.137 C 
ATOM     27  C   UNL d   1       8.973   6.171 -12.697  0.00  0.00     0.274 C 
BRANCH  25  28
ATOM     28  C   UNL d   1      10.129   7.262  -9.401  0.00  0.00     0.068 A 
ATOM     29  C   UNL d   1      10.013   7.220  -7.977  0.00  0.00     0.084 A 
ATOM     30  C   UNL d   1      11.032   7.770  -7.180  0.00  0.00     0.070 A 
ATOM     31 CL   UNL d   1       8.602   6.555  -7.188  0.00  0.00    -0.080 Cl
ATOM     32  C   UNL d   1      12.167   8.380  -7.744  0.00  0.00     0.012 A 
ATOM     33 CL   UNL d   1      10.940   7.710  -5.461  0.00  0.00    -0.081 Cl
ATOM     34  C   UNL d   1      12.265   8.429  -9.140  0.00  0.00     0.002 A 
ATOM     35  C   UNL d   1      11.247   7.928  -9.926  0.00  0.00     0.018 A 
ENDBRANCH  25  28
ENDBRANCH  21  22
ENDBRANCH  19  21
ENDBRANCH   1  19
TORSDOF 8
