REMARK  5 active torsions:
REMARK  status: ('A' for Active; 'I' for Inactive)
REMARK    1  A    between atoms: C_10  and  C_11 
REMARK    2  A    between atoms: C_11  and  C_12 
REMARK    3  A    between atoms: C_12  and  N_13 
REMARK    4  A    between atoms: C_16  and  C_17 
REMARK    5  A    between atoms: C_17  and  C_19 
ROOT
ATOM      1  N   UNL d   1       7.132   4.334 -13.436  0.00  0.00     0.137 N 
ATOM      2  C   UNL d   1       8.149   3.937 -12.458  0.00  0.00     0.251 C 
ATOM      3  C   UNL d   1       9.120   5.067 -12.145  0.00  0.00     0.043 C 
ATOM      4  C   UNL d   1       8.311   6.248 -11.604  0.00  0.00     0.066 C 
ATOM      5  C   UNL d   1       7.181   6.623 -12.567  0.00  0.00     0.043 C 
ATOM      6  C   UNL d   1       6.303   5.384 -12.838  0.00  0.00     0.251 C 
ENDROOT
BRANCH   1   7
ATOM      7  C   UNL d   1       6.273   3.196 -13.775  0.00  0.00     0.251 C 
BRANCH   7   8
ATOM      8  C   UNL d   1       7.047   2.132 -14.585  0.00  0.00     0.043 C 
BRANCH   8   9
ATOM      9  C   UNL d   1       6.148   0.982 -15.118  0.00  0.00     0.064 C 
ATOM     10  C   UNL d   1       6.268   0.792 -16.648  0.00  0.00     0.172 C 
ATOM     11  C   UNL d   1       5.832  -0.504 -17.202  0.00  0.00     0.032 A 
ATOM     12  O   UNL d   1       6.681   1.701 -17.362  0.00  0.00    -0.291 OA
ATOM     13  C   UNL d   1       5.442  -1.580 -16.371  0.00  0.00    -0.019 A 
ATOM     14  C   UNL d   1       5.842  -0.654 -18.604  0.00  0.00     0.017 A 
ATOM     15  C   UNL d   1       5.059  -2.799 -16.967  0.00  0.00    -0.003 A 
ATOM     16  C   UNL d   1       5.433  -1.455 -14.853  0.00  0.00     0.027 C 
ATOM     17  C   UNL d   1       5.079  -2.944 -18.370  0.00  0.00     0.014 A 
ATOM     18  C   UNL d   1       5.473  -1.872 -19.189  0.00  0.00     0.070 A 
ATOM     19  N   UNL d   1       5.514  -2.006 -20.576  0.00  0.00    -0.101 NA
ATOM     20  C   UNL d   1       6.356  -0.335 -14.342  0.00  0.00     0.012 C 
ENDBRANCH   8   9
ENDBRANCH   7   8
ENDBRANCH   1   7
BRANCH   4  21
ATOM     21  C   UNL d   1       9.249   7.422 -11.290  0.00  0.00     0.175 C 
ATOM     22  O   UNL d   1       9.448   8.267 -12.163  0.00  0.00    -0.291 OA
BRANCH  21  23
ATOM     23  C   UNL d   1       9.912   7.493  -9.951  0.00  0.00     0.060 A 
ATOM     24  C   UNL d   1       9.494   6.801  -8.773  0.00  0.00     0.136 A 
ATOM     25  C   UNL d   1      10.163   6.966  -7.557  0.00  0.00     0.057 A 
ATOM     26  O   UNL d   1       8.404   5.983  -8.710  0.00  0.00    -0.190 OA
ATOM     27  C   UNL d   1      11.259   7.830  -7.465  0.00  0.00     0.142 A 
ATOM     28  C   UNL d   1      11.705   8.524  -8.603  0.00  0.00     0.030 A 
ATOM     29  F   UNL d   1      11.839   8.012  -6.258  0.00  0.00    -0.204 F 
ATOM     30  C   UNL d   1      11.036   8.360  -9.828  0.00  0.00     0.007 A 
ENDBRANCH  21  23
ENDBRANCH   4  21
TORSDOF 5
