REMARK  6 active torsions:
REMARK  status: ('A' for Active; 'I' for Inactive)
REMARK    1  A    between atoms: C_6  and  S_7 
REMARK    2  A    between atoms: S_7  and  N_10 
REMARK    3  A    between atoms: N_10  and  C_11 
REMARK    4  A    between atoms: C_11  and  C_12 
REMARK    5  A    between atoms: C_12  and  N_13 
REMARK    6  A    between atoms: C_16  and  C_17 
ROOT
ATOM      1  N   UNL d   1       9.109   6.181  -9.764  0.00  0.00     0.139 N 
ATOM      2  C   UNL d   1      10.552   6.215  -9.615  0.00  0.00     0.251 C 
ATOM      3  C   UNL d   1      11.030   7.250  -8.592  0.00  0.00     0.041 C 
ATOM      4  C   UNL d   1      10.384   6.998  -7.218  0.00  0.00     0.047 C 
ATOM      5  C   UNL d   1       8.865   6.858  -7.393  0.00  0.00     0.041 C 
ATOM      6  C   UNL d   1       8.527   5.817  -8.473  0.00  0.00     0.251 C 
ENDROOT
BRANCH   1   7
ATOM      7  C   UNL d   1       8.733   5.212 -10.790  0.00  0.00     0.277 C 
BRANCH   7   8
ATOM      8  C   UNL d   1       8.577   5.894 -12.163  0.00  0.00     0.174 C 
BRANCH   8   9
ATOM      9  N   UNL d   1       8.351   4.893 -13.218  0.00  0.00    -0.183 NA
BRANCH   9  10
ATOM     10  S   UNL d   1       9.606   4.522 -14.362  0.00  0.00     0.281 S 
ATOM     11  O   UNL d   1      10.907   4.848 -13.753  0.00  0.00    -0.199 OA
ATOM     12  O   UNL d   1       9.232   5.079 -15.660  0.00  0.00    -0.199 OA
BRANCH  10  13
ATOM     13  C   UNL d   1       9.518   2.773 -14.554  0.00  0.00     0.105 A 
ATOM     14  C   UNL d   1      10.695   2.083 -14.896  0.00  0.00     0.013 A 
ATOM     15  C   UNL d   1      10.621   0.697 -15.105  0.00  0.00     0.000 A 
ATOM     16  C   UNL d   1       9.402   0.027 -14.961  0.00  0.00    -0.004 A 
ATOM     17  C   UNL d   1       8.223   0.723 -14.608  0.00  0.00    -0.021 A 
ATOM     18  C   UNL d   1       6.918  -0.018 -14.409  0.00  0.00     0.031 C 
ATOM     19  C   UNL d   1       8.281   2.115 -14.431  0.00  0.00     0.009 A 
ENDBRANCH  10  13
ENDBRANCH   9  10
ENDBRANCH   8   9
ENDBRANCH   7   8
ENDBRANCH   1   7
BRANCH   4  20
ATOM     20  C   UNL d   1      10.765   8.072  -6.243  0.00  0.00     0.087 A 
ATOM     21  C   UNL d   1      11.380   8.014  -4.976  0.00  0.00     0.041 A 
ATOM     22  C   UNL d   1      11.490   9.307  -4.463  0.00  0.00     0.129 A 
ATOM     23  C   UNL d   1      11.841   6.920  -4.201  0.00  0.00     0.006 A 
ATOM     24  O   UNL d   1      10.951  10.137  -5.430  0.00  0.00    -0.211 OA
ATOM     25  C   UNL d   1      12.031   9.588  -3.209  0.00  0.00     0.057 A 
ATOM     26  N   UNL d   1      10.510   9.351  -6.525  0.00  0.00    -0.131 NA
ATOM     27  C   UNL d   1      12.501   8.507  -2.443  0.00  0.00     0.142 A 
ATOM     28  F   UNL d   1      13.052   8.748  -1.232  0.00  0.00    -0.204 F 
ATOM     29  C   UNL d   1      12.406   7.181  -2.931  0.00  0.00     0.030 A 
ENDBRANCH   4  20
TORSDOF 6
