REMARK  1 active torsions:
REMARK  status: ('A' for Active; 'I' for Inactive)
REMARK    1  A    between atoms: C_14  and  C_15 
ROOT
ATOM      1  O   UNL d   1      10.900   2.597 -14.039  0.00  0.00    -0.291 OA
ATOM      2  C   UNL d   1       9.994   2.049 -14.657  0.00  0.00     0.177 C 
ATOM      3  C   UNL d   1      10.287   0.741 -15.347  0.00  0.00     0.099 C 
ATOM      4  C   UNL d   1       9.588   0.677 -16.719  0.00  0.00     0.137 C 
ATOM      5  C   UNL d   1       9.837  -0.741 -17.327  0.00  0.00     0.278 C 
ATOM      6  N   UNL d   1      10.596  -0.674 -18.588  0.00  0.00     0.139 N 
ATOM      7  C   UNL d   1       9.768   0.004 -19.589  0.00  0.00     0.250 C 
ATOM      8  C   UNL d   1       9.380   1.430 -19.114  0.00  0.00     0.038 C 
ATOM      9  C   UNL d   1      10.055   1.740 -17.757  0.00  0.00     0.032 C 
ATOM     10  C   UNL d   1      11.570   1.553 -17.977  0.00  0.00     0.038 C 
ATOM     11  C   UNL d   1      11.844   0.082 -18.405  0.00  0.00     0.250 C 
ATOM     12  O   UNL d   1       8.172   0.855 -16.486  0.00  0.00    -0.331 OA
ATOM     13  C   UNL d   1       7.793   1.871 -15.638  0.00  0.00     0.119 C 
ATOM     14  C   UNL d   1       8.606   2.568 -14.785  0.00  0.00     0.059 C 
ENDROOT
BRANCH  14  15
ATOM     15  C   UNL d   1       8.111   3.668 -13.941  0.00  0.00     0.005 A 
ATOM     16  C   UNL d   1       8.915   4.817 -13.778  0.00  0.00     0.000 A 
ATOM     17  C   UNL d   1       8.511   5.865 -12.927  0.00  0.00     0.000 A 
ATOM     18  C   UNL d   1       7.278   5.786 -12.265  0.00  0.00     0.000 A 
ATOM     19  C   UNL d   1       6.448   4.662 -12.438  0.00  0.00     0.000 A 
ATOM     20  C   UNL d   1       6.857   3.603 -13.285  0.00  0.00     0.000 A 
ENDBRANCH  14  15
TORSDOF 1
