REMARK  6 active torsions:
REMARK  status: ('A' for Active; 'I' for Inactive)
REMARK    1  A    between atoms: C_5  and  C_6 
REMARK    2  A    between atoms: C_6  and  O_7 
REMARK    3  A    between atoms: C_6  and  C_27 
REMARK    4  A    between atoms: O_7  and  C_8 
REMARK    5  A    between atoms: N_15  and  C_16 
REMARK    6  A    between atoms: C_16  and  C_17 
ROOT
ATOM      1  C   UNL d   1       8.690   3.324 -15.079  0.00  0.00     0.120 C 
ATOM      2  C   UNL d   1       9.122   4.748 -15.505  0.00  0.00     0.063 C 
ATOM      3  C   UNL d   1      10.461   5.163 -14.879  0.00  0.00     0.222 C 
ATOM      4  C   UNL d   1      11.569   4.177 -15.214  0.00  0.00     0.035 C 
ATOM      5  C   UNL d   1      11.464   3.202 -14.049  0.00  0.00     0.035 C 
ATOM      6  C   UNL d   1      10.300   3.723 -13.182  0.00  0.00     0.222 C 
ATOM      7  C   UNL d   1       8.939   3.149 -13.595  0.00  0.00     0.063 C 
ATOM      8  N   UNL d   1      10.357   5.140 -13.413  0.00  0.00     0.138 N 
ENDROOT
BRANCH   1   9
ATOM      9  O   UNL d   1       9.389   2.334 -15.798  0.00  0.00    -0.350 OA
BRANCH   9  10
ATOM     10  C   UNL d   1       8.754   1.904 -16.977  0.00  0.00     0.160 C 
BRANCH  10  11
ATOM     11  C   UNL d   1       9.763   1.192 -17.856  0.00  0.00     0.009 A 
ATOM     12  C   UNL d   1       9.575   1.167 -19.253  0.00  0.00     0.001 A 
ATOM     13  C   UNL d   1      10.489   0.485 -20.073  0.00  0.00     0.029 A 
ATOM     14  C   UNL d   1      11.604  -0.155 -19.501  0.00  0.00     0.140 A 
ATOM     15  F   UNL d   1      12.485  -0.812 -20.291  0.00  0.00    -0.204 F 
ATOM     16  C   UNL d   1      11.806  -0.111 -18.110  0.00  0.00     0.029 A 
ATOM     17  C   UNL d   1      10.887   0.556 -17.283  0.00  0.00     0.001 A 
ENDBRANCH  10  11
BRANCH  10  18
ATOM     18  C   UNL d   1       7.551   1.021 -16.670  0.00  0.00     0.009 A 
ATOM     19  C   UNL d   1       7.375   0.458 -15.384  0.00  0.00     0.001 A 
ATOM     20  C   UNL d   1       6.244  -0.321 -15.091  0.00  0.00     0.029 A 
ATOM     21  C   UNL d   1       5.300  -0.581 -16.100  0.00  0.00     0.140 A 
ATOM     22  C   UNL d   1       5.478  -0.043 -17.389  0.00  0.00     0.029 A 
ATOM     23  F   UNL d   1       4.223  -1.352 -15.828  0.00  0.00    -0.204 F 
ATOM     24  C   UNL d   1       6.594   0.769 -17.672  0.00  0.00     0.001 A 
ENDBRANCH  10  18
ENDBRANCH   9  10
ENDBRANCH   1   9
BRANCH   8  25
ATOM     25  C   UNL d   1       9.339   5.999 -12.736  0.00  0.00     0.277 C 
BRANCH  25  26
ATOM     26  C   UNL d   1       9.325   5.944 -11.194  0.00  0.00     0.011 A 
ATOM     27  C   UNL d   1       9.837   6.954 -10.322  0.00  0.00    -0.002 A 
ATOM     28  C   UNL d   1       9.837   6.746  -8.918  0.00  0.00    -0.000 A 
ATOM     29  C   UNL d   1      10.363   8.183 -10.791  0.00  0.00    -0.000 A 
ATOM     30  C   UNL d   1       9.301   5.571  -8.367  0.00  0.00    -0.000 A 
ATOM     31  C   UNL d   1      10.366   7.689  -8.024  0.00  0.00    -0.000 A 
ATOM     32  C   UNL d   1       8.760   4.606  -9.214  0.00  0.00    -0.000 A 
ATOM     33  C   UNL d   1       8.748   4.789 -10.612  0.00  0.00    -0.002 A 
ATOM     34  C   UNL d   1      10.941   8.873  -8.520  0.00  0.00    -0.000 A 
ATOM     35  C   UNL d   1      10.964   9.103  -9.906  0.00  0.00    -0.000 A 
ENDBRANCH  25  26
ENDBRANCH   8  25
TORSDOF 6
