REMARK  1 active torsions:
REMARK  status: ('A' for Active; 'I' for Inactive)
REMARK    1  A    between atoms: C_13  and  C_14 
REMARK       I    between atoms: C_14  and  N_16 
ROOT
ATOM      1  C   UNL d   1      12.804   8.155  -9.590  0.00  0.00     0.042 C 
ATOM      2  C   UNL d   1      11.367   8.356  -9.078  0.00  0.00     0.164 A 
ATOM      3  O   UNL d   1      10.898   9.582  -9.549  0.00  0.00    -0.217 OA
ATOM      4  C   UNL d   1      11.318   8.272  -7.565  0.00  0.00     0.009 A 
ATOM      5  C   UNL d   1      11.944   9.127  -6.634  0.00  0.00    -0.002 A 
ATOM      6  C   UNL d   1      11.829   8.815  -5.265  0.00  0.00    -0.000 A 
ATOM      7  C   UNL d   1      11.136   7.662  -4.848  0.00  0.00    -0.000 A 
ATOM      8  C   UNL d   1      10.453   6.854  -5.786  0.00  0.00    -0.000 A 
ATOM      9  C   UNL d   1      10.584   7.154  -7.150  0.00  0.00    -0.002 A 
ATOM     10  C   UNL d   1      10.047   6.472  -8.327  0.00  0.00    -0.002 A 
ATOM     11  C   UNL d   1       9.224   5.345  -8.473  0.00  0.00    -0.000 A 
ATOM     12  C   UNL d   1       8.827   4.944  -9.760  0.00  0.00     0.005 A 
ATOM     13  C   UNL d   1       9.208   5.678 -10.921  0.00  0.00     0.058 A 
ATOM     14  C   UNL d   1       9.983   6.847 -10.743  0.00  0.00     0.003 A 
ATOM     15  C   UNL d   1      10.435   7.199  -9.457  0.00  0.00     0.009 A 
ENDROOT
BRANCH  13  16
ATOM     16  C   UNL d   1       8.911   5.192 -12.339  0.00  0.00     0.281 C 
ATOM     17  O   UNL d   1       9.701   5.525 -13.235  0.00  0.00    -0.265 OA
ATOM     18  N   UNL d   1       7.805   4.374 -12.539  0.00  0.00    -0.175 NA
ATOM     19  C   UNL d   1       6.618   4.776 -12.202  0.00  0.00     0.259 C 
ATOM     20  N   UNL d   1       5.580   3.872 -12.262  0.00  0.00    -0.111 N 
ATOM     21  N   UNL d   1       6.245   6.025 -11.728  0.00  0.00    -0.058 NA
ENDBRANCH  13  16
TORSDOF 1
