REMARK  9 active torsions:
REMARK  status: ('A' for Active; 'I' for Inactive)
REMARK    1  A    between atoms: O_2  and  C_3 
REMARK    2  A    between atoms: C_6  and  N_7 
REMARK    3  A    between atoms: N_10  and  C_11 
REMARK    4  A    between atoms: C_11  and  C_12 
REMARK    5  A    between atoms: C_12  and  C_13 
REMARK    6  A    between atoms: C_13  and  C_14 
REMARK    7  A    between atoms: C_14  and  N_15 
REMARK       I    between atoms: N_15  and  C_16 
REMARK    8  A    between atoms: C_16  and  C_18 
REMARK    9  A    between atoms: C_21  and  C_22 
ROOT
ATOM      1  C   UNL d   1       5.460   2.873 -13.312  0.00  0.00     0.037 C 
ENDROOT
BRANCH   1   2
ATOM      2  C   UNL d   1       6.079   1.478 -13.507  0.00  0.00     0.251 C 
BRANCH   2   3
ATOM      3  N   UNL d   1       5.478   0.783 -14.645  0.00  0.00     0.141 N 
ATOM      4  C   UNL d   1       5.448  -0.653 -14.403  0.00  0.00     0.274 C 
ATOM      5  C   UNL d   1       4.769  -1.401 -15.570  0.00  0.00     0.137 C 
ATOM      6  N   UNL d   1       5.448  -1.095 -16.832  0.00  0.00    -0.344 N 
ATOM      7  C   UNL d   1       5.629   0.335 -17.084  0.00  0.00     0.137 C 
ATOM      8  C   UNL d   1       6.270   1.021 -15.861  0.00  0.00     0.274 C 
BRANCH   6   9
ATOM      9  C   UNL d   1       5.952  -2.100 -17.686  0.00  0.00     0.056 A 
ATOM     10  C   UNL d   1       5.451  -3.425 -17.647  0.00  0.00     0.019 A 
ATOM     11  C   UNL d   1       5.977  -4.439 -18.471  0.00  0.00     0.026 A 
ATOM     12  C   UNL d   1       7.013  -4.145 -19.387  0.00  0.00     0.094 A 
ATOM     13  C   UNL d   1       7.500  -2.829 -19.446  0.00  0.00     0.026 A 
ATOM     14  C   UNL d   1       7.005  -1.827 -18.597  0.00  0.00     0.019 A 
BRANCH  12  15
ATOM     15  O   UNL d   1       7.593  -5.060 -20.236  0.00  0.00    -0.328 OA
ATOM     16  C   UNL d   1       7.128  -6.396 -20.183  0.00  0.00     0.181 C 
ENDBRANCH  12  15
ENDBRANCH   6   9
ENDBRANCH   2   3
ENDBRANCH   1   2
BRANCH   1  17
ATOM     17  C   UNL d   1       6.069   3.643 -12.139  0.00  0.00     0.029 C 
BRANCH  17  18
ATOM     18  C   UNL d   1       7.361   4.356 -12.527  0.00  0.00     0.129 C 
BRANCH  18  19
ATOM     19  N   UNL d   1       7.889   5.082 -11.387  0.00  0.00    -0.234 NA
ATOM     20  C   UNL d   1       9.082   5.681 -11.387  0.00  0.00     0.275 C 
ATOM     21  O   UNL d   1       9.808   5.721 -12.386  0.00  0.00    -0.266 OA
BRANCH  20  22
ATOM     22  C   UNL d   1       9.502   6.301 -10.084  0.00  0.00     0.058 A 
ATOM     23  C   UNL d   1      10.324   7.449 -10.052  0.00  0.00     0.005 A 
ATOM     24  C   UNL d   1      10.749   8.003  -8.827  0.00  0.00     0.000 A 
ATOM     25  C   UNL d   1      10.363   7.408  -7.608  0.00  0.00     0.001 A 
ATOM     26  C   UNL d   1       9.534   6.272  -7.641  0.00  0.00     0.000 A 
ATOM     27  C   UNL d   1       9.123   5.702  -8.859  0.00  0.00     0.005 A 
BRANCH  25  28
ATOM     28  C   UNL d   1      10.806   7.976  -6.331  0.00  0.00     0.007 A 
ATOM     29  C   UNL d   1      10.925   9.310  -6.032  0.00  0.00     0.035 A 
ATOM     30  S   UNL d   1      11.477   9.585  -4.404  0.00  0.00    -0.086 SA
ATOM     31  C   UNL d   1      11.568   7.868  -4.122  0.00  0.00     0.035 A 
ATOM     32  C   UNL d   1      11.167   7.150  -5.219  0.00  0.00     0.007 A 
ENDBRANCH  25  28
ENDBRANCH  20  22
ENDBRANCH  18  19
ENDBRANCH  17  18
ENDBRANCH   1  17
TORSDOF 9
