REMARK  8 active torsions:
REMARK  status: ('A' for Active; 'I' for Inactive)
REMARK    1  A    between atoms: O_2  and  C_3 
REMARK    2  A    between atoms: C_8  and  N_9 
REMARK    3  A    between atoms: N_12  and  C_13 
REMARK    4  A    between atoms: C_13  and  C_14 
REMARK    5  A    between atoms: C_14  and  C_15 
REMARK    6  A    between atoms: C_15  and  C_16 
REMARK    7  A    between atoms: C_16  and  N_17 
REMARK    8  A    between atoms: C_19  and  C_20 
ROOT
ATOM      1  C   UNL d   1       9.868   5.017 -13.487  0.00  0.00     0.251 C 
ENDROOT
BRANCH   1   2
ATOM      2  N   UNL d   1      10.550   3.854 -14.043  0.00  0.00     0.141 N 
ATOM      3  C   UNL d   1       9.698   2.659 -13.966  0.00  0.00     0.274 C 
ATOM      4  C   UNL d   1      10.451   1.432 -14.501  0.00  0.00     0.137 C 
ATOM      5  N   UNL d   1      10.891   1.677 -15.866  0.00  0.00    -0.343 N 
ATOM      6  C   UNL d   1      11.633   2.914 -16.073  0.00  0.00     0.137 C 
ATOM      7  C   UNL d   1      10.870   4.107 -15.454  0.00  0.00     0.274 C 
BRANCH   5   8
ATOM      8  C   UNL d   1      10.514   0.852 -16.941  0.00  0.00     0.079 A 
ATOM      9  C   UNL d   1       9.181   0.384 -17.101  0.00  0.00     0.110 A 
ATOM     10  C   UNL d   1       8.880  -0.460 -18.201  0.00  0.00     0.026 A 
ATOM     11  C   UNL d   1       9.870  -0.817 -19.130  0.00  0.00     0.002 A 
ATOM     12  C   UNL d   1      11.181  -0.347 -18.972  0.00  0.00     0.002 A 
ATOM     13  C   UNL d   1      11.501   0.487 -17.884  0.00  0.00     0.019 A 
BRANCH   9  14
ATOM     14  O   UNL d   1       8.229   0.805 -16.195  0.00  0.00    -0.327 OA
ATOM     15  C   UNL d   1       6.906   0.307 -16.309  0.00  0.00     0.181 C 
ENDBRANCH   9  14
ENDBRANCH   5   8
ENDBRANCH   1   2
BRANCH   1  16
ATOM     16  C   UNL d   1       9.495   4.818 -12.003  0.00  0.00     0.037 C 
BRANCH  16  17
ATOM     17  C   UNL d   1       9.525   6.124 -11.207  0.00  0.00     0.029 C 
BRANCH  17  18
ATOM     18  C   UNL d   1       8.905   5.991  -9.805  0.00  0.00     0.129 C 
BRANCH  18  19
ATOM     19  N   UNL d   1       9.533   6.859  -8.822  0.00  0.00    -0.231 N 
ATOM     20  N   UNL d   1       9.860   8.140  -9.117  0.00  0.00    -0.064 NA
ATOM     21  N   UNL d   1      10.408   8.649  -8.059  0.00  0.00    -0.129 NA
ATOM     22  C   UNL d   1      10.425   7.696  -7.040  0.00  0.00     0.123 A 
ATOM     23  C   UNL d   1       9.847   6.553  -7.520  0.00  0.00     0.118 A 
BRANCH  22  24
ATOM     24  C   UNL d   1      10.997   7.977  -5.726  0.00  0.00     0.021 A 
ATOM     25  C   UNL d   1      11.459   6.925  -4.907  0.00  0.00     0.003 A 
ATOM     26  C   UNL d   1      12.002   7.186  -3.637  0.00  0.00     0.014 A 
ATOM     27  C   UNL d   1      12.070   8.511  -3.167  0.00  0.00     0.070 A 
ATOM     28  C   UNL d   1      11.574   9.562  -3.961  0.00  0.00     0.014 A 
ATOM     29  N   UNL d   1      12.616   8.784  -1.920  0.00  0.00    -0.101 NA
ATOM     30  C   UNL d   1      11.060   9.303  -5.244  0.00  0.00     0.003 A 
ENDBRANCH  22  24
ENDBRANCH  18  19
ENDBRANCH  17  18
ENDBRANCH  16  17
ENDBRANCH   1  16
TORSDOF 8
