REMARK  6 active torsions:
REMARK  status: ('A' for Active; 'I' for Inactive)
REMARK    1  A    between atoms: C_4  and  N_5 
REMARK    2  A    between atoms: N_8  and  C_9 
REMARK    3  A    between atoms: C_9  and  C_10 
REMARK    4  A    between atoms: C_10  and  C_11 
REMARK    5  A    between atoms: C_14  and  N_15 
REMARK    6  A    between atoms: N_15  and  C_16 
ROOT
ATOM      1  C   UNL d   1       8.549   5.645 -11.996  0.00  0.00     0.002 C 
ATOM      2  C   UNL d   1       9.173   6.168 -13.245  0.00  0.00     0.002 C 
ATOM      3  C   UNL d   1       9.109   5.186 -14.436  0.00  0.00     0.024 C 
ATOM      4  C   UNL d   1       9.707   3.844 -14.051  0.00  0.00     0.105 C 
ATOM      5  C   UNL d   1       9.000   3.341 -12.807  0.00  0.00     0.024 C 
ATOM      6  C   UNL d   1       9.129   4.302 -11.627  0.00  0.00     0.002 C 
ENDROOT
BRANCH   1   7
ATOM      7  C   UNL d   1       8.660   6.687 -10.906  0.00  0.00     0.035 C 
BRANCH   7   8
ATOM      8  C   UNL d   1      10.041   6.906 -10.274  0.00  0.00     0.250 C 
BRANCH   8   9
ATOM      9  N   UNL d   1      10.042   7.798  -9.124  0.00  0.00     0.141 N 
ATOM     10  C   UNL d   1      11.434   8.041  -8.728  0.00  0.00     0.274 C 
ATOM     11  C   UNL d   1      11.525   9.000  -7.527  0.00  0.00     0.137 C 
ATOM     12  N   UNL d   1      10.711   8.491  -6.445  0.00  0.00    -0.344 N 
ATOM     13  C   UNL d   1       9.357   8.088  -6.772  0.00  0.00     0.137 C 
ATOM     14  C   UNL d   1       9.353   7.159  -7.989  0.00  0.00     0.274 C 
BRANCH  12  15
ATOM     15  C   UNL d   1      11.259   8.263  -5.165  0.00  0.00     0.056 A 
ATOM     16  C   UNL d   1      11.705   9.363  -4.404  0.00  0.00     0.017 A 
ATOM     17  C   UNL d   1      12.211   9.165  -3.115  0.00  0.00     0.002 A 
ATOM     18  C   UNL d   1      12.289   7.875  -2.560  0.00  0.00     0.000 A 
ATOM     19  C   UNL d   1      11.861   6.779  -3.331  0.00  0.00     0.002 A 
ATOM     20  C   UNL d   1      11.347   6.965  -4.622  0.00  0.00     0.017 A 
ENDBRANCH  12  15
ENDBRANCH   8   9
ENDBRANCH   7   8
ENDBRANCH   1   7
BRANCH   4  21
ATOM     21  N   UNL d   1       9.532   2.881 -15.129  0.00  0.00    -0.255 NA
BRANCH  21  22
ATOM     22  C   UNL d   1      10.536   2.639 -16.076  0.00  0.00     0.161 A 
ATOM     23  C   UNL d   1      10.449   1.525 -16.935  0.00  0.00     0.053 A 
ATOM     24  C   UNL d   1      11.501   1.367 -17.874  0.00  0.00     0.086 A 
ATOM     25  C   UNL d   1       9.389   0.587 -16.880  0.00  0.00     0.005 A 
ATOM     26  N   UNL d   1      12.515   2.254 -17.939  0.00  0.00    -0.224 NA
ATOM     27  C   UNL d   1      11.469   0.261 -18.749  0.00  0.00     0.019 A 
ATOM     28  C   UNL d   1      12.497   3.262 -17.071  0.00  0.00     0.200 A 
ATOM     29  N   UNL d   1      11.572   3.498 -16.146  0.00  0.00    -0.205 NA
ATOM     30  C   UNL d   1      10.412  -0.670 -18.698  0.00  0.00     0.002 A 
ATOM     31  C   UNL d   1       9.373  -0.505 -17.764  0.00  0.00     0.000 A 
ENDBRANCH  21  22
ENDBRANCH   4  21
TORSDOF 6
