REMARK  7 active torsions:
REMARK  status: ('A' for Active; 'I' for Inactive)
REMARK       I    between atoms: C_2  and  N_3 
REMARK    1  A    between atoms: C_2  and  C_23 
REMARK    2  A    between atoms: N_3  and  C_4 
REMARK    3  A    between atoms: C_4  and  C_5 
REMARK    4  A    between atoms: C_5  and  C_6 
REMARK    5  A    between atoms: C_6  and  C_8 
REMARK    6  A    between atoms: C_8  and  N_9 
REMARK    7  A    between atoms: N_12  and  C_13 
ROOT
ATOM      1  C   UNL d   1       8.646   6.177 -11.619  0.00  0.00     0.188 C 
ATOM      2  O   UNL d   1       7.708   7.089 -12.110  0.00  0.00    -0.221 OA
ENDROOT
BRANCH   1   3
ATOM      3  C   UNL d   1       8.045   5.364 -10.439  0.00  0.00     0.061 C 
BRANCH   3   4
ATOM      4  C   UNL d   1       9.060   4.724  -9.464  0.00  0.00     0.132 C 
BRANCH   4   5
ATOM      5  N   UNL d   1       9.534   5.596  -8.399  0.00  0.00    -0.233 NA
ATOM      6  C   UNL d   1      10.186   6.788  -8.478  0.00  0.00     0.293 C 
ATOM      7  O   UNL d   1      10.589   7.343  -9.476  0.00  0.00    -0.264 OA
BRANCH   6   8
ATOM      8  C   UNL d   1      10.479   7.413  -7.235  0.00  0.00     0.139 A 
ATOM      9  N   UNL d   1      10.973   6.673  -6.197  0.00  0.00    -0.241 NA
ATOM     10  C   UNL d   1      11.354   7.482  -5.168  0.00  0.00     0.082 A 
ATOM     11  C   UNL d   1      11.070   8.818  -5.608  0.00  0.00     0.019 A 
ATOM     12  C   UNL d   1      11.880   7.205  -3.907  0.00  0.00     0.019 A 
ATOM     13  C   UNL d   1      10.530   8.762  -6.920  0.00  0.00     0.025 A 
ATOM     14  C   UNL d   1      11.347   9.875  -4.729  0.00  0.00     0.002 A 
ATOM     15  C   UNL d   1      11.860   9.592  -3.454  0.00  0.00     0.000 A 
ATOM     16  C   UNL d   1      12.137   8.275  -3.049  0.00  0.00     0.002 A 
ENDBRANCH   6   8
ENDBRANCH   4   5
ENDBRANCH   3   4
ENDBRANCH   1   3
BRANCH   1  17
ATOM     17  C   UNL d   1       9.381   5.366 -12.673  0.00  0.00     0.283 C 
BRANCH  17  18
ATOM     18  N   UNL d   1       8.799   4.059 -12.958  0.00  0.00     0.144 N 
ATOM     19  C   UNL d   1       9.677   3.310 -13.868  0.00  0.00     0.274 C 
ATOM     20  C   UNL d   1       9.084   1.935 -14.188  0.00  0.00     0.137 C 
ATOM     21  N   UNL d   1       7.718   2.097 -14.661  0.00  0.00    -0.344 N 
ATOM     22  C   UNL d   1       6.808   2.897 -13.853  0.00  0.00     0.137 C 
ATOM     23  C   UNL d   1       7.473   4.234 -13.562  0.00  0.00     0.274 C 
BRANCH  21  24
ATOM     24  C   UNL d   1       7.297   1.484 -15.839  0.00  0.00     0.068 A 
ATOM     25  C   UNL d   1       6.253   0.525 -15.840  0.00  0.00     0.084 A 
ATOM     26  C   UNL d   1       5.838  -0.053 -17.059  0.00  0.00     0.070 A 
ATOM     27 CL   UNL d   1       5.480   0.025 -14.367  0.00  0.00    -0.080 Cl
ATOM     28  C   UNL d   1       6.462   0.316 -18.272  0.00  0.00     0.012 A 
ATOM     29 CL   UNL d   1       4.562  -1.216 -17.105  0.00  0.00    -0.081 Cl
ATOM     30  C   UNL d   1       7.511   1.258 -18.265  0.00  0.00     0.002 A 
ATOM     31  C   UNL d   1       7.924   1.836 -17.055  0.00  0.00     0.018 A 
ENDBRANCH  21  24
ENDBRANCH  17  18
ENDBRANCH   1  17
TORSDOF 7
