REMARK  7 active torsions:
REMARK  status: ('A' for Active; 'I' for Inactive)
REMARK    1  A    between atoms: C_2  and  C_3 
REMARK    2  A    between atoms: N_15  and  C_16 
REMARK    3  A    between atoms: C_16  and  C_17 
REMARK    4  A    between atoms: C_17  and  C_18 
REMARK    5  A    between atoms: C_18  and  S_19 
REMARK    6  A    between atoms: S_19  and  C_20 
REMARK    7  A    between atoms: C_23  and  C_24 
ROOT
ATOM      1  C   UNL d   1      10.908   1.063 -19.347  0.00  0.00     0.047 C 
ENDROOT
BRANCH   1   2
ATOM      2  C   UNL d   1      12.233   1.646 -19.844  0.00  0.00     0.251 C 
BRANCH   2   3
ATOM      3  N   UNL d   1      12.127   3.091 -20.059  0.00  0.00     0.138 N 
ATOM      4  C   UNL d   1      12.261   3.913 -18.852  0.00  0.00     0.255 C 
ATOM      5  C   UNL d   1      13.663   3.916 -18.201  0.00  0.00     0.061 C 
ATOM      6  C   UNL d   1      14.663   4.841 -18.891  0.00  0.00    -0.026 A 
ATOM      7  C   UNL d   1      15.034   4.597 -20.242  0.00  0.00    -0.023 A 
ATOM      8  C   UNL d   1      15.235   5.944 -18.202  0.00  0.00    -0.002 A 
ATOM      9  C   UNL d   1      15.968   5.435 -20.898  0.00  0.00     0.017 A 
ATOM     10  C   UNL d   1      14.433   3.441 -21.026  0.00  0.00     0.061 C 
ATOM     11  C   UNL d   1      16.541   6.530 -20.225  0.00  0.00     0.105 A 
ATOM     12  N   UNL d   1      17.461   7.485 -20.615  0.00  0.00    -0.224 NA
ATOM     13  C   UNL d   1      16.156   6.758 -18.888  0.00  0.00     0.115 A 
ATOM     14  C   UNL d   1      17.582   8.254 -19.523  0.00  0.00     0.159 A 
ATOM     15  O   UNL d   1      16.842   7.873 -18.439  0.00  0.00    -0.292 OA
ATOM     16  C   UNL d   1      12.908   3.555 -21.203  0.00  0.00     0.255 C 
ATOM     17  C   UNL d   1      14.883   6.268 -16.762  0.00  0.00     0.033 C 
BRANCH  14  18
ATOM     18  C   UNL d   1      18.505   9.419 -19.374  0.00  0.00     0.072 C 
ATOM     19  C   UNL d   1      19.839   9.034 -18.725  0.00  0.00     0.009 C 
ENDBRANCH  14  18
ENDBRANCH   2   3
ENDBRANCH   1   2
BRANCH   1  20
ATOM     20  C   UNL d   1      11.013  -0.456 -19.122  0.00  0.00     0.067 C 
BRANCH  20  21
ATOM     21  S   UNL d   1       9.399  -1.190 -18.736  0.00  0.00    -0.075 SA
BRANCH  21  22
ATOM     22  C   UNL d   1       9.118  -0.412 -17.183  0.00  0.00     0.193 A 
ATOM     23  N   UNL d   1       7.897  -0.012 -16.781  0.00  0.00    -0.289 N 
ATOM     24  C   UNL d   1       8.160   0.496 -15.555  0.00  0.00     0.167 A 
ATOM     25  C   UNL d   1       6.617  -0.119 -17.467  0.00  0.00     0.134 C 
ATOM     26  N   UNL d   1       9.449   0.394 -15.214  0.00  0.00    -0.128 NA
ATOM     27  N   UNL d   1      10.078  -0.189 -16.282  0.00  0.00    -0.122 NA
BRANCH  24  28
ATOM     28  C   UNL d   1       7.160   1.069 -14.656  0.00  0.00     0.037 A 
ATOM     29  C   UNL d   1       7.257   2.387 -14.131  0.00  0.00     0.021 A 
ATOM     30  C   UNL d   1       6.255   2.881 -13.243  0.00  0.00     0.081 A 
ATOM     31  C   UNL d   1       8.344   3.239 -14.438  0.00  0.00     0.003 A 
ATOM     32  C   UNL d   1       5.192   2.033 -12.888  0.00  0.00     0.019 A 
ATOM     33  N   UNL d   1       6.313   4.124 -12.712  0.00  0.00    -0.250 NA
ATOM     34  C   UNL d   1       5.076   0.741 -13.433  0.00  0.00     0.002 A 
ATOM     35  C   UNL d   1       6.063   0.258 -14.303  0.00  0.00     0.003 A 
ATOM     36  C   UNL d   1       7.366   4.912 -13.002  0.00  0.00     0.059 A 
ATOM     37  C   UNL d   1       7.372   6.287 -12.370  0.00  0.00     0.052 C 
ATOM     38  C   UNL d   1       8.404   4.517 -13.863  0.00  0.00     0.015 A 
ENDBRANCH  24  28
ENDBRANCH  21  22
ENDBRANCH  20  21
ENDBRANCH   1  20
TORSDOF 7
