REMARK  5 active torsions:
REMARK  status: ('A' for Active; 'I' for Inactive)
REMARK    1  A    between atoms: C_2  and  C_3 
REMARK    2  A    between atoms: C_3  and  N_4 
REMARK    3  A    between atoms: C_13  and  O_14 
REMARK    4  A    between atoms: O_14  and  S_15 
REMARK    5  A    between atoms: S_15  and  C_18 
ROOT
ATOM      1  N   UNL d   1      10.326   3.426 -16.035  0.00  0.00     0.135 N 
ATOM      2  C   UNL d   1      10.226   4.810 -15.545  0.00  0.00     0.250 C 
ATOM      3  C   UNL d   1       9.959   4.840 -14.033  0.00  0.00     0.036 C 
ATOM      4  C   UNL d   1       8.629   4.156 -13.733  0.00  0.00     0.008 C 
ATOM      5  C   UNL d   1       8.640   2.724 -14.299  0.00  0.00     0.053 C 
ATOM      6  C   UNL d   1       7.311   1.980 -14.147  0.00  0.00    -0.023 A 
ATOM      7  C   UNL d   1       6.239   2.491 -13.378  0.00  0.00    -0.004 A 
ATOM      8  C   UNL d   1       5.085   1.718 -13.190  0.00  0.00     0.002 A 
ATOM      9  C   UNL d   1       4.955   0.454 -13.802  0.00  0.00     0.025 A 
ATOM     10  C   UNL d   1       5.992  -0.037 -14.604  0.00  0.00     0.109 A 
ATOM     11  C   UNL d   1       7.175   0.720 -14.764  0.00  0.00    -0.002 A 
ATOM     12  C   UNL d   1       8.336   0.164 -15.552  0.00  0.00     0.030 C 
ATOM     13  C   UNL d   1       9.178   1.220 -16.281  0.00  0.00     0.038 C 
ATOM     14  C   UNL d   1       9.070   2.689 -15.785  0.00  0.00     0.224 C 
ENDROOT
BRANCH  10  15
ATOM     15  O   UNL d   1       5.846  -1.253 -15.213  0.00  0.00    -0.225 OA
BRANCH  15  16
ATOM     16  S   UNL d   1       4.889  -1.291 -16.603  0.00  0.00     0.374 S 
ATOM     17  O   UNL d   1       3.486  -1.209 -16.167  0.00  0.00    -0.189 OA
ATOM     18  O   UNL d   1       5.436  -0.307 -17.549  0.00  0.00    -0.189 OA
BRANCH  16  19
ATOM     19  C   UNL d   1       5.287  -2.991 -17.202  0.00  0.00     0.524 C 
ATOM     20  F   UNL d   1       5.460  -3.796 -16.153  0.00  0.00    -0.155 F 
ATOM     21  F   UNL d   1       4.266  -3.440 -17.934  0.00  0.00    -0.155 F 
ATOM     22  F   UNL d   1       6.393  -2.949 -17.949  0.00  0.00    -0.155 F 
ENDBRANCH  16  19
ENDBRANCH  15  16
ENDBRANCH  10  15
BRANCH   1  23
ATOM     23  C   UNL d   1      10.688   3.459 -17.456  0.00  0.00     0.250 C 
BRANCH  23  24
ATOM     24  C   UNL d   1      11.845   2.478 -17.764  0.00  0.00     0.035 C 
ATOM     25  C   UNL d   1      12.270   2.496 -19.234  0.00  0.00     0.002 C 
ENDBRANCH  23  24
ENDBRANCH   1  23
TORSDOF 5
