REMARK  7 active torsions:
REMARK  status: ('A' for Active; 'I' for Inactive)
REMARK    1  A    between atoms: O_2  and  C_3 
REMARK    2  A    between atoms: C_6  and  S_7 
REMARK    3  A    between atoms: S_7  and  N_10 
REMARK    4  A    between atoms: C_14  and  C_15 
REMARK    5  A    between atoms: C_18  and  C_19 
REMARK    6  A    between atoms: C_19  and  N_20 
REMARK    7  A    between atoms: C_26  and  C_27 
ROOT
ATOM      1  C   UNL d   1      11.747   3.454 -16.101  0.00  0.00     0.083 A 
ATOM      2  C   UNL d   1      11.456   2.322 -15.387  0.00  0.00     0.020 A 
ATOM      3  C   UNL d   1      10.787   2.699 -14.191  0.00  0.00     0.018 A 
ATOM      4  C   UNL d   1      10.660   4.052 -14.207  0.00  0.00     0.092 A 
ATOM      5  N   UNL d   1      11.240   4.503 -15.364  0.00  0.00    -0.248 NA
ENDROOT
BRANCH   1   6
ATOM      6  C   UNL d   1      12.390   3.714 -17.400  0.00  0.00     0.041 A 
ATOM      7  C   UNL d   1      12.829   2.647 -18.232  0.00  0.00     0.096 A 
ATOM      8  C   UNL d   1      13.470   2.938 -19.467  0.00  0.00     0.025 A 
ATOM      9  C   UNL d   1      13.649   4.265 -19.888  0.00  0.00     0.015 A 
ATOM     10  C   UNL d   1      13.205   5.315 -19.073  0.00  0.00     0.103 A 
ATOM     11  C   UNL d   1      12.577   5.047 -17.842  0.00  0.00     0.016 A 
BRANCH   7  12
ATOM     12  O   UNL d   1      12.616   1.357 -17.804  0.00  0.00    -0.328 OA
ATOM     13  C   UNL d   1      12.956   0.270 -18.644  0.00  0.00     0.181 C 
ENDBRANCH   7  12
BRANCH  10  14
ATOM     14  S   UNL d   1      13.409   7.009 -19.600  0.00  0.00     0.264 S 
ATOM     15  O   UNL d   1      13.494   7.048 -21.072  0.00  0.00    -0.200 OA
ATOM     16  O   UNL d   1      12.406   7.811 -18.887  0.00  0.00    -0.200 OA
BRANCH  14  17
ATOM     17  N   UNL d   1      14.973   7.404 -18.970  0.00  0.00    -0.271 N 
ATOM     18  C   UNL d   1      15.159   8.716 -18.345  0.00  0.00     0.138 C 
ATOM     19  C   UNL d   1      16.148   6.920 -19.706  0.00  0.00     0.138 C 
ENDBRANCH  14  17
ENDBRANCH  10  14
ENDBRANCH   1   6
BRANCH   4  20
ATOM     20  C   UNL d   1       9.984   4.997 -13.306  0.00  0.00     0.296 C 
BRANCH  20  21
ATOM     21  N   UNL d   1       8.649   4.585 -12.858  0.00  0.00     0.145 N 
ATOM     22  C   UNL d   1       8.053   5.726 -12.124  0.00  0.00     0.242 C 
ATOM     23  C   UNL d   1       6.810   5.290 -11.350  0.00  0.00     0.038 C 
ATOM     24  C   UNL d   1       5.631   4.750 -12.159  0.00  0.00     0.002 C 
ATOM     25  C   UNL d   1       5.848   3.302 -12.582  0.00  0.00     0.002 C 
ATOM     26  C   UNL d   1       6.784   3.144 -13.783  0.00  0.00     0.035 C 
ATOM     27  C   UNL d   1       7.796   4.266 -14.006  0.00  0.00     0.251 C 
BRANCH  22  28
ATOM     28  C   UNL d   1       9.000   6.439 -11.155  0.00  0.00     0.009 A 
ATOM     29  C   UNL d   1       9.428   7.753 -11.452  0.00  0.00    -0.002 A 
ATOM     30  C   UNL d   1      10.341   8.400 -10.602  0.00  0.00    -0.000 A 
ATOM     31  C   UNL d   1      10.888   7.733  -9.501  0.00  0.00    -0.000 A 
ATOM     32  C   UNL d   1      10.456   6.434  -9.190  0.00  0.00    -0.000 A 
ATOM     33  C   UNL d   1       9.527   5.778 -10.025  0.00  0.00    -0.002 A 
ENDBRANCH  22  28
ENDBRANCH  20  21
ENDBRANCH   4  20
TORSDOF 7
