REMARK  8 active torsions:
REMARK  status: ('A' for Active; 'I' for Inactive)
REMARK    1  A    between atoms: O_2  and  C_3 
REMARK    2  A    between atoms: C_9  and  C_10 
REMARK    3  A    between atoms: C_12  and  C_13 
REMARK    4  A    between atoms: C_13  and  N_14 
REMARK    5  A    between atoms: N_14  and  C_15 
REMARK    6  A    between atoms: C_15  and  C_16 
REMARK    7  A    between atoms: N_19  and  C_20 
REMARK    8  A    between atoms: C_20  and  C_21 
ROOT
ATOM      1  C   UNL d   1       8.692   7.946 -12.447  0.00  0.00     0.114 C 
ENDROOT
BRANCH   1   2
ATOM      2  C   UNL d   1       8.320   6.481 -12.482  0.00  0.00     0.127 A 
ATOM      3  N   UNL d   1       8.719   5.622 -13.496  0.00  0.00    -0.218 NA
ATOM      4  C   UNL d   1       8.171   4.449 -13.223  0.00  0.00     0.184 A 
ATOM      5  O   UNL d   1       7.424   4.456 -12.084  0.00  0.00    -0.286 OA
ATOM      6  C   UNL d   1       7.539   5.748 -11.625  0.00  0.00     0.145 A 
BRANCH   4   7
ATOM      7  C   UNL d   1       8.268   3.214 -13.984  0.00  0.00     0.064 A 
ATOM      8  C   UNL d   1       9.489   2.823 -14.588  0.00  0.00     0.098 A 
ATOM      9  C   UNL d   1       9.529   1.577 -15.269  0.00  0.00     0.025 A 
ATOM     10  C   UNL d   1       8.384   0.760 -15.330  0.00  0.00     0.009 A 
ATOM     11  C   UNL d   1       7.183   1.166 -14.727  0.00  0.00     0.035 A 
ATOM     12 BR   UNL d   1       5.655   0.032 -14.765  0.00  0.00    -0.049 Br
ATOM     13  C   UNL d   1       7.122   2.403 -14.062  0.00  0.00     0.012 A 
BRANCH   8  14
ATOM     14  O   UNL d   1      10.589   3.650 -14.468  0.00  0.00    -0.328 OA
ATOM     15  C   UNL d   1      11.780   3.309 -15.164  0.00  0.00     0.181 C 
ENDBRANCH   8  14
ENDBRANCH   4   7
ENDBRANCH   1   2
BRANCH   1  16
ATOM     16  N   UNL d   1       9.065   8.628 -11.236  0.00  0.00    -0.268 NA
BRANCH  16  17
ATOM     17  C   UNL d   1      10.349   8.154 -10.793  0.00  0.00     0.128 C 
BRANCH  17  18
ATOM     18  C   UNL d   1      10.842   8.939  -9.586  0.00  0.00     0.060 C 
ATOM     19  C   UNL d   1       9.851   8.837  -8.441  0.00  0.00     0.253 C 
ATOM     20  N   UNL d   1      10.727   8.897  -7.300  0.00  0.00     0.141 N 
ATOM     21  C   UNL d   1      11.812   8.000  -7.648  0.00  0.00     0.251 C 
ATOM     22  C   UNL d   1      12.151   8.383  -9.063  0.00  0.00     0.039 C 
BRANCH  20  23
ATOM     23  C   UNL d   1      10.033   8.438  -6.122  0.00  0.00     0.277 C 
BRANCH  23  24
ATOM     24  C   UNL d   1      10.941   8.432  -4.909  0.00  0.00     0.011 A 
ATOM     25  C   UNL d   1      11.142   9.618  -4.187  0.00  0.00    -0.002 A 
ATOM     26  C   UNL d   1      11.881   9.588  -2.992  0.00  0.00    -0.000 A 
ATOM     27  C   UNL d   1      12.441   8.385  -2.526  0.00  0.00    -0.000 A 
ATOM     28  C   UNL d   1      12.244   7.192  -3.249  0.00  0.00    -0.000 A 
ATOM     29  C   UNL d   1      11.483   7.215  -4.434  0.00  0.00    -0.002 A 
ENDBRANCH  23  24
ENDBRANCH  20  23
ENDBRANCH  17  18
ENDBRANCH  16  17
ENDBRANCH   1  16
TORSDOF 8
