REMARK  6 active torsions:
REMARK  status: ('A' for Active; 'I' for Inactive)
REMARK    1  A    between atoms: C_2  and  C_3 
REMARK    2  A    between atoms: C_2  and  C_20 
REMARK    3  A    between atoms: C_3  and  C_4 
REMARK    4  A    between atoms: C_4  and  C_5 
REMARK    5  A    between atoms: C_5  and  N_6 
REMARK    6  A    between atoms: C_9  and  C_11 
ROOT
ATOM      1  N   UNL d   1       9.466   6.003 -10.858  0.00  0.00     0.137 N 
ATOM      2  C   UNL d   1       8.504   6.565 -11.810  0.00  0.00     0.253 C 
ATOM      3  C   UNL d   1       8.775   5.982 -13.206  0.00  0.00     0.070 C 
ATOM      4  C   UNL d   1       8.670   4.448 -13.245  0.00  0.00     0.149 C 
ATOM      5  O   UNL d   1       7.329   4.105 -12.956  0.00  0.00    -0.221 OA
ATOM      6  C   UNL d   1       9.575   3.891 -12.144  0.00  0.00     0.070 C 
ATOM      7  C   UNL d   1       9.282   4.551 -10.785  0.00  0.00     0.253 C 
ENDROOT
BRANCH   1   8
ATOM      8  C   UNL d   1       9.221   6.609  -9.548  0.00  0.00     0.251 C 
BRANCH   8   9
ATOM      9  C   UNL d   1      10.388   6.348  -8.589  0.00  0.00     0.043 C 
BRANCH   9  10
ATOM     10  C   UNL d   1      10.054   6.653  -7.129  0.00  0.00     0.071 C 
BRANCH  10  11
ATOM     11  C   UNL d   1      10.435   8.054  -6.650  0.00  0.00     0.173 C 
ATOM     12  O   UNL d   1      10.210   9.022  -7.374  0.00  0.00    -0.291 OA
BRANCH  11  13
ATOM     13  C   UNL d   1      11.062   8.179  -5.304  0.00  0.00     0.037 A 
ATOM     14  C   UNL d   1      11.499   7.039  -4.579  0.00  0.00     0.035 A 
ATOM     15  C   UNL d   1      12.098   7.173  -3.313  0.00  0.00     0.168 A 
ATOM     16  C   UNL d   1      12.259   8.448  -2.741  0.00  0.00     0.167 A 
ATOM     17  F   UNL d   1      12.527   6.077  -2.640  0.00  0.00    -0.202 F 
ATOM     18  C   UNL d   1      11.825   9.584  -3.446  0.00  0.00     0.032 A 
ATOM     19  F   UNL d   1      12.831   8.583  -1.525  0.00  0.00    -0.202 F 
ATOM     20  C   UNL d   1      11.244   9.453  -4.723  0.00  0.00     0.005 A 
ENDBRANCH  11  13
ENDBRANCH  10  11
ENDBRANCH   9  10
ENDBRANCH   8   9
ENDBRANCH   1   8
BRANCH   4  21
ATOM     21  C   UNL d   1       9.077   3.853 -14.603  0.00  0.00     0.005 A 
ATOM     22  C   UNL d   1       9.871   4.559 -15.544  0.00  0.00    -0.001 A 
ATOM     23  C   UNL d   1      10.198   3.983 -16.788  0.00  0.00     0.011 A 
ATOM     24  C   UNL d   1       9.749   2.687 -17.106  0.00  0.00     0.058 A 
ATOM     25  C   UNL d   1       8.976   1.966 -16.176  0.00  0.00     0.011 A 
ATOM     26 CL   UNL d   1      10.145   1.988 -18.634  0.00  0.00    -0.082 Cl
ATOM     27  C   UNL d   1       8.651   2.544 -14.932  0.00  0.00    -0.001 A 
ENDBRANCH   4  21
TORSDOF 6
