REMARK  6 active torsions:
REMARK  status: ('A' for Active; 'I' for Inactive)
REMARK    1  A    between atoms: N_12  and  C_13 
REMARK    2  A    between atoms: C_13  and  C_14 
REMARK    3  A    between atoms: C_14  and  C_15 
REMARK    4  A    between atoms: C_15  and  C_16 
REMARK    5  A    between atoms: C_16  and  N_17 
REMARK    6  A    between atoms: N_20  and  C_21 
ROOT
ATOM      1  C   UNL d   1       7.796   4.231 -13.086  0.00  0.00     0.251 C 
ENDROOT
BRANCH   1   2
ATOM      2  C   UNL d   1       6.468   3.478 -12.833  0.00  0.00     0.037 C 
BRANCH   2   3
ATOM      3  C   UNL d   1       6.042   2.635 -14.024  0.00  0.00     0.027 C 
BRANCH   3   4
ATOM      4  C   UNL d   1       7.047   1.546 -14.470  0.00  0.00     0.112 C 
BRANCH   4   5
ATOM      5  N   UNL d   1       6.540   0.753 -15.594  0.00  0.00    -0.264 N 
ATOM      6  C   UNL d   1       6.790   1.030 -16.893  0.00  0.00     0.263 A 
ATOM      7  O   UNL d   1       7.441   1.969 -17.369  0.00  0.00    -0.267 OA
ATOM      8  C   UNL d   1       6.106  -0.018 -17.684  0.00  0.00     0.061 A 
ATOM      9  C   UNL d   1       5.481  -0.860 -16.795  0.00  0.00     0.062 A 
ATOM     10  C   UNL d   1       6.045  -0.218 -19.072  0.00  0.00     0.006 A 
ATOM     11  C   UNL d   1       4.743  -1.980 -17.218  0.00  0.00     0.016 A 
ATOM     12  C   UNL d   1       5.756  -0.352 -15.428  0.00  0.00     0.263 A 
ATOM     13  C   UNL d   1       4.654  -2.203 -18.614  0.00  0.00     0.058 A 
ATOM     14  C   UNL d   1       5.301  -1.330 -19.530  0.00  0.00     0.012 A 
ATOM     15 CL   UNL d   1       3.765  -3.548 -19.225  0.00  0.00    -0.082 Cl
ATOM     16  O   UNL d   1       5.339  -0.839 -14.381  0.00  0.00    -0.267 OA
ENDBRANCH   4   5
ENDBRANCH   3   4
ENDBRANCH   2   3
ENDBRANCH   1   2
BRANCH   1  17
ATOM     17  N   UNL d   1       7.916   5.319 -12.127  0.00  0.00     0.141 N 
ATOM     18  C   UNL d   1       8.291   4.749 -10.829  0.00  0.00     0.274 C 
ATOM     19  C   UNL d   1       8.497   5.827  -9.765  0.00  0.00     0.137 C 
ATOM     20  N   UNL d   1       9.452   6.815 -10.246  0.00  0.00    -0.344 N 
ATOM     21  C   UNL d   1       9.142   7.388 -11.579  0.00  0.00     0.137 C 
ATOM     22  C   UNL d   1       8.963   6.239 -12.584  0.00  0.00     0.274 C 
BRANCH  20  23
ATOM     23  C   UNL d   1      10.384   7.385  -9.356  0.00  0.00     0.057 C 
ATOM     24  C   UNL d   1      10.323   7.315  -7.933  0.00  0.00     0.022 C 
ATOM     25  C   UNL d   1      11.453   7.836  -7.199  0.00  0.00     0.031 C 
ATOM     26  C   UNL d   1       9.300   6.823  -7.045  0.00  0.00     0.009 C 
ATOM     27  C   UNL d   1      12.557   8.416  -7.835  0.00  0.00     0.007 C 
ATOM     28  S   UNL d   1      11.298   7.573  -5.486  0.00  0.00    -0.086 SA
ATOM     29  C   UNL d   1      12.587   8.404  -9.216  0.00  0.00     0.002 C 
ATOM     30  C   UNL d   1      11.469   8.030  -9.941  0.00  0.00     0.017 C 
ATOM     31  C   UNL d   1       9.764   6.806  -5.752  0.00  0.00     0.035 C 
ENDBRANCH  20  23
ENDBRANCH   1  17
TORSDOF 6
