REMARK  7 active torsions:
REMARK  status: ('A' for Active; 'I' for Inactive)
REMARK    1  A    between atoms: C_6  and  C_7 
REMARK    2  A    between atoms: C_10  and  S_11 
REMARK    3  A    between atoms: S_11  and  C_12 
REMARK    4  A    between atoms: C_12  and  C_13 
REMARK    5  A    between atoms: C_13  and  C_14 
REMARK    6  A    between atoms: C_14  and  N_15 
REMARK    7  A    between atoms: C_22  and  N_23 
ROOT
ATOM      1  C   UNL d   1      11.713  -0.083 -18.862  0.00  0.00     0.067 C 
ENDROOT
BRANCH   1   2
ATOM      2  S   UNL d   1      10.068  -0.813 -18.589  0.00  0.00    -0.075 SA
BRANCH   2   3
ATOM      3  C   UNL d   1       9.686  -0.072 -17.039  0.00  0.00     0.193 A 
ATOM      4  N   UNL d   1      10.589   0.149 -16.083  0.00  0.00    -0.122 NA
ATOM      5  N   UNL d   1       9.891   0.704 -15.039  0.00  0.00    -0.128 NA
ATOM      6  C   UNL d   1       8.626   0.802 -15.458  0.00  0.00     0.167 A 
ATOM      7  N   UNL d   1       8.436   0.299 -16.700  0.00  0.00    -0.289 N 
ATOM      8  C   UNL d   1       7.197   0.176 -17.459  0.00  0.00     0.134 C 
BRANCH   6   9
ATOM      9  C   UNL d   1       7.581   1.381 -14.624  0.00  0.00     0.037 A 
ATOM     10  C   UNL d   1       7.662   2.702 -14.106  0.00  0.00     0.021 A 
ATOM     11  C   UNL d   1       8.771   3.547 -14.367  0.00  0.00     0.003 A 
ATOM     12  C   UNL d   1       6.613   3.210 -13.277  0.00  0.00     0.081 A 
ATOM     13  C   UNL d   1       8.812   4.823 -13.787  0.00  0.00     0.015 A 
ATOM     14  C   UNL d   1       7.735   5.227 -12.981  0.00  0.00     0.059 A 
ATOM     15  C   UNL d   1       7.726   6.587 -12.332  0.00  0.00     0.052 C 
ATOM     16  N   UNL d   1       6.657   4.451 -12.749  0.00  0.00    -0.250 NA
ATOM     17  C   UNL d   1       5.509   2.378 -12.995  0.00  0.00     0.019 A 
ATOM     18  C   UNL d   1       5.436   1.070 -13.506  0.00  0.00     0.002 A 
ATOM     19  C   UNL d   1       6.467   0.574 -14.320  0.00  0.00     0.003 A 
ENDBRANCH   6   9
ENDBRANCH   2   3
ENDBRANCH   1   2
BRANCH   1  20
ATOM     20  C   UNL d   1      11.634   1.427 -19.162  0.00  0.00     0.047 C 
BRANCH  20  21
ATOM     21  C   UNL d   1      13.004   1.969 -19.583  0.00  0.00     0.251 C 
BRANCH  21  22
ATOM     22  N   UNL d   1      12.926   3.378 -19.974  0.00  0.00     0.138 N 
ATOM     23  C   UNL d   1      12.946   4.340 -18.869  0.00  0.00     0.255 C 
ATOM     24  C   UNL d   1      14.270   4.420 -18.076  0.00  0.00     0.061 C 
ATOM     25  C   UNL d   1      15.359   5.218 -18.774  0.00  0.00    -0.022 A 
ATOM     26  C   UNL d   1      15.845   4.850 -20.058  0.00  0.00    -0.022 A 
ATOM     27  C   UNL d   1      15.899   6.348 -18.120  0.00  0.00     0.022 A 
ATOM     28  C   UNL d   1      15.299   3.632 -20.788  0.00  0.00     0.061 C 
ATOM     29  C   UNL d   1      16.870   5.610 -20.677  0.00  0.00     0.017 A 
ATOM     30  C   UNL d   1      13.796   3.721 -21.099  0.00  0.00     0.255 C 
ATOM     31  C   UNL d   1      17.406   6.747 -20.037  0.00  0.00     0.107 A 
ATOM     32  C   UNL d   1      16.908   7.080 -18.761  0.00  0.00     0.120 A 
ATOM     33  N   UNL d   1      18.377   7.657 -20.409  0.00  0.00    -0.205 NA
ATOM     34  O   UNL d   1      17.580   8.201 -18.314  0.00  0.00    -0.275 OA
ATOM     35  C   UNL d   1      18.425   8.478 -19.353  0.00  0.00     0.252 A 
BRANCH  35  36
ATOM     36  N   UNL d   1      19.230   9.599 -19.165  0.00  0.00    -0.310 N 
ATOM     37  C   UNL d   1      20.114  10.159 -20.179  0.00  0.00     0.129 C 
ATOM     38  C   UNL d   1      19.285  10.383 -17.938  0.00  0.00     0.129 C 
ENDBRANCH  35  36
ENDBRANCH  21  22
ENDBRANCH  20  21
ENDBRANCH   1  20
TORSDOF 7
