REMARK  7 active torsions:
REMARK  status: ('A' for Active; 'I' for Inactive)
REMARK    1  A    between atoms: C_2  and  C_3 
REMARK    2  A    between atoms: N_13  and  C_14 
REMARK    3  A    between atoms: C_14  and  C_15 
REMARK    4  A    between atoms: C_15  and  C_17 
REMARK    5  A    between atoms: C_17  and  N_18 
REMARK    6  A    between atoms: C_21  and  O_22 
REMARK    7  A    between atoms: O_22  and  C_23 
ROOT
ATOM      1  C   UNL d   1       9.697   7.792  -9.429  0.00  0.00     0.148 C 
ENDROOT
BRANCH   1   2
ATOM      2  N   UNL d   1      10.703   8.353  -8.526  0.00  0.00    -0.247 N 
ATOM      3  C   UNL d   1      12.026   8.378  -8.714  0.00  0.00     0.348 A 
ATOM      4  N   UNL d   1      12.578   8.920  -7.620  0.00  0.00    -0.209 NA
ATOM      5  O   UNL d   1      12.648   7.983  -9.694  0.00  0.00    -0.245 OA
ATOM      6  C   UNL d   1      11.613   9.339  -6.614  0.00  0.00     0.179 A 
ATOM      7  C   UNL d   1      11.664  10.867  -6.372  0.00  0.00     0.039 C 
ATOM      8  C   UNL d   1      10.358   8.931  -7.372  0.00  0.00     0.265 A 
ATOM      9  O   UNL d   1       9.223   9.056  -6.943  0.00  0.00    -0.269 OA
BRANCH   6  10
ATOM     10  C   UNL d   1      11.771   8.560  -5.304  0.00  0.00     0.006 A 
ATOM     11  C   UNL d   1      12.562   9.070  -4.242  0.00  0.00     0.000 A 
ATOM     12  C   UNL d   1      12.711   8.344  -3.050  0.00  0.00     0.029 A 
ATOM     13  C   UNL d   1      12.133   7.077  -2.927  0.00  0.00     0.140 A 
ATOM     14  C   UNL d   1      11.376   6.546  -3.983  0.00  0.00     0.029 A 
ATOM     15  F   UNL d   1      12.334   6.359  -1.810  0.00  0.00    -0.204 F 
ATOM     16  C   UNL d   1      11.178   7.282  -5.151  0.00  0.00     0.000 A 
ENDBRANCH   6  10
ENDBRANCH   1   2
BRANCH   1  17
ATOM     17  C   UNL d   1       9.272   6.342  -9.044  0.00  0.00     0.208 C 
ATOM     18  O   UNL d   1       8.676   6.302  -7.765  0.00  0.00    -0.219 OA
BRANCH  17  19
ATOM     19  C   UNL d   1       8.199   5.703  -9.983  0.00  0.00     0.285 C 
BRANCH  19  20
ATOM     20  N   UNL d   1       8.512   5.506 -11.399  0.00  0.00     0.140 N 
ATOM     21  C   UNL d   1       9.578   4.563 -11.528  0.00  0.00     0.253 C 
ATOM     22  C   UNL d   1      10.110   4.356 -12.948  0.00  0.00     0.066 C 
ATOM     23  C   UNL d   1       8.937   3.866 -13.804  0.00  0.00     0.125 C 
ATOM     24  C   UNL d   1       7.758   4.842 -13.638  0.00  0.00     0.066 C 
ATOM     25  C   UNL d   1       7.383   5.022 -12.159  0.00  0.00     0.253 C 
BRANCH  23  26
ATOM     26  O   UNL d   1       9.323   3.839 -15.175  0.00  0.00    -0.333 OA
BRANCH  26  27
ATOM     27  C   UNL d   1       9.823   2.691 -15.756  0.00  0.00     0.094 A 
ATOM     28  C   UNL d   1       9.818   1.400 -15.170  0.00  0.00     0.024 A 
ATOM     29  C   UNL d   1      10.306   0.292 -15.888  0.00  0.00     0.002 A 
ATOM     30  C   UNL d   1      10.825   0.456 -17.185  0.00  0.00     0.000 A 
ATOM     31  C   UNL d   1      10.847   1.734 -17.771  0.00  0.00     0.002 A 
ATOM     32  C   UNL d   1      10.344   2.841 -17.061  0.00  0.00     0.024 A 
ENDBRANCH  26  27
ENDBRANCH  23  26
ENDBRANCH  19  20
ENDBRANCH  17  19
ENDBRANCH   1  17
TORSDOF 7
