REMARK  4 active torsions:
REMARK  status: ('A' for Active; 'I' for Inactive)
REMARK    1  A    between atoms: C_6  and  N_7 
REMARK    2  A    between atoms: N_7  and  C_8 
REMARK    3  A    between atoms: C_10  and  C_11 
REMARK    4  A    between atoms: C_11  and  C_12 
ROOT
ATOM      1  C   UNL d   1       7.119   1.520 -15.080  0.00  0.00     0.161 C 
ATOM      2  N   UNL d   1       7.138   2.489 -14.159  0.00  0.00    -0.212 NA
ATOM      3  C   UNL d   1       6.157   2.476 -13.240  0.00  0.00     0.145 C 
ATOM      4  N   UNL d   1       5.154   1.602 -13.222  0.00  0.00    -0.235 NA
ATOM      5  C   UNL d   1       5.054   0.668 -14.218  0.00  0.00     0.061 C 
ATOM      6  C   UNL d   1       6.045   0.636 -15.226  0.00  0.00     0.029 C 
ATOM      7  C   UNL d   1       5.931  -0.225 -16.492  0.00  0.00     0.069 C 
ATOM      8  C   UNL d   1       5.601  -1.672 -16.181  0.00  0.00     0.295 C 
ATOM      9  N   UNL d   1       4.186  -1.876 -15.914  0.00  0.00     0.340 N 
ATOM     10  C   UNL d   1       3.880  -1.545 -14.536  0.00  0.00     0.296 C 
ATOM     11  C   UNL d   1       3.734  -0.052 -14.293  0.00  0.00     0.084 C 
ENDROOT
BRANCH   1  12
ATOM     12  N   UNL d   1       8.176   1.493 -16.018  0.00  0.00    -0.227 NA
BRANCH  12  13
ATOM     13  C   UNL d   1       9.380   2.184 -15.997  0.00  0.00     0.085 A 
ATOM     14  C   UNL d   1      10.106   2.434 -14.804  0.00  0.00     0.019 A 
ATOM     15  C   UNL d   1      11.323   3.139 -14.838  0.00  0.00     0.004 A 
ATOM     16  C   UNL d   1      11.865   3.562 -16.078  0.00  0.00     0.030 A 
ATOM     17  C   UNL d   1      11.174   3.274 -17.276  0.00  0.00     0.142 A 
ATOM     18  F   UNL d   1      11.697   3.659 -18.472  0.00  0.00    -0.204 F 
ATOM     19  C   UNL d   1       9.940   2.604 -17.236  0.00  0.00     0.049 A 
ENDBRANCH  12  13
ENDBRANCH   1  12
BRANCH   3  20
ATOM     20  C   UNL d   1       6.237   3.469 -12.081  0.00  0.00     0.092 C 
BRANCH  20  21
ATOM     21  C   UNL d   1       7.272   4.563 -12.274  0.00  0.00    -0.015 A 
ATOM     22  C   UNL d   1       8.654   4.253 -12.385  0.00  0.00    -0.004 A 
ATOM     23  C   UNL d   1       9.578   5.264 -12.685  0.00  0.00    -0.000 A 
ATOM     24  C   UNL d   1       9.140   6.596 -12.786  0.00  0.00    -0.000 A 
ATOM     25  C   UNL d   1       7.776   6.907 -12.617  0.00  0.00    -0.000 A 
ATOM     26  C   UNL d   1       6.837   5.894 -12.378  0.00  0.00    -0.004 A 
ENDBRANCH  20  21
ENDBRANCH   3  20
TORSDOF 4
