REMARK  4 active torsions:
REMARK  status: ('A' for Active; 'I' for Inactive)
REMARK    1  A    between atoms: C_2  and  C_3 
REMARK    2  A    between atoms: C_3  and  C_4 
REMARK    3  A    between atoms: C_4  and  C_5 
REMARK    4  A    between atoms: C_16  and  O_17 
ROOT
ATOM      1  C   UNL d   1      10.538   8.182  -8.752  0.00  0.00     0.007 C 
ATOM      2  C   UNL d   1       9.896   8.680  -9.867  0.00  0.00    -0.000 C 
ATOM      3  C   UNL d   1       9.471   7.662 -10.771  0.00  0.00     0.013 C 
ATOM      4  C   UNL d   1       9.736   6.403 -10.318  0.00  0.00     0.007 C 
ATOM      5  S   UNL d   1      10.349   6.440  -8.681  0.00  0.00    -0.096 SA
ATOM      6  C   UNL d   1       9.340   5.168 -11.055  0.00  0.00     0.070 C 
ATOM      7  C   UNL d   1       8.848   5.473 -12.509  0.00  0.00     0.246 C 
ATOM      8  C   UNL d   1       8.198   4.251 -13.137  0.00  0.00     0.007 A 
ATOM      9  C   UNL d   1       8.991   3.190 -13.624  0.00  0.00     0.027 A 
ATOM     10  C   UNL d   1       8.395   2.030 -14.152  0.00  0.00     0.153 A 
ATOM     11  O   UNL d   1       9.181   0.985 -14.545  0.00  0.00    -0.188 OA
ATOM     12  C   UNL d   1       6.974   1.929 -14.193  0.00  0.00     0.119 A 
ATOM     13  C   UNL d   1       6.193   2.986 -13.696  0.00  0.00     0.022 A 
ATOM     14  C   UNL d   1       6.783   4.149 -13.184  0.00  0.00    -0.020 A 
ATOM     15  C   UNL d   1       5.900   5.292 -12.705  0.00  0.00     0.061 C 
ATOM     16  C   UNL d   1       6.691   6.369 -11.928  0.00  0.00     0.256 C 
ATOM     17  N   UNL d   1       7.978   6.659 -12.585  0.00  0.00     0.144 N 
ATOM     18  C   UNL d   1       8.701   7.825 -12.053  0.00  0.00     0.277 C 
ENDROOT
BRANCH   1  19
ATOM     19  C   UNL d   1      11.193   8.941  -7.641  0.00  0.00     0.033 C 
BRANCH  19  20
ATOM     20  C   UNL d   1      10.401   8.862  -6.327  0.00  0.00     0.005 C 
BRANCH  20  21
ATOM     21  C   UNL d   1      10.966   9.775  -5.225  0.00  0.00     0.000 C 
ATOM     22  C   UNL d   1      12.331   9.310  -4.693  0.00  0.00     0.000 C 
ENDBRANCH  20  21
ENDBRANCH  19  20
ENDBRANCH   1  19
BRANCH  12  23
ATOM     23  O   UNL d   1       6.332   0.839 -14.712  0.00  0.00    -0.326 OA
ATOM     24  C   UNL d   1       6.136  -0.227 -13.790  0.00  0.00     0.181 C 
ENDBRANCH  12  23
TORSDOF 4
