REMARK  3 active torsions:
REMARK  status: ('A' for Active; 'I' for Inactive)
REMARK    1  A    between atoms: C_7  and  N_8 
REMARK    2  A    between atoms: N_11  and  C_12 
REMARK    3  A    between atoms: C_12  and  C_13 
ROOT
ATOM      1  N   UNL d   1      11.320   7.391  -7.377  0.00  0.00    -0.343 N 
ATOM      2  C   UNL d   1      12.051   8.001  -8.482  0.00  0.00     0.137 C 
ATOM      3  C   UNL d   1      11.070   8.322  -9.639  0.00  0.00     0.275 C 
ATOM      4  N   UNL d   1      10.334   7.117 -10.035  0.00  0.00     0.145 N 
ATOM      5  C   UNL d   1       9.547   6.639  -8.891  0.00  0.00     0.275 C 
ATOM      6  C   UNL d   1      10.458   6.273  -7.715  0.00  0.00     0.137 C 
ENDROOT
BRANCH   1   7
ATOM      7  C   UNL d   1      11.362   7.873  -6.057  0.00  0.00     0.082 A 
ATOM      8  C   UNL d   1      11.254   9.252  -5.767  0.00  0.00     0.146 A 
ATOM      9  O   UNL d   1      11.063  10.150  -6.765  0.00  0.00    -0.189 OA
ATOM     10  C   UNL d   1      11.322   9.717  -4.449  0.00  0.00     0.029 A 
ATOM     11  C   UNL d   1      11.534   8.819  -3.399  0.00  0.00     0.002 A 
ATOM     12  C   UNL d   1      11.637   7.442  -3.666  0.00  0.00     0.002 A 
ATOM     13  C   UNL d   1      11.516   6.967  -4.986  0.00  0.00     0.019 A 
ENDBRANCH   1   7
BRANCH   4  14
ATOM     14  C   UNL d   1       9.464   7.429 -11.175  0.00  0.00     0.277 C 
BRANCH  14  15
ATOM     15  C   UNL d   1       8.836   6.211 -11.855  0.00  0.00     0.011 A 
ATOM     16  C   UNL d   1       7.683   5.597 -11.322  0.00  0.00    -0.002 A 
ATOM     17  C   UNL d   1       7.108   4.476 -11.947  0.00  0.00    -0.000 A 
ATOM     18  C   UNL d   1       7.670   3.981 -13.143  0.00  0.00    -0.000 A 
ATOM     19  C   UNL d   1       8.816   4.589 -13.687  0.00  0.00    -0.000 A 
ATOM     20  C   UNL d   1       9.399   5.696 -13.040  0.00  0.00    -0.002 A 
ENDBRANCH  14  15
ENDBRANCH   4  14
TORSDOF 3
