REMARK  2 active torsions:
REMARK  status: ('A' for Active; 'I' for Inactive)
REMARK    1  A    between atoms: O_2  and  C_3 
REMARK    2  A    between atoms: C_11  and  N_12 
ROOT
ATOM      1  C   UNL d   1       9.467   7.074 -10.932  0.00  0.00     0.090 A 
ATOM      2  C   UNL d   1       8.567   5.986 -11.092  0.00  0.00     0.024 A 
ATOM      3  C   UNL d   1       8.422   5.066 -10.049  0.00  0.00     0.002 A 
ATOM      4  C   UNL d   1       9.175   5.180  -8.870  0.00  0.00    -0.004 A 
ATOM      5  C   UNL d   1      10.114   6.233  -8.720  0.00  0.00    -0.022 A 
ATOM      6  C   UNL d   1      10.246   7.182  -9.772  0.00  0.00    -0.004 A 
ATOM      7  C   UNL d   1      11.184   8.391  -9.617  0.00  0.00     0.030 C 
ATOM      8  C   UNL d   1      12.152   8.268  -8.437  0.00  0.00     0.038 C 
ATOM      9  C   UNL d   1      11.462   7.732  -7.170  0.00  0.00     0.224 C 
ATOM     10  C   UNL d   1      10.916   6.317  -7.439  0.00  0.00     0.059 C 
ENDROOT
BRANCH   9  11
ATOM     11  N   UNL d   1      10.451   8.724  -6.743  0.00  0.00     0.140 N 
ATOM     12  C   UNL d   1       9.216   8.166  -6.210  0.00  0.00     0.285 C 
ATOM     13  C   UNL d   1      10.999   9.661  -5.767  0.00  0.00     0.285 C 
ENDBRANCH   9  11
BRANCH   1  14
ATOM     14  O   UNL d   1       9.614   7.982 -11.947  0.00  0.00    -0.328 OA
ATOM     15  C   UNL d   1       8.567   8.923 -12.090  0.00  0.00     0.181 C 
ENDBRANCH   1  14
TORSDOF 2
