REMARK  4 active torsions:
REMARK  status: ('A' for Active; 'I' for Inactive)
REMARK    1  A    between atoms: C_8  and  N_9 
REMARK    2  A    between atoms: N_12  and  C_13 
REMARK    3  A    between atoms: C_13  and  C_14 
REMARK    4  A    between atoms: C_16  and  C_17 
ROOT
ATOM      1  N   UNL d   1      10.511   6.466  -8.535  0.00  0.00    -0.344 N 
ATOM      2  C   UNL d   1      10.909   7.047  -9.810  0.00  0.00     0.137 C 
ATOM      3  C   UNL d   1       9.719   7.063 -10.790  0.00  0.00     0.274 C 
ATOM      4  N   UNL d   1       9.146   5.720 -10.934  0.00  0.00     0.141 N 
ATOM      5  C   UNL d   1       8.665   5.271  -9.614  0.00  0.00     0.274 C 
ATOM      6  C   UNL d   1       9.835   5.179  -8.613  0.00  0.00     0.137 C 
ENDROOT
BRANCH   4   7
ATOM      7  C   UNL d   1       8.028   5.811 -11.864  0.00  0.00     0.251 C 
BRANCH   7   8
ATOM      8  C   UNL d   1       7.663   4.453 -12.434  0.00  0.00     0.038 A 
ATOM      9  C   UNL d   1       7.753   4.200 -13.924  0.00  0.00     0.024 A 
ATOM     10  C   UNL d   1       6.401   4.317 -13.255  0.00  0.00     0.007 A 
BRANCH   9  11
ATOM     11  C   UNL d   1       8.245   2.890 -14.443  0.00  0.00    -0.022 A 
ATOM     12  C   UNL d   1       7.331   1.971 -15.007  0.00  0.00    -0.004 A 
ATOM     13  C   UNL d   1       7.772   0.724 -15.480  0.00  0.00    -0.000 A 
ATOM     14  C   UNL d   1       9.137   0.390 -15.402  0.00  0.00    -0.000 A 
ATOM     15  C   UNL d   1      10.061   1.307 -14.867  0.00  0.00    -0.000 A 
ATOM     16  C   UNL d   1       9.617   2.555 -14.389  0.00  0.00    -0.004 A 
ENDBRANCH   9  11
ENDBRANCH   7   8
ENDBRANCH   4   7
BRANCH   1  17
ATOM     17  C   UNL d   1      10.740   7.124  -7.308  0.00  0.00     0.052 A 
ATOM     18  C   UNL d   1      10.273   8.440  -7.067  0.00  0.00    -0.004 A 
ATOM     19  C   UNL d   1       9.439   9.179  -8.090  0.00  0.00     0.033 C 
ATOM     20  C   UNL d   1      10.552   9.064  -5.837  0.00  0.00     0.027 A 
ATOM     21  C   UNL d   1      11.242   8.385  -4.824  0.00  0.00     0.140 A 
ATOM     22  F   UNL d   1      11.486   9.005  -3.643  0.00  0.00    -0.204 F 
ATOM     23  C   UNL d   1      11.673   7.068  -5.035  0.00  0.00     0.031 A 
ATOM     24  C   UNL d   1      11.457   6.456  -6.289  0.00  0.00     0.019 A 
ENDBRANCH   1  17
TORSDOF 4
