REMARK  4 active torsions:
REMARK  status: ('A' for Active; 'I' for Inactive)
REMARK    1  A    between atoms: C_5  and  C_6 
REMARK    2  A    between atoms: C_8  and  C_9 
REMARK    3  A    between atoms: N_12  and  C_13 
REMARK    4  A    between atoms: C_13  and  C_14 
ROOT
ATOM      1  C   UNL d   1       8.229   4.682 -12.622  0.00  0.00     0.104 A 
ATOM      2  C   UNL d   1       9.511   4.977 -12.086  0.00  0.00     0.037 A 
ATOM      3  C   UNL d   1       9.300   6.007 -11.207  0.00  0.00     0.084 A 
ATOM      4  N   UNL d   1       7.952   6.263 -11.271  0.00  0.00    -0.152 NA
ATOM      5  N   UNL d   1       7.289   5.467 -12.123  0.00  0.00    -0.148 NA
ENDROOT
BRANCH   3   6
ATOM      6  C   UNL d   1      10.199   6.822 -10.318  0.00  0.00     0.077 C 
ATOM      7  C   UNL d   1       9.830   6.764  -8.831  0.00  0.00     0.257 C 
ATOM      8  N   UNL d   1      10.266   8.052  -8.306  0.00  0.00     0.142 N 
ATOM      9  C   UNL d   1       9.852   8.995  -9.334  0.00  0.00     0.251 C 
ATOM     10  C   UNL d   1      10.236   8.317 -10.636  0.00  0.00     0.043 C 
BRANCH   8  11
ATOM     11  C   UNL d   1       9.622   8.345  -7.029  0.00  0.00     0.277 C 
BRANCH  11  12
ATOM     12  C   UNL d   1      10.570   8.200  -5.860  0.00  0.00     0.011 A 
ATOM     13  C   UNL d   1      10.984   6.922  -5.438  0.00  0.00    -0.002 A 
ATOM     14  C   UNL d   1      11.837   6.790  -4.325  0.00  0.00    -0.000 A 
ATOM     15  C   UNL d   1      12.275   7.928  -3.632  0.00  0.00    -0.000 A 
ATOM     16  C   UNL d   1      11.865   9.206  -4.051  0.00  0.00    -0.000 A 
ATOM     17  C   UNL d   1      11.023   9.347  -5.172  0.00  0.00    -0.002 A 
ENDBRANCH  11  12
ENDBRANCH   8  11
ENDBRANCH   3   6
BRANCH   1  18
ATOM     18  C   UNL d   1       7.873   3.653 -13.599  0.00  0.00     0.019 A 
ATOM     19  C   UNL d   1       6.599   3.049 -13.558  0.00  0.00     0.002 A 
ATOM     20  C   UNL d   1       6.277   1.998 -14.436  0.00  0.00     0.011 A 
ATOM     21  C   UNL d   1       7.200   1.592 -15.415  0.00  0.00     0.058 A 
ATOM     22 CL   UNL d   1       6.755   0.380 -16.555  0.00  0.00    -0.082 Cl
ATOM     23  C   UNL d   1       8.475   2.188 -15.469  0.00  0.00     0.011 A 
ATOM     24  C   UNL d   1       8.817   3.204 -14.550  0.00  0.00     0.002 A 
ENDBRANCH   1  18
TORSDOF 4
