REMARK  5 active torsions:
REMARK  status: ('A' for Active; 'I' for Inactive)
REMARK       I    between atoms: C_2  and  N_4 
REMARK    1  A    between atoms: N_4  and  C_5 
REMARK    2  A    between atoms: C_8  and  C_9 
REMARK    3  A    between atoms: C_9  and  C_10 
REMARK    4  A    between atoms: C_10  and  N_11 
REMARK    5  A    between atoms: N_14  and  C_15 
ROOT
ATOM      1  N   UNL d   1       8.703   5.732 -11.794  0.00  0.00     0.141 N 
ATOM      2  C   UNL d   1       9.627   4.602 -11.884  0.00  0.00     0.274 C 
ATOM      3  C   UNL d   1       9.134   3.600 -12.925  0.00  0.00     0.138 C 
ATOM      4  N   UNL d   1       9.069   4.251 -14.213  0.00  0.00    -0.329 N 
ATOM      5  C   UNL d   1       8.261   5.455 -14.197  0.00  0.00     0.138 C 
ATOM      6  C   UNL d   1       8.742   6.407 -13.083  0.00  0.00     0.274 C 
ENDROOT
BRANCH   1   7
ATOM      7  C   UNL d   1       9.176   6.691 -10.805  0.00  0.00     0.250 C 
BRANCH   7   8
ATOM      8  C   UNL d   1       8.939   6.180  -9.380  0.00  0.00     0.035 C 
BRANCH   8   9
ATOM      9  C   UNL d   1       9.367   7.166  -8.285  0.00  0.00     0.002 C 
ATOM     10  C   UNL d   1       9.369   6.438  -6.932  0.00  0.00     0.002 C 
ATOM     11  C   UNL d   1       9.774   7.378  -5.804  0.00  0.00     0.024 C 
ATOM     12  C   UNL d   1      11.133   8.042  -6.079  0.00  0.00     0.106 C 
ATOM     13  C   UNL d   1      11.135   8.780  -7.420  0.00  0.00     0.024 C 
ATOM     14  C   UNL d   1      10.739   7.819  -8.545  0.00  0.00     0.002 C 
BRANCH  12  15
ATOM     15  N   UNL d   1      11.488   8.953  -5.000  0.00  0.00    -0.240 NA
ATOM     16  C   UNL d   1      11.874   8.608  -3.764  0.00  0.00     0.252 C 
ATOM     17  C   UNL d   1      12.062   7.131  -3.393  0.00  0.00     0.100 C 
ATOM     18  O   UNL d   1      12.068   9.471  -2.917  0.00  0.00    -0.271 OA
ENDBRANCH  12  15
ENDBRANCH   8   9
ENDBRANCH   7   8
ENDBRANCH   1   7
BRANCH   4  19
ATOM     19  C   UNL d   1       9.679   3.742 -15.379  0.00  0.00     0.148 A 
ATOM     20  C   UNL d   1       9.765   2.320 -15.649  0.00  0.00     0.042 A 
ATOM     21  C   UNL d   1      10.467   2.105 -16.872  0.00  0.00     0.050 A 
ATOM     22  C   UNL d   1       9.305   1.170 -14.969  0.00  0.00     0.004 A 
ATOM     23  S   UNL d   1      10.882   3.671 -17.531  0.00  0.00     0.015 SA
ATOM     24  C   UNL d   1      10.724   0.812 -17.382  0.00  0.00     0.008 A 
ATOM     25  N   UNL d   1      10.169   4.556 -16.290  0.00  0.00    -0.192 NA
ATOM     26  C   UNL d   1      10.264  -0.303 -16.670  0.00  0.00     0.001 A 
ATOM     27  C   UNL d   1       9.563  -0.110 -15.470  0.00  0.00     0.000 A 
ENDBRANCH   4  19
TORSDOF 5
