REMARK  5 active torsions:
REMARK  status: ('A' for Active; 'I' for Inactive)
REMARK    1  A    between atoms: C_4  and  N_5 
REMARK    2  A    between atoms: N_8  and  C_9 
REMARK    3  A    between atoms: C_9  and  C_10 
REMARK    4  A    between atoms: C_10  and  C_11 
REMARK    5  A    between atoms: C_11  and  C_12 
ROOT
ATOM      1  N   UNL d   1       9.154   6.445 -10.349  0.00  0.00    -0.344 N 
ATOM      2  C   UNL d   1       8.103   5.441 -10.365  0.00  0.00     0.137 C 
ATOM      3  C   UNL d   1       8.454   4.390 -11.413  0.00  0.00     0.274 C 
ATOM      4  N   UNL d   1       8.598   4.967 -12.752  0.00  0.00     0.141 N 
ATOM      5  C   UNL d   1       9.697   5.939 -12.674  0.00  0.00     0.274 C 
ATOM      6  C   UNL d   1       9.369   7.051 -11.657  0.00  0.00     0.137 C 
ENDROOT
BRANCH   4   7
ATOM      7  C   UNL d   1       8.963   3.914 -13.693  0.00  0.00     0.251 C 
BRANCH   7   8
ATOM      8  C   UNL d   1       7.765   3.013 -14.057  0.00  0.00     0.044 C 
BRANCH   8   9
ATOM      9  C   UNL d   1       8.223   1.621 -14.515  0.00  0.00     0.074 C 
BRANCH   9  10
ATOM     10  C   UNL d   1       7.140   0.875 -15.223  0.00  0.00     0.159 A 
ATOM     11  O   UNL d   1       6.975   1.129 -16.559  0.00  0.00    -0.292 OA
ATOM     12  C   UNL d   1       5.935   0.292 -16.911  0.00  0.00     0.119 A 
ATOM     13  C   UNL d   1       5.520  -0.406 -15.755  0.00  0.00     0.106 A 
ATOM     14  C   UNL d   1       5.347   0.106 -18.172  0.00  0.00     0.026 A 
ATOM     15  N   UNL d   1       6.287  -0.005 -14.674  0.00  0.00    -0.224 NA
ATOM     16  C   UNL d   1       4.468  -1.337 -15.890  0.00  0.00     0.021 A 
ATOM     17  C   UNL d   1       3.868  -1.551 -17.151  0.00  0.00     0.002 A 
ATOM     18  C   UNL d   1       4.297  -0.828 -18.286  0.00  0.00     0.002 A 
ENDBRANCH   9  10
ENDBRANCH   8   9
ENDBRANCH   7   8
ENDBRANCH   4   7
BRANCH   1  19
ATOM     19  C   UNL d   1       9.736   6.922  -9.164  0.00  0.00     0.056 A 
ATOM     20  C   UNL d   1      10.987   7.586  -9.198  0.00  0.00     0.017 A 
ATOM     21  C   UNL d   1      11.597   8.035  -8.011  0.00  0.00     0.002 A 
ATOM     22  C   UNL d   1      10.976   7.820  -6.770  0.00  0.00     0.000 A 
ATOM     23  C   UNL d   1       9.728   7.180  -6.719  0.00  0.00     0.002 A 
ATOM     24  C   UNL d   1       9.107   6.739  -7.905  0.00  0.00     0.017 A 
ENDBRANCH   1  19
TORSDOF 5
