REMARK  6 active torsions:
REMARK  status: ('A' for Active; 'I' for Inactive)
REMARK    1  A    between atoms: C_2  and  C_4 
REMARK       I    between atoms: C_4  and  N_6 
REMARK    2  A    between atoms: N_6  and  C_7 
REMARK    3  A    between atoms: C_10  and  C_11 
REMARK    4  A    between atoms: C_11  and  C_12 
REMARK    5  A    between atoms: C_12  and  N_13 
REMARK    6  A    between atoms: C_16  and  C_17 
ROOT
ATOM      1  N   UNL d   1       9.204   6.345  -9.398  0.00  0.00     0.137 N 
ATOM      2  C   UNL d   1      10.657   6.396  -9.269  0.00  0.00     0.251 C 
ATOM      3  C   UNL d   1      11.099   7.355  -8.185  0.00  0.00     0.040 C 
ATOM      4  C   UNL d   1      10.505   6.958  -6.840  0.00  0.00     0.026 C 
ATOM      5  C   UNL d   1       8.985   6.784  -6.975  0.00  0.00     0.040 C 
ATOM      6  C   UNL d   1       8.635   5.842  -8.142  0.00  0.00     0.251 C 
ENDROOT
BRANCH   1   7
ATOM      7  C   UNL d   1       8.746   5.476 -10.479  0.00  0.00     0.250 C 
BRANCH   7   8
ATOM      8  C   UNL d   1       9.459   5.702 -11.826  0.00  0.00     0.035 C 
BRANCH   8   9
ATOM      9  C   UNL d   1       9.577   4.430 -12.679  0.00  0.00     0.002 C 
ATOM     10  C   UNL d   1       8.224   4.093 -13.320  0.00  0.00     0.002 C 
ATOM     11  C   UNL d   1       8.336   2.885 -14.253  0.00  0.00     0.024 C 
ATOM     12  C   UNL d   1       9.426   3.100 -15.324  0.00  0.00     0.106 C 
ATOM     13  C   UNL d   1      10.786   3.403 -14.677  0.00  0.00     0.024 C 
ATOM     14  C   UNL d   1      10.675   4.605 -13.740  0.00  0.00     0.002 C 
BRANCH  12  15
ATOM     15  N   UNL d   1       9.549   1.917 -16.158  0.00  0.00    -0.240 NA
ATOM     16  C   UNL d   1       8.770   1.641 -17.212  0.00  0.00     0.251 C 
ATOM     17  O   UNL d   1       7.872   2.385 -17.605  0.00  0.00    -0.271 OA
BRANCH  16  18
ATOM     18  C   UNL d   1       9.053   0.321 -17.934  0.00  0.00     0.081 C 
ATOM     19  C   UNL d   1       9.532   0.599 -19.366  0.00  0.00     0.010 C 
ATOM     20  C   UNL d   1       7.810  -0.584 -17.921  0.00  0.00     0.010 C 
ENDBRANCH  16  18
ENDBRANCH  12  15
ENDBRANCH   8   9
ENDBRANCH   7   8
ENDBRANCH   1   7
BRANCH   4  21
ATOM     21  C   UNL d   1      10.881   7.980  -5.784  0.00  0.00    -0.024 A 
ATOM     22  C   UNL d   1      11.491   7.623  -4.569  0.00  0.00    -0.001 A 
ATOM     23  C   UNL d   1      11.828   8.553  -3.599  0.00  0.00     0.090 A 
ATOM     24  C   UNL d   1      11.866   6.277  -4.094  0.00  0.00     0.061 A 
ATOM     25  C   UNL d   1      11.535   9.907  -3.792  0.00  0.00     0.024 A 
ATOM     26  O   UNL d   1      12.395   7.996  -2.484  0.00  0.00    -0.331 OA
ATOM     27  C   UNL d   1      10.966  10.303  -5.025  0.00  0.00     0.002 A 
ATOM     28  C   UNL d   1      10.635   9.351  -6.005  0.00  0.00    -0.004 A 
ATOM     29  C   UNL d   1      12.431   6.574  -2.686  0.00  0.00     0.154 A 
ENDBRANCH   4  21
TORSDOF 6
