REMARK  4 active torsions:
REMARK  status: ('A' for Active; 'I' for Inactive)
REMARK    1  A    between atoms: C_6  and  N_7 
REMARK       I    between atoms: N_7  and  C_8 
REMARK    2  A    between atoms: C_8  and  C_10 
REMARK    3  A    between atoms: C_10  and  N_11 
REMARK    4  A    between atoms: C_14  and  C_15 
ROOT
ATOM      1  N   UNL d   1       9.156   5.416 -10.840  0.00  0.00     0.147 N 
ATOM      2  C   UNL d   1       8.249   5.393  -9.698  0.00  0.00     0.251 C 
ATOM      3  C   UNL d   1       8.947   5.902  -8.440  0.00  0.00     0.040 C 
ATOM      4  C   UNL d   1       9.532   7.325  -8.603  0.00  0.00     0.026 C 
ATOM      5  C   UNL d   1      10.364   7.353  -9.898  0.00  0.00     0.040 C 
ATOM      6  C   UNL d   1       9.550   6.809 -11.081  0.00  0.00     0.251 C 
ENDROOT
BRANCH   1   7
ATOM      7  C   UNL d   1       8.477   4.838 -12.019  0.00  0.00     0.339 C 
BRANCH   7   8
ATOM      8  C   UNL d   1       9.435   4.255 -13.059  0.00  0.00     0.290 C 
ATOM      9  N   UNL d   1       8.981   3.189 -13.738  0.00  0.00    -0.210 NA
ATOM     10  O   UNL d   1      10.560   4.743 -13.232  0.00  0.00    -0.268 OA
BRANCH   9  11
ATOM     11  C   UNL d   1       9.693   2.440 -14.713  0.00  0.00     0.084 A 
ATOM     12  C   UNL d   1       9.424   1.061 -14.847  0.00  0.00     0.019 A 
ATOM     13  C   UNL d   1      10.109   0.299 -15.819  0.00  0.00     0.001 A 
ATOM     14  C   UNL d   1      11.059   0.915 -16.663  0.00  0.00    -0.004 A 
ATOM     15  C   UNL d   1      11.331   2.288 -16.529  0.00  0.00    -0.020 A 
ATOM     16  C   UNL d   1      12.334   2.993 -17.405  0.00  0.00     0.031 C 
ATOM     17  C   UNL d   1      10.637   3.046 -15.577  0.00  0.00     0.015 A 
ENDBRANCH   9  11
ENDBRANCH   7   8
ENDBRANCH   1   7
BRANCH   4  18
ATOM     18  C   UNL d   1      10.313   7.808  -7.375  0.00  0.00    -0.022 A 
ATOM     19  C   UNL d   1      11.004   9.041  -7.410  0.00  0.00    -0.003 A 
ATOM     20  C   UNL d   1      11.733   9.492  -6.286  0.00  0.00     0.011 A 
ATOM     21  C   UNL d   1      11.764   8.707  -5.117  0.00  0.00     0.058 A 
ATOM     22  C   UNL d   1      11.085   7.480  -5.074  0.00  0.00     0.011 A 
ATOM     23 CL   UNL d   1      12.658   9.189  -3.728  0.00  0.00    -0.082 Cl
ATOM     24  C   UNL d   1      10.354   7.043  -6.184  0.00  0.00    -0.003 A 
ENDBRANCH   4  18
TORSDOF 4
