REMARK  7 active torsions:
REMARK  status: ('A' for Active; 'I' for Inactive)
REMARK    1  A    between atoms: O_2  and  C_3 
REMARK    2  A    between atoms: C_12  and  C_13 
REMARK    3  A    between atoms: C_13  and  O_15 
REMARK    4  A    between atoms: O_15  and  C_16 
REMARK    5  A    between atoms: C_16  and  C_17 
REMARK    6  A    between atoms: N_20  and  C_21 
REMARK    7  A    between atoms: C_21  and  C_22 
ROOT
ATOM      1  C   UNL d   1       9.347   4.765 -13.319  0.00  0.00     0.298 C 
ATOM      2  O   UNL d   1      10.474   5.183 -13.594  0.00  0.00    -0.259 OA
ENDROOT
BRANCH   1   3
ATOM      3  C   UNL d   1       8.680   3.626 -14.019  0.00  0.00     0.085 A 
ATOM      4  C   UNL d   1       7.311   3.260 -13.816  0.00  0.00     0.099 A 
ATOM      5  C   UNL d   1       6.766   2.200 -14.574  0.00  0.00     0.024 A 
ATOM      6  C   UNL d   1       7.538   1.528 -15.535  0.00  0.00     0.002 A 
ATOM      7  C   UNL d   1       8.891   1.891 -15.741  0.00  0.00     0.000 A 
ATOM      8  C   UNL d   1       6.970   0.493 -16.291  0.00  0.00     0.000 A 
ATOM      9  C   UNL d   1       9.666   1.210 -16.706  0.00  0.00     0.000 A 
ATOM     10  C   UNL d   1       9.449   2.931 -14.979  0.00  0.00     0.007 A 
ATOM     11  C   UNL d   1       9.090   0.168 -17.457  0.00  0.00     0.000 A 
ATOM     12  C   UNL d   1       7.741  -0.187 -17.251  0.00  0.00     0.000 A 
BRANCH   4  13
ATOM     13  O   UNL d   1       6.552   3.952 -12.895  0.00  0.00    -0.328 OA
ATOM     14  C   UNL d   1       5.171   3.703 -12.769  0.00  0.00     0.181 C 
ENDBRANCH   4  13
ENDBRANCH   1   3
BRANCH   1  15
ATOM     15  O   UNL d   1       8.577   5.315 -12.378  0.00  0.00    -0.298 OA
BRANCH  15  16
ATOM     16  C   UNL d   1       8.752   6.639 -11.933  0.00  0.00     0.154 C 
BRANCH  16  17
ATOM     17  C   UNL d   1       9.794   6.738 -10.823  0.00  0.00     0.066 C 
ATOM     18  C   UNL d   1       9.328   6.247  -9.449  0.00  0.00     0.253 C 
ATOM     19  N   UNL d   1      10.109   7.064  -8.527  0.00  0.00     0.141 N 
ATOM     20  C   UNL d   1      10.042   8.393  -9.125  0.00  0.00     0.251 C 
ATOM     21  C   UNL d   1      10.267   8.166 -10.602  0.00  0.00     0.040 C 
BRANCH  19  22
ATOM     22  C   UNL d   1       9.540   7.029  -7.181  0.00  0.00     0.277 C 
BRANCH  22  23
ATOM     23  C   UNL d   1      10.364   7.777  -6.145  0.00  0.00     0.011 A 
ATOM     24  C   UNL d   1      10.408   9.186  -6.145  0.00  0.00    -0.002 A 
ATOM     25  C   UNL d   1      11.182   9.887  -5.207  0.00  0.00    -0.000 A 
ATOM     26  C   UNL d   1      11.910   9.176  -4.233  0.00  0.00    -0.000 A 
ATOM     27  C   UNL d   1      11.862   7.771  -4.212  0.00  0.00    -0.000 A 
ATOM     28  C   UNL d   1      11.094   7.073  -5.171  0.00  0.00    -0.002 A 
ENDBRANCH  22  23
ENDBRANCH  19  22
ENDBRANCH  16  17
ENDBRANCH  15  16
ENDBRANCH   1  15
TORSDOF 7
