REMARK  8 active torsions:
REMARK  status: ('A' for Active; 'I' for Inactive)
REMARK    1  A    between atoms: C_6  and  C_7 
REMARK    2  A    between atoms: C_10  and  S_11 
REMARK    3  A    between atoms: S_11  and  C_12 
REMARK    4  A    between atoms: C_12  and  C_13 
REMARK    5  A    between atoms: C_13  and  C_14 
REMARK    6  A    between atoms: C_14  and  N_15 
REMARK    7  A    between atoms: C_20  and  C_21 
REMARK    8  A    between atoms: C_24  and  C_25 
ROOT
ATOM      1  N   UNL d   1      11.150   4.289 -19.426  0.00  0.00     0.137 N 
ATOM      2  C   UNL d   1      11.992   4.554 -20.592  0.00  0.00     0.250 C 
ATOM      3  C   UNL d   1      11.191   4.992 -21.831  0.00  0.00     0.036 C 
ATOM      4  C   UNL d   1      10.700   6.431 -21.866  0.00  0.00     0.006 A 
ATOM      5  C   UNL d   1      11.303   7.561 -21.054  0.00  0.00     0.004 A 
ATOM      6  C   UNL d   1       9.890   7.047 -20.740  0.00  0.00     0.021 A 
ATOM      7  C   UNL d   1       9.630   6.246 -19.458  0.00  0.00     0.039 C 
ATOM      8  C   UNL d   1      10.801   5.552 -18.771  0.00  0.00     0.251 C 
ENDROOT
BRANCH   1   9
ATOM      9  C   UNL d   1      11.877   3.437 -18.485  0.00  0.00     0.251 C 
BRANCH   9  10
ATOM     10  C   UNL d   1      10.914   2.724 -17.518  0.00  0.00     0.047 C 
BRANCH  10  11
ATOM     11  C   UNL d   1      11.653   1.719 -16.618  0.00  0.00     0.067 C 
BRANCH  11  12
ATOM     12  S   UNL d   1      10.599   0.995 -15.346  0.00  0.00    -0.075 SA
BRANCH  12  13
ATOM     13  C   UNL d   1      10.127   2.481 -14.515  0.00  0.00     0.193 A 
ATOM     14  N   UNL d   1      10.976   3.395 -14.047  0.00  0.00    -0.122 NA
ATOM     15  N   UNL d   1      10.170   4.361 -13.479  0.00  0.00    -0.126 NA
ATOM     16  C   UNL d   1       8.916   3.949 -13.633  0.00  0.00     0.191 A 
ATOM     17  N   UNL d   1       8.818   2.784 -14.324  0.00  0.00    -0.287 N 
ATOM     18  C   UNL d   1       7.658   2.020 -14.755  0.00  0.00     0.134 C 
BRANCH  16  19
ATOM     19  C   UNL d   1       7.782   4.763 -13.122  0.00  0.00     0.151 A 
ATOM     20  C   UNL d   1       6.462   4.531 -12.818  0.00  0.00     0.087 A 
ATOM     21  C   UNL d   1       5.586   3.312 -12.861  0.00  0.00     0.054 C 
ATOM     22  N   UNL d   1       5.926   5.740 -12.404  0.00  0.00    -0.221 NA
ATOM     23  C   UNL d   1       6.878   6.624 -12.435  0.00  0.00     0.225 A 
ATOM     24  O   UNL d   1       8.061   6.098 -12.897  0.00  0.00    -0.282 OA
ENDBRANCH  16  19
ENDBRANCH  12  13
ENDBRANCH  11  12
ENDBRANCH  10  11
ENDBRANCH   9  10
ENDBRANCH   1   9
BRANCH   6  25
ATOM     25  C   UNL d   1       8.664   7.863 -21.131  0.00  0.00    -0.023 A 
ATOM     26  C   UNL d   1       8.734   8.862 -22.138  0.00  0.00    -0.004 A 
ATOM     27  C   UNL d   1       7.616   9.632 -22.494  0.00  0.00     0.004 A 
ATOM     28  C   UNL d   1       6.374   9.428 -21.856  0.00  0.00     0.071 A 
ATOM     29  C   UNL d   1       6.281   8.428 -20.862  0.00  0.00     0.004 A 
ATOM     30  C   UNL d   1       7.385   7.661 -20.515  0.00  0.00    -0.004 A 
BRANCH  28  31
ATOM     31  C   UNL d   1       5.156  10.232 -22.246  0.00  0.00     0.419 C 
ATOM     32  F   UNL d   1       5.501  11.499 -22.481  0.00  0.00    -0.166 F 
ATOM     33  F   UNL d   1       4.632   9.703 -23.350  0.00  0.00    -0.166 F 
ATOM     34  F   UNL d   1       4.238  10.209 -21.278  0.00  0.00    -0.166 F 
ENDBRANCH  28  31
ENDBRANCH   6  25
TORSDOF 8
