REMARK  4 active torsions:
REMARK  status: ('A' for Active; 'I' for Inactive)
REMARK    1  A    between atoms: N_3  and  C_4 
REMARK    2  A    between atoms: C_4  and  C_5 
REMARK    3  A    between atoms: C_5  and  N_6 
REMARK    4  A    between atoms: N_17  and  C_18 
ROOT
ATOM      1  O   UNL d   1      10.551   4.926 -12.890  0.00  0.00    -0.247 OA
ATOM      2  C   UNL d   1       9.339   4.761 -12.793  0.00  0.00     0.328 A 
ATOM      3  N   UNL d   1       8.576   4.174 -13.722  0.00  0.00    -0.298 N 
ATOM      4  C   UNL d   1       7.186   4.067 -13.333  0.00  0.00     0.131 A 
ATOM      5  C   UNL d   1       7.173   4.735 -11.957  0.00  0.00     0.135 A 
ATOM      6  N   UNL d   1       8.558   5.134 -11.764  0.00  0.00    -0.280 N 
ENDROOT
BRANCH   3   7
ATOM      7  C   UNL d   1       9.091   3.635 -14.973  0.00  0.00     0.141 C 
BRANCH   7   8
ATOM      8  C   UNL d   1       9.546   4.767 -15.920  0.00  0.00     0.275 C 
BRANCH   8   9
ATOM      9  N   UNL d   1      10.130   4.193 -17.129  0.00  0.00     0.148 N 
ATOM     10  C   UNL d   1      11.568   3.924 -16.907  0.00  0.00     0.277 C 
ATOM     11  C   UNL d   1      12.271   5.193 -17.313  0.00  0.00     0.009 A 
ATOM     12  C   UNL d   1      11.413   5.931 -18.100  0.00  0.00     0.009 A 
ATOM     13  C   UNL d   1      13.575   5.634 -17.026  0.00  0.00    -0.003 A 
ATOM     14  C   UNL d   1      10.120   5.175 -18.231  0.00  0.00     0.277 C 
ATOM     15  C   UNL d   1      11.798   7.157 -18.668  0.00  0.00    -0.003 A 
ATOM     16  C   UNL d   1      13.099   7.629 -18.383  0.00  0.00    -0.000 A 
ATOM     17  C   UNL d   1      13.980   6.875 -17.569  0.00  0.00    -0.000 A 
ENDBRANCH   8   9
ENDBRANCH   7   8
ENDBRANCH   3   7
BRANCH   6  18
ATOM     18  C   UNL d   1       9.028   5.774 -10.590  0.00  0.00     0.065 A 
ATOM     19  C   UNL d   1       9.859   6.913 -10.673  0.00  0.00     0.029 A 
ATOM     20  C   UNL d   1      10.311   7.558  -9.506  0.00  0.00     0.059 A 
ATOM     21  C   UNL d   1       9.923   7.078  -8.243  0.00  0.00     0.011 A 
ATOM     22 CL   UNL d   1      11.344   8.931  -9.629  0.00  0.00    -0.082 Cl
ATOM     23  C   UNL d   1       9.081   5.956  -8.151  0.00  0.00     0.002 A 
ATOM     24  C   UNL d   1       8.644   5.298  -9.316  0.00  0.00     0.017 A 
ENDBRANCH   6  18
TORSDOF 4
