REMARK  9 active torsions:
REMARK  status: ('A' for Active; 'I' for Inactive)
REMARK    1  A    between atoms: C_3  and  C_4 
REMARK    2  A    between atoms: C_7  and  N_8 
REMARK    3  A    between atoms: N_8  and  C_9 
REMARK    4  A    between atoms: N_8  and  C_12 
REMARK    5  A    between atoms: C_9  and  C_10 
REMARK    6  A    between atoms: C_12  and  C_13 
REMARK    7  A    between atoms: C_13  and  C_14 
REMARK    8  A    between atoms: C_14  and  C_15 
REMARK    9  A    between atoms: C_15  and  N_16 
ROOT
ATOM      1  C   UNL d   1      11.817  10.045  -6.262  0.00  0.00     0.090 C 
ATOM      2  C   UNL d   1      11.207   9.118  -7.228  0.00  0.00    -0.086 C 
ATOM      3  C   UNL d   1      10.687   8.364  -8.011  0.00  0.00    -0.069 C 
ENDROOT
BRANCH   3   4
ATOM      4  C   UNL d   1      10.135   7.481  -8.983  0.00  0.00     0.015 C 
ATOM      5  C   UNL d   1      10.234   7.931 -10.424  0.00  0.00     0.036 C 
ATOM      6  C   UNL d   1       9.294   7.176 -11.353  0.00  0.00     0.039 C 
ATOM      7  C   UNL d   1       9.226   5.664 -11.045  0.00  0.00     0.224 C 
ATOM      8  C   UNL d   1       8.880   5.357  -9.559  0.00  0.00     0.059 C 
ATOM      9  C   UNL d   1       9.538   6.335  -8.603  0.00  0.00    -0.020 C 
BRANCH   7  10
ATOM     10  N   UNL d   1       8.327   4.967 -11.983  0.00  0.00     0.135 N 
BRANCH  10  11
ATOM     11  C   UNL d   1       6.940   5.418 -11.854  0.00  0.00     0.250 C 
BRANCH  11  12
ATOM     12  C   UNL d   1       5.977   4.238 -12.048  0.00  0.00     0.035 C 
ATOM     13  C   UNL d   1       5.748   3.849 -13.510  0.00  0.00     0.002 C 
ENDBRANCH  11  12
ENDBRANCH  10  11
BRANCH  10  14
ATOM     14  C   UNL d   1       8.759   5.087 -13.384  0.00  0.00     0.250 C 
BRANCH  14  15
ATOM     15  C   UNL d   1       9.948   4.170 -13.682  0.00  0.00     0.037 C 
BRANCH  15  16
ATOM     16  C   UNL d   1      10.594   4.516 -15.036  0.00  0.00     0.029 C 
BRANCH  16  17
ATOM     17  C   UNL d   1      11.703   3.545 -15.472  0.00  0.00     0.129 C 
BRANCH  17  18
ATOM     18  N   UNL d   1      11.199   2.218 -15.785  0.00  0.00    -0.231 N 
ATOM     19  N   UNL d   1      10.729   1.413 -14.803  0.00  0.00    -0.064 NA
ATOM     20  N   UNL d   1      10.307   0.326 -15.356  0.00  0.00    -0.133 NA
ATOM     21  C   UNL d   1      10.527   0.399 -16.729  0.00  0.00     0.101 A 
ATOM     22  C   UNL d   1      11.111   1.603 -17.024  0.00  0.00     0.113 A 
ATOM     23  C   UNL d   1      10.167  -0.729 -17.636  0.00  0.00     0.056 C 
ENDBRANCH  17  18
ENDBRANCH  16  17
ENDBRANCH  15  16
ENDBRANCH  14  15
ENDBRANCH  10  14
ENDBRANCH   7  10
ENDBRANCH   3   4
TORSDOF 9
