REMARK  7 active torsions:
REMARK  status: ('A' for Active; 'I' for Inactive)
REMARK    1  A    between atoms: C_5  and  C_6 
REMARK    2  A    between atoms: C_9  and  S_10 
REMARK    3  A    between atoms: S_10  and  C_11 
REMARK    4  A    between atoms: C_11  and  C_12 
REMARK    5  A    between atoms: C_12  and  C_13 
REMARK    6  A    between atoms: C_13  and  N_14 
REMARK    7  A    between atoms: C_20  and  C_21 
ROOT
ATOM      1  C   UNL d   1      10.249   2.732 -17.698  0.00  0.00     0.047 C 
ENDROOT
BRANCH   1   2
ATOM      2  C   UNL d   1      10.717   2.713 -19.161  0.00  0.00     0.067 C 
BRANCH   2   3
ATOM      3  S   UNL d   1      10.539   1.068 -19.898  0.00  0.00    -0.075 SA
BRANCH   3   4
ATOM      4  C   UNL d   1       8.787   0.918 -19.792  0.00  0.00     0.193 A 
ATOM      5  N   UNL d   1       7.933   1.834 -20.253  0.00  0.00    -0.122 NA
ATOM      6  N   UNL d   1       6.686   1.356 -19.946  0.00  0.00    -0.128 NA
ATOM      7  C   UNL d   1       6.883   0.201 -19.312  0.00  0.00     0.167 A 
ATOM      8  N   UNL d   1       8.188  -0.131 -19.201  0.00  0.00    -0.289 N 
ATOM      9  C   UNL d   1       8.773  -1.308 -18.590  0.00  0.00     0.134 C 
BRANCH   7  10
ATOM     10  C   UNL d   1       5.775  -0.601 -18.831  0.00  0.00     0.036 A 
ATOM     11  C   UNL d   1       5.372  -0.625 -17.473  0.00  0.00     0.006 A 
ATOM     12  C   UNL d   1       6.025   0.102 -16.455  0.00  0.00     0.015 A 
ATOM     13  C   UNL d   1       4.257  -1.416 -17.099  0.00  0.00     0.019 A 
ATOM     14  C   UNL d   1       5.561  -0.027 -15.142  0.00  0.00     0.059 A 
ATOM     15  C   UNL d   1       6.245   0.686 -14.024  0.00  0.00     0.052 C 
ATOM     16  N   UNL d   1       4.503  -0.763 -14.777  0.00  0.00    -0.248 NA
ATOM     17  C   UNL d   1       3.863  -1.432 -15.745  0.00  0.00     0.099 A 
ATOM     18  C   UNL d   1       3.582  -2.182 -18.067  0.00  0.00     0.002 A 
ATOM     19  C   UNL d   1       3.990  -2.156 -19.411  0.00  0.00     0.000 A 
ATOM     20  C   UNL d   1       5.075  -1.359 -19.796  0.00  0.00     0.003 A 
ENDBRANCH   7  10
ENDBRANCH   3   4
ENDBRANCH   2   3
ENDBRANCH   1   2
BRANCH   1  21
ATOM     21  C   UNL d   1      10.455   4.093 -17.017  0.00  0.00     0.251 C 
BRANCH  21  22
ATOM     22  N   UNL d   1      10.292   3.946 -15.573  0.00  0.00     0.138 N 
ATOM     23  C   UNL d   1      11.065   4.977 -14.898  0.00  0.00     0.255 C 
ATOM     24  C   UNL d   1      11.150   4.665 -13.409  0.00  0.00     0.061 C 
ATOM     25  C   UNL d   1       9.922   5.091 -12.580  0.00  0.00    -0.024 A 
ATOM     26  C   UNL d   1       8.683   4.461 -12.718  0.00  0.00    -0.024 A 
ATOM     27  C   UNL d   1      10.077   5.982 -11.485  0.00  0.00    -0.003 A 
ATOM     28  C   UNL d   1       8.518   3.448 -13.813  0.00  0.00     0.061 C 
ATOM     29  C   UNL d   1       7.628   4.734 -11.812  0.00  0.00    -0.004 A 
ATOM     30  C   UNL d   1       8.871   3.992 -15.201  0.00  0.00     0.255 C 
ATOM     31  C   UNL d   1       7.830   5.593 -10.720  0.00  0.00     0.001 A 
ATOM     32  C   UNL d   1       9.066   6.259 -10.559  0.00  0.00     0.017 A 
BRANCH  32  33
ATOM     33  C   UNL d   1       9.454   7.092  -9.383  0.00  0.00     0.079 A 
ATOM     34  N   UNL d   1      10.265   8.224  -9.441  0.00  0.00    -0.249 N 
ATOM     35  N   UNL d   1      10.394   8.824  -8.242  0.00  0.00    -0.174 NA
ATOM     36  C   UNL d   1      10.926   8.845 -10.560  0.00  0.00     0.154 C 
ATOM     37  C   UNL d   1       9.689   8.075  -7.437  0.00  0.00     0.081 A 
ATOM     38  C   UNL d   1       9.094   6.949  -8.071  0.00  0.00     0.035 A 
ATOM     39  C   UNL d   1       9.541   8.447  -6.019  0.00  0.00     0.054 C 
ENDBRANCH  32  33
ENDBRANCH  21  22
ENDBRANCH   1  21
TORSDOF 7
