REMARK  6 active torsions:
REMARK  status: ('A' for Active; 'I' for Inactive)
REMARK       I    between atoms: C_2  and  N_3 
REMARK       I    between atoms: C_2  and  N_10 
REMARK    1  A    between atoms: N_3  and  C_4 
REMARK    2  A    between atoms: N_10  and  C_11 
REMARK    3  A    between atoms: C_14  and  C_15 
REMARK    4  A    between atoms: C_15  and  C_16 
REMARK    5  A    between atoms: C_16  and  N_17 
REMARK    6  A    between atoms: N_20  and  C_21 
ROOT
ATOM      1  C   UNL d   1       8.675   5.308 -12.905  0.00  0.00     0.035 C 
ENDROOT
BRANCH   1   2
ATOM      2  C   UNL d   1       8.578   5.898 -11.480  0.00  0.00     0.002 C 
ATOM      3  C   UNL d   1       8.564   4.789 -10.396  0.00  0.00     0.002 C 
ATOM      4  C   UNL d   1       8.572   5.363  -8.986  0.00  0.00     0.025 C 
ATOM      5  C   UNL d   1       9.789   6.247  -8.761  0.00  0.00     0.108 C 
ATOM      6  C   UNL d   1       9.882   7.376  -9.811  0.00  0.00     0.025 C 
ATOM      7  C   UNL d   1       9.781   6.816 -11.233  0.00  0.00     0.002 C 
BRANCH   5   8
ATOM      8  N   UNL d   1       9.672   6.841  -7.439  0.00  0.00    -0.219 NA
ATOM      9  C   UNL d   1      10.695   6.949  -6.584  0.00  0.00     0.364 C 
ATOM     10  O   UNL d   1      11.743   6.325  -6.678  0.00  0.00    -0.243 OA
ATOM     11  N   UNL d   1      10.472   7.878  -5.662  0.00  0.00    -0.191 NA
BRANCH  11  12
ATOM     12  C   UNL d   1      11.296   8.117  -4.539  0.00  0.00     0.086 A 
ATOM     13  C   UNL d   1      11.356   9.431  -4.059  0.00  0.00     0.019 A 
ATOM     14  C   UNL d   1      12.024   9.675  -2.849  0.00  0.00     0.002 A 
ATOM     15  C   UNL d   1      12.647   8.642  -2.125  0.00  0.00     0.000 A 
ATOM     16  C   UNL d   1      12.554   7.324  -2.591  0.00  0.00     0.002 A 
ATOM     17  C   UNL d   1      11.865   7.060  -3.781  0.00  0.00     0.019 A 
ENDBRANCH  11  12
ENDBRANCH   5   8
ENDBRANCH   1   2
BRANCH   1  18
ATOM     18  C   UNL d   1       7.847   4.021 -13.073  0.00  0.00     0.250 C 
BRANCH  18  19
ATOM     19  N   UNL d   1       7.811   3.559 -14.437  0.00  0.00     0.141 N 
ATOM     20  C   UNL d   1       9.141   3.219 -14.959  0.00  0.00     0.274 C 
ATOM     21  C   UNL d   1       9.036   2.811 -16.425  0.00  0.00     0.138 C 
ATOM     22  N   UNL d   1       8.108   1.698 -16.572  0.00  0.00    -0.329 N 
ATOM     23  C   UNL d   1       6.813   1.913 -15.944  0.00  0.00     0.138 C 
ATOM     24  C   UNL d   1       6.963   2.367 -14.494  0.00  0.00     0.274 C 
BRANCH  22  25
ATOM     25  C   UNL d   1       8.454   0.495 -17.220  0.00  0.00     0.148 A 
ATOM     26  C   UNL d   1       7.485  -0.323 -17.930  0.00  0.00     0.042 A 
ATOM     27  C   UNL d   1       8.149  -1.462 -18.467  0.00  0.00     0.050 A 
ATOM     28  C   UNL d   1       6.091  -0.216 -18.199  0.00  0.00     0.004 A 
ATOM     29  S   UNL d   1       9.855  -1.306 -18.091  0.00  0.00     0.015 SA
ATOM     30  C   UNL d   1       7.455  -2.466 -19.178  0.00  0.00     0.008 A 
ATOM     31  N   UNL d   1       9.712   0.103 -17.221  0.00  0.00    -0.192 NA
ATOM     32  C   UNL d   1       6.068  -2.335 -19.386  0.00  0.00     0.001 A 
ATOM     33  C   UNL d   1       5.386  -1.211 -18.896  0.00  0.00     0.000 A 
ENDBRANCH  22  25
ENDBRANCH  18  19
ENDBRANCH   1  18
TORSDOF 6
