REMARK  7 active torsions:
REMARK  status: ('A' for Active; 'I' for Inactive)
REMARK    1  A    between atoms: C_6  and  C_7 
REMARK    2  A    between atoms: C_10  and  S_11 
REMARK    3  A    between atoms: S_11  and  C_12 
REMARK    4  A    between atoms: C_12  and  C_13 
REMARK    5  A    between atoms: C_13  and  C_14 
REMARK    6  A    between atoms: C_14  and  N_15 
REMARK    7  A    between atoms: C_19  and  C_20 
ROOT
ATOM      1  C   UNL d   1       9.780   5.195 -10.567  0.00  0.00     0.047 C 
ENDROOT
BRANCH   1   2
ATOM      2  C   UNL d   1       9.749   5.231 -12.102  0.00  0.00     0.067 C 
BRANCH   2   3
ATOM      3  S   UNL d   1       9.384   3.616 -12.843  0.00  0.00    -0.075 SA
BRANCH   3   4
ATOM      4  C   UNL d   1      10.554   3.544 -14.169  0.00  0.00     0.193 A 
ATOM      5  N   UNL d   1      11.474   4.477 -14.445  0.00  0.00    -0.122 NA
ATOM      6  N   UNL d   1      12.125   4.035 -15.561  0.00  0.00    -0.126 NA
ATOM      7  C   UNL d   1      11.562   2.862 -15.886  0.00  0.00     0.191 A 
ATOM      8  N   UNL d   1      10.583   2.499 -15.028  0.00  0.00    -0.287 N 
ATOM      9  C   UNL d   1       9.745   1.301 -15.029  0.00  0.00     0.134 C 
BRANCH   7  10
ATOM     10  C   UNL d   1      11.993   2.110 -17.049  0.00  0.00     0.151 A 
ATOM     11  C   UNL d   1      12.917   2.406 -18.045  0.00  0.00     0.087 A 
ATOM     12  C   UNL d   1      13.772   3.618 -18.221  0.00  0.00     0.054 C 
ATOM     13  N   UNL d   1      12.962   1.332 -18.914  0.00  0.00    -0.221 NA
ATOM     14  C   UNL d   1      12.087   0.460 -18.427  0.00  0.00     0.225 A 
ATOM     15  O   UNL d   1      11.465   0.875 -17.294  0.00  0.00    -0.282 OA
ENDBRANCH   7  10
ENDBRANCH   3   4
ENDBRANCH   2   3
ENDBRANCH   1   2
BRANCH   1  16
ATOM     16  C   UNL d   1      10.573   6.451 -10.007  0.00  0.00     0.251 C 
BRANCH  16  17
ATOM     17  N   UNL d   1      10.356   6.628  -8.589  0.00  0.00     0.137 N 
ATOM     18  C   UNL d   1      10.873   7.941  -8.175  0.00  0.00     0.254 C 
ATOM     19  C   UNL d   1      10.050   8.225  -6.941  0.00  0.00     0.054 A 
ATOM     20  C   UNL d   1       8.841   7.358  -7.053  0.00  0.00     0.040 A 
ATOM     21  C   UNL d   1       8.688   8.819  -7.012  0.00  0.00     0.009 A 
ATOM     22  C   UNL d   1       8.925   6.623  -8.313  0.00  0.00     0.251 C 
BRANCH  19  23
ATOM     23  C   UNL d   1      10.813   8.252  -5.679  0.00  0.00     0.007 A 
ATOM     24  C   UNL d   1      11.101   9.495  -5.036  0.00  0.00     0.137 A 
ATOM     25  C   UNL d   1      11.732   9.499  -3.803  0.00  0.00     0.041 A 
ATOM     26  F   UNL d   1      10.716  10.668  -5.590  0.00  0.00    -0.204 F 
ATOM     27  C   UNL d   1      12.078   8.297  -3.169  0.00  0.00     0.060 A 
ATOM     28  C   UNL d   1      11.842   7.063  -3.801  0.00  0.00     0.011 A 
ATOM     29 CL   UNL d   1      12.681   8.391  -1.587  0.00  0.00    -0.082 Cl
ATOM     30  C   UNL d   1      11.195   7.042  -5.041  0.00  0.00    -0.001 A 
ENDBRANCH  19  23
ENDBRANCH  16  17
ENDBRANCH   1  16
TORSDOF 7
