REMARK  10 active torsions:
REMARK  status: ('A' for Active; 'I' for Inactive)
REMARK    1  A    between atoms: S_2  and  N_4 
REMARK    2  A    between atoms: S_2  and  C_26 
REMARK    3  A    between atoms: N_4  and  C_5 
REMARK    4  A    between atoms: C_5  and  C_6 
REMARK    5  A    between atoms: C_6  and  C_7 
REMARK    6  A    between atoms: C_7  and  C_8 
REMARK    7  A    between atoms: C_8  and  C_9 
REMARK    8  A    between atoms: C_9  and  C_10 
REMARK    9  A    between atoms: C_10  and  N_11 
REMARK   10  A    between atoms: N_14  and  C_15 
ROOT
ATOM      1  C   UNL d   1       7.633   4.206 -12.641  0.00  0.00     0.002 C 
ENDROOT
BRANCH   1   2
ATOM      2  C   UNL d   1       8.091   3.290 -13.774  0.00  0.00     0.002 C 
BRANCH   2   3
ATOM      3  C   UNL d   1       6.951   2.438 -14.290  0.00  0.00     0.027 C 
BRANCH   3   4
ATOM      4  C   UNL d   1       7.467   1.433 -15.300  0.00  0.00     0.139 C 
BRANCH   4   5
ATOM      5  N   UNL d   1       7.256   1.906 -16.685  0.00  0.00    -0.185 NA
BRANCH   5   6
ATOM      6  S   UNL d   1       7.889   1.063 -18.056  0.00  0.00     0.281 S 
ATOM      7  O   UNL d   1       7.835   1.980 -19.197  0.00  0.00    -0.199 OA
ATOM      8  O   UNL d   1       9.180   0.470 -17.655  0.00  0.00    -0.199 OA
BRANCH   6   9
ATOM      9  C   UNL d   1       6.697  -0.258 -18.331  0.00  0.00     0.105 A 
ATOM     10  C   UNL d   1       6.475  -0.733 -19.651  0.00  0.00     0.013 A 
ATOM     11  C   UNL d   1       5.493  -1.740 -19.840  0.00  0.00     0.001 A 
ATOM     12  C   UNL d   1       4.747  -2.254 -18.743  0.00  0.00     0.000 A 
ATOM     13  C   UNL d   1       5.241  -2.248 -21.126  0.00  0.00     0.000 A 
ATOM     14  C   UNL d   1       4.979  -1.769 -17.455  0.00  0.00     0.001 A 
ATOM     15  C   UNL d   1       3.774  -3.247 -18.908  0.00  0.00     0.000 A 
ATOM     16  C   UNL d   1       5.941  -0.783 -17.248  0.00  0.00     0.013 A 
ATOM     17  C   UNL d   1       3.533  -3.744 -20.197  0.00  0.00     0.000 A 
ATOM     18  C   UNL d   1       4.261  -3.246 -21.297  0.00  0.00     0.000 A 
ENDBRANCH   6   9
ENDBRANCH   5   6
ENDBRANCH   4   5
ENDBRANCH   3   4
ENDBRANCH   2   3
ENDBRANCH   1   2
BRANCH   1  19
ATOM     19  C   UNL d   1       8.817   4.850 -11.918  0.00  0.00     0.035 C 
BRANCH  19  20
ATOM     20  C   UNL d   1       8.387   5.396 -10.556  0.00  0.00     0.250 C 
BRANCH  20  21
ATOM     21  N   UNL d   1       9.550   5.778  -9.768  0.00  0.00     0.141 N 
ATOM     22  C   UNL d   1       9.881   7.192 -10.013  0.00  0.00     0.274 C 
ATOM     23  C   UNL d   1      11.100   7.630  -9.184  0.00  0.00     0.138 C 
ATOM     24  N   UNL d   1      10.895   7.334  -7.768  0.00  0.00    -0.329 N 
ATOM     25  C   UNL d   1      10.434   5.988  -7.497  0.00  0.00     0.138 C 
ATOM     26  C   UNL d   1       9.219   5.625  -8.351  0.00  0.00     0.274 C 
BRANCH  24  27
ATOM     27  C   UNL d   1      11.044   8.282  -6.740  0.00  0.00     0.148 A 
ATOM     28  C   UNL d   1      11.450   7.955  -5.377  0.00  0.00     0.042 A 
ATOM     29  C   UNL d   1      11.513   9.144  -4.599  0.00  0.00     0.050 A 
ATOM     30  C   UNL d   1      11.808   6.768  -4.711  0.00  0.00     0.004 A 
ATOM     31  S   UNL d   1      11.110  10.462  -5.638  0.00  0.00     0.015 SA
ATOM     32  C   UNL d   1      11.870   9.149  -3.235  0.00  0.00     0.008 A 
ATOM     33  N   UNL d   1      10.847   9.553  -7.006  0.00  0.00    -0.192 NA
ATOM     34  C   UNL d   1      12.202   7.938  -2.611  0.00  0.00     0.001 A 
ATOM     35  C   UNL d   1      12.168   6.751  -3.352  0.00  0.00     0.000 A 
ENDBRANCH  24  27
ENDBRANCH  20  21
ENDBRANCH  19  20
ENDBRANCH   1  19
TORSDOF 10
