REMARK  4 active torsions:
REMARK  status: ('A' for Active; 'I' for Inactive)
REMARK    1  A    between atoms: N_3  and  C_4 
REMARK    2  A    between atoms: C_4  and  C_5 
REMARK    3  A    between atoms: N_13  and  C_14 
REMARK    4  A    between atoms: C_18  and  C_19 
ROOT
ATOM      1  O   UNL d   1      11.861   6.977  -6.883  0.00  0.00    -0.247 OA
ATOM      2  C   UNL d   1      11.176   7.975  -6.914  0.00  0.00     0.328 A 
ATOM      3  N   UNL d   1      11.349   9.074  -6.160  0.00  0.00    -0.298 N 
ATOM      4  C   UNL d   1      10.360  10.047  -6.458  0.00  0.00     0.131 A 
ATOM      5  C   UNL d   1       9.473   9.368  -7.541  0.00  0.00     0.135 A 
ATOM      6  N   UNL d   1      10.087   8.075  -7.636  0.00  0.00    -0.280 N 
ENDROOT
BRANCH   6   7
ATOM      7  C   UNL d   1       9.723   7.050  -8.531  0.00  0.00     0.064 A 
ATOM      8  C   UNL d   1       9.518   7.351  -9.867  0.00  0.00     0.021 A 
ATOM      9  C   UNL d   1       9.148   6.326 -10.755  0.00  0.00     0.073 A 
ATOM     10  C   UNL d   1       9.041   5.002 -10.282  0.00  0.00     0.004 A 
ATOM     11  C   UNL d   1       9.298   4.688  -8.942  0.00  0.00     0.001 A 
ATOM     12  C   UNL d   1       9.645   5.728  -8.056  0.00  0.00     0.017 A 
BRANCH   9  13
ATOM     13  C   UNL d   1       8.866   6.662 -12.195  0.00  0.00     0.419 C 
ATOM     14  F   UNL d   1       7.597   6.383 -12.479  0.00  0.00    -0.166 F 
ATOM     15  F   UNL d   1       9.094   7.951 -12.448  0.00  0.00    -0.166 F 
ATOM     16  F   UNL d   1       9.658   5.922 -12.968  0.00  0.00    -0.166 F 
ENDBRANCH   9  13
ENDBRANCH   6   7
BRANCH   3  17
ATOM     17  C   UNL d   1      12.281   9.327  -5.070  0.00  0.00     0.142 C 
BRANCH  17  18
ATOM     18  C   UNL d   1      11.971   8.567  -3.761  0.00  0.00     0.279 C 
ATOM     19  N   UNL d   1      13.037   8.793  -2.798  0.00  0.00     0.339 N 
ATOM     20  C   UNL d   1      12.769   8.127  -1.537  0.00  0.00     0.290 C 
ATOM     21  C   UNL d   1      12.674   6.602  -1.771  0.00  0.00     0.038 C 
ATOM     22  C   UNL d   1      11.597   6.346  -2.733  0.00  0.00     0.004 C 
ATOM     23  C   UNL d   1      11.834   7.075  -3.997  0.00  0.00     0.038 C 
ENDBRANCH  17  18
ENDBRANCH   3  17
TORSDOF 4
