REMARK  7 active torsions:
REMARK  status: ('A' for Active; 'I' for Inactive)
REMARK    1  A    between atoms: C_2  and  C_3 
REMARK       I    between atoms: C_2  and  N_11 
REMARK    2  A    between atoms: C_14  and  C_16 
REMARK    3  A    between atoms: C_16  and  N_17 
REMARK    4  A    between atoms: N_17  and  C_18 
REMARK    5  A    between atoms: C_18  and  C_19 
REMARK    6  A    between atoms: C_19  and  C_20 
REMARK    7  A    between atoms: C_20  and  C_21 
ROOT
ATOM      1  O   UNL d   1       9.801   1.336 -14.882  0.00  0.00    -0.267 OA
ATOM      2  C   UNL d   1       8.668   1.820 -14.716  0.00  0.00     0.257 C 
ATOM      3  N   UNL d   1       8.448   3.019 -14.119  0.00  0.00    -0.317 N 
ATOM      4  C   UNL d   1       9.578   3.897 -13.747  0.00  0.00     0.107 C 
ATOM      5  C   UNL d   1       9.439   4.306 -12.289  0.00  0.00     0.059 C 
ATOM      6  C   UNL d   1       8.088   4.989 -11.975  0.00  0.00     0.172 C 
ATOM      7  F   UNL d   1       8.064   6.164 -12.651  0.00  0.00    -0.238 F 
ATOM      8  C   UNL d   1       6.914   4.124 -12.459  0.00  0.00     0.059 C 
ATOM      9  C   UNL d   1       7.132   3.718 -13.913  0.00  0.00     0.107 C 
ENDROOT
BRANCH   6  10
ATOM     10  C   UNL d   1       7.886   5.264 -10.480  0.00  0.00     0.322 C 
BRANCH  10  11
ATOM     11  N   UNL d   1       9.070   5.850  -9.887  0.00  0.00     0.342 N 
BRANCH  11  12
ATOM     12  C   UNL d   1       9.015   5.677  -8.448  0.00  0.00     0.291 C 
BRANCH  12  13
ATOM     13  C   UNL d   1       9.992   6.667  -7.811  0.00  0.00     0.043 C 
BRANCH  13  14
ATOM     14  C   UNL d   1       9.586   6.993  -6.380  0.00  0.00     0.029 C 
BRANCH  14  15
ATOM     15  C   UNL d   1      10.664   7.746  -5.643  0.00  0.00    -0.022 A 
ATOM     16  C   UNL d   1      10.979   9.063  -6.036  0.00  0.00    -0.004 A 
ATOM     17  C   UNL d   1      11.973   9.771  -5.343  0.00  0.00    -0.000 A 
ATOM     18  C   UNL d   1      12.631   9.191  -4.245  0.00  0.00    -0.000 A 
ATOM     19  C   UNL d   1      12.309   7.877  -3.842  0.00  0.00    -0.000 A 
ATOM     20  C   UNL d   1      11.350   7.149  -4.564  0.00  0.00    -0.004 A 
ENDBRANCH  14  15
ENDBRANCH  13  14
ENDBRANCH  12  13
ENDBRANCH  11  12
ENDBRANCH  10  11
ENDBRANCH   6  10
BRANCH   2  21
ATOM     21  C   UNL d   1       7.511   1.067 -15.294  0.00  0.00     0.057 A 
ATOM     22  C   UNL d   1       6.445   0.629 -14.472  0.00  0.00     0.018 A 
ATOM     23  C   UNL d   1       5.354  -0.039 -15.046  0.00  0.00     0.085 A 
ATOM     24  C   UNL d   1       5.312  -0.284 -16.438  0.00  0.00     0.151 A 
ATOM     25 CL   UNL d   1       3.979  -0.410 -14.057  0.00  0.00    -0.080 Cl
ATOM     26  C   UNL d   1       6.385   0.141 -17.253  0.00  0.00     0.031 A 
ATOM     27  F   UNL d   1       4.236  -0.874 -17.014  0.00  0.00    -0.203 F 
ATOM     28  C   UNL d   1       7.476   0.810 -16.676  0.00  0.00     0.007 A 
ENDBRANCH   2  21
TORSDOF 7
