REMARK  12 active torsions:
REMARK  status: ('A' for Active; 'I' for Inactive)
REMARK    1  A    between atoms: C_2  and  C_3 
REMARK    2  A    between atoms: C_3  and  N_4 
REMARK    3  A    between atoms: N_4  and  C_5 
REMARK    4  A    between atoms: N_4  and  C_24 
REMARK    5  A    between atoms: C_5  and  C_6 
REMARK    6  A    between atoms: C_6  and  C_7 
REMARK    7  A    between atoms: C_7  and  C_8 
REMARK    8  A    between atoms: C_8  and  N_9 
REMARK       I    between atoms: N_9  and  C_10 
REMARK    9  A    between atoms: C_10  and  C_12 
REMARK   10  A    between atoms: C_15  and  C_16 
REMARK   11  A    between atoms: C_32  and  O_33 
REMARK   12  A    between atoms: O_33  and  S_34 
ROOT
ATOM      1  N   UNL d   1       6.876   0.548 -15.156  0.00  0.00     0.135 N 
ENDROOT
BRANCH   1   2
ATOM      2  C   UNL d   1       5.457   0.207 -15.334  0.00  0.00     0.250 C 
BRANCH   2   3
ATOM      3  C   UNL d   1       4.862  -0.526 -14.114  0.00  0.00     0.035 C 
ATOM      4  C   UNL d   1       3.387  -0.851 -14.312  0.00  0.00     0.002 C 
ENDBRANCH   2   3
ENDBRANCH   1   2
BRANCH   1   5
ATOM      5  C   UNL d   1       7.053   1.345 -13.937  0.00  0.00     0.250 C 
BRANCH   5   6
ATOM      6  C   UNL d   1       6.170   2.629 -13.870  0.00  0.00     0.037 C 
BRANCH   6   7
ATOM      7  C   UNL d   1       6.568   3.623 -12.783  0.00  0.00     0.029 C 
BRANCH   7   8
ATOM      8  C   UNL d   1       8.004   4.133 -12.953  0.00  0.00     0.129 C 
BRANCH   8   9
ATOM      9  N   UNL d   1       8.417   4.826 -11.753  0.00  0.00    -0.234 NA
ATOM     10  C   UNL d   1       8.948   6.051 -11.719  0.00  0.00     0.275 C 
ATOM     11  O   UNL d   1       9.070   6.758 -12.713  0.00  0.00    -0.266 OA
BRANCH  10  12
ATOM     12  C   UNL d   1       9.463   6.493 -10.378  0.00  0.00     0.058 A 
ATOM     13  C   UNL d   1      10.192   7.699 -10.274  0.00  0.00     0.005 A 
ATOM     14  C   UNL d   1      10.667   8.146  -9.025  0.00  0.00     0.000 A 
ATOM     15  C   UNL d   1      10.426   7.402  -7.850  0.00  0.00     0.000 A 
ATOM     16  C   UNL d   1       9.696   6.199  -7.962  0.00  0.00     0.000 A 
ATOM     17  C   UNL d   1       9.220   5.745  -9.204  0.00  0.00     0.005 A 
BRANCH  15  18
ATOM     18  C   UNL d   1      10.912   7.872  -6.538  0.00  0.00     0.000 A 
ATOM     19  C   UNL d   1      10.956   9.249  -6.231  0.00  0.00     0.000 A 
ATOM     20  C   UNL d   1      11.427   9.696  -4.981  0.00  0.00     0.000 A 
ATOM     21  C   UNL d   1      11.867   8.771  -4.016  0.00  0.00     0.000 A 
ATOM     22  C   UNL d   1      11.829   7.395  -4.305  0.00  0.00     0.000 A 
ATOM     23  C   UNL d   1      11.352   6.956  -5.557  0.00  0.00     0.000 A 
ENDBRANCH  15  18
ENDBRANCH  10  12
ENDBRANCH   8   9
ENDBRANCH   7   8
ENDBRANCH   6   7
ENDBRANCH   5   6
ENDBRANCH   1   5
BRANCH   1  24
ATOM     24  C   UNL d   1       7.480   1.164 -16.357  0.00  0.00     0.224 C 
ATOM     25  C   UNL d   1       8.940   1.593 -16.088  0.00  0.00     0.059 C 
ATOM     26  C   UNL d   1       9.725   1.981 -17.329  0.00  0.00    -0.022 A 
ATOM     27  C   UNL d   1       9.280   1.624 -18.625  0.00  0.00    -0.002 A 
ATOM     28  C   UNL d   1      10.923   2.697 -17.163  0.00  0.00    -0.004 A 
ATOM     29  C   UNL d   1       7.976   0.854 -18.821  0.00  0.00     0.030 C 
ATOM     30  C   UNL d   1      10.038   2.008 -19.753  0.00  0.00     0.109 A 
ATOM     31  C   UNL d   1       7.439   0.193 -17.549  0.00  0.00     0.038 C 
ATOM     32  C   UNL d   1      11.209   2.773 -19.585  0.00  0.00     0.025 A 
ATOM     33  C   UNL d   1      11.669   3.088 -18.291  0.00  0.00     0.002 A 
BRANCH  30  34
ATOM     34  O   UNL d   1       9.648   1.654 -21.011  0.00  0.00    -0.231 OA
BRANCH  34  35
ATOM     35  S   UNL d   1      10.353   0.273 -21.690  0.00  0.00     0.285 S 
ATOM     36  C   UNL d   1      12.084   0.851 -21.898  0.00  0.00     0.172 C 
ATOM     37  O   UNL d   1      10.328  -0.804 -20.689  0.00  0.00    -0.197 OA
ATOM     38  O   UNL d   1       9.752   0.075 -23.015  0.00  0.00    -0.197 OA
ENDBRANCH  34  35
ENDBRANCH  30  34
ENDBRANCH   1  24
TORSDOF 12
