REMARK  3 active torsions:
REMARK  status: ('A' for Active; 'I' for Inactive)
REMARK    1  A    between atoms: C_3  and  C_4 
REMARK    2  A    between atoms: C_4  and  N_5 
REMARK    3  A    between atoms: N_8  and  C_9 
ROOT
ATOM      1  N   UNL d   1       9.264   6.045 -10.713  0.00  0.00     0.149 N 
ATOM      2  C   UNL d   1       8.824   5.608  -9.385  0.00  0.00     0.275 C 
ATOM      3  C   UNL d   1      10.002   5.579  -8.414  0.00  0.00     0.137 C 
ATOM      4  N   UNL d   1      10.657   6.884  -8.384  0.00  0.00    -0.344 N 
ATOM      5  C   UNL d   1      11.037   7.422  -9.683  0.00  0.00     0.137 C 
ATOM      6  C   UNL d   1       9.815   7.399 -10.613  0.00  0.00     0.275 C 
ENDROOT
BRANCH   1   7
ATOM      7  C   UNL d   1       8.107   6.058 -11.609  0.00  0.00     0.314 C 
BRANCH   7   8
ATOM      8  C   UNL d   1       8.183   4.989 -12.661  0.00  0.00     0.154 A 
ATOM      9  N   UNL d   1       7.131   4.186 -12.948  0.00  0.00    -0.312 N 
ATOM     10  C   UNL d   1       5.823   4.187 -12.321  0.00  0.00     0.132 C 
ATOM     11  C   UNL d   1       7.560   3.363 -13.985  0.00  0.00     0.079 A 
ATOM     12  C   UNL d   1       8.900   3.769 -14.240  0.00  0.00     0.099 A 
ATOM     13  C   UNL d   1       6.948   2.338 -14.726  0.00  0.00     0.019 A 
ATOM     14  N   UNL d   1       9.280   4.798 -13.404  0.00  0.00    -0.229 NA
ATOM     15  C   UNL d   1       9.613   3.112 -15.269  0.00  0.00     0.021 A 
ATOM     16  C   UNL d   1       9.003   2.083 -16.017  0.00  0.00     0.002 A 
ATOM     17  C   UNL d   1       7.673   1.697 -15.750  0.00  0.00     0.002 A 
ENDBRANCH   7   8
ENDBRANCH   1   7
BRANCH   4  18
ATOM     18  C   UNL d   1      10.943   7.547  -7.178  0.00  0.00     0.056 A 
ATOM     19  C   UNL d   1      11.213   6.800  -6.005  0.00  0.00     0.018 A 
ATOM     20  C   UNL d   1      11.463   7.441  -4.785  0.00  0.00     0.013 A 
ATOM     21  C   UNL d   1      11.493   8.839  -4.720  0.00  0.00     0.058 A 
ATOM     22  C   UNL d   1      11.236   9.605  -5.874  0.00  0.00     0.013 A 
ATOM     23 CL   UNL d   1      11.877   9.589  -3.221  0.00  0.00    -0.082 Cl
ATOM     24  C   UNL d   1      10.965   8.962  -7.100  0.00  0.00     0.018 A 
ENDBRANCH   4  18
TORSDOF 3
