REMARK  2 active torsions:
REMARK  status: ('A' for Active; 'I' for Inactive)
REMARK    1  A    between atoms: O_2  and  C_3 
REMARK    2  A    between atoms: N_18  and  C_19 
ROOT
ATOM      1  C   UNL d   1       9.213   0.442 -18.572  0.00  0.00     0.090 A 
ATOM      2  C   UNL d   1      10.443   1.082 -18.194  0.00  0.00     0.000 A 
ATOM      3  C   UNL d   1      11.738   0.956 -18.991  0.00  0.00     0.033 C 
ATOM      4  C   UNL d   1      10.495   1.845 -17.006  0.00  0.00    -0.003 A 
ATOM      5  C   UNL d   1       9.373   1.929 -16.185  0.00  0.00    -0.004 A 
ATOM      6  C   UNL d   1       8.181   1.244 -16.532  0.00  0.00    -0.018 A 
ATOM      7  C   UNL d   1       8.070   0.504 -17.734  0.00  0.00     0.018 A 
ATOM      8  C   UNL d   1       6.730  -0.149 -18.006  0.00  0.00    -0.001 A 
ATOM      9  C   UNL d   1       6.280  -0.510 -19.308  0.00  0.00    -0.000 A 
ATOM     10  C   UNL d   1       4.984  -1.037 -19.548  0.00  0.00    -0.000 A 
ATOM     11  C   UNL d   1       4.094  -1.288 -18.512  0.00  0.00    -0.004 A 
ATOM     12  C   UNL d   1       4.475  -0.968 -17.212  0.00  0.00    -0.022 A 
ATOM     13  C   UNL d   1       5.772  -0.381 -16.992  0.00  0.00     0.005 A 
ATOM     14  C   UNL d   1       6.194  -0.002 -15.558  0.00  0.00     0.245 C 
ATOM     15  C   UNL d   1       7.059   1.282 -15.540  0.00  0.00     0.064 C 
ATOM     16  N   UNL d   1       5.088   0.098 -14.581  0.00  0.00     0.138 N 
ATOM     17  C   UNL d   1       4.365  -1.171 -14.652  0.00  0.00     0.255 C 
ATOM     18  C   UNL d   1       3.609  -1.178 -15.980  0.00  0.00     0.061 C 
ENDROOT
BRANCH  16  19
ATOM     19  C   UNL d   1       5.445   0.367 -13.180  0.00  0.00     0.220 C 
ATOM     20  C   UNL d   1       5.483   1.887 -12.793  0.00  0.00     0.035 C 
ATOM     21  C   UNL d   1       6.635  -0.471 -12.698  0.00  0.00     0.035 C 
ENDBRANCH  16  19
BRANCH   1  22
ATOM     22  O   UNL d   1       9.182  -0.305 -19.727  0.00  0.00    -0.328 OA
ATOM     23  C   UNL d   1       9.097   0.421 -20.950  0.00  0.00     0.181 C 
ENDBRANCH   1  22
TORSDOF 2
