REMARK  5 active torsions:
REMARK  status: ('A' for Active; 'I' for Inactive)
REMARK    1  A    between atoms: C_3  and  C_4 
REMARK    2  A    between atoms: C_3  and  C_18 
REMARK    3  A    between atoms: C_4  and  C_5 
REMARK    4  A    between atoms: C_5  and  N_6 
REMARK    5  A    between atoms: N_9  and  C_10 
ROOT
ATOM      1  N   UNL d   1       9.393   6.755  -8.292  0.00  0.00     0.141 N 
ATOM      2  C   UNL d   1      10.473   6.025  -7.637  0.00  0.00     0.274 C 
ATOM      3  C   UNL d   1      11.541   6.959  -7.095  0.00  0.00     0.138 C 
ATOM      4  N   UNL d   1      10.960   7.934  -6.196  0.00  0.00    -0.330 N 
ATOM      5  C   UNL d   1       9.795   8.635  -6.721  0.00  0.00     0.138 C 
ATOM      6  C   UNL d   1       8.767   7.623  -7.269  0.00  0.00     0.274 C 
ENDROOT
BRANCH   1   7
ATOM      7  C   UNL d   1       8.398   5.801  -8.802  0.00  0.00     0.257 C 
BRANCH   7   8
ATOM      8  C   UNL d   1       8.886   4.824  -9.911  0.00  0.00     0.084 C 
BRANCH   8   9
ATOM      9  C   UNL d   1       8.951   5.467 -11.287  0.00  0.00     0.090 C 
ATOM     10  N   UNL d   1       9.443   6.628 -11.428  0.00  0.00    -0.101 NA
ATOM     11  O   UNL d   1       9.464   7.011 -12.789  0.00  0.00    -0.061 OA
BRANCH   9  12
ATOM     12  C   UNL d   1       8.482   4.606 -12.391  0.00  0.00     0.016 A 
ATOM     13  C   UNL d   1       7.101   4.399 -12.598  0.00  0.00     0.001 A 
ATOM     14  C   UNL d   1       6.660   3.532 -13.619  0.00  0.00     0.000 A 
ATOM     15  C   UNL d   1       7.596   2.860 -14.429  0.00  0.00     0.000 A 
ATOM     16  C   UNL d   1       8.975   3.064 -14.230  0.00  0.00     0.000 A 
ATOM     17  C   UNL d   1       9.417   3.934 -13.214  0.00  0.00     0.001 A 
ENDBRANCH   9  12
ENDBRANCH   8   9
ENDBRANCH   7   8
ENDBRANCH   1   7
BRANCH   4  18
ATOM     18  C   UNL d   1      11.411   8.092  -4.889  0.00  0.00     0.140 A 
ATOM     19  N   UNL d   1      11.419   9.344  -4.383  0.00  0.00    -0.227 NA
ATOM     20  C   UNL d   1      11.894   9.526  -3.138  0.00  0.00     0.101 A 
ATOM     21  C   UNL d   1      12.371   8.479  -2.332  0.00  0.00     0.021 A 
ATOM     22  C   UNL d   1      12.338   7.171  -2.836  0.00  0.00     0.005 A 
ATOM     23  C   UNL d   1      11.855   6.972  -4.137  0.00  0.00     0.037 A 
ENDBRANCH   4  18
TORSDOF 5
