REMARK  6 active torsions:
REMARK  status: ('A' for Active; 'I' for Inactive)
REMARK    1  A    between atoms: O_2  and  C_3 
REMARK    2  A    between atoms: C_8  and  C_9 
REMARK    3  A    between atoms: N_14  and  C_15 
REMARK    4  A    between atoms: C_15  and  C_16 
REMARK    5  A    between atoms: C_16  and  N_17 
REMARK    6  A    between atoms: N_20  and  C_21 
ROOT
ATOM      1  C   UNL d   1      11.529   1.514 -18.136  0.00  0.00     0.085 A 
ATOM      2  C   UNL d   1      11.630   2.715 -17.470  0.00  0.00     0.027 A 
ATOM      3  C   UNL d   1      10.532   2.808 -16.555  0.00  0.00     0.094 A 
ATOM      4  C   UNL d   1      10.042   3.786 -15.564  0.00  0.00     0.267 A 
ATOM      5  O   UNL d   1      10.655   4.843 -15.399  0.00  0.00    -0.267 OA
ATOM      6  N   UNL d   1       8.905   3.446 -14.870  0.00  0.00    -0.245 N 
ATOM      7  C   UNL d   1       8.219   2.269 -15.058  0.00  0.00     0.354 A 
ATOM      8  O   UNL d   1       7.196   1.984 -14.439  0.00  0.00    -0.244 OA
ATOM      9  N   UNL d   1       8.695   1.413 -15.991  0.00  0.00    -0.173 NA
ATOM     10  C   UNL d   1       9.818   1.670 -16.701  0.00  0.00     0.172 A 
ATOM     11  N   UNL d   1      10.412   0.865 -17.632  0.00  0.00    -0.226 NA
ENDROOT
BRANCH   6  12
ATOM     12  C   UNL d   1       8.381   4.413 -13.897  0.00  0.00     0.149 C 
BRANCH  12  13
ATOM     13  C   UNL d   1       8.967   4.133 -12.496  0.00  0.00     0.275 C 
BRANCH  13  14
ATOM     14  N   UNL d   1       8.723   5.236 -11.581  0.00  0.00     0.143 N 
ATOM     15  C   UNL d   1       9.640   6.327 -11.926  0.00  0.00     0.274 C 
ATOM     16  C   UNL d   1       9.526   7.526 -11.012  0.00  0.00     0.137 C 
ATOM     17  N   UNL d   1       9.719   7.081  -9.632  0.00  0.00    -0.344 N 
ATOM     18  C   UNL d   1       8.879   5.973  -9.213  0.00  0.00     0.137 C 
ATOM     19  C   UNL d   1       9.011   4.818 -10.197  0.00  0.00     0.274 C 
BRANCH  17  20
ATOM     20  C   UNL d   1      10.547   7.774  -8.750  0.00  0.00     0.067 A 
ATOM     21  C   UNL d   1      10.191   8.159  -7.426  0.00  0.00     0.073 A 
ATOM     22  C   UNL d   1      11.047   8.861  -6.585  0.00  0.00     0.013 A 
ATOM     23 CL   UNL d   1       8.658   7.829  -6.798  0.00  0.00    -0.081 Cl
ATOM     24  C   UNL d   1      12.318   9.184  -7.041  0.00  0.00     0.001 A 
ATOM     25  C   UNL d   1      12.726   8.778  -8.322  0.00  0.00     0.002 A 
ATOM     26  C   UNL d   1      11.848   8.112  -9.186  0.00  0.00     0.018 A 
ENDBRANCH  17  20
ENDBRANCH  13  14
ENDBRANCH  12  13
ENDBRANCH   6  12
BRANCH   1  27
ATOM     27  C   UNL d   1      12.359   0.885 -19.170  0.00  0.00     0.040 A 
ATOM     28  C   UNL d   1      11.811   0.018 -20.153  0.00  0.00     0.096 A 
ATOM     29  C   UNL d   1      12.670  -0.567 -21.119  0.00  0.00     0.024 A 
ATOM     30  C   UNL d   1      14.053  -0.312 -21.105  0.00  0.00     0.002 A 
ATOM     31  C   UNL d   1      14.593   0.549 -20.138  0.00  0.00     0.000 A 
ATOM     32  C   UNL d   1      13.745   1.160 -19.197  0.00  0.00     0.004 A 
BRANCH  28  33
ATOM     33  O   UNL d   1      10.451  -0.220 -20.129  0.00  0.00    -0.328 OA
ATOM     34  C   UNL d   1       9.836  -0.843 -21.241  0.00  0.00     0.181 C 
ENDBRANCH  28  33
ENDBRANCH   1  27
TORSDOF 6
