REMARK  0 active torsions:
REMARK  status: ('A' for Active; 'I' for Inactive)
ROOT
ATOM      1  O   UNL d   1       8.796   7.084 -12.142  0.00  0.00    -0.191 OA
ATOM      2  C   UNL d   1       9.094   6.526 -10.933  0.00  0.00     0.127 A 
ATOM      3  C   UNL d   1       8.636   5.230 -10.674  0.00  0.00     0.027 A 
ATOM      4  C   UNL d   1       8.874   4.663  -9.418  0.00  0.00     0.002 A 
ATOM      5  C   UNL d   1       9.589   5.367  -8.450  0.00  0.00    -0.004 A 
ATOM      6  C   UNL d   1      10.045   6.673  -8.670  0.00  0.00    -0.022 A 
ATOM      7  C   UNL d   1       9.805   7.253  -9.940  0.00  0.00    -0.001 A 
ATOM      8  C   UNL d   1      10.252   8.674 -10.225  0.00  0.00     0.030 C 
ATOM      9  C   UNL d   1      11.312   9.188  -9.254  0.00  0.00     0.041 C 
ATOM     10  C   UNL d   1      10.899   8.920  -7.800  0.00  0.00     0.261 C 
ATOM     11  N   UNL d   1      11.830   9.524  -6.847  0.00  0.00     0.337 N 
ATOM     12  C   UNL d   1      11.359   9.363  -5.481  0.00  0.00     0.290 C 
ATOM     13  C   UNL d   1      11.229   7.873  -5.143  0.00  0.00     0.038 C 
ATOM     14  C   UNL d   1      10.294   7.170  -6.137  0.00  0.00     0.009 C 
ATOM     15  C   UNL d   1      10.820   7.402  -7.572  0.00  0.00     0.056 C 
ENDROOT
TORSDOF 0
