REMARK  4 active torsions:
REMARK  status: ('A' for Active; 'I' for Inactive)
REMARK    1  A    between atoms: O_2  and  C_3 
REMARK    2  A    between atoms: C_7  and  C_8 
REMARK    3  A    between atoms: C_8  and  N_9 
REMARK    4  A    between atoms: C_12  and  C_13 
ROOT
ATOM      1  N   UNL d   1       8.146   4.724 -12.216  0.00  0.00     0.146 N 
ATOM      2  C   UNL d   1       8.483   6.027 -12.806  0.00  0.00     0.277 C 
ATOM      3  C   UNL d   1       9.313   6.876 -11.869  0.00  0.00     0.005 C 
ATOM      4  C   UNL d   1       9.441   6.644 -10.543  0.00  0.00    -0.021 C 
ATOM      5  C   UNL d   1       8.694   5.471  -9.938  0.00  0.00     0.061 C 
ATOM      6  C   UNL d   1       7.614   4.919 -10.871  0.00  0.00     0.256 C 
ENDROOT
BRANCH   1   7
ATOM      7  C   UNL d   1       7.189   3.993 -13.034  0.00  0.00     0.277 C 
BRANCH   7   8
ATOM      8  C   UNL d   1       7.824   3.172 -14.155  0.00  0.00     0.013 A 
ATOM      9  C   UNL d   1       9.070   3.538 -14.734  0.00  0.00    -0.002 A 
ATOM     10  C   UNL d   1       9.583   2.791 -15.804  0.00  0.00     0.002 A 
ATOM     11  C   UNL d   1       8.911   1.650 -16.281  0.00  0.00     0.024 A 
ATOM     12  C   UNL d   1       7.698   1.239 -15.687  0.00  0.00     0.094 A 
ATOM     13  C   UNL d   1       7.150   2.013 -14.623  0.00  0.00     0.022 A 
BRANCH  12  14
ATOM     14  O   UNL d   1       7.120   0.094 -16.196  0.00  0.00    -0.328 OA
ATOM     15  C   UNL d   1       5.939  -0.391 -15.576  0.00  0.00     0.181 C 
ENDBRANCH  12  14
ENDBRANCH   7   8
ENDBRANCH   1   7
BRANCH   4  16
ATOM     16  C   UNL d   1      10.282   7.508  -9.705  0.00  0.00     0.016 A 
ATOM     17  C   UNL d   1      10.376   7.514  -8.270  0.00  0.00     0.019 A 
ATOM     18  C   UNL d   1      11.316   8.541  -7.922  0.00  0.00     0.081 A 
ATOM     19  C   UNL d   1       9.795   6.790  -7.193  0.00  0.00     0.002 A 
ATOM     20  N   UNL d   1      11.741   9.091  -9.123  0.00  0.00    -0.244 NA
ATOM     21  C   UNL d   1      11.668   8.832  -6.594  0.00  0.00     0.019 A 
ATOM     22  C   UNL d   1      11.108   8.495 -10.184  0.00  0.00     0.099 A 
ATOM     23  C   UNL d   1      11.073   8.089  -5.552  0.00  0.00     0.002 A 
ATOM     24  C   UNL d   1      10.142   7.079  -5.862  0.00  0.00     0.000 A 
ENDBRANCH   4  16
TORSDOF 4
