REMARK  8 active torsions:
REMARK  status: ('A' for Active; 'I' for Inactive)
REMARK    1  A    between atoms: S_2  and  N_4 
REMARK    2  A    between atoms: S_2  and  C_24 
REMARK    3  A    between atoms: N_4  and  C_5 
REMARK    4  A    between atoms: C_5  and  C_6 
REMARK    5  A    between atoms: C_6  and  C_7 
REMARK    6  A    between atoms: C_7  and  C_8 
REMARK    7  A    between atoms: C_8  and  N_9 
REMARK    8  A    between atoms: N_12  and  C_13 
ROOT
ATOM      1  C   UNL d   1       9.227   4.242 -12.446  0.00  0.00     0.037 C 
ENDROOT
BRANCH   1   2
ATOM      2  C   UNL d   1       8.720   5.205 -11.355  0.00  0.00     0.029 C 
BRANCH   2   3
ATOM      3  C   UNL d   1       9.881   5.797 -10.536  0.00  0.00     0.139 C 
BRANCH   3   4
ATOM      4  N   UNL d   1       9.468   6.933  -9.743  0.00  0.00    -0.184 NA
BRANCH   4   5
ATOM      5  S   UNL d   1      10.409   8.354  -9.474  0.00  0.00     0.287 S 
ATOM      6  O   UNL d   1      11.716   8.306 -10.145  0.00  0.00    -0.198 OA
ATOM      7  O   UNL d   1       9.518   9.497  -9.631  0.00  0.00    -0.198 OA
BRANCH   5   8
ATOM      8  C   UNL d   1      10.821   8.211  -7.779  0.00  0.00     0.134 A 
ATOM      9  S   UNL d   1      11.363   9.613  -6.918  0.00  0.00    -0.074 SA
ATOM     10  C   UNL d   1      11.563   8.690  -5.460  0.00  0.00     0.031 A 
ATOM     11  C   UNL d   1      11.222   7.322  -5.684  0.00  0.00     0.007 A 
ATOM     12  C   UNL d   1      12.005   9.143  -4.213  0.00  0.00     0.018 A 
ATOM     13  C   UNL d   1      10.789   7.060  -7.035  0.00  0.00     0.020 A 
ATOM     14  C   UNL d   1      11.356   6.469  -4.577  0.00  0.00     0.001 A 
ATOM     15  C   UNL d   1      11.830   6.888  -3.329  0.00  0.00     0.011 A 
ATOM     16  C   UNL d   1      12.149   8.238  -3.157  0.00  0.00     0.058 A 
ATOM     17 CL   UNL d   1      12.669   8.784  -1.646  0.00  0.00    -0.082 Cl
ENDBRANCH   5   8
ENDBRANCH   4   5
ENDBRANCH   3   4
ENDBRANCH   2   3
ENDBRANCH   1   2
BRANCH   1  18
ATOM     18  C   UNL d   1       8.094   3.692 -13.339  0.00  0.00     0.251 C 
BRANCH  18  19
ATOM     19  N   UNL d   1       8.537   2.534 -14.113  0.00  0.00     0.141 N 
ATOM     20  C   UNL d   1       9.377   2.934 -15.255  0.00  0.00     0.274 C 
ATOM     21  C   UNL d   1       9.844   1.699 -16.063  0.00  0.00     0.138 C 
ATOM     22  N   UNL d   1       8.687   0.903 -16.435  0.00  0.00    -0.328 N 
ATOM     23  C   UNL d   1       7.833   0.492 -15.338  0.00  0.00     0.138 C 
ATOM     24  C   UNL d   1       7.369   1.777 -14.608  0.00  0.00     0.274 C 
BRANCH  22  25
ATOM     25  C   UNL d   1       8.452   0.545 -17.792  0.00  0.00     0.169 A 
ATOM     26  C   UNL d   1       7.203   0.299 -18.431  0.00  0.00     0.061 A 
ATOM     27  C   UNL d   1       7.464  -0.056 -19.752  0.00  0.00     0.128 A 
ATOM     28  C   UNL d   1       5.855   0.382 -17.985  0.00  0.00     0.005 A 
ATOM     29  O   UNL d   1       8.841   0.022 -19.904  0.00  0.00    -0.210 OA
ATOM     30  C   UNL d   1       6.443  -0.376 -20.688  0.00  0.00     0.027 A 
ATOM     31  N   UNL d   1       9.445   0.408 -18.671  0.00  0.00    -0.109 NA
ATOM     32  C   UNL d   1       5.109  -0.354 -20.216  0.00  0.00     0.002 A 
ATOM     33  C   UNL d   1       4.828   0.007 -18.884  0.00  0.00     0.000 A 
ENDBRANCH  22  25
ENDBRANCH  18  19
ENDBRANCH   1  18
TORSDOF 8
