REMARK  4 active torsions:
REMARK  status: ('A' for Active; 'I' for Inactive)
REMARK    1  A    between atoms: O_2  and  C_3 
REMARK    2  A    between atoms: C_8  and  N_9 
REMARK    3  A    between atoms: N_12  and  C_13 
REMARK    4  A    between atoms: C_13  and  C_14 
ROOT
ATOM      1  N   UNL d   1      11.440   7.203  -6.909  0.00  0.00    -0.343 N 
ATOM      2  C   UNL d   1      10.706   6.044  -7.360  0.00  0.00     0.137 C 
ATOM      3  C   UNL d   1       9.830   6.477  -8.534  0.00  0.00     0.275 C 
ATOM      4  N   UNL d   1      10.650   7.059  -9.612  0.00  0.00     0.147 N 
ATOM      5  C   UNL d   1      11.355   8.247  -9.116  0.00  0.00     0.275 C 
ATOM      6  C   UNL d   1      12.253   7.869  -7.928  0.00  0.00     0.137 C 
ENDROOT
BRANCH   4   7
ATOM      7  C   UNL d   1       9.807   7.418 -10.743  0.00  0.00     0.297 C 
BRANCH   7   8
ATOM      8  C   UNL d   1       9.142   6.333 -11.544  0.00  0.00     0.112 A 
ATOM      9  N   UNL d   1       9.847   5.542 -12.444  0.00  0.00    -0.229 NA
ATOM     10  C   UNL d   1       8.963   4.685 -12.951  0.00  0.00     0.148 A 
ATOM     11  N   UNL d   1       7.679   4.922 -12.405  0.00  0.00    -0.288 N 
ATOM     12  C   UNL d   1       9.086   3.650 -13.903  0.00  0.00     0.037 A 
ATOM     13  C   UNL d   1       7.829   5.962 -11.521  0.00  0.00     0.098 A 
ATOM     14  C   UNL d   1       6.576   4.200 -12.761  0.00  0.00     0.082 A 
ATOM     15  C   UNL d   1       6.711   3.196 -13.689  0.00  0.00     0.019 A 
ATOM     16  C   UNL d   1       7.978   2.914 -14.264  0.00  0.00     0.005 A 
ENDBRANCH   7   8
ENDBRANCH   4   7
BRANCH   1  17
ATOM     17  C   UNL d   1      11.449   7.624  -5.559  0.00  0.00     0.079 A 
ATOM     18  C   UNL d   1      11.371   8.987  -5.228  0.00  0.00     0.110 A 
ATOM     19  C   UNL d   1      11.527   9.396  -3.874  0.00  0.00     0.026 A 
ATOM     20  C   UNL d   1      11.816   8.465  -2.868  0.00  0.00     0.002 A 
ATOM     21  C   UNL d   1      11.894   7.109  -3.187  0.00  0.00     0.002 A 
ATOM     22  C   UNL d   1      11.732   6.694  -4.532  0.00  0.00     0.019 A 
BRANCH  18  23
ATOM     23  O   UNL d   1      11.037   9.842  -6.235  0.00  0.00    -0.327 OA
ATOM     24  C   UNL d   1      11.752  11.037  -6.198  0.00  0.00     0.181 C 
ENDBRANCH  18  23
ENDBRANCH   1  17
TORSDOF 4
