REMARK  4 active torsions:
REMARK  status: ('A' for Active; 'I' for Inactive)
REMARK    1  A    between atoms: C_3  and  C_4 
REMARK    2  A    between atoms: N_15  and  C_16 
REMARK    3  A    between atoms: C_16  and  C_17 
REMARK    4  A    between atoms: C_17  and  C_18 
ROOT
ATOM      1  O   UNL d   1       9.256   3.896 -14.877  0.00  0.00    -0.289 OA
ATOM      2  C   UNL d   1       8.309   3.823 -14.049  0.00  0.00     0.200 A 
ATOM      3  C   UNL d   1       7.117   2.977 -14.139  0.00  0.00     0.061 A 
ATOM      4  C   UNL d   1       6.421   3.288 -13.027  0.00  0.00     0.119 A 
ATOM      5  O   UNL d   1       7.005   4.198 -12.188  0.00  0.00    -0.326 OA
ATOM      6  C   UNL d   1       8.253   4.599 -12.753  0.00  0.00     0.157 A 
ATOM      7  C   UNL d   1       8.268   6.116 -12.902  0.00  0.00     0.071 C 
ATOM      8  C   UNL d   1       8.290   6.782 -11.528  0.00  0.00     0.253 C 
ATOM      9  N   UNL d   1       9.482   6.381 -10.771  0.00  0.00     0.138 N 
ATOM     10  C   UNL d   1       9.412   4.939 -10.534  0.00  0.00     0.253 C 
ATOM     11  C   UNL d   1       9.449   4.212 -11.880  0.00  0.00     0.071 C 
ENDROOT
BRANCH   3  12
ATOM     12  C   UNL d   1       6.805   1.923 -15.124  0.00  0.00     0.005 A 
ATOM     13  C   UNL d   1       7.354   1.968 -16.433  0.00  0.00     0.000 A 
ATOM     14  C   UNL d   1       6.960   1.012 -17.390  0.00  0.00     0.000 A 
ATOM     15  C   UNL d   1       6.039   0.005 -17.047  0.00  0.00     0.000 A 
ATOM     16  C   UNL d   1       5.506  -0.050 -15.747  0.00  0.00     0.000 A 
ATOM     17  C   UNL d   1       5.897   0.901 -14.787  0.00  0.00     0.000 A 
ENDBRANCH   3  12
BRANCH   9  18
ATOM     18  C   UNL d   1       9.498   7.102  -9.499  0.00  0.00     0.255 C 
BRANCH  18  19
ATOM     19  C   UNL d   1      10.855   6.939  -8.792  0.00  0.00     0.062 C 
BRANCH  19  20
ATOM     20  C   UNL d   1      10.958   7.774  -7.535  0.00  0.00    -0.020 A 
ATOM     21  C   UNL d   1      11.024   9.176  -7.631  0.00  0.00    -0.004 A 
ATOM     22  C   UNL d   1      11.116   9.962  -6.465  0.00  0.00    -0.000 A 
ATOM     23  C   UNL d   1      11.147   9.345  -5.202  0.00  0.00    -0.000 A 
ATOM     24  C   UNL d   1      11.094   7.941  -5.106  0.00  0.00    -0.000 A 
ATOM     25  C   UNL d   1      10.996   7.155  -6.269  0.00  0.00    -0.004 A 
ENDBRANCH  19  20
ENDBRANCH  18  19
ENDBRANCH   9  18
TORSDOF 4
