REMARK  2 active torsions:
REMARK  status: ('A' for Active; 'I' for Inactive)
REMARK    1  A    between atoms: O_2  and  C_3 
REMARK    2  A    between atoms: C_12  and  N_13 
ROOT
ATOM      1  C   UNL d   1       6.540   0.392 -15.000  0.00  0.00     0.119 A 
ATOM      2  C   UNL d   1       5.778   1.167 -14.108  0.00  0.00     0.022 A 
ATOM      3  C   UNL d   1       6.261   2.393 -13.642  0.00  0.00    -0.020 A 
ATOM      4  C   UNL d   1       7.548   2.818 -14.055  0.00  0.00     0.007 A 
ATOM      5  C   UNL d   1       8.366   2.094 -14.963  0.00  0.00     0.025 A 
ATOM      6  C   UNL d   1       7.820   0.846 -15.379  0.00  0.00     0.153 A 
ATOM      7  O   UNL d   1       8.551  -0.011 -16.145  0.00  0.00    -0.188 OA
ATOM      8  C   UNL d   1       9.704   2.602 -15.363  0.00  0.00    -0.001 A 
ATOM      9  C   UNL d   1      10.335   2.271 -16.588  0.00  0.00     0.023 A 
ATOM     10  C   UNL d   1      11.622   2.755 -16.918  0.00  0.00     0.127 A 
ATOM     11  C   UNL d   1      12.281   3.607 -16.008  0.00  0.00     0.023 A 
ATOM     12  C   UNL d   1      11.662   3.974 -14.803  0.00  0.00    -0.003 A 
ATOM     13  C   UNL d   1      10.377   3.488 -14.494  0.00  0.00    -0.020 A 
ATOM     14  C   UNL d   1       9.669   3.964 -13.244  0.00  0.00     0.064 C 
ATOM     15  C   UNL d   1       8.147   4.126 -13.494  0.00  0.00     0.246 C 
ATOM     16  N   UNL d   1       7.490   4.638 -12.283  0.00  0.00     0.142 N 
ATOM     17  C   UNL d   1       7.931   5.984 -11.925  0.00  0.00     0.286 C 
ATOM     18  C   UNL d   1       6.060   4.701 -12.538  0.00  0.00     0.255 C 
ATOM     19  C   UNL d   1       5.542   3.270 -12.626  0.00  0.00     0.061 C 
ENDROOT
BRANCH  10  20
ATOM     20  N   UNL d   1      12.265   2.383 -18.195  0.00  0.00    -0.114 N 
ATOM     21  O   UNL d   1      13.382   2.833 -18.436  0.00  0.00    -0.532 OA
ATOM     22  O   UNL d   1      11.655   1.642 -18.960  0.00  0.00    -0.532 OA
ENDBRANCH  10  20
BRANCH   1  23
ATOM     23  O   UNL d   1       6.097  -0.804 -15.527  0.00  0.00    -0.326 OA
ATOM     24  C   UNL d   1       4.814  -1.292 -15.149  0.00  0.00     0.181 C 
ENDBRANCH   1  23
TORSDOF 2
