REMARK  2 active torsions:
REMARK  status: ('A' for Active; 'I' for Inactive)
REMARK    1  A    between atoms: N_13  and  C_14 
REMARK    2  A    between atoms: C_14  and  C_15 
ROOT
ATOM      1  N   UNL d   1      12.394   1.956 -21.667  0.00  0.00    -0.191 NA
ATOM      2  C   UNL d   1      12.214   2.246 -20.563  0.00  0.00     0.101 C 
ATOM      3  C   UNL d   1      11.989   2.611 -19.174  0.00  0.00     0.070 A 
ATOM      4  C   UNL d   1      12.395   3.875 -18.702  0.00  0.00     0.010 A 
ATOM      5  C   UNL d   1      12.188   4.221 -17.353  0.00  0.00    -0.002 A 
ATOM      6  C   UNL d   1      11.564   3.309 -16.476  0.00  0.00     0.002 A 
ATOM      7  C   UNL d   1      11.141   2.045 -16.953  0.00  0.00     0.091 A 
ATOM      8  C   UNL d   1      11.367   1.697 -18.300  0.00  0.00     0.034 A 
ATOM      9  O   UNL d   1      10.523   1.128 -16.136  0.00  0.00    -0.331 OA
ATOM     10  C   UNL d   1       9.784   1.691 -15.062  0.00  0.00     0.151 C 
ATOM     11  C   UNL d   1      10.661   2.607 -14.195  0.00  0.00     0.070 C 
ATOM     12  C   UNL d   1       9.830   3.437 -13.208  0.00  0.00     0.254 C 
ATOM     13  N   UNL d   1      10.333   4.804 -13.312  0.00  0.00     0.142 N 
ATOM     14  C   UNL d   1      10.630   4.940 -14.730  0.00  0.00     0.255 C 
ATOM     15  C   UNL d   1      11.410   3.656 -15.008  0.00  0.00     0.062 C 
ENDROOT
BRANCH  13  16
ATOM     16  C   UNL d   1       9.369   5.791 -12.821  0.00  0.00     0.277 C 
BRANCH  16  17
ATOM     17  C   UNL d   1       9.306   5.881 -11.300  0.00  0.00     0.011 A 
ATOM     18  C   UNL d   1       9.859   6.994 -10.632  0.00  0.00    -0.002 A 
ATOM     19  C   UNL d   1       9.835   7.073  -9.225  0.00  0.00    -0.000 A 
ATOM     20  C   UNL d   1       9.237   6.040  -8.473  0.00  0.00    -0.000 A 
ATOM     21  C   UNL d   1       8.676   4.929  -9.134  0.00  0.00    -0.000 A 
ATOM     22  C   UNL d   1       8.695   4.860 -10.541  0.00  0.00    -0.002 A 
ENDBRANCH  16  17
ENDBRANCH  13  16
TORSDOF 2
