REMARK  4 active torsions:
REMARK  status: ('A' for Active; 'I' for Inactive)
REMARK    1  A    between atoms: C_2  and  C_3 
REMARK       I    between atoms: C_2  and  N_18 
REMARK    2  A    between atoms: C_3  and  N_4 
REMARK    3  A    between atoms: N_7  and  C_8 
REMARK    4  A    between atoms: C_8  and  C_9 
ROOT
ATOM      1  N   UNL d   1       9.305   4.995 -13.147  0.00  0.00     0.151 N 
ATOM      2  C   UNL d   1       9.503   4.673 -11.743  0.00  0.00     0.286 C 
ATOM      3  C   UNL d   1       9.955   5.903 -10.944  0.00  0.00     0.286 C 
ATOM      4  N   UNL d   1       9.078   7.045 -11.033  0.00  0.00     0.146 N 
ATOM      5  C   UNL d   1       8.834   7.337 -12.445  0.00  0.00     0.286 C 
ATOM      6  C   UNL d   1       8.341   6.090 -13.228  0.00  0.00     0.286 C 
ENDROOT
BRANCH   1   7
ATOM      7  C   UNL d   1       8.882   3.845 -13.945  0.00  0.00     0.337 C 
BRANCH   7   8
ATOM      8  C   UNL d   1      10.000   2.867 -14.364  0.00  0.00     0.268 C 
ATOM      9  O   UNL d   1      11.179   3.153 -14.076  0.00  0.00    -0.270 OA
ATOM     10  N   UNL d   1       9.675   1.759 -15.053  0.00  0.00    -0.320 N 
ATOM     11  C   UNL d   1       8.313   1.487 -15.578  0.00  0.00     0.084 C 
ATOM     12  C   UNL d   1      10.688   0.728 -15.374  0.00  0.00     0.104 C 
ATOM     13  C   UNL d   1       8.364   1.135 -17.093  0.00  0.00     0.021 C 
ATOM     14  C   UNL d   1       7.593   0.423 -14.730  0.00  0.00     0.022 C 
ATOM     15  C   UNL d   1       9.378   0.035 -17.406  0.00  0.00     0.004 C 
ATOM     16  C   UNL d   1       6.947   0.834 -17.609  0.00  0.00     0.002 C 
ATOM     17  C   UNL d   1      10.757   0.419 -16.872  0.00  0.00     0.024 C 
ATOM     18  C   UNL d   1       6.217  -0.215 -16.756  0.00  0.00     0.000 C 
ATOM     19  C   UNL d   1       6.183   0.179 -15.273  0.00  0.00     0.002 C 
ENDBRANCH   7   8
ENDBRANCH   1   7
BRANCH   4  20
ATOM     20  C   UNL d   1       9.559   8.259 -10.315  0.00  0.00     0.277 C 
BRANCH  20  21
ATOM     21  C   UNL d   1       9.949   8.023  -8.849  0.00  0.00     0.011 A 
ATOM     22  C   UNL d   1      11.156   7.348  -8.579  0.00  0.00    -0.002 A 
ATOM     23  C   UNL d   1      11.502   6.975  -7.263  0.00  0.00     0.011 A 
ATOM     24  C   UNL d   1      10.737   7.380  -6.181  0.00  0.00     0.058 A 
ATOM     25  C   UNL d   1       9.556   8.109  -6.433  0.00  0.00     0.011 A 
ATOM     26 CL   UNL d   1      11.307   6.976  -4.585  0.00  0.00    -0.082 Cl
ATOM     27  C   UNL d   1       9.165   8.435  -7.764  0.00  0.00    -0.002 A 
ENDBRANCH  20  21
ENDBRANCH   4  20
TORSDOF 4
