REMARK  7 active torsions:
REMARK  status: ('A' for Active; 'I' for Inactive)
REMARK    1  A    between atoms: C_6  and  S_7 
REMARK    2  A    between atoms: S_7  and  N_10 
REMARK    3  A    between atoms: N_10  and  C_11 
REMARK    4  A    between atoms: C_11  and  C_12 
REMARK    5  A    between atoms: C_12  and  C_13 
REMARK    6  A    between atoms: C_13  and  N_14 
REMARK    7  A    between atoms: C_17  and  C_18 
ROOT
ATOM      1  N   UNL d   1       8.671   6.284 -11.800  0.00  0.00     0.137 N 
ATOM      2  C   UNL d   1       9.502   5.399 -12.607  0.00  0.00     0.251 C 
ATOM      3  C   UNL d   1       8.785   4.062 -12.835  0.00  0.00     0.041 C 
ATOM      4  C   UNL d   1       7.431   4.270 -13.521  0.00  0.00     0.047 C 
ATOM      5  C   UNL d   1       6.613   5.305 -12.728  0.00  0.00     0.041 C 
ATOM      6  C   UNL d   1       7.426   6.585 -12.501  0.00  0.00     0.251 C 
ENDROOT
BRANCH   1   7
ATOM      7  C   UNL d   1       9.376   7.525 -11.475  0.00  0.00     0.252 C 
BRANCH   7   8
ATOM      8  C   UNL d   1      10.184   7.344 -10.185  0.00  0.00     0.062 C 
BRANCH   8   9
ATOM      9  C   UNL d   1      10.501   8.687  -9.481  0.00  0.00     0.141 C 
BRANCH   9  10
ATOM     10  N   UNL d   1      11.134   8.496  -8.169  0.00  0.00    -0.185 NA
BRANCH  10  11
ATOM     11  S   UNL d   1      10.454   7.366  -7.053  0.00  0.00     0.281 S 
ATOM     12  O   UNL d   1      11.055   6.059  -7.341  0.00  0.00    -0.199 OA
ATOM     13  O   UNL d   1       8.997   7.552  -7.042  0.00  0.00    -0.199 OA
BRANCH  11  14
ATOM     14  C   UNL d   1      11.055   7.921  -5.486  0.00  0.00     0.105 A 
ATOM     15  C   UNL d   1      11.036   9.296  -5.202  0.00  0.00     0.013 A 
ATOM     16  C   UNL d   1      11.465   9.735  -3.936  0.00  0.00     0.000 A 
ATOM     17  C   UNL d   1      11.944   8.811  -2.990  0.00  0.00    -0.004 A 
ATOM     18  C   UNL d   1      11.962   7.431  -3.289  0.00  0.00    -0.021 A 
ATOM     19  C   UNL d   1      12.452   6.439  -2.263  0.00  0.00     0.031 C 
ATOM     20  C   UNL d   1      11.502   6.983  -4.541  0.00  0.00     0.009 A 
ENDBRANCH  11  14
ENDBRANCH  10  11
ENDBRANCH   9  10
ENDBRANCH   8   9
ENDBRANCH   7   8
ENDBRANCH   1   7
BRANCH   4  21
ATOM     21  C   UNL d   1       6.657   2.975 -13.729  0.00  0.00     0.087 A 
ATOM     22  C   UNL d   1       6.737   2.005 -14.756  0.00  0.00     0.041 A 
ATOM     23  C   UNL d   1       5.878   0.941 -14.453  0.00  0.00     0.129 A 
ATOM     24  C   UNL d   1       7.495   1.963 -15.946  0.00  0.00     0.006 A 
ATOM     25  O   UNL d   1       5.305   1.264 -13.239  0.00  0.00    -0.211 OA
ATOM     26  C   UNL d   1       5.698  -0.165 -15.295  0.00  0.00     0.057 A 
ATOM     27  N   UNL d   1       5.779   2.540 -12.820  0.00  0.00    -0.131 NA
ATOM     28  C   UNL d   1       6.430  -0.192 -16.498  0.00  0.00     0.142 A 
ATOM     29  F   UNL d   1       6.261  -1.221 -17.369  0.00  0.00    -0.204 F 
ATOM     30  C   UNL d   1       7.334   0.856 -16.817  0.00  0.00     0.030 A 
ENDBRANCH   4  21
TORSDOF 7
