REMARK  9 active torsions:
REMARK  status: ('A' for Active; 'I' for Inactive)
REMARK    1  A    between atoms: C_4  and  O_5 
REMARK    2  A    between atoms: O_5  and  C_6 
REMARK    3  A    between atoms: C_6  and  C_7 
REMARK    4  A    between atoms: C_7  and  C_8 
REMARK    5  A    between atoms: C_8  and  N_9 
REMARK    6  A    between atoms: N_9  and  C_10 
REMARK    7  A    between atoms: C_10  and  C_11 
REMARK    8  A    between atoms: C_11  and  O_12 
REMARK    9  A    between atoms: O_12  and  C_13 
ROOT
ATOM      1  C   UNL d   1       9.576   6.146  -9.339  0.00  0.00     0.293 C 
ENDROOT
BRANCH   1   2
ATOM      2  C   UNL d   1       9.839   7.442  -8.554  0.00  0.00     0.071 C 
BRANCH   2   3
ATOM      3  C   UNL d   1      10.434   7.139  -7.186  0.00  0.00     0.151 C 
BRANCH   3   4
ATOM      4  O   UNL d   1      10.723   8.318  -6.447  0.00  0.00    -0.331 OA
BRANCH   4   5
ATOM      5  C   UNL d   1      11.227   8.158  -5.173  0.00  0.00     0.094 A 
ATOM      6  C   UNL d   1      11.474   6.880  -4.590  0.00  0.00     0.024 A 
ATOM      7  C   UNL d   1      11.986   6.785  -3.282  0.00  0.00     0.002 A 
ATOM      8  C   UNL d   1      12.260   7.944  -2.534  0.00  0.00     0.000 A 
ATOM      9  C   UNL d   1      12.021   9.202  -3.109  0.00  0.00     0.002 A 
ATOM     10  C   UNL d   1      11.507   9.308  -4.417  0.00  0.00     0.024 A 
ENDBRANCH   4   5
ENDBRANCH   3   4
ENDBRANCH   2   3
ENDBRANCH   1   2
BRANCH   1  11
ATOM     11  N   UNL d   1       9.075   6.517 -10.650  0.00  0.00     0.342 N 
BRANCH  11  12
ATOM     12  C   UNL d   1       8.902   5.336 -11.484  0.00  0.00     0.323 C 
BRANCH  12  13
ATOM     13  C   UNL d   1       8.395   5.749 -12.874  0.00  0.00     0.187 C 
BRANCH  13  14
ATOM     14  O   UNL d   1       8.425   4.627 -13.764  0.00  0.00    -0.329 OA
BRANCH  14  15
ATOM     15  C   UNL d   1       7.484   3.619 -13.640  0.00  0.00     0.094 A 
ATOM     16  C   UNL d   1       7.636   2.441 -14.414  0.00  0.00     0.024 A 
ATOM     17  C   UNL d   1       6.707   1.386 -14.355  0.00  0.00     0.002 A 
ATOM     18  C   UNL d   1       5.593   1.498 -13.497  0.00  0.00     0.000 A 
ATOM     19  C   UNL d   1       5.454   2.663 -12.721  0.00  0.00     0.002 A 
ATOM     20  C   UNL d   1       6.364   3.725 -12.772  0.00  0.00     0.024 A 
ENDBRANCH  14  15
ENDBRANCH  13  14
ENDBRANCH  12  13
ENDBRANCH  11  12
ENDBRANCH   1  11
TORSDOF 9
