REMARK  7 active torsions:
REMARK  status: ('A' for Active; 'I' for Inactive)
REMARK       I    between atoms: C_2  and  N_3 
REMARK    1  A    between atoms: C_2  and  C_23 
REMARK    2  A    between atoms: N_3  and  C_4 
REMARK    3  A    between atoms: C_4  and  C_5 
REMARK    4  A    between atoms: C_5  and  C_6 
REMARK    5  A    between atoms: C_6  and  C_8 
REMARK    6  A    between atoms: C_8  and  N_9 
REMARK    7  A    between atoms: N_12  and  C_13 
ROOT
ATOM      1  C   UNL d   1       7.973   6.142 -11.688  0.00  0.00     0.188 C 
ATOM      2  O   UNL d   1       7.865   7.486 -12.094  0.00  0.00    -0.221 OA
ENDROOT
BRANCH   1   3
ATOM      3  C   UNL d   1       8.725   6.070 -10.351  0.00  0.00     0.061 C 
BRANCH   3   4
ATOM      4  C   UNL d   1      10.000   6.933 -10.318  0.00  0.00     0.132 C 
BRANCH   4   5
ATOM      5  N   UNL d   1      10.338   7.278  -8.951  0.00  0.00    -0.234 NA
ATOM      6  C   UNL d   1      10.834   8.464  -8.570  0.00  0.00     0.276 C 
ATOM      7  O   UNL d   1      11.070   9.392  -9.341  0.00  0.00    -0.266 OA
BRANCH   6   8
ATOM      8  C   UNL d   1      11.075   8.612  -7.100  0.00  0.00     0.077 A 
ATOM      9  C   UNL d   1      11.227   7.489  -6.260  0.00  0.00     0.008 A 
ATOM     10  C   UNL d   1      11.484   7.701  -4.894  0.00  0.00     0.018 A 
ATOM     11  C   UNL d   1      11.596   9.027  -4.405  0.00  0.00     0.081 A 
ATOM     12  C   UNL d   1      11.671   6.601  -4.044  0.00  0.00     0.002 A 
ATOM     13  N   UNL d   1      11.440  10.093  -5.213  0.00  0.00    -0.244 NA
ATOM     14  C   UNL d   1      11.869   9.211  -3.036  0.00  0.00     0.019 A 
ATOM     15  C   UNL d   1      11.200   9.891  -6.519  0.00  0.00     0.104 A 
ATOM     16  C   UNL d   1      12.042   8.109  -2.179  0.00  0.00     0.002 A 
ATOM     17  C   UNL d   1      11.938   6.802  -2.680  0.00  0.00     0.000 A 
ENDBRANCH   6   8
ENDBRANCH   4   5
ENDBRANCH   3   4
ENDBRANCH   1   3
BRANCH   1  18
ATOM     18  C   UNL d   1       8.661   5.379 -12.840  0.00  0.00     0.283 C 
BRANCH  18  19
ATOM     19  N   UNL d   1       8.200   4.007 -13.021  0.00  0.00     0.144 N 
ATOM     20  C   UNL d   1       9.050   3.318 -14.006  0.00  0.00     0.274 C 
ATOM     21  C   UNL d   1       8.616   1.860 -14.230  0.00  0.00     0.137 C 
ATOM     22  N   UNL d   1       7.196   1.811 -14.562  0.00  0.00    -0.344 N 
ATOM     23  C   UNL d   1       6.307   2.538 -13.659  0.00  0.00     0.137 C 
ATOM     24  C   UNL d   1       6.804   3.972 -13.490  0.00  0.00     0.274 C 
BRANCH  22  25
ATOM     25  C   UNL d   1       6.735   1.093 -15.671  0.00  0.00     0.068 A 
ATOM     26  C   UNL d   1       5.650   0.177 -15.575  0.00  0.00     0.084 A 
ATOM     27  C   UNL d   1       5.213  -0.501 -16.732  0.00  0.00     0.070 A 
ATOM     28 CL   UNL d   1       4.848  -0.149 -14.071  0.00  0.00    -0.080 Cl
ATOM     29  C   UNL d   1       5.851  -0.295 -17.970  0.00  0.00     0.012 A 
ATOM     30 CL   UNL d   1       3.888  -1.603 -16.653  0.00  0.00    -0.081 Cl
ATOM     31  C   UNL d   1       6.928   0.599 -18.066  0.00  0.00     0.002 A 
ATOM     32  C   UNL d   1       7.364   1.288 -16.924  0.00  0.00     0.018 A 
ENDBRANCH  22  25
ENDBRANCH  18  19
ENDBRANCH   1  18
TORSDOF 7
