REMARK  6 active torsions:
REMARK  status: ('A' for Active; 'I' for Inactive)
REMARK    1  A    between atoms: C_3  and  S_4 
REMARK    2  A    between atoms: S_4  and  C_5 
REMARK    3  A    between atoms: C_5  and  C_6 
REMARK    4  A    between atoms: C_6  and  C_7 
REMARK    5  A    between atoms: C_7  and  N_8 
REMARK    6  A    between atoms: C_16  and  C_17 
ROOT
ATOM      1  C   UNL d   1       7.531   1.757 -15.007  0.00  0.00     0.134 C 
ATOM      2  N   UNL d   1       8.825   2.303 -14.589  0.00  0.00    -0.289 N 
ATOM      3  C   UNL d   1      10.034   1.822 -14.903  0.00  0.00     0.193 A 
ATOM      4  N   UNL d   1      11.044   2.580 -14.471  0.00  0.00    -0.122 NA
ATOM      5  N   UNL d   1      10.450   3.616 -13.798  0.00  0.00    -0.128 NA
ATOM      6  C   UNL d   1       9.118   3.398 -13.852  0.00  0.00     0.167 A 
ENDROOT
BRANCH   3   7
ATOM      7  S   UNL d   1      10.242   0.350 -15.842  0.00  0.00    -0.075 SA
BRANCH   7   8
ATOM      8  C   UNL d   1      10.501   1.091 -17.489  0.00  0.00     0.067 C 
BRANCH   8   9
ATOM      9  C   UNL d   1       9.229   1.718 -18.079  0.00  0.00     0.047 C 
BRANCH   9  10
ATOM     10  C   UNL d   1       8.166   0.638 -18.445  0.00  0.00     0.251 C 
BRANCH  10  11
ATOM     11  N   UNL d   1       7.202   1.195 -19.381  0.00  0.00     0.137 N 
ATOM     12  C   UNL d   1       7.774   1.045 -20.724  0.00  0.00     0.250 C 
ATOM     13  C   UNL d   1       6.829   1.590 -21.797  0.00  0.00     0.035 C 
ATOM     14  C   UNL d   1       5.478   0.867 -21.739  0.00  0.00     0.004 C 
ATOM     15  C   UNL d   1       4.919   0.956 -20.317  0.00  0.00     0.035 C 
ATOM     16  C   UNL d   1       5.946   0.445 -19.293  0.00  0.00     0.250 C 
ENDBRANCH  10  11
ENDBRANCH   9  10
ENDBRANCH   8   9
ENDBRANCH   7   8
ENDBRANCH   3   7
BRANCH   6  17
ATOM     17  C   UNL d   1       8.149   4.314 -13.230  0.00  0.00     0.036 A 
ATOM     18  C   UNL d   1       6.835   3.890 -12.871  0.00  0.00     0.003 A 
ATOM     19  C   UNL d   1       5.890   4.793 -12.384  0.00  0.00     0.000 A 
ATOM     20  C   UNL d   1       6.245   6.132 -12.133  0.00  0.00     0.000 A 
ATOM     21  C   UNL d   1       7.559   6.563 -12.441  0.00  0.00     0.000 A 
ATOM     22  C   UNL d   1       8.493   5.667 -12.999  0.00  0.00     0.003 A 
ENDBRANCH   6  17
TORSDOF 6
