REMARK  3 active torsions:
REMARK  status: ('A' for Active; 'I' for Inactive)
REMARK    1  A    between atoms: C_2  and  C_3 
REMARK    2  A    between atoms: C_3  and  N_4 
REMARK    3  A    between atoms: C_12  and  O_13 
ROOT
ATOM      1  N   UNL d   1      11.698   3.698 -15.588  0.00  0.00     0.140 N 
ATOM      2  C   UNL d   1      11.212   5.050 -15.436  0.00  0.00     0.251 C 
ATOM      3  C   UNL d   1       9.853   4.948 -14.718  0.00  0.00     0.042 C 
ATOM      4  C   UNL d   1       9.757   3.465 -14.401  0.00  0.00     0.055 C 
ATOM      5  C   UNL d   1       8.376   2.857 -14.214  0.00  0.00    -0.023 A 
ATOM      6  C   UNL d   1       7.336   3.615 -13.637  0.00  0.00    -0.004 A 
ATOM      7  C   UNL d   1       6.082   3.027 -13.413  0.00  0.00     0.002 A 
ATOM      8  C   UNL d   1       5.867   1.687 -13.749  0.00  0.00     0.024 A 
ATOM      9  C   UNL d   1       6.883   0.909 -14.343  0.00  0.00     0.090 A 
ATOM     10  C   UNL d   1       8.158   1.496 -14.568  0.00  0.00    -0.004 A 
ATOM     11  C   UNL d   1       9.284   0.666 -15.213  0.00  0.00     0.030 C 
ATOM     12  C   UNL d   1      10.675   1.351 -15.303  0.00  0.00     0.038 C 
ATOM     13  C   UNL d   1      10.524   2.866 -15.567  0.00  0.00     0.224 C 
ENDROOT
BRANCH   1  14
ATOM     14  C   UNL d   1      12.516   3.533 -16.803  0.00  0.00     0.276 C 
BRANCH  14  15
ATOM     15  C   UNL d   1      13.663   4.528 -16.908  0.00  0.00     0.009 C 
ATOM     16  C   UNL d   1      13.971   5.222 -18.018  0.00  0.00    -0.003 C 
ENDBRANCH  14  15
ENDBRANCH   1  14
BRANCH   9  17
ATOM     17  O   UNL d   1       6.710  -0.417 -14.701  0.00  0.00    -0.328 OA
ATOM     18  C   UNL d   1       5.390  -0.956 -14.661  0.00  0.00     0.181 C 
ENDBRANCH   9  17
TORSDOF 3
