REMARK  7 active torsions:
REMARK  status: ('A' for Active; 'I' for Inactive)
REMARK    1  A    between atoms: O_2  and  C_3 
REMARK    2  A    between atoms: C_10  and  C_11 
REMARK    3  A    between atoms: C_11  and  C_12 
REMARK    4  A    between atoms: C_12  and  N_13 
REMARK    5  A    between atoms: N_13  and  C_14 
REMARK    6  A    between atoms: C_14  and  C_15 
REMARK    7  A    between atoms: C_18  and  C_19 
ROOT
ATOM      1  C   UNL d   1       8.576   5.706 -12.503  0.00  0.00     0.295 C 
ENDROOT
BRANCH   1   2
ATOM      2  C   UNL d   1       8.454   4.928 -13.816  0.00  0.00     0.066 C 
BRANCH   2   3
ATOM      3  C   UNL d   1       7.405   3.840 -13.697  0.00  0.00    -0.005 A 
ATOM      4  C   UNL d   1       6.240   3.837 -12.960  0.00  0.00     0.056 A 
ATOM      5  N   UNL d   1       5.562   2.649 -13.172  0.00  0.00    -0.250 NA
ATOM      6  C   UNL d   1       5.650   4.854 -12.040  0.00  0.00     0.052 C 
ATOM      7  C   UNL d   1       6.271   1.847 -14.039  0.00  0.00     0.081 A 
ATOM      8  C   UNL d   1       5.980   0.584 -14.577  0.00  0.00     0.021 A 
ATOM      9  C   UNL d   1       7.442   2.564 -14.379  0.00  0.00     0.017 A 
ATOM     10  C   UNL d   1       6.904   0.007 -15.463  0.00  0.00     0.026 A 
ATOM     11  C   UNL d   1       8.102   0.664 -15.804  0.00  0.00     0.094 A 
ATOM     12  C   UNL d   1       8.358   1.940 -15.261  0.00  0.00     0.025 A 
BRANCH  11  13
ATOM     13  O   UNL d   1       8.961  -0.005 -16.650  0.00  0.00    -0.328 OA
ATOM     14  C   UNL d   1      10.185   0.628 -17.001  0.00  0.00     0.181 C 
ENDBRANCH  11  13
ENDBRANCH   2   3
ENDBRANCH   1   2
BRANCH   1  15
ATOM     15  N   UNL d   1       9.443   6.842 -12.630  0.00  0.00     0.346 N 
BRANCH  15  16
ATOM     16  C   UNL d   1       9.284   7.737 -11.489  0.00  0.00     0.341 C 
BRANCH  16  17
ATOM     17  C   UNL d   1       9.485   7.121 -10.113  0.00  0.00     0.114 A 
ATOM     18  O   UNL d   1      10.060   7.930  -9.175  0.00  0.00    -0.309 OA
ATOM     19  C   UNL d   1      10.139   7.195  -8.026  0.00  0.00     0.100 A 
ATOM     20  C   UNL d   1       9.659   5.943  -8.237  0.00  0.00     0.026 A 
ATOM     21  C   UNL d   1       9.203   5.908  -9.565  0.00  0.00     0.024 A 
BRANCH  19  22
ATOM     22  C   UNL d   1      10.708   7.828  -6.847  0.00  0.00     0.023 A 
ATOM     23  C   UNL d   1      10.939   7.053  -5.686  0.00  0.00     0.004 A 
ATOM     24  C   UNL d   1      11.493   7.635  -4.540  0.00  0.00     0.028 A 
ATOM     25  C   UNL d   1      11.799   9.002  -4.545  0.00  0.00     0.131 A 
ATOM     26  C   UNL d   1      11.583   9.787  -5.691  0.00  0.00     0.028 A 
ATOM     27  O   UNL d   1      12.276   9.592  -3.425  0.00  0.00    -0.190 OA
ATOM     28  C   UNL d   1      11.037   9.196  -6.846  0.00  0.00     0.004 A 
ENDBRANCH  19  22
ENDBRANCH  16  17
ENDBRANCH  15  16
ENDBRANCH   1  15
TORSDOF 7
