REMARK  6 active torsions:
REMARK  status: ('A' for Active; 'I' for Inactive)
REMARK    1  A    between atoms: C_2  and  C_3 
REMARK    2  A    between atoms: C_2  and  C_20 
REMARK    3  A    between atoms: C_3  and  C_4 
REMARK    4  A    between atoms: C_4  and  C_5 
REMARK    5  A    between atoms: C_5  and  N_6 
REMARK    6  A    between atoms: C_9  and  C_11 
ROOT
ATOM      1  N   UNL d   1       9.853   7.012 -10.293  0.00  0.00     0.137 N 
ATOM      2  C   UNL d   1       9.226   7.555 -11.496  0.00  0.00     0.253 C 
ATOM      3  C   UNL d   1       8.927   6.435 -12.502  0.00  0.00     0.070 C 
ATOM      4  C   UNL d   1       8.058   5.324 -11.910  0.00  0.00     0.149 C 
ATOM      5  O   UNL d   1       6.794   5.928 -11.635  0.00  0.00    -0.221 OA
ATOM      6  C   UNL d   1       8.671   4.852 -10.581  0.00  0.00     0.070 C 
ATOM      7  C   UNL d   1       8.990   6.019  -9.633  0.00  0.00     0.253 C 
ENDROOT
BRANCH   1   8
ATOM      8  C   UNL d   1      10.146   8.128  -9.394  0.00  0.00     0.250 C 
BRANCH   8   9
ATOM      9  C   UNL d   1      11.238   7.712  -8.409  0.00  0.00     0.038 C 
BRANCH   9  10
ATOM     10  C   UNL d   1      11.797   8.885  -7.598  0.00  0.00     0.040 C 
BRANCH  10  11
ATOM     11  C   UNL d   1      10.986   9.314  -6.361  0.00  0.00     0.174 C 
ATOM     12  O   UNL d   1      11.098  10.711  -6.240  0.00  0.00    -0.219 OA
BRANCH  11  13
ATOM     13  C   UNL d   1      11.435   8.617  -5.081  0.00  0.00     0.008 A 
ATOM     14  C   UNL d   1      11.446   7.221  -5.019  0.00  0.00     0.001 A 
ATOM     15  C   UNL d   1      11.864   6.595  -3.856  0.00  0.00     0.029 A 
ATOM     16  C   UNL d   1      12.257   7.294  -2.726  0.00  0.00     0.140 A 
ATOM     17  C   UNL d   1      12.271   8.686  -2.743  0.00  0.00     0.029 A 
ATOM     18  F   UNL d   1      12.662   6.607  -1.643  0.00  0.00    -0.204 F 
ATOM     19  C   UNL d   1      11.849   9.327  -3.927  0.00  0.00     0.001 A 
ENDBRANCH  11  13
ENDBRANCH  10  11
ENDBRANCH   9  10
ENDBRANCH   8   9
ENDBRANCH   1   8
BRANCH   4  20
ATOM     20  C   UNL d   1       7.948   4.137 -12.905  0.00  0.00     0.005 A 
ATOM     21  C   UNL d   1       9.135   3.565 -13.454  0.00  0.00    -0.001 A 
ATOM     22  C   UNL d   1       9.054   2.487 -14.355  0.00  0.00     0.011 A 
ATOM     23  C   UNL d   1       7.806   1.953 -14.706  0.00  0.00     0.058 A 
ATOM     24  C   UNL d   1       6.631   2.498 -14.151  0.00  0.00     0.011 A 
ATOM     25 CL   UNL d   1       7.698   0.618 -15.804  0.00  0.00    -0.082 Cl
ATOM     26  C   UNL d   1       6.709   3.592 -13.257  0.00  0.00    -0.001 A 
ENDBRANCH   4  20
TORSDOF 6
