REMARK  2 active torsions:
REMARK  status: ('A' for Active; 'I' for Inactive)
REMARK    1  A    between atoms: C_4  and  C_5 
REMARK    2  A    between atoms: C_5  and  N_6 
ROOT
ATOM      1  N   UNL d   1      11.252   9.398  -7.064  0.00  0.00     0.141 N 
ATOM      2  C   UNL d   1       9.885   8.863  -6.841  0.00  0.00     0.251 C 
ATOM      3  C   UNL d   1       9.230   8.388  -8.110  0.00  0.00     0.039 C 
ATOM      4  C   UNL d   1      10.104   7.379  -8.875  0.00  0.00     0.022 C 
ATOM      5  C   UNL d   1      10.205   6.011  -8.149  0.00  0.00     0.004 C 
ATOM      6  C   UNL d   1       8.935   5.189  -8.251  0.00  0.00     0.005 C 
ATOM      7  C   UNL d   1       8.649   4.849  -9.699  0.00  0.00     0.026 C 
ATOM      8  C   UNL d   1       8.796   6.022 -10.621  0.00  0.00    -0.026 A 
ATOM      9  C   UNL d   1       8.193   5.960 -11.883  0.00  0.00    -0.005 A 
ATOM     10  C   UNL d   1       8.284   7.042 -12.752  0.00  0.00    -0.000 A 
ATOM     11  C   UNL d   1       8.976   8.208 -12.399  0.00  0.00    -0.000 A 
ATOM     12  C   UNL d   1       9.549   8.276 -11.142  0.00  0.00    -0.005 A 
ATOM     13  C   UNL d   1       9.489   7.208 -10.246  0.00  0.00    -0.027 A 
ATOM     14  C   UNL d   1      11.533   7.952  -9.037  0.00  0.00     0.039 C 
ATOM     15  C   UNL d   1      12.142   8.454  -7.748  0.00  0.00     0.251 C 
ENDROOT
BRANCH   1  16
ATOM     16  C   UNL d   1      11.861   9.870  -5.817  0.00  0.00     0.277 C 
BRANCH  16  17
ATOM     17  C   UNL d   1      11.901   8.868  -4.655  0.00  0.00     0.011 A 
ATOM     18  C   UNL d   1      12.261   9.274  -3.368  0.00  0.00    -0.002 A 
ATOM     19  C   UNL d   1      12.268   8.332  -2.320  0.00  0.00    -0.000 A 
ATOM     20  C   UNL d   1      11.876   6.993  -2.518  0.00  0.00    -0.000 A 
ATOM     21  C   UNL d   1      11.511   6.582  -3.792  0.00  0.00    -0.000 A 
ATOM     22  C   UNL d   1      11.570   7.507  -4.810  0.00  0.00    -0.002 A 
ENDBRANCH  16  17
ENDBRANCH   1  16
TORSDOF 2
