REMARK  6 active torsions:
REMARK  status: ('A' for Active; 'I' for Inactive)
REMARK    1  A    between atoms: S_2  and  C_4 
REMARK    2  A    between atoms: S_2  and  N_14 
REMARK    3  A    between atoms: C_17  and  C_18 
REMARK    4  A    between atoms: C_18  and  C_19 
REMARK    5  A    between atoms: C_19  and  N_20 
REMARK    6  A    between atoms: N_23  and  C_24 
ROOT
ATOM      1  N   UNL d   1       9.553   1.338 -17.100  0.00  0.00    -0.275 N 
ATOM      2  C   UNL d   1       9.589   2.642 -17.783  0.00  0.00     0.113 C 
ATOM      3  C   UNL d   1      11.018   3.207 -17.765  0.00  0.00     0.025 C 
ATOM      4  C   UNL d   1      12.049   2.206 -18.336  0.00  0.00     0.006 C 
ATOM      5  C   UNL d   1      11.950   0.882 -17.554  0.00  0.00     0.025 C 
ATOM      6  C   UNL d   1      10.518   0.330 -17.579  0.00  0.00     0.113 C 
ENDROOT
BRANCH   4   7
ATOM      7  C   UNL d   1      13.487   2.756 -18.280  0.00  0.00     0.035 C 
BRANCH   7   8
ATOM      8  C   UNL d   1      13.734   3.888 -19.291  0.00  0.00     0.250 C 
BRANCH   8   9
ATOM      9  N   UNL d   1      15.101   4.391 -19.188  0.00  0.00     0.141 N 
ATOM     10  C   UNL d   1      15.476   5.064 -20.439  0.00  0.00     0.274 C 
ATOM     11  C   UNL d   1      16.920   5.615 -20.375  0.00  0.00     0.137 C 
ATOM     12  N   UNL d   1      17.078   6.464 -19.201  0.00  0.00    -0.344 N 
ATOM     13  C   UNL d   1      16.594   5.908 -17.942  0.00  0.00     0.137 C 
ATOM     14  C   UNL d   1      15.177   5.359 -18.089  0.00  0.00     0.274 C 
BRANCH  12  15
ATOM     15  C   UNL d   1      17.633   7.757 -19.281  0.00  0.00     0.068 A 
ATOM     16  C   UNL d   1      18.550   8.245 -18.314  0.00  0.00     0.084 A 
ATOM     17  C   UNL d   1      19.066   9.556 -18.414  0.00  0.00     0.070 A 
ATOM     18 CL   UNL d   1      19.057   7.252 -16.992  0.00  0.00    -0.080 Cl
ATOM     19  C   UNL d   1      18.676  10.379 -19.477  0.00  0.00     0.012 A 
ATOM     20 CL   UNL d   1      20.159  10.194 -17.241  0.00  0.00    -0.081 Cl
ATOM     21  C   UNL d   1      17.765   9.913 -20.437  0.00  0.00     0.002 A 
ATOM     22  C   UNL d   1      17.251   8.607 -20.345  0.00  0.00     0.018 A 
ENDBRANCH  12  15
ENDBRANCH   8   9
ENDBRANCH   7   8
ENDBRANCH   4   7
BRANCH   1  23
ATOM     23  S   UNL d   1       8.457   0.995 -15.791  0.00  0.00     0.264 S 
ATOM     24  O   UNL d   1       7.934   2.273 -15.290  0.00  0.00    -0.200 OA
ATOM     25  O   UNL d   1       9.153   0.083 -14.871  0.00  0.00    -0.200 OA
BRANCH  23  26
ATOM     26  C   UNL d   1       7.088   0.091 -16.552  0.00  0.00     0.105 A 
ATOM     27  C   UNL d   1       5.891  -0.179 -15.832  0.00  0.00     0.030 A 
ATOM     28  C   UNL d   1       4.836  -0.923 -16.452  0.00  0.00     0.082 A 
ATOM     29  C   UNL d   1       5.686   0.256 -14.498  0.00  0.00     0.004 A 
ATOM     30  C   UNL d   1       5.005  -1.373 -17.776  0.00  0.00     0.019 A 
ATOM     31  N   UNL d   1       3.682  -1.213 -15.814  0.00  0.00    -0.244 NA
ATOM     32  C   UNL d   1       6.184  -1.099 -18.488  0.00  0.00     0.002 A 
ATOM     33  C   UNL d   1       7.216  -0.364 -17.886  0.00  0.00     0.013 A 
ATOM     34  C   UNL d   1       3.503  -0.775 -14.557  0.00  0.00     0.099 A 
ATOM     35  C   UNL d   1       4.471  -0.037 -13.856  0.00  0.00     0.021 A 
ENDBRANCH  23  26
ENDBRANCH   1  23
TORSDOF 6
