REMARK  1 active torsions:
REMARK  status: ('A' for Active; 'I' for Inactive)
REMARK    1  A    between atoms: O_2  and  C_3 
ROOT
ATOM      1  C   UNL d   1      10.071   1.525 -15.840  0.00  0.00     0.119 A 
ATOM      2  C   UNL d   1      10.055   2.692 -15.049  0.00  0.00     0.022 A 
ATOM      3  C   UNL d   1       8.891   3.068 -14.364  0.00  0.00    -0.020 A 
ATOM      4  C   UNL d   1       7.734   2.257 -14.501  0.00  0.00     0.007 A 
ATOM      5  C   UNL d   1       7.667   1.094 -15.318  0.00  0.00     0.025 A 
ATOM      6  C   UNL d   1       8.899   0.743 -15.942  0.00  0.00     0.153 A 
ATOM      7  O   UNL d   1       9.004  -0.409 -16.657  0.00  0.00    -0.188 OA
ATOM      8  C   UNL d   1       6.404   0.309 -15.445  0.00  0.00    -0.001 A 
ATOM      9  C   UNL d   1       6.074  -0.473 -16.580  0.00  0.00     0.014 A 
ATOM     10  C   UNL d   1       4.874  -1.212 -16.640  0.00  0.00     0.070 A 
ATOM     11  N   UNL d   1       4.567  -1.965 -17.770  0.00  0.00    -0.101 NA
ATOM     12  C   UNL d   1       3.970  -1.172 -15.566  0.00  0.00     0.014 A 
ATOM     13  C   UNL d   1       4.244  -0.354 -14.458  0.00  0.00    -0.003 A 
ATOM     14  C   UNL d   1       5.447   0.391 -14.411  0.00  0.00    -0.020 A 
ATOM     15  C   UNL d   1       5.681   1.369 -13.280  0.00  0.00     0.064 C 
ATOM     16  C   UNL d   1       6.440   2.647 -13.756  0.00  0.00     0.246 C 
ATOM     17  N   UNL d   1       6.631   3.605 -12.656  0.00  0.00     0.142 N 
ATOM     18  C   UNL d   1       5.371   4.106 -12.152  0.00  0.00     0.286 C 
ATOM     19  C   UNL d   1       7.394   4.739 -13.123  0.00  0.00     0.255 C 
ATOM     20  C   UNL d   1       8.803   4.251 -13.407  0.00  0.00     0.061 C 
ENDROOT
BRANCH   1  21
ATOM     21  O   UNL d   1      11.192   1.077 -16.507  0.00  0.00    -0.326 OA
ATOM     22  C   UNL d   1      12.236   2.004 -16.751  0.00  0.00     0.181 C 
ENDBRANCH   1  21
TORSDOF 1
