REMARK  4 active torsions:
REMARK  status: ('A' for Active; 'I' for Inactive)
REMARK    1  A    between atoms: C_2  and  C_3 
REMARK       I    between atoms: C_2  and  N_18 
REMARK    2  A    between atoms: C_3  and  N_4 
REMARK    3  A    between atoms: N_7  and  C_8 
REMARK    4  A    between atoms: C_8  and  C_9 
ROOT
ATOM      1  N   UNL d   1       9.311   4.091 -13.750  0.00  0.00     0.151 N 
ATOM      2  C   UNL d   1      10.284   3.230 -13.139  0.00  0.00     0.286 C 
ATOM      3  C   UNL d   1      11.186   2.491 -14.163  0.00  0.00     0.286 C 
ATOM      4  N   UNL d   1      10.415   1.730 -15.150  0.00  0.00     0.146 N 
ATOM      5  C   UNL d   1       9.466   2.640 -15.754  0.00  0.00     0.286 C 
ATOM      6  C   UNL d   1       8.575   3.273 -14.683  0.00  0.00     0.286 C 
ENDROOT
BRANCH   1   7
ATOM      7  C   UNL d   1       8.393   4.697 -12.777  0.00  0.00     0.337 C 
BRANCH   7   8
ATOM      8  C   UNL d   1       9.010   5.906 -12.055  0.00  0.00     0.272 C 
ATOM      9  O   UNL d   1       9.415   6.808 -12.779  0.00  0.00    -0.270 OA
ATOM     10  N   UNL d   1       9.061   5.944 -10.702  0.00  0.00    -0.297 N 
ATOM     11  C   UNL d   1       9.632   6.939  -9.884  0.00  0.00     0.061 A 
ATOM     12  C   UNL d   1       8.387   4.986  -9.844  0.00  0.00     0.114 A 
ATOM     13  C   UNL d   1       9.440   6.651  -8.531  0.00  0.00    -0.004 A 
ATOM     14  C   UNL d   1      10.295   8.121 -10.251  0.00  0.00     0.047 A 
ATOM     15  C   UNL d   1       8.660   5.383  -8.384  0.00  0.00     0.052 A 
ATOM     16  C   UNL d   1       9.907   7.487  -7.498  0.00  0.00    -0.001 A 
ATOM     17  C   UNL d   1      10.596   8.659  -7.872  0.00  0.00     0.029 A 
ATOM     18  C   UNL d   1      10.789   8.944  -9.241  0.00  0.00     0.142 A 
ATOM     19  F   UNL d   1      11.459  10.014  -9.637  0.00  0.00    -0.204 F 
ENDBRANCH   7   8
ENDBRANCH   1   7
BRANCH   4  20
ATOM     20  C   UNL d   1      11.291   1.095 -16.125  0.00  0.00     0.277 C 
BRANCH  20  21
ATOM     21  C   UNL d   1      10.559   0.456 -17.292  0.00  0.00     0.011 A 
ATOM     22  C   UNL d   1      10.381   1.188 -18.484  0.00  0.00    -0.002 A 
ATOM     23  C   UNL d   1       9.649   0.637 -19.553  0.00  0.00     0.011 A 
ATOM     24  C   UNL d   1       9.099  -0.653 -19.436  0.00  0.00     0.058 A 
ATOM     25  C   UNL d   1       9.274  -1.385 -18.247  0.00  0.00     0.011 A 
ATOM     26 CL   UNL d   1       8.216  -1.337 -20.749  0.00  0.00    -0.082 Cl
ATOM     27  C   UNL d   1       9.998  -0.828 -17.174  0.00  0.00    -0.002 A 
ENDBRANCH  20  21
ENDBRANCH   4  20
TORSDOF 4
