REMARK  8 active torsions:
REMARK  status: ('A' for Active; 'I' for Inactive)
REMARK    1  A    between atoms: O_2  and  C_3 
REMARK    2  A    between atoms: C_8  and  N_9 
REMARK    3  A    between atoms: N_12  and  C_13 
REMARK    4  A    between atoms: C_13  and  C_14 
REMARK    5  A    between atoms: C_14  and  C_15 
REMARK    6  A    between atoms: C_15  and  C_16 
REMARK    7  A    between atoms: C_16  and  N_17 
REMARK       I    between atoms: N_17  and  C_18 
REMARK    8  A    between atoms: C_18  and  C_20 
ROOT
ATOM      1  C   UNL d   1       7.507   5.537 -11.655  0.00  0.00     0.037 C 
ENDROOT
BRANCH   1   2
ATOM      2  C   UNL d   1       8.178   5.012 -12.944  0.00  0.00     0.251 C 
BRANCH   2   3
ATOM      3  N   UNL d   1       7.862   3.612 -13.215  0.00  0.00     0.141 N 
ATOM      4  C   UNL d   1       8.724   3.098 -14.284  0.00  0.00     0.274 C 
ATOM      5  C   UNL d   1       8.475   1.588 -14.494  0.00  0.00     0.137 C 
ATOM      6  N   UNL d   1       7.061   1.339 -14.742  0.00  0.00    -0.343 N 
ATOM      7  C   UNL d   1       6.146   1.910 -13.766  0.00  0.00     0.137 C 
ATOM      8  C   UNL d   1       6.448   3.413 -13.575  0.00  0.00     0.274 C 
BRANCH   6   9
ATOM      9  C   UNL d   1       6.599   0.691 -15.902  0.00  0.00     0.079 A 
ATOM     10  C   UNL d   1       7.129   1.008 -17.180  0.00  0.00     0.110 A 
ATOM     11  C   UNL d   1       6.677   0.281 -18.311  0.00  0.00     0.026 A 
ATOM     12  C   UNL d   1       5.694  -0.717 -18.178  0.00  0.00     0.002 A 
ATOM     13  C   UNL d   1       5.147  -1.004 -16.918  0.00  0.00     0.002 A 
ATOM     14  C   UNL d   1       5.600  -0.299 -15.783  0.00  0.00     0.019 A 
BRANCH  10  15
ATOM     15  O   UNL d   1       8.043   2.039 -17.270  0.00  0.00    -0.327 OA
ATOM     16  C   UNL d   1       8.746   2.228 -18.484  0.00  0.00     0.181 C 
ENDBRANCH  10  15
ENDBRANCH   6   9
ENDBRANCH   2   3
ENDBRANCH   1   2
BRANCH   1  17
ATOM     17  C   UNL d   1       8.454   5.621 -10.451  0.00  0.00     0.029 C 
BRANCH  17  18
ATOM     18  C   UNL d   1       9.468   6.769 -10.564  0.00  0.00     0.129 C 
BRANCH  18  19
ATOM     19  N   UNL d   1       9.954   7.144  -9.244  0.00  0.00    -0.233 NA
ATOM     20  C   UNL d   1      10.639   8.261  -8.970  0.00  0.00     0.293 C 
ATOM     21  O   UNL d   1      10.966   9.083  -9.827  0.00  0.00    -0.264 OA
BRANCH  20  22
ATOM     22  C   UNL d   1      10.927   8.488  -7.511  0.00  0.00     0.139 A 
ATOM     23  N   UNL d   1      11.062   9.765  -7.099  0.00  0.00    -0.239 NA
ATOM     24  C   UNL d   1      11.364  10.020  -5.813  0.00  0.00     0.099 A 
ATOM     25  C   UNL d   1      11.540   9.008  -4.855  0.00  0.00     0.019 A 
ATOM     26  C   UNL d   1      11.392   7.669  -5.282  0.00  0.00     0.003 A 
ATOM     27  C   UNL d   1      11.855   9.300  -3.509  0.00  0.00     0.002 A 
ATOM     28  C   UNL d   1      11.087   7.398  -6.626  0.00  0.00     0.024 A 
ATOM     29  C   UNL d   1      11.567   6.619  -4.365  0.00  0.00     0.000 A 
ATOM     30  C   UNL d   1      11.873   6.906  -3.020  0.00  0.00     0.000 A 
ATOM     31  C   UNL d   1      12.017   8.241  -2.591  0.00  0.00     0.000 A 
ENDBRANCH  20  22
ENDBRANCH  18  19
ENDBRANCH  17  18
ENDBRANCH   1  17
TORSDOF 8
