REMARK  7 active torsions:
REMARK  status: ('A' for Active; 'I' for Inactive)
REMARK    1  A    between atoms: C_2  and  O_4 
REMARK    2  A    between atoms: O_4  and  C_5 
REMARK    3  A    between atoms: C_8  and  S_9 
REMARK    4  A    between atoms: S_9  and  N_12 
REMARK    5  A    between atoms: N_12  and  C_13 
REMARK    6  A    between atoms: N_21  and  C_22 
REMARK    7  A    between atoms: C_22  and  C_23 
ROOT
ATOM      1  C   UNL d   1       8.762   5.448 -11.374  0.00  0.00     0.093 A 
ATOM      2  C   UNL d   1       8.224   4.765 -10.278  0.00  0.00     0.020 A 
ATOM      3  C   UNL d   1       8.654   5.061  -8.976  0.00  0.00    -0.003 A 
ATOM      4  C   UNL d   1       9.627   6.071  -8.745  0.00  0.00    -0.024 A 
ATOM      5  C   UNL d   1      10.191   6.744  -9.860  0.00  0.00    -0.022 A 
ATOM      6  C   UNL d   1       9.730   6.423 -11.154  0.00  0.00     0.015 A 
ATOM      7  C   UNL d   1      11.286   7.793  -9.717  0.00  0.00     0.061 C 
ATOM      8  C   UNL d   1      10.911   8.933  -8.817  0.00  0.00     0.255 C 
ATOM      9  N   UNL d   1      11.093   8.610  -7.414  0.00  0.00     0.144 N 
ATOM     10  C   UNL d   1       9.954   7.856  -6.898  0.00  0.00     0.255 C 
ATOM     11  C   UNL d   1      10.024   6.387  -7.309  0.00  0.00     0.061 C 
ENDROOT
BRANCH   1  12
ATOM     12  N   UNL d   1       8.374   5.200 -12.674  0.00  0.00    -0.158 NA
BRANCH  12  13
ATOM     13  S   UNL d   1       9.266   4.353 -13.883  0.00  0.00     0.285 S 
ATOM     14  O   UNL d   1      10.568   4.012 -13.297  0.00  0.00    -0.198 OA
ATOM     15  O   UNL d   1       9.179   5.149 -15.115  0.00  0.00    -0.198 OA
BRANCH  13  16
ATOM     16  C   UNL d   1       8.300   2.873 -14.114  0.00  0.00     0.105 A 
ATOM     17  C   UNL d   1       8.927   1.670 -14.487  0.00  0.00     0.015 A 
ATOM     18  C   UNL d   1       8.149   0.509 -14.678  0.00  0.00     0.025 A 
ATOM     19  C   UNL d   1       6.752   0.538 -14.507  0.00  0.00     0.094 A 
ATOM     20  C   UNL d   1       6.143   1.752 -14.104  0.00  0.00     0.025 A 
ATOM     21  C   UNL d   1       6.904   2.921 -13.934  0.00  0.00     0.015 A 
BRANCH  19  22
ATOM     22  O   UNL d   1       6.073  -0.642 -14.718  0.00  0.00    -0.333 OA
BRANCH  22  23
ATOM     23  C   UNL d   1       4.790  -0.597 -15.339  0.00  0.00     0.121 C 
ATOM     24  C   UNL d   1       3.671  -0.571 -14.287  0.00  0.00     0.033 C 
ATOM     25  C   UNL d   1       4.665  -1.855 -16.222  0.00  0.00     0.033 C 
ENDBRANCH  22  23
ENDBRANCH  19  22
ENDBRANCH  13  16
ENDBRANCH  12  13
ENDBRANCH   1  12
BRANCH   9  26
ATOM     26  C   UNL d   1      11.181   9.870  -6.706  0.00  0.00     0.297 C 
BRANCH  26  27
ATOM     27  C   UNL d   1      11.581   9.739  -5.280  0.00  0.00     0.116 A 
ATOM     28  N   UNL d   1      10.686   9.989  -4.349  0.00  0.00    -0.150 NA
ATOM     29  N   UNL d   1      11.372   9.781  -3.218  0.00  0.00    -0.147 NA
ATOM     30  C   UNL d   1      12.661   9.382  -3.401  0.00  0.00     0.123 A 
ATOM     31  C   UNL d   1      12.847   9.384  -4.744  0.00  0.00     0.041 A 
ENDBRANCH  26  27
ENDBRANCH   9  26
TORSDOF 7
