REMARK  0 active torsions:
REMARK  status: ('A' for Active; 'I' for Inactive)
ROOT
ATOM      1  C   UNL d   1       5.763  -1.446 -19.785  0.00  0.00     0.033 C 
ATOM      2  C   UNL d   1       5.890  -1.879 -18.322  0.00  0.00     0.126 C 
ATOM      3  C   UNL d   1       4.528  -2.098 -17.621  0.00  0.00     0.058 C 
ATOM      4  C   UNL d   1       4.689  -1.260 -16.403  0.00  0.00     0.003 A 
ATOM      5  C   UNL d   1       3.784  -1.117 -15.343  0.00  0.00    -0.003 A 
ATOM      6  C   UNL d   1       4.133  -0.237 -14.303  0.00  0.00    -0.004 A 
ATOM      7  C   UNL d   1       5.369   0.459 -14.337  0.00  0.00    -0.018 A 
ATOM      8  C   UNL d   1       6.287   0.290 -15.401  0.00  0.00     0.018 A 
ATOM      9  C   UNL d   1       5.896  -0.581 -16.446  0.00  0.00     0.090 A 
ATOM     10  O   UNL d   1       6.588  -0.854 -17.596  0.00  0.00    -0.333 OA
ATOM     11  C   UNL d   1       7.568   1.038 -15.367  0.00  0.00    -0.001 A 
ATOM     12  C   UNL d   1       8.718   0.630 -16.093  0.00  0.00    -0.000 A 
ATOM     13  C   UNL d   1       9.938   1.329 -16.049  0.00  0.00    -0.000 A 
ATOM     14  C   UNL d   1      10.066   2.476 -15.251  0.00  0.00    -0.004 A 
ATOM     15  C   UNL d   1       8.969   2.925 -14.494  0.00  0.00    -0.022 A 
ATOM     16  C   UNL d   1       7.750   2.196 -14.564  0.00  0.00     0.005 A 
ATOM     17  C   UNL d   1       6.514   2.671 -13.768  0.00  0.00     0.246 C 
ATOM     18  C   UNL d   1       5.684   1.461 -13.248  0.00  0.00     0.064 C 
ATOM     19  N   UNL d   1       6.816   3.607 -12.677  0.00  0.00     0.142 N 
ATOM     20  C   UNL d   1       5.639   4.189 -12.052  0.00  0.00     0.286 C 
ATOM     21  C   UNL d   1       7.644   4.686 -13.177  0.00  0.00     0.255 C 
ATOM     22  C   UNL d   1       9.007   4.107 -13.539  0.00  0.00     0.061 C 
ENDROOT
TORSDOF 0
