REMARK  3 active torsions:
REMARK  status: ('A' for Active; 'I' for Inactive)
REMARK    1  A    between atoms: C_11  and  C_12 
REMARK    2  A    between atoms: N_15  and  C_16 
REMARK    3  A    between atoms: C_16  and  C_17 
ROOT
ATOM      1  C   UNL d   1      10.014   7.603  -8.434  0.00  0.00     0.011 C 
ATOM      2  C   UNL d   1       9.723   6.139  -8.918  0.00  0.00     0.036 C 
ATOM      3  C   UNL d   1       8.911   6.062 -10.210  0.00  0.00     0.251 C 
ATOM      4  N   UNL d   1       9.601   6.862 -11.233  0.00  0.00     0.141 N 
ATOM      5  C   UNL d   1       9.765   8.270 -10.850  0.00  0.00     0.251 C 
ATOM      6  C   UNL d   1      10.640   8.386  -9.603  0.00  0.00     0.036 C 
ENDROOT
BRANCH   1   7
ATOM      7  C   UNL d   1      10.935   7.625  -7.167  0.00  0.00     0.062 C 
ATOM      8  C   UNL d   1      10.891   8.918  -6.343  0.00  0.00     0.172 C 
ATOM      9  O   UNL d   1      10.587   9.976  -6.870  0.00  0.00    -0.291 OA
ATOM     10  C   UNL d   1      11.368   8.838  -4.951  0.00  0.00     0.031 A 
ATOM     11  C   UNL d   1      11.773   7.651  -4.326  0.00  0.00    -0.019 A 
ATOM     12  C   UNL d   1      11.378  10.016  -4.238  0.00  0.00     0.003 A 
ATOM     13  C   UNL d   1      12.214   7.641  -2.977  0.00  0.00    -0.004 A 
ATOM     14  C   UNL d   1      11.650   6.383  -5.053  0.00  0.00     0.027 C 
ATOM     15  C   UNL d   1      12.274   8.857  -2.281  0.00  0.00    -0.000 A 
ATOM     16  C   UNL d   1      11.850  10.022  -2.919  0.00  0.00     0.000 A 
ATOM     17  C   UNL d   1      10.702   6.414  -6.256  0.00  0.00     0.012 C 
ENDBRANCH   1   7
BRANCH   4  18
ATOM     18  C   UNL d   1       8.822   6.860 -12.453  0.00  0.00     0.277 C 
BRANCH  18  19
ATOM     19  C   UNL d   1       8.657   5.473 -13.055  0.00  0.00     0.011 A 
ATOM     20  C   UNL d   1       9.779   4.760 -13.534  0.00  0.00    -0.002 A 
ATOM     21  C   UNL d   1       9.617   3.464 -14.057  0.00  0.00    -0.000 A 
ATOM     22  C   UNL d   1       8.338   2.878 -14.102  0.00  0.00    -0.000 A 
ATOM     23  C   UNL d   1       7.221   3.587 -13.617  0.00  0.00    -0.000 A 
ATOM     24  C   UNL d   1       7.380   4.878 -13.085  0.00  0.00    -0.002 A 
ENDBRANCH  18  19
ENDBRANCH   4  18
TORSDOF 3
