REMARK  0 active torsions:
REMARK  status: ('A' for Active; 'I' for Inactive)
ROOT
ATOM      1  C   UNL d   1       3.065  -1.248 -15.138  0.00  0.00     0.285 C 
ATOM      2  N   UNL d   1       4.358  -1.173 -14.482  0.00  0.00     0.140 N 
ATOM      3  C   UNL d   1       4.314  -0.055 -13.547  0.00  0.00     0.255 C 
ATOM      4  C   UNL d   1       5.601   0.367 -12.834  0.00  0.00     0.061 C 
ATOM      5  C   UNL d   1       6.147   1.676 -13.388  0.00  0.00    -0.024 A 
ATOM      6  C   UNL d   1       5.571   2.875 -12.905  0.00  0.00    -0.004 A 
ATOM      7  C   UNL d   1       6.156   4.120 -13.182  0.00  0.00    -0.000 A 
ATOM      8  C   UNL d   1       7.347   4.185 -13.924  0.00  0.00    -0.000 A 
ATOM      9  C   UNL d   1       7.919   3.015 -14.434  0.00  0.00    -0.004 A 
ATOM     10  C   UNL d   1       7.341   1.760 -14.173  0.00  0.00    -0.022 A 
ATOM     11  C   UNL d   1       8.151   0.562 -14.622  0.00  0.00     0.052 C 
ATOM     12  C   UNL d   1       8.196   0.385 -16.137  0.00  0.00    -0.022 A 
ATOM     13  C   UNL d   1       9.457   0.416 -16.776  0.00  0.00    -0.004 A 
ATOM     14  C   UNL d   1       9.551   0.221 -18.166  0.00  0.00    -0.000 A 
ATOM     15  C   UNL d   1       8.390  -0.018 -18.923  0.00  0.00    -0.000 A 
ATOM     16  C   UNL d   1       7.133  -0.059 -18.294  0.00  0.00    -0.004 A 
ATOM     17  C   UNL d   1       7.019   0.139 -16.902  0.00  0.00    -0.024 A 
ATOM     18  C   UNL d   1       5.640   0.060 -16.271  0.00  0.00     0.061 C 
ATOM     19  C   UNL d   1       5.461  -1.212 -15.421  0.00  0.00     0.255 C 
ENDROOT
TORSDOF 0
