REMARK  3 active torsions:
REMARK  status: ('A' for Active; 'I' for Inactive)
REMARK    1  A    between atoms: N_5  and  C_6 
REMARK    2  A    between atoms: C_15  and  C_16 
REMARK    3  A    between atoms: N_20  and  C_21 
ROOT
ATOM      1  C   UNL d   1       8.050   0.871 -16.373  0.00  0.00     0.169 A 
ATOM      2  N   UNL d   1       8.789   1.925 -15.942  0.00  0.00    -0.209 NA
ATOM      3  C   UNL d   1       8.283   2.752 -14.995  0.00  0.00     0.153 A 
ATOM      4  C   UNL d   1       7.018   2.533 -14.406  0.00  0.00     0.076 A 
ATOM      5  C   UNL d   1       6.272   1.418 -14.821  0.00  0.00     0.039 A 
ATOM      6  C   UNL d   1       6.774   0.586 -15.829  0.00  0.00     0.174 A 
ATOM      7  F   UNL d   1       6.004  -0.452 -16.232  0.00  0.00    -0.201 F 
ATOM      8  C   UNL d   1       6.470   3.451 -13.368  0.00  0.00     0.206 A 
ATOM      9  O   UNL d   1       5.372   3.238 -12.848  0.00  0.00    -0.286 OA
ATOM     10  C   UNL d   1       7.326   4.606 -12.998  0.00  0.00     0.121 A 
ATOM     11  C   UNL d   1       8.522   4.734 -13.621  0.00  0.00     0.091 A 
ATOM     12  N   UNL d   1       9.037   3.880 -14.598  0.00  0.00    -0.288 N 
ENDROOT
BRANCH  12  13
ATOM     13  C   UNL d   1      10.278   4.187 -15.175  0.00  0.00     0.093 A 
ATOM     14  C   UNL d   1      10.388   4.544 -16.540  0.00  0.00     0.158 A 
ATOM     15  C   UNL d   1      11.645   4.843 -17.096  0.00  0.00     0.061 A 
ATOM     16  F   UNL d   1       9.290   4.616 -17.329  0.00  0.00    -0.203 F 
ATOM     17  C   UNL d   1      12.798   4.787 -16.295  0.00  0.00     0.142 A 
ATOM     18  C   UNL d   1      12.688   4.434 -14.938  0.00  0.00     0.031 A 
ATOM     19  F   UNL d   1      14.009   5.076 -16.826  0.00  0.00    -0.204 F 
ATOM     20  C   UNL d   1      11.436   4.144 -14.372  0.00  0.00     0.022 A 
ENDBRANCH  12  13
BRANCH  10  21
ATOM     21  C   UNL d   1       6.903   5.633 -12.040  0.00  0.00     0.215 C 
ATOM     22  O   UNL d   1       5.747   5.832 -11.683  0.00  0.00    -0.644 OA
ATOM     23  O   UNL d   1       7.920   6.389 -11.542  0.00  0.00    -0.644 OA
ENDBRANCH  10  21
BRANCH   1  24
ATOM     24  N   UNL d   1       8.603   0.101 -17.419  0.00  0.00    -0.332 N 
ATOM     25  C   UNL d   1       7.813  -0.811 -18.235  0.00  0.00     0.105 A 
ATOM     26  C   UNL d   1       8.762  -1.364 -19.261  0.00  0.00     0.063 A 
ATOM     27  C   UNL d   1       9.443  -0.505 -20.296  0.00  0.00     0.306 A 
ATOM     28  C   UNL d   1      10.128  -0.815 -18.978  0.00  0.00     0.063 A 
ATOM     29  N   UNL d   1       9.932  -1.181 -21.477  0.00  0.00     0.616 N 
ATOM     30  C   UNL d   1      10.021   0.094 -17.771  0.00  0.00     0.105 A 
ENDBRANCH   1  24
TORSDOF 3
