REMARK  4 active torsions:
REMARK  status: ('A' for Active; 'I' for Inactive)
REMARK    1  A    between atoms: C_2  and  O_3 
REMARK    2  A    between atoms: C_2  and  C_13 
REMARK    3  A    between atoms: O_3  and  C_4 
REMARK    4  A    between atoms: C_4  and  C_5 
ROOT
ATOM      1  O   UNL d   1       9.302   5.195  -8.076  0.00  0.00    -0.257 OA
ATOM      2  C   UNL d   1       9.820   6.005  -8.841  0.00  0.00     0.316 C 
ENDROOT
BRANCH   2   3
ATOM      3  O   UNL d   1       9.945   5.874 -10.165  0.00  0.00    -0.297 OA
BRANCH   3   4
ATOM      4  C   UNL d   1       9.413   4.745 -10.816  0.00  0.00     0.154 C 
BRANCH   4   5
ATOM      5  C   UNL d   1       7.970   5.135 -11.143  0.00  0.00     0.064 C 
ATOM      6  C   UNL d   1       7.878   5.867 -12.463  0.00  0.00     0.222 C 
ATOM      7  N   UNL d   1       6.462   5.731 -12.806  0.00  0.00     0.135 N 
ATOM      8  C   UNL d   1       8.195   7.349 -12.404  0.00  0.00     0.035 C 
ATOM      9  C   UNL d   1       5.853   4.635 -12.072  0.00  0.00     0.250 C 
ATOM     10  C   UNL d   1       5.871   6.972 -12.403  0.00  0.00     0.250 C 
ATOM     11  C   UNL d   1       7.041   4.008 -11.426  0.00  0.00     0.040 C 
ATOM     12  C   UNL d   1       6.869   7.981 -12.814  0.00  0.00     0.037 C 
ENDBRANCH   4   5
ENDBRANCH   3   4
ENDBRANCH   2   3
BRANCH   2  13
ATOM     13  C   UNL d   1      10.392   7.259  -8.426  0.00  0.00     0.167 A 
ATOM     14  C   UNL d   1      10.833   7.665  -7.181  0.00  0.00     0.044 A 
ATOM     15  C   UNL d   1      11.231   8.972  -7.352  0.00  0.00     0.105 A 
ATOM     16  C   UNL d   1      10.932   7.025  -5.934  0.00  0.00     0.003 A 
ATOM     17  N   UNL d   1      11.057   9.411  -8.621  0.00  0.00    -0.148 NA
ATOM     18  C   UNL d   1      11.739   9.726  -6.287  0.00  0.00     0.021 A 
ATOM     19  N   UNL d   1      10.568   8.328  -9.287  0.00  0.00    -0.143 NA
ATOM     20  C   UNL d   1      11.850   9.107  -5.022  0.00  0.00     0.002 A 
ATOM     21  C   UNL d   1      11.453   7.753  -4.848  0.00  0.00     0.000 A 
ENDBRANCH   2  13
TORSDOF 4
