REMARK  4 active torsions:
REMARK  status: ('A' for Active; 'I' for Inactive)
REMARK       I    between atoms: C_2  and  N_4 
REMARK    1  A    between atoms: N_4  and  C_5 
REMARK    2  A    between atoms: C_8  and  C_9 
REMARK    3  A    between atoms: C_9  and  C_10 
REMARK    4  A    between atoms: C_10  and  N_11 
ROOT
ATOM      1  N   UNL d   1      10.112   4.478 -12.933  0.00  0.00     0.138 N 
ATOM      2  C   UNL d   1      10.739   4.962 -14.170  0.00  0.00     0.253 C 
ATOM      3  C   UNL d   1       9.957   4.247 -15.258  0.00  0.00     0.070 C 
ATOM      4  C   UNL d   1      10.646   3.829 -16.550  0.00  0.00     0.151 C 
ATOM      5  O   UNL d   1       9.698   3.160 -17.398  0.00  0.00    -0.331 OA
ATOM      6  C   UNL d   1       8.733   2.345 -16.822  0.00  0.00     0.090 A 
ATOM      7  C   UNL d   1       7.872   1.624 -17.666  0.00  0.00     0.025 A 
ATOM      8  C   UNL d   1       6.852   0.813 -17.130  0.00  0.00     0.012 A 
ATOM      9  C   UNL d   1       6.681   0.712 -15.733  0.00  0.00     0.068 A 
ATOM     10  C   UNL d   1       5.628  -0.121 -15.176  0.00  0.00     0.101 C 
ATOM     11  N   UNL d   1       4.788  -0.780 -14.728  0.00  0.00    -0.191 NA
ATOM     12  C   UNL d   1       7.537   1.426 -14.874  0.00  0.00     0.008 A 
ATOM     13  C   UNL d   1       8.553   2.236 -15.421  0.00  0.00     0.003 A 
ATOM     14  C   UNL d   1       9.501   3.005 -14.548  0.00  0.00     0.062 C 
ATOM     15  C   UNL d   1       9.000   3.610 -13.255  0.00  0.00     0.255 C 
ENDROOT
BRANCH   1  16
ATOM     16  C   UNL d   1       9.734   5.537 -12.035  0.00  0.00     0.255 C 
BRANCH  16  17
ATOM     17  C   UNL d   1       9.389   5.085 -10.604  0.00  0.00     0.062 C 
BRANCH  17  18
ATOM     18  C   UNL d   1       9.730   6.131  -9.547  0.00  0.00    -0.020 A 
ATOM     19  C   UNL d   1      10.403   7.341  -9.815  0.00  0.00    -0.003 A 
ATOM     20  C   UNL d   1      10.742   8.217  -8.789  0.00  0.00     0.019 A 
ATOM     21  C   UNL d   1      10.374   7.930  -7.461  0.00  0.00     0.084 A 
ATOM     22  C   UNL d   1       9.600   6.763  -7.181  0.00  0.00     0.019 A 
ATOM     23  C   UNL d   1       9.348   5.844  -8.218  0.00  0.00    -0.003 A 
BRANCH  21  24
ATOM     24  N   UNL d   1      10.739   8.844  -6.447  0.00  0.00    -0.212 NA
ATOM     25  C   UNL d   1      11.223   8.615  -5.217  0.00  0.00     0.256 C 
ATOM     26  C   UNL d   1      11.513   7.212  -4.661  0.00  0.00     0.100 C 
ATOM     27  O   UNL d   1      11.481   9.601  -4.527  0.00  0.00    -0.270 OA
ENDBRANCH  21  24
ENDBRANCH  17  18
ENDBRANCH  16  17
ENDBRANCH   1  16
TORSDOF 4
