REMARK  4 active torsions:
REMARK  status: ('A' for Active; 'I' for Inactive)
REMARK    1  A    between atoms: C_4  and  C_5 
REMARK    2  A    between atoms: C_5  and  N_6 
REMARK    3  A    between atoms: C_9  and  C_10 
REMARK    4  A    between atoms: C_25  and  C_26 
ROOT
ATOM      1  C   UNL d   1       9.486   4.609 -10.669  0.00  0.00     0.251 C 
ENDROOT
BRANCH   1   2
ATOM      2  C   UNL d   1      10.079   5.793  -9.902  0.00  0.00     0.048 C 
ATOM      3  C   UNL d   1       9.302   7.081 -10.169  0.00  0.00     0.072 C 
ATOM      4  C   UNL d   1       9.832   8.281  -9.344  0.00  0.00     0.175 C 
ATOM      5  O   UNL d   1       9.810   9.431  -9.769  0.00  0.00    -0.291 OA
ATOM      6  C   UNL d   1      10.290   8.010  -7.995  0.00  0.00     0.055 A 
ATOM      7  C   UNL d   1      10.437   6.715  -7.619  0.00  0.00     0.080 A 
ATOM      8  C   UNL d   1      10.659   8.809  -6.891  0.00  0.00     0.029 A 
ATOM      9  C   UNL d   1      10.207   5.480  -8.402  0.00  0.00     0.054 C 
ATOM     10  O   UNL d   1      10.873   6.635  -6.342  0.00  0.00    -0.311 OA
ATOM     11  C   UNL d   1      11.007   7.921  -5.909  0.00  0.00     0.100 A 
BRANCH  11  12
ATOM     12  C   UNL d   1      11.471   8.097  -4.546  0.00  0.00     0.023 A 
ATOM     13  C   UNL d   1      11.854   6.981  -3.763  0.00  0.00     0.002 A 
ATOM     14  C   UNL d   1      12.284   7.153  -2.436  0.00  0.00     0.000 A 
ATOM     15  C   UNL d   1      12.362   8.445  -1.899  0.00  0.00     0.000 A 
ATOM     16  C   UNL d   1      11.977   9.551  -2.673  0.00  0.00     0.000 A 
ATOM     17  C   UNL d   1      11.535   9.387  -3.992  0.00  0.00     0.002 A 
ENDBRANCH  11  12
ENDBRANCH   1   2
BRANCH   1  18
ATOM     18  N   UNL d   1       9.516   4.889 -12.108  0.00  0.00     0.137 N 
ATOM     19  C   UNL d   1       8.154   4.758 -12.580  0.00  0.00     0.251 C 
ATOM     20  C   UNL d   1       8.092   4.994 -14.094  0.00  0.00     0.041 C 
ATOM     21  C   UNL d   1       8.972   4.050 -14.926  0.00  0.00     0.047 C 
ATOM     22  C   UNL d   1      10.370   4.167 -14.339  0.00  0.00     0.041 C 
ATOM     23  C   UNL d   1      10.324   3.902 -12.834  0.00  0.00     0.251 C 
BRANCH  21  24
ATOM     24  C   UNL d   1       8.443   2.617 -14.924  0.00  0.00     0.087 A 
ATOM     25  C   UNL d   1       7.244   2.033 -14.396  0.00  0.00     0.041 A 
ATOM     26  C   UNL d   1       7.293   0.648 -14.626  0.00  0.00     0.129 A 
ATOM     27  C   UNL d   1       6.124   2.552 -13.681  0.00  0.00     0.006 A 
ATOM     28  O   UNL d   1       8.472   0.425 -15.310  0.00  0.00    -0.211 OA
ATOM     29  C   UNL d   1       6.274  -0.232 -14.221  0.00  0.00     0.057 A 
ATOM     30  N   UNL d   1       9.161   1.655 -15.513  0.00  0.00    -0.131 NA
ATOM     31  C   UNL d   1       5.151   0.316 -13.567  0.00  0.00     0.142 A 
ATOM     32  F   UNL d   1       4.062  -0.425 -13.299  0.00  0.00    -0.204 F 
ATOM     33  C   UNL d   1       5.122   1.677 -13.240  0.00  0.00     0.030 A 
ENDBRANCH  21  24
ENDBRANCH   1  18
TORSDOF 4
