REMARK  6 active torsions:
REMARK  status: ('A' for Active; 'I' for Inactive)
REMARK    1  A    between atoms: C_2  and  C_3 
REMARK    2  A    between atoms: C_3  and  C_4 
REMARK    3  A    between atoms: C_4  and  C_5 
REMARK    4  A    between atoms: C_8  and  S_9 
REMARK    5  A    between atoms: S_9  and  N_12 
REMARK    6  A    between atoms: N_12  and  C_13 
ROOT
ATOM      1  S   UNL d   1       9.063   6.479 -11.758  0.00  0.00     0.285 S 
ATOM      2  O   UNL d   1       8.701   7.735 -12.429  0.00  0.00    -0.198 OA
ATOM      3  O   UNL d   1      10.053   5.567 -12.349  0.00  0.00    -0.198 OA
ENDROOT
BRANCH   1   4
ATOM      4  C   UNL d   1       9.565   6.822 -10.095  0.00  0.00     0.105 A 
ATOM      5  C   UNL d   1      10.555   7.800  -9.874  0.00  0.00     0.013 A 
ATOM      6  C   UNL d   1      10.987   8.058  -8.560  0.00  0.00    -0.004 A 
ATOM      7  C   UNL d   1      10.395   7.370  -7.475  0.00  0.00    -0.022 A 
ATOM      8  C   UNL d   1       9.409   6.392  -7.713  0.00  0.00    -0.004 A 
ATOM      9  C   UNL d   1       9.016   6.096  -9.026  0.00  0.00     0.013 A 
BRANCH   7  10
ATOM     10  C   UNL d   1      10.814   7.652  -6.047  0.00  0.00     0.026 C 
BRANCH  10  11
ATOM     11  C   UNL d   1      10.854   9.156  -5.725  0.00  0.00     0.005 C 
BRANCH  11  12
ATOM     12  C   UNL d   1      11.307   9.453  -4.294  0.00  0.00     0.000 C 
ATOM     13  C   UNL d   1      12.777   9.094  -4.044  0.00  0.00     0.000 C 
ENDBRANCH  11  12
ENDBRANCH  10  11
ENDBRANCH   7  10
ENDBRANCH   1   4
BRANCH   1  14
ATOM     14  N   UNL d   1       7.610   5.567 -11.614  0.00  0.00    -0.158 NA
BRANCH  14  15
ATOM     15  C   UNL d   1       7.173   4.474 -12.364  0.00  0.00     0.093 A 
ATOM     16  C   UNL d   1       7.972   3.907 -13.396  0.00  0.00     0.017 A 
ATOM     17  C   UNL d   1       7.479   2.790 -14.073  0.00  0.00     0.013 A 
ATOM     18  C   UNL d   1       6.250   2.253 -13.791  0.00  0.00     0.012 A 
ATOM     19  C   UNL d   1       8.144   2.009 -15.155  0.00  0.00     0.317 C 
ATOM     20  C   UNL d   1       5.422   2.799 -12.790  0.00  0.00    -0.001 A 
ATOM     21  C   UNL d   1       6.035   1.083 -14.703  0.00  0.00     0.317 C 
ATOM     22  C   UNL d   1       5.901   3.916 -12.067  0.00  0.00     0.020 A 
ATOM     23  N   UNL d   1       7.082   1.185 -15.735  0.00  0.00     0.349 N 
ENDBRANCH  14  15
ENDBRANCH   1  14
TORSDOF 6
