REMARK  8 active torsions:
REMARK  status: ('A' for Active; 'I' for Inactive)
REMARK    1  A    between atoms: S_2  and  C_3 
REMARK    2  A    between atoms: C_8  and  N_9 
REMARK    3  A    between atoms: N_12  and  C_13 
REMARK    4  A    between atoms: C_13  and  C_14 
REMARK    5  A    between atoms: C_14  and  C_15 
REMARK    6  A    between atoms: C_15  and  C_16 
REMARK    7  A    between atoms: C_16  and  C_17 
REMARK    8  A    between atoms: C_17  and  C_18 
REMARK       I    between atoms: C_18  and  N_20 
ROOT
ATOM      1  C   UNL d   1       6.015   4.699 -12.510  0.00  0.00     0.035 C 
ENDROOT
BRANCH   1   2
ATOM      2  C   UNL d   1       6.653   6.098 -12.289  0.00  0.00     0.250 C 
BRANCH   2   3
ATOM      3  N   UNL d   1       7.999   5.980 -11.726  0.00  0.00     0.141 N 
ATOM      4  C   UNL d   1       7.891   5.558 -10.322  0.00  0.00     0.274 C 
ATOM      5  C   UNL d   1       9.219   5.529  -9.591  0.00  0.00     0.137 C 
ATOM      6  N   UNL d   1       9.849   6.848  -9.694  0.00  0.00    -0.344 N 
ATOM      7  C   UNL d   1       9.942   7.306 -11.094  0.00  0.00     0.137 C 
ATOM      8  C   UNL d   1       8.665   7.277 -11.880  0.00  0.00     0.274 C 
BRANCH   6   9
ATOM      9  C   UNL d   1      10.348   7.508  -8.586  0.00  0.00     0.062 A 
ATOM     10  C   UNL d   1      11.577   8.251  -8.570  0.00  0.00     0.041 A 
ATOM     11  C   UNL d   1      12.036   8.926  -7.441  0.00  0.00     0.008 A 
ATOM     12  C   UNL d   1      11.315   8.890  -6.236  0.00  0.00     0.001 A 
ATOM     13  C   UNL d   1      10.129   8.128  -6.198  0.00  0.00     0.002 A 
ATOM     14  C   UNL d   1       9.642   7.478  -7.346  0.00  0.00     0.017 A 
BRANCH  10  15
ATOM     15  S   UNL d   1      12.523   8.357 -10.021  0.00  0.00    -0.111 SA
ATOM     16  C   UNL d   1      14.222   7.989  -9.681  0.00  0.00     0.074 C 
ENDBRANCH  10  15
ENDBRANCH   6   9
ENDBRANCH   2   3
ENDBRANCH   1   2
BRANCH   1  17
ATOM     17  C   UNL d   1       6.758   3.811 -13.509  0.00  0.00     0.003 C 
BRANCH  17  18
ATOM     18  C   UNL d   1       6.121   2.412 -13.637  0.00  0.00     0.010 C 
BRANCH  18  19
ATOM     19  C   UNL d   1       6.501   1.658 -14.931  0.00  0.00     0.088 C 
BRANCH  19  20
ATOM     20  C   UNL d   1       7.915   1.044 -14.868  0.00  0.00     0.234 C 
ATOM     21  O   UNL d   1       8.080   0.138 -14.039  0.00  0.00    -0.272 OA
ATOM     22  N   UNL d   1       8.943   1.476 -15.626  0.00  0.00    -0.316 N 
ATOM     23  C   UNL d   1       8.804   2.348 -16.809  0.00  0.00     0.131 C 
ATOM     24  C   UNL d   1      10.341   1.079 -15.357  0.00  0.00     0.109 C 
ATOM     25  C   UNL d   1       9.612   1.899 -18.002  0.00  0.00    -0.004 A 
ATOM     26  C   UNL d   1      10.600   0.900 -17.892  0.00  0.00    -0.022 A 
ATOM     27  C   UNL d   1       9.323   2.477 -19.256  0.00  0.00    -0.003 A 
ATOM     28  C   UNL d   1      10.891   0.264 -16.541  0.00  0.00     0.050 C 
ATOM     29  C   UNL d   1      11.324   0.505 -19.034  0.00  0.00    -0.004 A 
ATOM     30  C   UNL d   1      11.048   1.109 -20.280  0.00  0.00    -0.000 A 
ATOM     31  C   UNL d   1      10.040   2.085 -20.396  0.00  0.00    -0.000 A 
ENDBRANCH  19  20
ENDBRANCH  18  19
ENDBRANCH  17  18
ENDBRANCH   1  17
TORSDOF 8
