REMARK  8 active torsions:
REMARK  status: ('A' for Active; 'I' for Inactive)
REMARK    1  A    between atoms: C_2  and  C_3 
REMARK    2  A    between atoms: C_3  and  O_4 
REMARK    3  A    between atoms: O_4  and  N_5 
REMARK    4  A    between atoms: C_6  and  C_7 
REMARK    5  A    between atoms: C_6  and  C_21 
REMARK    6  A    between atoms: C_7  and  C_8 
REMARK    7  A    between atoms: C_8  and  N_9 
REMARK    8  A    between atoms: N_12  and  C_13 
ROOT
ATOM      1  C   UNL d   1       9.118   4.934 -13.652  0.00  0.00     0.083 C 
ENDROOT
BRANCH   1   2
ATOM      2  C   UNL d   1       9.828   4.060 -14.689  0.00  0.00     0.087 C 
ATOM      3  N   UNL d   1       9.575   2.829 -14.863  0.00  0.00    -0.136 NA
BRANCH   3   4
ATOM      4  O   UNL d   1       8.480   2.389 -14.104  0.00  0.00    -0.237 OA
BRANCH   4   5
ATOM      5  C   UNL d   1       8.306   0.995 -14.310  0.00  0.00     0.176 C 
BRANCH   5   6
ATOM      6  C   UNL d   1       7.944   0.656 -15.765  0.00  0.00     0.035 C 
ATOM      7  C   UNL d   1       6.622   1.285 -16.200  0.00  0.00     0.003 C 
ENDBRANCH   5   6
ENDBRANCH   4   5
ENDBRANCH   3   4
BRANCH   2   8
ATOM      8  C   UNL d   1      10.862   4.725 -15.513  0.00  0.00     0.016 A 
ATOM      9  C   UNL d   1      12.232   4.565 -15.213  0.00  0.00     0.001 A 
ATOM     10  C   UNL d   1      13.214   5.186 -16.012  0.00  0.00     0.000 A 
ATOM     11  C   UNL d   1      12.836   5.986 -17.105  0.00  0.00     0.000 A 
ATOM     12  C   UNL d   1      11.474   6.147 -17.416  0.00  0.00     0.000 A 
ATOM     13  C   UNL d   1      10.493   5.516 -16.625  0.00  0.00     0.001 A 
ENDBRANCH   2   8
ENDBRANCH   1   2
BRANCH   1  14
ATOM     14  C   UNL d   1       9.491   4.537 -12.210  0.00  0.00     0.257 C 
BRANCH  14  15
ATOM     15  N   UNL d   1       9.085   5.545 -11.230  0.00  0.00     0.141 N 
ATOM     16  C   UNL d   1      10.003   6.691 -11.237  0.00  0.00     0.274 C 
ATOM     17  C   UNL d   1       9.598   7.779 -10.260  0.00  0.00     0.138 C 
ATOM     18  N   UNL d   1       9.486   7.196  -8.922  0.00  0.00    -0.330 N 
ATOM     19  C   UNL d   1       8.640   6.006  -8.855  0.00  0.00     0.138 C 
ATOM     20  C   UNL d   1       9.092   4.962  -9.886  0.00  0.00     0.274 C 
BRANCH  18  21
ATOM     21  C   UNL d   1      10.137   7.748  -7.798  0.00  0.00     0.140 A 
ATOM     22  N   UNL d   1      10.559   9.032  -7.886  0.00  0.00    -0.227 NA
ATOM     23  C   UNL d   1      11.188   9.592  -6.829  0.00  0.00     0.101 A 
ATOM     24  C   UNL d   1      11.441   8.909  -5.627  0.00  0.00     0.021 A 
ATOM     25  C   UNL d   1      11.017   7.572  -5.529  0.00  0.00     0.005 A 
ATOM     26  C   UNL d   1      10.356   6.990  -6.624  0.00  0.00     0.037 A 
ENDBRANCH  18  21
ENDBRANCH  14  15
ENDBRANCH   1  14
TORSDOF 8
