REMARK  6 active torsions:
REMARK  status: ('A' for Active; 'I' for Inactive)
REMARK    1  A    between atoms: O_2  and  C_3 
REMARK    2  A    between atoms: C_8  and  N_9 
REMARK    3  A    between atoms: N_12  and  C_13 
REMARK    4  A    between atoms: C_13  and  C_14 
REMARK    5  A    between atoms: C_14  and  O_15 
REMARK    6  A    between atoms: O_15  and  C_16 
ROOT
ATOM      1  N   UNL d   1       9.134   3.912 -13.604  0.00  0.00    -0.343 N 
ATOM      2  C   UNL d   1       8.937   5.261 -14.071  0.00  0.00     0.137 C 
ATOM      3  C   UNL d   1       8.489   6.152 -12.887  0.00  0.00     0.274 C 
ATOM      4  N   UNL d   1       9.471   6.072 -11.801  0.00  0.00     0.144 N 
ATOM      5  C   UNL d   1       9.530   4.684 -11.337  0.00  0.00     0.274 C 
ATOM      6  C   UNL d   1      10.029   3.796 -12.481  0.00  0.00     0.137 C 
ENDROOT
BRANCH   4   7
ATOM      7  C   UNL d   1       9.052   6.902 -10.683  0.00  0.00     0.283 C 
BRANCH   7   8
ATOM      8  C   UNL d   1      10.183   7.186  -9.677  0.00  0.00     0.184 C 
BRANCH   8   9
ATOM      9  O   UNL d   1       9.720   6.982  -8.337  0.00  0.00    -0.329 OA
BRANCH   9  10
ATOM     10  C   UNL d   1      10.332   7.713  -7.347  0.00  0.00     0.096 A 
ATOM     11  C   UNL d   1      10.572   9.098  -7.480  0.00  0.00     0.026 A 
ATOM     12  C   UNL d   1      11.228   9.825  -6.468  0.00  0.00     0.025 A 
ATOM     13  C   UNL d   1      11.610   9.142  -5.303  0.00  0.00     0.124 A 
ATOM     14  N   UNL d   1      12.238   9.461  -4.123  0.00  0.00    -0.127 NA
ATOM     15  C   UNL d   1      11.365   7.763  -5.119  0.00  0.00     0.126 A 
ATOM     16  N   UNL d   1      12.370   8.393  -3.296  0.00  0.00    -0.042 NA
ATOM     17  N   UNL d   1      11.861   7.356  -3.888  0.00  0.00    -0.127 NA
ATOM     18  C   UNL d   1      10.699   7.061  -6.151  0.00  0.00     0.047 A 
ENDBRANCH   9  10
ENDBRANCH   8   9
ENDBRANCH   7   8
ENDBRANCH   4   7
BRANCH   1  19
ATOM     19  C   UNL d   1       8.577   2.814 -14.268  0.00  0.00     0.079 A 
ATOM     20  C   UNL d   1       9.377   1.926 -15.029  0.00  0.00     0.110 A 
ATOM     21  C   UNL d   1       8.749   0.823 -15.667  0.00  0.00     0.026 A 
ATOM     22  C   UNL d   1       7.365   0.617 -15.546  0.00  0.00     0.002 A 
ATOM     23  C   UNL d   1       6.584   1.508 -14.794  0.00  0.00     0.002 A 
ATOM     24  C   UNL d   1       7.188   2.614 -14.168  0.00  0.00     0.019 A 
BRANCH  20  25
ATOM     25  O   UNL d   1      10.727   2.188 -15.123  0.00  0.00    -0.327 OA
ATOM     26  C   UNL d   1      11.480   1.452 -16.076  0.00  0.00     0.181 C 
ENDBRANCH  20  25
ENDBRANCH   1  19
TORSDOF 6
