REMARK  8 active torsions:
REMARK  status: ('A' for Active; 'I' for Inactive)
REMARK    1  A    between atoms: C_6  and  C_7 
REMARK    2  A    between atoms: C_10  and  S_11 
REMARK    3  A    between atoms: S_11  and  C_12 
REMARK    4  A    between atoms: C_12  and  C_13 
REMARK    5  A    between atoms: C_13  and  C_14 
REMARK    6  A    between atoms: C_14  and  N_15 
REMARK    7  A    between atoms: C_19  and  C_20 
REMARK    8  A    between atoms: C_23  and  C_24 
ROOT
ATOM      1  N   UNL d   1       9.524   4.007 -14.134  0.00  0.00     0.143 N 
ATOM      2  C   UNL d   1       8.317   3.215 -13.902  0.00  0.00     0.282 C 
ATOM      3  C   UNL d   1       7.169   4.033 -13.292  0.00  0.00     0.178 C 
ATOM      4  O   UNL d   1       7.607   4.636 -12.083  0.00  0.00    -0.348 OA
ATOM      5  C   UNL d   1       8.757   5.460 -12.252  0.00  0.00     0.171 C 
ATOM      6  C   UNL d   1       9.897   4.623 -12.869  0.00  0.00     0.284 C 
ENDROOT
BRANCH   1   7
ATOM      7  C   UNL d   1      10.644   3.200 -14.653  0.00  0.00     0.251 C 
BRANCH   7   8
ATOM      8  C   UNL d   1      10.412   2.672 -16.074  0.00  0.00     0.047 C 
BRANCH   8   9
ATOM      9  C   UNL d   1      11.298   1.485 -16.478  0.00  0.00     0.067 C 
BRANCH   9  10
ATOM     10  S   UNL d   1      11.067   0.988 -18.224  0.00  0.00    -0.075 SA
BRANCH  10  11
ATOM     11  C   UNL d   1       9.297   0.931 -18.322  0.00  0.00     0.193 A 
ATOM     12  N   UNL d   1       8.538   2.017 -18.366  0.00  0.00    -0.122 NA
ATOM     13  N   UNL d   1       7.237   1.549 -18.356  0.00  0.00    -0.127 NA
ATOM     14  C   UNL d   1       7.330   0.218 -18.364  0.00  0.00     0.183 A 
ATOM     15  N   UNL d   1       8.607  -0.226 -18.363  0.00  0.00    -0.288 N 
ATOM     16  C   UNL d   1       9.118  -1.585 -18.435  0.00  0.00     0.134 C 
BRANCH  14  17
ATOM     17  C   UNL d   1       6.156  -0.632 -18.492  0.00  0.00     0.097 A 
ATOM     18  N   UNL d   1       5.249  -0.433 -19.528  0.00  0.00    -0.322 N 
ATOM     19  C   UNL d   1       5.318   0.591 -20.559  0.00  0.00     0.131 C 
ATOM     20  C   UNL d   1       4.259  -1.392 -19.430  0.00  0.00     0.076 A 
ATOM     21  C   UNL d   1       4.532  -2.187 -18.349  0.00  0.00     0.020 A 
ATOM     22  C   UNL d   1       5.738  -1.714 -17.763  0.00  0.00     0.022 A 
ENDBRANCH  14  17
ENDBRANCH  10  11
ENDBRANCH   9  10
ENDBRANCH   8   9
ENDBRANCH   7   8
ENDBRANCH   1   7
BRANCH   5  23
ATOM     23  C   UNL d   1       9.193   6.055 -10.911  0.00  0.00     0.007 A 
ATOM     24  C   UNL d   1       8.966   5.350  -9.720  0.00  0.00    -0.002 A 
ATOM     25  C   UNL d   1       9.377   5.893  -8.489  0.00  0.00     0.004 A 
ATOM     26  C   UNL d   1      10.033   7.141  -8.436  0.00  0.00     0.071 A 
ATOM     27  C   UNL d   1      10.261   7.846  -9.635  0.00  0.00     0.004 A 
ATOM     28  C   UNL d   1       9.846   7.304 -10.869  0.00  0.00    -0.002 A 
BRANCH  26  29
ATOM     29  C   UNL d   1      10.485   7.724  -7.107  0.00  0.00     0.419 C 
ATOM     30  F   UNL d   1       9.458   8.323  -6.507  0.00  0.00    -0.166 F 
ATOM     31  F   UNL d   1      10.950   6.763  -6.306  0.00  0.00    -0.166 F 
ATOM     32  F   UNL d   1      11.460   8.617  -7.279  0.00  0.00    -0.166 F 
ENDBRANCH  26  29
ENDBRANCH   5  23
TORSDOF 8
