REMARK  7 active torsions:
REMARK  status: ('A' for Active; 'I' for Inactive)
REMARK    1  A    between atoms: O_2  and  C_3 
REMARK    2  A    between atoms: C_8  and  N_9 
REMARK    3  A    between atoms: N_12  and  C_13 
REMARK    4  A    between atoms: C_13  and  C_14 
REMARK    5  A    between atoms: C_14  and  C_15 
REMARK    6  A    between atoms: C_15  and  C_16 
REMARK    7  A    between atoms: N_18  and  C_19 
ROOT
ATOM      1  C   UNL d   1       9.281   5.599 -10.978  0.00  0.00     0.042 C 
ENDROOT
BRANCH   1   2
ATOM      2  C   UNL d   1       9.527   6.890 -10.181  0.00  0.00     0.251 C 
BRANCH   2   3
ATOM      3  N   UNL d   1      10.549   6.729  -9.167  0.00  0.00     0.141 N 
ATOM      4  C   UNL d   1       9.929   6.158  -7.958  0.00  0.00     0.274 C 
ATOM      5  C   UNL d   1      10.990   6.004  -6.864  0.00  0.00     0.137 C 
ATOM      6  N   UNL d   1      11.566   7.302  -6.599  0.00  0.00    -0.343 N 
ATOM      7  C   UNL d   1      12.181   7.911  -7.792  0.00  0.00     0.137 C 
ATOM      8  C   UNL d   1      11.084   8.057  -8.856  0.00  0.00     0.274 C 
BRANCH   6   9
ATOM      9  C   UNL d   1      11.647   7.802  -5.289  0.00  0.00     0.079 A 
ATOM     10  C   UNL d   1      11.553   9.192  -5.054  0.00  0.00     0.110 A 
ATOM     11  C   UNL d   1      11.774   9.684  -3.742  0.00  0.00     0.026 A 
ATOM     12  C   UNL d   1      12.075   8.839  -2.668  0.00  0.00     0.002 A 
ATOM     13  C   UNL d   1      12.103   7.453  -2.882  0.00  0.00     0.002 A 
ATOM     14  C   UNL d   1      11.901   6.949  -4.186  0.00  0.00     0.019 A 
BRANCH  10  15
ATOM     15  O   UNL d   1      11.183   9.981  -6.122  0.00  0.00    -0.327 OA
ATOM     16  C   UNL d   1      11.845  11.198  -6.180  0.00  0.00     0.181 C 
ENDBRANCH  10  15
ENDBRANCH   6   9
ENDBRANCH   2   3
ENDBRANCH   1   2
BRANCH   1  17
ATOM     17  C   UNL d   1       8.151   5.768 -12.016  0.00  0.00     0.051 C 
BRANCH  17  18
ATOM     18  C   UNL d   1       8.030   4.547 -12.891  0.00  0.00     0.101 A 
ATOM     19  N   UNL d   1       9.139   4.022 -13.545  0.00  0.00    -0.133 NA
ATOM     20  N   UNL d   1       8.787   2.948 -14.176  0.00  0.00    -0.060 NA
ATOM     21  N   UNL d   1       7.442   2.811 -14.037  0.00  0.00    -0.209 N 
ATOM     22  C   UNL d   1       6.935   3.787 -13.200  0.00  0.00     0.119 A 
BRANCH  21  23
ATOM     23  C   UNL d   1       6.755   1.723 -14.657  0.00  0.00     0.085 A 
ATOM     24  C   UNL d   1       6.958   1.347 -16.015  0.00  0.00     0.021 A 
ATOM     25  C   UNL d   1       6.174   0.288 -16.558  0.00  0.00     0.021 A 
ATOM     26  C   UNL d   1       7.859   1.990 -16.898  0.00  0.00     0.022 A 
ATOM     27  C   UNL d   1       5.226  -0.387 -15.764  0.00  0.00     0.002 A 
ATOM     28  C   UNL d   1       6.347  -0.066 -17.909  0.00  0.00     0.099 A 
ATOM     29  C   UNL d   1       5.039  -0.014 -14.422  0.00  0.00     0.002 A 
ATOM     30  C   UNL d   1       5.800   1.035 -13.871  0.00  0.00     0.019 A 
ATOM     31  N   UNL d   1       7.226   0.540 -18.728  0.00  0.00    -0.242 NA
ATOM     32  C   UNL d   1       7.978   1.535 -18.217  0.00  0.00     0.099 A 
ENDBRANCH  21  23
ENDBRANCH  17  18
ENDBRANCH   1  17
TORSDOF 7
