REMARK  3 active torsions:
REMARK  status: ('A' for Active; 'I' for Inactive)
REMARK    1  A    between atoms: C_3  and  O_4 
REMARK    2  A    between atoms: O_4  and  C_5 
REMARK    3  A    between atoms: C_6  and  O_7 
ROOT
ATOM      1  C   UNL d   1      12.278   4.016 -14.042  0.00  0.00    -0.012 C 
ATOM      2  C   UNL d   1      11.540   3.122 -14.422  0.00  0.00    -0.045 C 
ATOM      3  C   UNL d   1      10.693   2.016 -14.886  0.00  0.00     0.225 C 
ENDROOT
BRANCH   3   4
ATOM      4  O   UNL d   1       9.606   2.564 -15.615  0.00  0.00    -0.315 OA
BRANCH   4   5
ATOM      5  C   UNL d   1       8.744   1.634 -16.135  0.00  0.00     0.117 A 
ATOM      6  C   UNL d   1       7.458   1.442 -15.539  0.00  0.00     0.022 A 
ATOM      7  C   UNL d   1       6.708   0.368 -16.095  0.00  0.00     0.007 A 
ATOM      8  C   UNL d   1       6.937   2.244 -14.391  0.00  0.00    -0.001 A 
ATOM      9  C   UNL d   1       7.128  -0.398 -17.210  0.00  0.00    -0.020 A 
ATOM     10  C   UNL d   1       5.347   0.067 -15.432  0.00  0.00     0.246 C 
ATOM     11  C   UNL d   1       8.378  -0.129 -17.783  0.00  0.00     0.022 A 
ATOM     12  C   UNL d   1       6.206  -1.528 -17.642  0.00  0.00     0.061 C 
ATOM     13  C   UNL d   1       9.195   0.892 -17.253  0.00  0.00     0.116 A 
ATOM     14  C   UNL d   1       4.757  -1.389 -17.182  0.00  0.00     0.255 C 
ATOM     15  N   UNL d   1       4.768  -1.241 -15.733  0.00  0.00     0.142 N 
ATOM     16  C   UNL d   1       3.386  -1.331 -15.274  0.00  0.00     0.286 C 
ATOM     17  C   UNL d   1       5.389   0.315 -13.906  0.00  0.00     0.064 C 
ATOM     18  C   UNL d   1       5.924   1.694 -13.581  0.00  0.00    -0.020 A 
ATOM     19  C   UNL d   1       5.425   2.415 -12.470  0.00  0.00    -0.003 A 
ATOM     20  C   UNL d   1       5.892   3.699 -12.162  0.00  0.00     0.014 A 
ATOM     21  C   UNL d   1       6.865   4.287 -12.978  0.00  0.00     0.070 A 
ATOM     22  C   UNL d   1       7.392   3.553 -14.058  0.00  0.00     0.014 A 
ATOM     23  N   UNL d   1       7.299   5.588 -12.729  0.00  0.00    -0.101 NA
BRANCH  13  24
ATOM     24  O   UNL d   1      10.437   1.211 -17.770  0.00  0.00    -0.326 OA
ATOM     25  C   UNL d   1      10.966   0.406 -18.812  0.00  0.00     0.181 C 
ENDBRANCH  13  24
ENDBRANCH   4   5
ENDBRANCH   3   4
TORSDOF 3
