REMARK  8 active torsions:
REMARK  status: ('A' for Active; 'I' for Inactive)
REMARK       I    between atoms: N_2  and  C_3 
REMARK    1  A    between atoms: C_3  and  C_5 
REMARK    2  A    between atoms: C_10  and  O_11 
REMARK    3  A    between atoms: O_11  and  C_12 
REMARK    4  A    between atoms: C_12  and  C_13 
REMARK    5  A    between atoms: C_13  and  C_14 
REMARK    6  A    between atoms: C_14  and  C_15 
REMARK    7  A    between atoms: C_15  and  N_16 
REMARK    8  A    between atoms: N_19  and  C_20 
ROOT
ATOM      1  C   UNL d   1       8.481   4.870 -11.352  0.00  0.00     0.038 C 
ENDROOT
BRANCH   1   2
ATOM      2  C   UNL d   1       8.387   4.599 -12.868  0.00  0.00     0.035 C 
BRANCH   2   3
ATOM      3  C   UNL d   1       7.098   3.757 -13.174  0.00  0.00     0.149 C 
BRANCH   3   4
ATOM      4  O   UNL d   1       6.893   3.306 -14.487  0.00  0.00    -0.331 OA
BRANCH   4   5
ATOM      5  C   UNL d   1       7.734   2.375 -15.066  0.00  0.00     0.094 A 
ATOM      6  C   UNL d   1       9.009   1.994 -14.599  0.00  0.00     0.020 A 
ATOM      7  C   UNL d   1       9.724   1.029 -15.305  0.00  0.00    -0.020 A 
ATOM      8  C   UNL d   1       9.192   0.365 -16.450  0.00  0.00     0.001 A 
ATOM      9  C   UNL d   1      11.062   0.620 -14.776  0.00  0.00     0.031 C 
ATOM     10  C   UNL d   1       7.930   0.777 -16.938  0.00  0.00     0.059 A 
ATOM     11  C   UNL d   1       7.231   1.814 -16.277  0.00  0.00     0.029 A 
BRANCH  10  12
ATOM     12  C   UNL d   1       7.337   0.086 -18.115  0.00  0.00     0.275 C 
ATOM     13  N   UNL d   1       7.415  -1.252 -18.052  0.00  0.00    -0.232 NA
ATOM     14  C   UNL d   1       6.954  -2.137 -19.098  0.00  0.00     0.155 C 
ATOM     15  O   UNL d   1       6.826   0.738 -19.022  0.00  0.00    -0.266 OA
ENDBRANCH  10  12
ENDBRANCH   4   5
ENDBRANCH   3   4
ENDBRANCH   2   3
ENDBRANCH   1   2
BRANCH   1  16
ATOM     16  C   UNL d   1       9.287   6.160 -11.153  0.00  0.00     0.251 C 
BRANCH  16  17
ATOM     17  N   UNL d   1       9.180   6.605  -9.789  0.00  0.00     0.141 N 
ATOM     18  C   UNL d   1      10.122   5.869  -8.955  0.00  0.00     0.274 C 
ATOM     19  C   UNL d   1       9.995   6.307  -7.501  0.00  0.00     0.137 C 
ATOM     20  N   UNL d   1      10.134   7.738  -7.389  0.00  0.00    -0.344 N 
ATOM     21  C   UNL d   1       9.299   8.521  -8.286  0.00  0.00     0.137 C 
ATOM     22  C   UNL d   1       9.516   8.038  -9.733  0.00  0.00     0.274 C 
BRANCH  20  23
ATOM     23  C   UNL d   1      11.008   8.349  -6.463  0.00  0.00     0.068 C 
ATOM     24  C   UNL d   1      11.345   7.793  -5.190  0.00  0.00     0.084 C 
ATOM     25  C   UNL d   1      12.267   8.447  -4.356  0.00  0.00     0.070 C 
ATOM     26 CL   UNL d   1      10.700   6.377  -4.547  0.00  0.00    -0.080 Cl
ATOM     27  C   UNL d   1      12.894   9.573  -4.818  0.00  0.00     0.012 C 
ATOM     28 CL   UNL d   1      12.654   7.872  -2.761  0.00  0.00    -0.081 Cl
ATOM     29  C   UNL d   1      12.493  10.186  -5.989  0.00  0.00     0.002 C 
ATOM     30  C   UNL d   1      11.587   9.569  -6.851  0.00  0.00     0.018 C 
ENDBRANCH  20  23
ENDBRANCH  16  17
ENDBRANCH   1  16
TORSDOF 8
