REMARK  2 active torsions:
REMARK  status: ('A' for Active; 'I' for Inactive)
REMARK    1  A    between atoms: O_2  and  C_3 
REMARK    2  A    between atoms: C_8  and  O_9 
ROOT
ATOM      1  C   UNL d   1       9.051   5.717 -11.773  0.00  0.00     0.116 A 
ATOM      2  C   UNL d   1       9.419   4.633 -10.969  0.00  0.00     0.026 A 
ATOM      3  C   UNL d   1       9.859   4.842  -9.650  0.00  0.00    -0.002 A 
ATOM      4  C   UNL d   1       9.865   6.121  -9.091  0.00  0.00    -0.020 A 
ATOM      5  C   UNL d   1       9.489   7.222  -9.878  0.00  0.00     0.031 A 
ATOM      6  C   UNL d   1       9.056   7.026 -11.229  0.00  0.00     0.114 A 
ATOM      7  C   UNL d   1       9.424   8.598  -9.201  0.00  0.00     0.279 C 
ATOM      8  N   UNL d   1      10.264   8.789  -8.034  0.00  0.00     0.144 N 
ATOM      9  C   UNL d   1      11.646   9.026  -8.382  0.00  0.00     0.256 C 
ATOM     10  C   UNL d   1      12.337   9.581  -7.121  0.00  0.00     0.061 C 
ATOM     11  C   UNL d   1      11.999   8.869  -5.840  0.00  0.00    -0.020 A 
ATOM     12  C   UNL d   1      12.754   9.101  -4.674  0.00  0.00     0.025 A 
ATOM     13  C   UNL d   1      12.489   8.348  -3.516  0.00  0.00     0.156 A 
ATOM     14  O   UNL d   1      13.094   8.590  -2.329  0.00  0.00    -0.188 OA
ATOM     15  C   UNL d   1      11.509   7.338  -3.550  0.00  0.00     0.156 A 
ATOM     16  O   UNL d   1      11.203   6.718  -2.373  0.00  0.00    -0.188 OA
ATOM     17  C   UNL d   1      10.789   7.094  -4.730  0.00  0.00     0.027 A 
ATOM     18  C   UNL d   1      10.971   7.901  -5.851  0.00  0.00     0.007 A 
ATOM     19  C   UNL d   1      10.119   7.691  -7.083  0.00  0.00     0.246 C 
ATOM     20  C   UNL d   1      10.465   6.338  -7.713  0.00  0.00     0.064 C 
ENDROOT
BRANCH   1  21
ATOM     21  O   UNL d   1       8.736   5.606 -13.120  0.00  0.00    -0.326 OA
ATOM     22  C   UNL d   1       8.689   4.328 -13.709  0.00  0.00     0.181 C 
ENDBRANCH   1  21
BRANCH   6  23
ATOM     23  O   UNL d   1       8.598   8.070 -11.998  0.00  0.00    -0.326 OA
ATOM     24  C   UNL d   1       7.245   7.856 -12.451  0.00  0.00     0.181 C 
ENDBRANCH   6  23
TORSDOF 2
