REMARK  9 active torsions:
REMARK  status: ('A' for Active; 'I' for Inactive)
REMARK    1  A    between atoms: O_2  and  C_3 
REMARK    2  A    between atoms: C_8  and  N_9 
REMARK    3  A    between atoms: N_12  and  C_13 
REMARK    4  A    between atoms: C_13  and  C_14 
REMARK    5  A    between atoms: C_14  and  C_15 
REMARK    6  A    between atoms: C_15  and  C_16 
REMARK    7  A    between atoms: C_16  and  N_17 
REMARK       I    between atoms: N_17  and  C_18 
REMARK    8  A    between atoms: C_18  and  C_20 
REMARK    9  A    between atoms: C_21  and  C_22 
ROOT
ATOM      1  C   UNL d   1       7.486   2.271 -14.041  0.00  0.00     0.251 C 
ENDROOT
BRANCH   1   2
ATOM      2  N   UNL d   1       7.846   3.668 -13.752  0.00  0.00     0.141 N 
ATOM      3  C   UNL d   1       6.993   4.212 -12.684  0.00  0.00     0.274 C 
ATOM      4  C   UNL d   1       7.348   5.684 -12.357  0.00  0.00     0.137 C 
ATOM      5  N   UNL d   1       8.766   5.815 -12.072  0.00  0.00    -0.343 N 
ATOM      6  C   UNL d   1       9.666   5.192 -13.027  0.00  0.00     0.137 C 
ATOM      7  C   UNL d   1       9.244   3.738 -13.312  0.00  0.00     0.274 C 
BRANCH   5   8
ATOM      8  C   UNL d   1       9.227   6.386 -10.878  0.00  0.00     0.079 A 
ATOM      9  C   UNL d   1       9.055   5.732  -9.638  0.00  0.00     0.110 A 
ATOM     10  C   UNL d   1       9.515   6.369  -8.450  0.00  0.00     0.026 A 
ATOM     11  C   UNL d   1      10.140   7.628  -8.498  0.00  0.00     0.002 A 
ATOM     12  C   UNL d   1      10.315   8.268  -9.736  0.00  0.00     0.002 A 
ATOM     13  C   UNL d   1       9.855   7.652 -10.916  0.00  0.00     0.019 A 
BRANCH   9  14
ATOM     14  O   UNL d   1       8.440   4.497  -9.651  0.00  0.00    -0.327 OA
ATOM     15  C   UNL d   1       8.375   3.787  -8.431  0.00  0.00     0.181 C 
ENDBRANCH   9  14
ENDBRANCH   5   8
ENDBRANCH   1   2
BRANCH   1  16
ATOM     16  C   UNL d   1       7.345   2.033 -15.550  0.00  0.00     0.037 C 
BRANCH  16  17
ATOM     17  C   UNL d   1       6.915   0.594 -15.882  0.00  0.00     0.029 C 
BRANCH  17  18
ATOM     18  C   UNL d   1       6.603   0.388 -17.373  0.00  0.00     0.129 C 
BRANCH  18  19
ATOM     19  N   UNL d   1       6.084  -0.957 -17.619  0.00  0.00    -0.234 NA
ATOM     20  C   UNL d   1       4.974  -1.249 -18.316  0.00  0.00     0.275 C 
ATOM     21  O   UNL d   1       4.264  -0.389 -18.837  0.00  0.00    -0.266 OA
BRANCH  20  22
ATOM     22  C   UNL d   1       4.740  -2.683 -18.374  0.00  0.00     0.062 C 
ATOM     23  C   UNL d   1       3.711  -3.180 -19.088  0.00  0.00     0.005 C 
BRANCH  23  24
ATOM     24  C   UNL d   1       3.362  -4.604 -19.244  0.00  0.00     0.001 A 
ATOM     25  C   UNL d   1       4.161  -5.645 -18.714  0.00  0.00     0.011 A 
ATOM     26  C   UNL d   1       3.775  -6.992 -18.864  0.00  0.00     0.058 A 
ATOM     27  C   UNL d   1       2.589  -7.314 -19.550  0.00  0.00     0.011 A 
ATOM     28 CL   UNL d   1       4.757  -8.247 -18.200  0.00  0.00    -0.082 Cl
ATOM     29  C   UNL d   1       1.787  -6.288 -20.081  0.00  0.00     0.001 A 
ATOM     30  C   UNL d   1       2.173  -4.943 -19.927  0.00  0.00     0.000 A 
ENDBRANCH  23  24
ENDBRANCH  20  22
ENDBRANCH  18  19
ENDBRANCH  17  18
ENDBRANCH  16  17
ENDBRANCH   1  16
TORSDOF 9
