REMARK  6 active torsions:
REMARK  status: ('A' for Active; 'I' for Inactive)
REMARK    1  A    between atoms: O_2  and  C_3 
REMARK    2  A    between atoms: C_8  and  N_9 
REMARK    3  A    between atoms: N_12  and  C_13 
REMARK    4  A    between atoms: C_13  and  C_14 
REMARK    5  A    between atoms: C_19  and  C_20 
REMARK    6  A    between atoms: C_19  and  C_26 
ROOT
ATOM      1  C   UNL d   1      10.350   3.810 -15.642  0.00  0.00     0.181 C 
ATOM      2  O   UNL d   1       9.179   2.997 -15.848  0.00  0.00    -0.349 OA
ATOM      3  C   UNL d   1       9.508   1.666 -16.235  0.00  0.00     0.174 C 
ATOM      4  C   UNL d   1      10.229   1.736 -17.573  0.00  0.00     0.175 C 
ATOM      5  O   UNL d   1      11.359   2.611 -17.404  0.00  0.00    -0.346 OA
ATOM      6  C   UNL d   1      11.064   3.998 -17.051  0.00  0.00     0.157 C 
ENDROOT
BRANCH   1   7
ATOM      7  C   UNL d   1       9.866   5.120 -14.912  0.00  0.00     0.283 C 
BRANCH   7   8
ATOM      8  N   UNL d   1       9.230   4.931 -13.620  0.00  0.00     0.144 N 
ATOM      9  C   UNL d   1      10.197   4.468 -12.628  0.00  0.00     0.274 C 
ATOM     10  C   UNL d   1       9.511   4.361 -11.267  0.00  0.00     0.137 C 
ATOM     11  N   UNL d   1       8.947   5.641 -10.941  0.00  0.00    -0.343 N 
ATOM     12  C   UNL d   1       8.035   6.247 -11.887  0.00  0.00     0.137 C 
ATOM     13  C   UNL d   1       8.767   6.267 -13.220  0.00  0.00     0.274 C 
BRANCH  11  14
ATOM     14  C   UNL d   1       9.183   6.220  -9.657  0.00  0.00     0.079 A 
ATOM     15  C   UNL d   1      10.026   7.326  -9.511  0.00  0.00     0.110 A 
ATOM     16  C   UNL d   1      10.227   7.852  -8.210  0.00  0.00     0.026 A 
ATOM     17  C   UNL d   1       9.543   7.312  -7.105  0.00  0.00     0.002 A 
ATOM     18  C   UNL d   1       8.653   6.240  -7.304  0.00  0.00     0.002 A 
ATOM     19  C   UNL d   1       8.536   5.646  -8.581  0.00  0.00     0.019 A 
BRANCH  15  20
ATOM     20  O   UNL d   1      10.637   7.876 -10.616  0.00  0.00    -0.327 OA
ATOM     21  C   UNL d   1      11.705   8.796 -10.391  0.00  0.00     0.181 C 
ENDBRANCH  15  20
ENDBRANCH  11  14
ENDBRANCH   7   8
ENDBRANCH   1   7
BRANCH   6  22
ATOM     22  C   UNL d   1      10.260   4.683 -18.161  0.00  0.00     0.008 A 
ATOM     23  C   UNL d   1       9.479   5.867 -17.919  0.00  0.00    -0.002 A 
ATOM     24  C   UNL d   1       8.643   6.352 -18.953  0.00  0.00    -0.000 A 
ATOM     25  C   UNL d   1       8.636   5.794 -20.262  0.00  0.00    -0.000 A 
ATOM     26  C   UNL d   1       9.513   4.699 -20.522  0.00  0.00    -0.000 A 
ATOM     27  C   UNL d   1      10.289   4.142 -19.505  0.00  0.00    -0.002 A 
ENDBRANCH   6  22
BRANCH   6  28
ATOM     28  C   UNL d   1      12.393   4.769 -16.929  0.00  0.00     0.008 A 
ATOM     29  C   UNL d   1      12.384   6.138 -16.521  0.00  0.00    -0.002 A 
ATOM     30  C   UNL d   1      13.592   6.837 -16.335  0.00  0.00    -0.000 A 
ATOM     31  C   UNL d   1      14.825   6.230 -16.669  0.00  0.00    -0.000 A 
ATOM     32  C   UNL d   1      14.834   4.920 -17.177  0.00  0.00    -0.000 A 
ATOM     33  C   UNL d   1      13.632   4.174 -17.261  0.00  0.00    -0.002 A 
ENDBRANCH   6  28
TORSDOF 6
