REMARK  1 active torsions:
REMARK  status: ('A' for Active; 'I' for Inactive)
REMARK    1  A    between atoms: C_6  and  C_7 
ROOT
ATOM      1  O   UNL d   1      10.668  10.679  -4.858  0.00  0.00    -0.264 OA
ATOM      2  C   UNL d   1      10.851   9.523  -5.225  0.00  0.00     0.272 C 
ATOM      3  C   UNL d   1      11.815   8.622  -4.438  0.00  0.00     0.096 C 
ATOM      4  C   UNL d   1      11.577   7.120  -4.629  0.00  0.00     0.013 C 
ATOM      5  C   UNL d   1      11.372   6.808  -6.110  0.00  0.00     0.035 C 
ATOM      6  C   UNL d   1      10.159   7.596  -6.611  0.00  0.00     0.146 C 
ATOM      7  O   UNL d   1      10.262   8.995  -6.329  0.00  0.00    -0.300 OA
ENDROOT
BRANCH   6   8
ATOM      8  C   UNL d   1       9.942   7.333  -8.091  0.00  0.00     0.005 A 
ATOM      9  C   UNL d   1       9.260   6.170  -8.506  0.00  0.00    -0.002 A 
ATOM     10  C   UNL d   1       9.067   5.914  -9.879  0.00  0.00    -0.000 A 
ATOM     11  C   UNL d   1       9.560   6.820 -10.838  0.00  0.00    -0.000 A 
ATOM     12  C   UNL d   1      10.257   7.973 -10.426  0.00  0.00    -0.000 A 
ATOM     13  C   UNL d   1      10.454   8.225  -9.057  0.00  0.00    -0.002 A 
ENDBRANCH   6   8
TORSDOF 1
