REMARK  6 active torsions:
REMARK  status: ('A' for Active; 'I' for Inactive)
REMARK    1  A    between atoms: C_2  and  C_4 
REMARK    2  A    between atoms: C_7  and  C_8 
REMARK    3  A    between atoms: C_8  and  S_9 
REMARK    4  A    between atoms: S_9  and  C_10 
REMARK    5  A    between atoms: N_18  and  C_19 
REMARK    6  A    between atoms: C_19  and  C_20 
ROOT
ATOM      1  C   UNL d   1       9.972   4.590 -12.703  0.00  0.00     0.172 C 
ATOM      2  N   UNL d   1      11.173   4.298 -13.175  0.00  0.00    -0.221 NA
ATOM      3  C   UNL d   1      11.174   4.598 -14.457  0.00  0.00     0.099 A 
ATOM      4  C   UNL d   1      12.223   4.655 -15.411  0.00  0.00     0.021 A 
ATOM      5  C   UNL d   1      11.930   4.979 -16.743  0.00  0.00     0.002 A 
ATOM      6  C   UNL d   1      10.584   5.242 -17.102  0.00  0.00     0.002 A 
ATOM      7  C   UNL d   1       9.566   5.190 -16.135  0.00  0.00     0.019 A 
ATOM      8  C   UNL d   1       9.838   4.921 -14.828  0.00  0.00     0.080 A 
ATOM      9  N   UNL d   1       9.126   4.949 -13.626  0.00  0.00    -0.303 N 
ENDROOT
BRANCH   1  10
ATOM     10  S   UNL d   1       9.460   4.408 -11.020  0.00  0.00    -0.072 SA
BRANCH  10  11
ATOM     11  C   UNL d   1       8.861   6.063 -10.557  0.00  0.00     0.091 C 
BRANCH  11  12
ATOM     12  C   UNL d   1       9.650   6.711  -9.447  0.00  0.00    -0.011 A 
ATOM     13  C   UNL d   1       9.202   6.629  -8.113  0.00  0.00    -0.004 A 
ATOM     14  C   UNL d   1       9.841   7.380  -7.116  0.00  0.00    -0.002 A 
ATOM     15  C   UNL d   1      10.954   8.195  -7.436  0.00  0.00     0.008 A 
ATOM     16  C   UNL d   1      11.402   8.285  -8.774  0.00  0.00    -0.002 A 
ATOM     17  C   UNL d   1      10.742   7.544  -9.772  0.00  0.00    -0.004 A 
BRANCH  15  18
ATOM     18  C   UNL d   1      11.677   8.982  -6.357  0.00  0.00     0.174 C 
ATOM     19  C   UNL d   1      11.737   8.227  -5.021  0.00  0.00     0.041 C 
ATOM     20  O   UNL d   1      11.054  10.223  -6.126  0.00  0.00    -0.219 OA
ENDBRANCH  15  18
ENDBRANCH  11  12
ENDBRANCH  10  11
ENDBRANCH   1  10
BRANCH   9  21
ATOM     21  C   UNL d   1       7.732   5.167 -13.345  0.00  0.00     0.135 C 
BRANCH  21  22
ATOM     22  C   UNL d   1       6.941   3.893 -13.422  0.00  0.00     0.001 A 
ATOM     23  C   UNL d   1       7.319   2.882 -14.321  0.00  0.00    -0.002 A 
ATOM     24  C   UNL d   1       6.586   1.696 -14.384  0.00  0.00     0.011 A 
ATOM     25  C   UNL d   1       5.493   1.514 -13.519  0.00  0.00     0.058 A 
ATOM     26  C   UNL d   1       5.135   2.524 -12.605  0.00  0.00     0.011 A 
ATOM     27 CL   UNL d   1       4.567   0.066 -13.611  0.00  0.00    -0.082 Cl
ATOM     28  C   UNL d   1       5.869   3.721 -12.538  0.00  0.00    -0.002 A 
ENDBRANCH  21  22
ENDBRANCH   9  21
TORSDOF 6
