REMARK  8 active torsions:
REMARK  status: ('A' for Active; 'I' for Inactive)
REMARK    1  A    between atoms: O_2  and  C_3 
REMARK    2  A    between atoms: C_6  and  C_7 
REMARK    3  A    between atoms: C_7  and  C_8 
REMARK       I    between atoms: C_8  and  N_10 
REMARK    4  A    between atoms: N_10  and  C_11 
REMARK    5  A    between atoms: C_14  and  C_15 
REMARK    6  A    between atoms: C_15  and  C_16 
REMARK    7  A    between atoms: C_16  and  N_17 
REMARK    8  A    between atoms: N_20  and  C_21 
ROOT
ATOM      1  C   UNL d   1       9.686   7.706 -10.089  0.00  0.00     0.106 C 
ATOM      2  C   UNL d   1       9.300   8.108 -11.518  0.00  0.00     0.024 C 
ATOM      3  C   UNL d   1       8.382   7.031 -12.152  0.00  0.00     0.002 C 
ATOM      4  C   UNL d   1       9.067   5.666 -12.097  0.00  0.00     0.002 C 
ATOM      5  C   UNL d   1       9.446   5.265 -10.648  0.00  0.00     0.002 C 
ATOM      6  C   UNL d   1      10.360   6.335 -10.011  0.00  0.00     0.024 C 
ENDROOT
BRANCH   4   7
ATOM      7  C   UNL d   1       8.162   4.611 -12.751  0.00  0.00     0.035 C 
BRANCH   7   8
ATOM      8  C   UNL d   1       8.922   3.443 -13.395  0.00  0.00     0.250 C 
BRANCH   8   9
ATOM      9  N   UNL d   1       9.544   3.874 -14.653  0.00  0.00     0.141 N 
ATOM     10  C   UNL d   1      11.008   3.966 -14.514  0.00  0.00     0.274 C 
ATOM     11  C   UNL d   1      11.655   4.453 -15.828  0.00  0.00     0.138 C 
ATOM     12  N   UNL d   1      11.254   3.587 -16.929  0.00  0.00    -0.330 N 
ATOM     13  C   UNL d   1       9.817   3.400 -17.072  0.00  0.00     0.138 C 
ATOM     14  C   UNL d   1       9.238   2.913 -15.723  0.00  0.00     0.274 C 
BRANCH  12  15
ATOM     15  C   UNL d   1      12.207   2.898 -17.710  0.00  0.00     0.141 A 
ATOM     16  C   UNL d   1      12.043   1.540 -18.146  0.00  0.00     0.040 A 
ATOM     17  C   UNL d   1      13.065   1.011 -18.995  0.00  0.00     0.034 A 
ATOM     18  C   UNL d   1      11.015   0.537 -17.872  0.00  0.00     0.011 A 
ATOM     19  C   UNL d   1      14.171   1.793 -19.370  0.00  0.00     0.027 A 
ATOM     20  S   UNL d   1      12.745  -0.651 -19.442  0.00  0.00    -0.086 SA
ATOM     21  C   UNL d   1      14.245   3.100 -18.872  0.00  0.00     0.101 A 
ATOM     22  N   UNL d   1      13.306   3.625 -18.069  0.00  0.00    -0.227 NA
ATOM     23  C   UNL d   1      11.262  -0.636 -18.535  0.00  0.00     0.035 A 
ENDBRANCH  12  15
ENDBRANCH   8   9
ENDBRANCH   7   8
ENDBRANCH   4   7
BRANCH   1  24
ATOM     24  N   UNL d   1      10.557   8.712  -9.511  0.00  0.00    -0.240 NA
ATOM     25  C   UNL d   1      10.615   8.944  -8.206  0.00  0.00     0.251 C 
ATOM     26  O   UNL d   1      11.475   9.680  -7.731  0.00  0.00    -0.271 OA
BRANCH  25  27
ATOM     27  C   UNL d   1       9.609   8.380  -7.178  0.00  0.00     0.090 C 
BRANCH  27  28
ATOM     28  C   UNL d   1      10.281   8.140  -5.826  0.00  0.00     0.009 C 
ATOM     29  C   UNL d   1      11.334   7.034  -6.008  0.00  0.00     0.003 C 
ATOM     30  C   UNL d   1      11.850   6.665  -4.638  0.00  0.00     0.030 C 
ATOM     31  C   UNL d   1      12.434   7.894  -3.861  0.00  0.00     0.116 C 
ATOM     32  C   UNL d   1      11.450   9.051  -3.703  0.00  0.00     0.030 C 
ATOM     33  C   UNL d   1      10.876   9.394  -5.075  0.00  0.00     0.003 C 
BRANCH  31  34
ATOM     34  O   UNL d   1      12.967   7.587  -2.583  0.00  0.00    -0.354 OA
ATOM     35  C   UNL d   1      12.347   6.516  -1.902  0.00  0.00     0.174 C 
ENDBRANCH  31  34
ENDBRANCH  27  28
ENDBRANCH  25  27
ENDBRANCH   1  24
TORSDOF 8
