REMARK  4 active torsions:
REMARK  status: ('A' for Active; 'I' for Inactive)
REMARK    1  A    between atoms: C_2  and  N_3 
REMARK    2  A    between atoms: C_2  and  C_8 
REMARK    3  A    between atoms: N_3  and  C_4 
REMARK    4  A    between atoms: C_8  and  C_10 
ROOT
ATOM      1  C   UNL d   1      10.793   9.303  -6.113  0.00  0.00     0.195 C 
ATOM      2  O   UNL d   1      10.719  10.519  -5.983  0.00  0.00    -0.289 OA
ENDROOT
BRANCH   1   3
ATOM      3  C   UNL d   1      10.299   8.590  -7.360  0.00  0.00     0.159 C 
ATOM      4  C   UNL d   1       8.775   8.568  -7.407  0.00  0.00     0.034 C 
BRANCH   3   5
ATOM      5  N   UNL d   1      10.799   9.196  -8.580  0.00  0.00    -0.293 NA
BRANCH   5   6
ATOM      6  C   UNL d   1      11.711   8.397  -9.373  0.00  0.00     0.080 C 
ATOM      7  C   UNL d   1      11.820   9.170 -10.664  0.00  0.00     0.024 C 
ATOM      8  C   UNL d   1      11.091   7.050  -9.744  0.00  0.00     0.024 C 
ATOM      9  C   UNL d   1      13.077   8.263  -8.691  0.00  0.00     0.024 C 
ENDBRANCH   5   6
ENDBRANCH   3   5
ENDBRANCH   1   3
BRANCH   1  10
ATOM     10  C   UNL d   1      11.329   8.474  -5.004  0.00  0.00     0.037 A 
ATOM     11  C   UNL d   1      11.714   9.092  -3.797  0.00  0.00     0.014 A 
ATOM     12  C   UNL d   1      12.182   8.297  -2.753  0.00  0.00     0.058 A 
ATOM     13  C   UNL d   1      12.337   6.916  -2.861  0.00  0.00     0.011 A 
ATOM     14 CL   UNL d   1      12.634   8.931  -1.254  0.00  0.00    -0.082 Cl
ATOM     15  C   UNL d   1      11.993   6.352  -4.059  0.00  0.00     0.001 A 
ATOM     16  C   UNL d   1      11.437   7.063  -5.106  0.00  0.00     0.003 A 
ENDBRANCH   1  10
TORSDOF 4
