REMARK  7 active torsions:
REMARK  status: ('A' for Active; 'I' for Inactive)
REMARK    1  A    between atoms: O_2  and  C_3 
REMARK    2  A    between atoms: C_8  and  N_9 
REMARK    3  A    between atoms: N_12  and  C_13 
REMARK    4  A    between atoms: C_13  and  C_14 
REMARK    5  A    between atoms: C_14  and  C_15 
REMARK    6  A    between atoms: C_15  and  C_16 
REMARK    7  A    between atoms: N_18  and  C_19 
ROOT
ATOM      1  N   UNL d   1      11.056   3.872 -15.365  0.00  0.00    -0.343 N 
ATOM      2  C   UNL d   1      11.262   3.668 -13.949  0.00  0.00     0.137 C 
ATOM      3  C   UNL d   1       9.925   3.727 -13.190  0.00  0.00     0.274 C 
ATOM      4  N   UNL d   1       9.269   5.017 -13.444  0.00  0.00     0.141 N 
ATOM      5  C   UNL d   1       8.945   5.036 -14.878  0.00  0.00     0.274 C 
ATOM      6  C   UNL d   1      10.233   5.006 -15.750  0.00  0.00     0.137 C 
ENDROOT
BRANCH   4   7
ATOM      7  C   UNL d   1       8.025   5.152 -12.661  0.00  0.00     0.251 C 
BRANCH   7   8
ATOM      8  C   UNL d   1       8.214   5.891 -11.314  0.00  0.00     0.042 C 
BRANCH   8   9
ATOM      9  C   UNL d   1       9.287   5.276 -10.412  0.00  0.00     0.051 C 
BRANCH   9  10
ATOM     10  C   UNL d   1       9.466   5.938  -9.090  0.00  0.00     0.101 A 
ATOM     11  N   UNL d   1       8.605   5.741  -8.026  0.00  0.00    -0.133 NA
ATOM     12  N   UNL d   1       9.008   6.436  -7.012  0.00  0.00    -0.060 NA
ATOM     13  N   UNL d   1      10.175   7.009  -7.374  0.00  0.00    -0.209 N 
ATOM     14  C   UNL d   1      10.503   6.723  -8.681  0.00  0.00     0.119 A 
BRANCH  13  15
ATOM     15  C   UNL d   1      10.887   7.772  -6.446  0.00  0.00     0.085 A 
ATOM     16  C   UNL d   1      11.156   7.256  -5.164  0.00  0.00     0.019 A 
ATOM     17  C   UNL d   1      11.852   8.048  -4.226  0.00  0.00     0.002 A 
ATOM     18  C   UNL d   1      12.256   9.345  -4.579  0.00  0.00     0.000 A 
ATOM     19  C   UNL d   1      11.986   9.856  -5.869  0.00  0.00     0.002 A 
ATOM     20  C   UNL d   1      11.312   9.060  -6.811  0.00  0.00     0.019 A 
ENDBRANCH  13  15
ENDBRANCH   9  10
ENDBRANCH   8   9
ENDBRANCH   7   8
ENDBRANCH   4   7
BRANCH   1  21
ATOM     21  C   UNL d   1      11.421   2.882 -16.298  0.00  0.00     0.079 A 
ATOM     22  C   UNL d   1      10.914   1.563 -16.238  0.00  0.00     0.110 A 
ATOM     23  C   UNL d   1      11.327   0.616 -17.213  0.00  0.00     0.026 A 
ATOM     24  C   UNL d   1      12.250   0.989 -18.213  0.00  0.00     0.002 A 
ATOM     25  C   UNL d   1      12.760   2.299 -18.259  0.00  0.00     0.002 A 
ATOM     26  C   UNL d   1      12.333   3.241 -17.301  0.00  0.00     0.019 A 
BRANCH  22  27
ATOM     27  O   UNL d   1      10.016   1.253 -15.230  0.00  0.00    -0.327 OA
ATOM     28  C   UNL d   1       9.356   0.005 -15.275  0.00  0.00     0.181 C 
ENDBRANCH  22  27
ENDBRANCH   1  21
TORSDOF 7
