REMARK  7 active torsions:
REMARK  status: ('A' for Active; 'I' for Inactive)
REMARK    1  A    between atoms: C_2  and  O_3 
REMARK    2  A    between atoms: O_3  and  C_4 
REMARK    3  A    between atoms: C_4  and  C_6 
REMARK    4  A    between atoms: C_12  and  C_13 
REMARK    5  A    between atoms: C_13  and  O_15 
REMARK    6  A    between atoms: C_17  and  C_18 
REMARK    7  A    between atoms: C_22  and  N_23 
ROOT
ATOM      1  C   UNL d   1       8.373   3.757 -13.438  0.00  0.00     0.062 A 
ATOM      2  C   UNL d   1       7.040   3.538 -13.585  0.00  0.00     0.061 A 
ATOM      3  C   UNL d   1       5.903   4.309 -12.917  0.00  0.00     0.052 C 
ATOM      4  N   UNL d   1       6.572   2.542 -14.427  0.00  0.00    -0.254 NA
ATOM      5  C   UNL d   1       7.406   1.648 -15.078  0.00  0.00     0.061 A 
ATOM      6  C   UNL d   1       6.618   0.591 -15.840  0.00  0.00     0.052 C 
ATOM      7  C   UNL d   1       8.758   1.757 -14.983  0.00  0.00     0.062 A 
ATOM      8  C   UNL d   1       9.417   2.884 -14.165  0.00  0.00     0.080 A 
ENDROOT
BRANCH   8   9
ATOM      9  C   UNL d   1      10.414   3.701 -14.995  0.00  0.00    -0.012 A 
ATOM     10  C   UNL d   1       9.953   4.441 -16.101  0.00  0.00     0.020 A 
ATOM     11  C   UNL d   1      10.831   5.228 -16.878  0.00  0.00     0.126 A 
ATOM     12  C   UNL d   1      12.199   5.263 -16.524  0.00  0.00     0.024 A 
ATOM     13  C   UNL d   1      12.668   4.525 -15.422  0.00  0.00     0.001 A 
ATOM     14  C   UNL d   1      11.782   3.745 -14.655  0.00  0.00    -0.004 A 
BRANCH  11  15
ATOM     15  N   UNL d   1      10.323   5.991 -18.033  0.00  0.00    -0.114 N 
ATOM     16  O   UNL d   1       9.125   5.929 -18.289  0.00  0.00    -0.532 OA
ATOM     17  O   UNL d   1      11.122   6.653 -18.688  0.00  0.00    -0.532 OA
ENDBRANCH  11  15
ENDBRANCH   8   9
BRANCH   1  18
ATOM     18  C   UNL d   1       8.919   4.777 -12.498  0.00  0.00     0.293 C 
ATOM     19  O   UNL d   1       9.860   5.521 -12.767  0.00  0.00    -0.259 OA
BRANCH  18  20
ATOM     20  O   UNL d   1       8.273   4.798 -11.317  0.00  0.00    -0.299 OA
BRANCH  20  21
ATOM     21  C   UNL d   1       8.689   5.654 -10.255  0.00  0.00     0.152 C 
ATOM     22  C   UNL d   1       9.091   4.787  -9.062  0.00  0.00     0.035 C 
ENDBRANCH  20  21
ENDBRANCH  18  20
ENDBRANCH   1  18
BRANCH   7  23
ATOM     23  C   UNL d   1       9.690   0.809 -15.659  0.00  0.00     0.294 C 
ATOM     24  O   UNL d   1      10.774   0.466 -15.184  0.00  0.00    -0.259 OA
BRANCH  23  25
ATOM     25  O   UNL d   1       9.223   0.352 -16.835  0.00  0.00    -0.296 OA
ATOM     26  C   UNL d   1       9.932  -0.625 -17.579  0.00  0.00     0.185 C 
ENDBRANCH  23  25
ENDBRANCH   7  23
TORSDOF 7
