REMARK  6 active torsions:
REMARK  status: ('A' for Active; 'I' for Inactive)
REMARK    1  A    between atoms: C_8  and  C_9 
REMARK    2  A    between atoms: C_9  and  O_10 
REMARK    3  A    between atoms: O_10  and  C_11 
REMARK    4  A    between atoms: C_13  and  C_14 
REMARK    5  A    between atoms: C_14  and  N_15 
REMARK    6  A    between atoms: N_18  and  C_19 
ROOT
ATOM      1  C   UNL d   1       8.785   6.190 -10.776  0.00  0.00     0.118 A 
ATOM      2  C   UNL d   1       8.000   4.941 -11.063  0.00  0.00     0.034 A 
ATOM      3  C   UNL d   1       9.403   5.103 -11.614  0.00  0.00     0.063 A 
ENDROOT
BRANCH   3   4
ATOM      4  C   UNL d   1       9.648   5.362 -13.094  0.00  0.00     0.253 C 
BRANCH   4   5
ATOM      5  N   UNL d   1      10.511   4.348 -13.699  0.00  0.00     0.141 N 
ATOM      6  C   UNL d   1       9.829   3.046 -13.638  0.00  0.00     0.274 C 
ATOM      7  C   UNL d   1      10.702   1.941 -14.262  0.00  0.00     0.137 C 
ATOM      8  N   UNL d   1      11.050   2.302 -15.625  0.00  0.00    -0.344 N 
ATOM      9  C   UNL d   1      11.642   3.623 -15.788  0.00  0.00     0.137 C 
ATOM     10  C   UNL d   1      10.743   4.682 -15.112  0.00  0.00     0.274 C 
BRANCH   8  11
ATOM     11  C   UNL d   1      10.778   1.456 -16.722  0.00  0.00     0.068 A 
ATOM     12  C   UNL d   1       9.489   0.903 -16.974  0.00  0.00     0.084 A 
ATOM     13  C   UNL d   1       9.296   0.046 -18.080  0.00  0.00     0.070 A 
ATOM     14 CL   UNL d   1       8.113   1.296 -15.994  0.00  0.00    -0.080 Cl
ATOM     15  C   UNL d   1      10.358  -0.255 -18.941  0.00  0.00     0.012 A 
ATOM     16 CL   UNL d   1       7.740  -0.621 -18.416  0.00  0.00    -0.081 Cl
ATOM     17  C   UNL d   1      11.628   0.298 -18.710  0.00  0.00     0.002 A 
ATOM     18  C   UNL d   1      11.835   1.157 -17.611  0.00  0.00     0.018 A 
ENDBRANCH   8  11
ENDBRANCH   4   5
ENDBRANCH   3   4
BRANCH   1  19
ATOM     19  O   UNL d   1       9.305   6.255  -9.458  0.00  0.00    -0.352 OA
BRANCH  19  20
ATOM     20  C   UNL d   1      10.483   7.036  -9.403  0.00  0.00     0.169 C 
BRANCH  20  21
ATOM     21  C   UNL d   1      10.687   7.646  -8.028  0.00  0.00     0.009 A 
ATOM     22  C   UNL d   1      10.581   9.040  -7.875  0.00  0.00    -0.002 A 
ATOM     23  C   UNL d   1      10.776   9.641  -6.616  0.00  0.00    -0.003 A 
ATOM     24  C   UNL d   1      11.061   8.847  -5.496  0.00  0.00    -0.004 A 
ATOM     25  C   UNL d   1      11.227   9.461  -4.120  0.00  0.00     0.038 C 
ATOM     26  C   UNL d   1      11.181   7.447  -5.647  0.00  0.00     0.080 A 
ATOM     27  C   UNL d   1      12.194   8.649  -3.247  0.00  0.00     0.095 C 
ATOM     28  C   UNL d   1      11.957   7.135  -3.352  0.00  0.00     0.256 C 
ATOM     29  O   UNL d   1      12.230   6.401  -2.406  0.00  0.00    -0.270 OA
ATOM     30  N   UNL d   1      11.498   6.650  -4.522  0.00  0.00    -0.212 NA
ATOM     31  C   UNL d   1      10.993   6.843  -6.910  0.00  0.00     0.017 A 
ENDBRANCH  20  21
ENDBRANCH  19  20
ENDBRANCH   1  19
TORSDOF 6
