REMARK  8 active torsions:
REMARK  status: ('A' for Active; 'I' for Inactive)
REMARK    1  A    between atoms: O_2  and  C_3 
REMARK    2  A    between atoms: C_8  and  N_9 
REMARK    3  A    between atoms: N_12  and  C_13 
REMARK    4  A    between atoms: C_13  and  C_14 
REMARK    5  A    between atoms: C_14  and  C_16 
REMARK    6  A    between atoms: C_16  and  C_17 
REMARK    7  A    between atoms: C_17  and  N_18 
REMARK       I    between atoms: N_18  and  C_19 
REMARK    8  A    between atoms: C_19  and  C_21 
ROOT
ATOM      1  C   UNL d   1       7.305   5.668 -12.415  0.00  0.00     0.188 C 
ATOM      2  O   UNL d   1       6.580   6.883 -12.499  0.00  0.00    -0.221 OA
ENDROOT
BRANCH   1   3
ATOM      3  C   UNL d   1       7.478   5.345 -10.928  0.00  0.00     0.283 C 
BRANCH   3   4
ATOM      4  N   UNL d   1       8.817   5.540 -10.415  0.00  0.00     0.144 N 
ATOM      5  C   UNL d   1       8.883   4.998  -9.065  0.00  0.00     0.274 C 
ATOM      6  C   UNL d   1      10.255   5.258  -8.488  0.00  0.00     0.137 C 
ATOM      7  N   UNL d   1      10.614   6.657  -8.475  0.00  0.00    -0.343 N 
ATOM      8  C   UNL d   1      10.469   7.318  -9.755  0.00  0.00     0.137 C 
ATOM      9  C   UNL d   1       9.098   6.953 -10.280  0.00  0.00     0.274 C 
BRANCH   7  10
ATOM     10  C   UNL d   1      10.996   7.324  -7.272  0.00  0.00     0.079 C 
ATOM     11  C   UNL d   1      11.851   8.439  -7.292  0.00  0.00     0.110 C 
ATOM     12  C   UNL d   1      12.234   9.100  -6.086  0.00  0.00     0.026 C 
ATOM     13  C   UNL d   1      11.807   8.564  -4.854  0.00  0.00     0.002 C 
ATOM     14  C   UNL d   1      11.038   7.388  -4.837  0.00  0.00     0.002 C 
ATOM     15  C   UNL d   1      10.561   6.827  -6.029  0.00  0.00     0.019 C 
BRANCH  11  16
ATOM     16  O   UNL d   1      12.304   8.884  -8.500  0.00  0.00    -0.327 OA
ATOM     17  C   UNL d   1      13.632   8.547  -8.844  0.00  0.00     0.181 C 
ENDBRANCH  11  16
ENDBRANCH   7  10
ENDBRANCH   3   4
ENDBRANCH   1   3
BRANCH   1  18
ATOM     18  C   UNL d   1       6.500   4.602 -13.177  0.00  0.00     0.061 C 
BRANCH  18  19
ATOM     19  C   UNL d   1       6.997   3.204 -12.919  0.00  0.00     0.132 C 
BRANCH  19  20
ATOM     20  N   UNL d   1       6.522   2.236 -13.906  0.00  0.00    -0.234 NA
ATOM     21  C   UNL d   1       5.818   1.125 -13.641  0.00  0.00     0.276 C 
ATOM     22  O   UNL d   1       5.470   0.775 -12.510  0.00  0.00    -0.266 OA
BRANCH  21  23
ATOM     23  C   UNL d   1       5.376   0.345 -14.844  0.00  0.00     0.077 A 
ATOM     24  C   UNL d   1       6.110   0.383 -16.045  0.00  0.00     0.008 A 
ATOM     25  C   UNL d   1       5.661  -0.370 -17.146  0.00  0.00     0.018 A 
ATOM     26  C   UNL d   1       4.486  -1.160 -17.012  0.00  0.00     0.081 A 
ATOM     27  C   UNL d   1       6.383  -0.335 -18.355  0.00  0.00    -0.003 A 
ATOM     28  N   UNL d   1       3.789  -1.198 -15.853  0.00  0.00    -0.244 NA
ATOM     29  C   UNL d   1       4.055  -1.896 -18.133  0.00  0.00     0.019 A 
ATOM     30  C   UNL d   1       4.218  -0.461 -14.807  0.00  0.00     0.104 A 
ATOM     31  C   UNL d   1       4.774  -1.869 -19.345  0.00  0.00    -0.003 A 
ATOM     32  C   UNL d   1       5.942  -1.088 -19.458  0.00  0.00    -0.022 A 
ATOM     33  C   UNL d   1       6.726  -1.066 -20.753  0.00  0.00     0.031 C 
ENDBRANCH  21  23
ENDBRANCH  19  20
ENDBRANCH  18  19
ENDBRANCH   1  18
TORSDOF 8
