REMARK  7 active torsions:
REMARK  status: ('A' for Active; 'I' for Inactive)
REMARK    1  A    between atoms: C_2  and  C_4 
REMARK    2  A    between atoms: C_4  and  C_6 
REMARK       I    between atoms: C_6  and  N_8 
REMARK    3  A    between atoms: N_8  and  C_9 
REMARK    4  A    between atoms: C_12  and  C_13 
REMARK    5  A    between atoms: C_13  and  C_14 
REMARK    6  A    between atoms: C_14  and  N_15 
REMARK    7  A    between atoms: N_18  and  C_19 
ROOT
ATOM      1  C   UNL d   1       8.231   5.857 -11.436  0.00  0.00     0.250 C 
ENDROOT
BRANCH   1   2
ATOM      2  C   UNL d   1       9.580   6.568 -11.393  0.00  0.00     0.035 C 
BRANCH   2   3
ATOM      3  C   UNL d   1       9.809   7.254 -10.046  0.00  0.00     0.002 C 
ATOM      4  C   UNL d   1       9.569   6.304  -8.859  0.00  0.00     0.002 C 
ATOM      5  C   UNL d   1       9.797   7.032  -7.545  0.00  0.00     0.024 C 
ATOM      6  C   UNL d   1      11.218   7.643  -7.476  0.00  0.00     0.106 C 
ATOM      7  C   UNL d   1      11.483   8.569  -8.663  0.00  0.00     0.024 C 
ATOM      8  C   UNL d   1      11.216   7.862  -9.989  0.00  0.00     0.002 C 
BRANCH   6   9
ATOM      9  N   UNL d   1      11.427   8.400  -6.241  0.00  0.00    -0.238 NA
ATOM     10  C   UNL d   1      11.477   7.778  -5.040  0.00  0.00     0.282 C 
ATOM     11  O   UNL d   1      11.154   6.611  -4.879  0.00  0.00    -0.268 OA
BRANCH  10  12
ATOM     12  C   UNL d   1      12.097   8.554  -3.887  0.00  0.00     0.232 C 
ATOM     13  O   UNL d   1      11.267   9.643  -3.543  0.00  0.00    -0.213 OA
BRANCH  12  14
ATOM     14  C   UNL d   1      12.538   7.685  -2.650  0.00  0.00     0.040 C 
ATOM     15  C   UNL d   1      11.529   6.646  -2.110  0.00  0.00     0.003 C 
ATOM     16  C   UNL d   1      12.991   8.559  -1.471  0.00  0.00     0.003 C 
ENDBRANCH  12  14
ENDBRANCH  10  12
ENDBRANCH   6   9
ENDBRANCH   2   3
ENDBRANCH   1   2
BRANCH   1  17
ATOM     17  N   UNL d   1       7.608   5.943 -12.753  0.00  0.00     0.141 N 
ATOM     18  C   UNL d   1       8.356   5.202 -13.780  0.00  0.00     0.274 C 
ATOM     19  C   UNL d   1       8.378   3.698 -13.454  0.00  0.00     0.137 C 
ATOM     20  N   UNL d   1       7.002   3.225 -13.272  0.00  0.00    -0.343 N 
ATOM     21  C   UNL d   1       6.175   3.958 -12.309  0.00  0.00     0.137 C 
ATOM     22  C   UNL d   1       6.225   5.457 -12.655  0.00  0.00     0.274 C 
BRANCH  20  23
ATOM     23  C   UNL d   1       6.521   2.102 -13.972  0.00  0.00     0.081 A 
ATOM     24  C   UNL d   1       7.035   1.732 -15.231  0.00  0.00     0.135 A 
ATOM     25  C   UNL d   1       6.602   0.600 -15.908  0.00  0.00     0.121 A 
ATOM     26  O   UNL d   1       7.961   2.367 -15.996  0.00  0.00    -0.298 OA
ATOM     27  C   UNL d   1       5.606  -0.230 -15.367  0.00  0.00     0.026 A 
ATOM     28  O   UNL d   1       7.243   0.502 -17.100  0.00  0.00    -0.299 OA
ATOM     29  C   UNL d   1       5.070   0.103 -14.105  0.00  0.00     0.004 A 
ATOM     30  C   UNL d   1       5.528   1.254 -13.411  0.00  0.00     0.019 A 
ATOM     31  C   UNL d   1       8.126   1.598 -17.149  0.00  0.00     0.304 A 
ENDBRANCH  20  23
ENDBRANCH   1  17
TORSDOF 7
