REMARK  6 active torsions:
REMARK  status: ('A' for Active; 'I' for Inactive)
REMARK    1  A    between atoms: C_5  and  C_6 
REMARK    2  A    between atoms: N_14  and  C_15 
REMARK    3  A    between atoms: C_15  and  C_16 
REMARK    4  A    between atoms: C_17  and  C_18 
REMARK    5  A    between atoms: C_18  and  O_19 
REMARK    6  A    between atoms: O_19  and  C_20 
ROOT
ATOM      1  C   UNL d   1       7.926   6.034 -11.142  0.00  0.00     0.276 C 
ENDROOT
BRANCH   1   2
ATOM      2  N   UNL d   1       8.025   5.477 -12.473  0.00  0.00     0.145 N 
ATOM      3  C   UNL d   1       9.382   5.146 -12.881  0.00  0.00     0.249 C 
ATOM      4  C   UNL d   1      10.083   4.130 -12.003  0.00  0.00     0.038 C 
ATOM      5  C   UNL d   1       9.429   4.623 -14.316  0.00  0.00     0.176 C 
ATOM      6  O   UNL d   1       8.612   3.461 -14.393  0.00  0.00    -0.348 OA
ATOM      7  C   UNL d   1       7.263   3.645 -13.941  0.00  0.00     0.172 C 
ATOM      8  C   UNL d   1       7.170   4.325 -12.563  0.00  0.00     0.284 C 
BRANCH   7   9
ATOM      9  C   UNL d   1       6.472   2.370 -14.085  0.00  0.00     0.026 A 
ATOM     10  C   UNL d   1       5.464   2.011 -13.177  0.00  0.00     0.098 A 
ATOM     11  N   UNL d   1       4.755   0.883 -13.267  0.00  0.00    -0.230 NA
ATOM     12  C   UNL d   1       4.977   0.071 -14.311  0.00  0.00     0.151 A 
ATOM     13  C   UNL d   1       5.934   0.323 -15.291  0.00  0.00     0.033 A 
ATOM     14  N   UNL d   1       4.135  -1.029 -14.356  0.00  0.00    -0.080 NA
ATOM     15  C   UNL d   1       6.707   1.490 -15.190  0.00  0.00     0.002 A 
ENDBRANCH   7   9
ENDBRANCH   1   2
BRANCH   1  16
ATOM     16  C   UNL d   1       8.852   7.205 -10.977  0.00  0.00     0.007 C 
ATOM     17  C   UNL d   1       9.673   7.309  -9.926  0.00  0.00     0.004 C 
BRANCH  17  18
ATOM     18  C   UNL d   1      10.603   8.488  -9.648  0.00  0.00     0.175 C 
BRANCH  18  19
ATOM     19  O   UNL d   1      10.397   9.126  -8.382  0.00  0.00    -0.326 OA
BRANCH  19  20
ATOM     20  C   UNL d   1      10.861   8.498  -7.239  0.00  0.00     0.096 A 
ATOM     21  C   UNL d   1      10.961   9.277  -6.049  0.00  0.00     0.043 A 
ATOM     22  C   UNL d   1      11.402   8.678  -4.860  0.00  0.00     0.082 A 
ATOM     23  C   UNL d   1      11.705   7.313  -4.817  0.00  0.00    -0.004 A 
ATOM     24  N   UNL d   1      11.610   9.446  -3.693  0.00  0.00    -0.212 NA
ATOM     25  C   UNL d   1      11.596   6.535  -5.989  0.00  0.00    -0.001 A 
ATOM     26  C   UNL d   1      12.327   6.698  -3.564  0.00  0.00     0.038 C 
ATOM     27  C   UNL d   1      11.232   7.130  -7.204  0.00  0.00     0.024 A 
ATOM     28  C   UNL d   1      11.793   7.390  -2.324  0.00  0.00     0.095 C 
ATOM     29  C   UNL d   1      11.929   8.897  -2.506  0.00  0.00     0.256 C 
ATOM     30  O   UNL d   1      12.276   9.566  -1.557  0.00  0.00    -0.270 OA
ENDBRANCH  19  20
ENDBRANCH  18  19
ENDBRANCH  17  18
ENDBRANCH   1  16
TORSDOF 6
