REMARK  11 active torsions:
REMARK  status: ('A' for Active; 'I' for Inactive)
REMARK    1  A    between atoms: C_7  and  C_8 
REMARK    2  A    between atoms: C_8  and  C_9 
REMARK    3  A    between atoms: C_9  and  N_10 
REMARK    4  A    between atoms: N_10  and  C_11 
REMARK    5  A    between atoms: C_11  and  C_12 
REMARK    6  A    between atoms: C_15  and  C_16 
REMARK    7  A    between atoms: C_16  and  C_17 
REMARK    8  A    between atoms: C_17  and  N_18 
REMARK    9  A    between atoms: N_18  and  C_19 
REMARK   10  A    between atoms: C_19  and  C_20 
REMARK   11  A    between atoms: C_20  and  C_22 
ROOT
ATOM      1  C   UNL d   1       8.544   4.270 -13.041  0.00  0.00     0.013 A 
ATOM      2  C   UNL d   1       9.701   3.696 -13.605  0.00  0.00    -0.003 A 
ATOM      3  C   UNL d   1       9.589   2.689 -14.583  0.00  0.00    -0.004 A 
ATOM      4  C   UNL d   1       8.316   2.241 -14.999  0.00  0.00    -0.020 A 
ATOM      5  C   UNL d   1       7.158   2.797 -14.413  0.00  0.00    -0.004 A 
ATOM      6  C   UNL d   1       7.272   3.819 -13.450  0.00  0.00    -0.003 A 
ENDROOT
BRANCH   4   7
ATOM      7  C   UNL d   1       8.195   1.166 -16.066  0.00  0.00     0.065 C 
BRANCH   7   8
ATOM      8  C   UNL d   1       7.265   1.578 -17.216  0.00  0.00     0.295 C 
BRANCH   8   9
ATOM      9  N   UNL d   1       7.206   0.553 -18.246  0.00  0.00     0.343 N 
BRANCH   9  10
ATOM     10  C   UNL d   1       6.243   0.847 -19.303  0.00  0.00     0.327 C 
BRANCH  10  11
ATOM     11  C   UNL d   1       6.176  -0.298 -20.334  0.00  0.00     0.211 C 
ATOM     12  O   UNL d   1       5.449   0.137 -21.460  0.00  0.00    -0.216 OA
BRANCH  11  13
ATOM     13  C   UNL d   1       5.610  -1.602 -19.776  0.00  0.00     0.018 A 
ATOM     14  C   UNL d   1       6.155  -2.863 -20.110  0.00  0.00     0.052 A 
ATOM     15  C   UNL d   1       5.632  -4.048 -19.588  0.00  0.00     0.116 A 
ATOM     16  S   UNL d   1       7.500  -3.186 -21.176  0.00  0.00    -0.024 SA
ATOM     17  C   UNL d   1       4.539  -4.037 -18.710  0.00  0.00     0.149 A 
ATOM     18  N   UNL d   1       6.317  -5.194 -20.027  0.00  0.00    -0.200 NA
ATOM     19  C   UNL d   1       3.962  -2.791 -18.382  0.00  0.00     0.029 A 
ATOM     20  O   UNL d   1       4.056  -5.196 -18.168  0.00  0.00    -0.189 OA
ATOM     21  C   UNL d   1       4.487  -1.591 -18.910  0.00  0.00     0.001 A 
ATOM     22  C   UNL d   1       7.374  -4.969 -20.892  0.00  0.00     0.311 A 
ATOM     23  O   UNL d   1       8.123  -5.800 -21.399  0.00  0.00    -0.258 OA
ENDBRANCH  11  13
ENDBRANCH  10  11
ENDBRANCH   9  10
ENDBRANCH   8   9
ENDBRANCH   7   8
ENDBRANCH   4   7
BRANCH   1  24
ATOM     24  C   UNL d   1       8.662   5.349 -11.988  0.00  0.00     0.317 C 
BRANCH  24  25
ATOM     25  N   UNL d   1       8.854   4.797 -10.658  0.00  0.00     0.344 N 
BRANCH  25  26
ATOM     26  C   UNL d   1       8.844   5.865  -9.670  0.00  0.00     0.295 C 
BRANCH  26  27
ATOM     27  C   UNL d   1      10.269   6.137  -9.178  0.00  0.00     0.066 C 
BRANCH  27  28
ATOM     28  C   UNL d   1      10.335   7.309  -8.249  0.00  0.00     0.001 A 
ATOM     29  C   UNL d   1      10.860   7.359  -6.908  0.00  0.00     0.015 A 
ATOM     30  C   UNL d   1      11.469   6.434  -6.053  0.00  0.00     0.001 A 
ATOM     31  C   UNL d   1      10.707   8.681  -6.406  0.00  0.00     0.077 A 
ATOM     32  C   UNL d   1      11.843   6.772  -4.730  0.00  0.00    -0.000 A 
ATOM     33  C   UNL d   1      11.697   8.090  -4.264  0.00  0.00    -0.003 A 
ATOM     34  C   UNL d   1      11.118   9.054  -5.110  0.00  0.00    -0.004 A 
ATOM     35  C   UNL d   1      10.918  10.463  -4.624  0.00  0.00     0.033 C 
ATOM     36  N   UNL d   1      10.113   9.375  -7.425  0.00  0.00    -0.245 NA
ATOM     37  C   UNL d   1       9.883   8.570  -8.525  0.00  0.00     0.095 A 
ENDBRANCH  27  28
ENDBRANCH  26  27
ENDBRANCH  25  26
ENDBRANCH  24  25
ENDBRANCH   1  24
TORSDOF 11
