REMARK  7 active torsions:
REMARK  status: ('A' for Active; 'I' for Inactive)
REMARK    1  A    between atoms: C_6  and  N_7 
REMARK    2  A    between atoms: N_12  and  C_13 
REMARK    3  A    between atoms: C_13  and  C_14 
REMARK    4  A    between atoms: C_14  and  C_15 
REMARK    5  A    between atoms: C_15  and  S_16 
REMARK    6  A    between atoms: S_16  and  C_17 
REMARK    7  A    between atoms: C_20  and  C_21 
ROOT
ATOM      1  C   UNL d   1      11.309   3.168 -18.380  0.00  0.00     0.251 C 
ENDROOT
BRANCH   1   2
ATOM      2  N   UNL d   1      11.055   3.551 -16.998  0.00  0.00     0.139 N 
ATOM      3  C   UNL d   1      12.165   3.222 -16.118  0.00  0.00     0.252 C 
ATOM      4  C   UNL d   1      11.548   3.283 -14.721  0.00  0.00     0.058 C 
ATOM      5  C   UNL d   1      11.525   4.654 -14.047  0.00  0.00     0.028 C 
ATOM      6  C   UNL d   1      10.092   2.918 -14.929  0.00  0.00     0.117 C 
ATOM      7  C   UNL d   1      10.156   4.675 -13.365  0.00  0.00     0.102 C 
ATOM      8  N   UNL d   1       9.282   3.938 -14.254  0.00  0.00    -0.348 N 
ATOM      9  C   UNL d   1       9.877   2.897 -16.439  0.00  0.00     0.272 C 
BRANCH   8  10
ATOM     10  C   UNL d   1       7.985   3.588 -13.818  0.00  0.00     0.056 A 
ATOM     11  C   UNL d   1       7.310   4.397 -12.857  0.00  0.00     0.017 A 
ATOM     12  C   UNL d   1       6.044   4.011 -12.371  0.00  0.00     0.001 A 
ATOM     13  C   UNL d   1       5.448   2.826 -12.820  0.00  0.00    -0.004 A 
ATOM     14  C   UNL d   1       6.086   2.029 -13.789  0.00  0.00    -0.020 A 
ATOM     15  C   UNL d   1       5.456   0.744 -14.284  0.00  0.00     0.031 C 
ATOM     16  C   UNL d   1       7.339   2.431 -14.294  0.00  0.00     0.013 A 
ENDBRANCH   8  10
ENDBRANCH   1   2
BRANCH   1  17
ATOM     17  C   UNL d   1      10.135   3.616 -19.248  0.00  0.00     0.047 C 
BRANCH  17  18
ATOM     18  C   UNL d   1      10.408   3.502 -20.756  0.00  0.00     0.067 C 
BRANCH  18  19
ATOM     19  S   UNL d   1       8.898   3.579 -21.767  0.00  0.00    -0.075 SA
BRANCH  19  20
ATOM     20  C   UNL d   1       8.380   5.248 -21.502  0.00  0.00     0.193 A 
ATOM     21  N   UNL d   1       7.342   5.807 -22.135  0.00  0.00    -0.287 N 
ATOM     22  C   UNL d   1       7.292   7.037 -21.544  0.00  0.00     0.186 A 
ATOM     23  C   UNL d   1       6.495   5.229 -23.177  0.00  0.00     0.134 C 
ATOM     24  N   UNL d   1       8.237   7.215 -20.630  0.00  0.00    -0.127 NA
ATOM     25  N   UNL d   1       8.981   6.056 -20.618  0.00  0.00    -0.122 NA
BRANCH  22  26
ATOM     26  C   UNL d   1       6.349   8.121 -21.826  0.00  0.00     0.136 A 
ATOM     27  N   UNL d   1       5.485   8.006 -22.858  0.00  0.00    -0.238 NA
ATOM     28  C   UNL d   1       4.647   9.036 -23.088  0.00  0.00     0.120 A 
ATOM     29  C   UNL d   1       4.667  10.198 -22.281  0.00  0.00     0.120 A 
ATOM     30  N   UNL d   1       5.527  10.329 -21.249  0.00  0.00    -0.239 NA
ATOM     31  C   UNL d   1       6.354   9.293 -21.024  0.00  0.00     0.121 A 
ENDBRANCH  22  26
ENDBRANCH  19  20
ENDBRANCH  18  19
ENDBRANCH  17  18
ENDBRANCH   1  17
TORSDOF 7
