REMARK  8 active torsions:
REMARK  status: ('A' for Active; 'I' for Inactive)
REMARK    1  A    between atoms: O_2  and  C_3 
REMARK    2  A    between atoms: C_8  and  N_9 
REMARK    3  A    between atoms: N_12  and  C_13 
REMARK    4  A    between atoms: C_13  and  C_14 
REMARK    5  A    between atoms: C_14  and  C_15 
REMARK    6  A    between atoms: C_15  and  C_16 
REMARK    7  A    between atoms: C_16  and  N_17 
REMARK       I    between atoms: N_17  and  C_18 
REMARK    8  A    between atoms: C_18  and  C_20 
ROOT
ATOM      1  C   UNL d   1      10.353   3.357 -14.453  0.00  0.00     0.251 C 
ENDROOT
BRANCH   1   2
ATOM      2  N   UNL d   1       9.932   2.493 -15.563  0.00  0.00     0.141 N 
ATOM      3  C   UNL d   1       9.809   1.091 -15.162  0.00  0.00     0.274 C 
ATOM      4  C   UNL d   1       9.383   0.228 -16.363  0.00  0.00     0.137 C 
ATOM      5  N   UNL d   1       8.159   0.765 -16.960  0.00  0.00    -0.343 N 
ATOM      6  C   UNL d   1       8.222   2.174 -17.344  0.00  0.00     0.137 C 
ATOM      7  C   UNL d   1       8.675   2.985 -16.131  0.00  0.00     0.274 C 
BRANCH   5   8
ATOM      8  C   UNL d   1       7.053  -0.003 -17.189  0.00  0.00     0.079 A 
ATOM      9  C   UNL d   1       5.982  -0.096 -16.247  0.00  0.00     0.110 A 
ATOM     10  C   UNL d   1       4.860  -0.913 -16.552  0.00  0.00     0.026 A 
ATOM     11  C   UNL d   1       4.796  -1.625 -17.759  0.00  0.00     0.002 A 
ATOM     12  C   UNL d   1       5.851  -1.542 -18.687  0.00  0.00     0.002 A 
ATOM     13  C   UNL d   1       6.969  -0.738 -18.401  0.00  0.00     0.019 A 
BRANCH   9  14
ATOM     14  O   UNL d   1       6.092   0.627 -15.076  0.00  0.00    -0.327 OA
ATOM     15  C   UNL d   1       5.212   0.305 -14.006  0.00  0.00     0.181 C 
ENDBRANCH   9  14
ENDBRANCH   5   8
ENDBRANCH   1   2
BRANCH   1  16
ATOM     16  C   UNL d   1       9.343   3.383 -13.296  0.00  0.00     0.037 C 
BRANCH  16  17
ATOM     17  C   UNL d   1       9.531   4.544 -12.337  0.00  0.00     0.029 C 
BRANCH  17  18
ATOM     18  C   UNL d   1       8.238   4.964 -11.623  0.00  0.00     0.129 C 
BRANCH  18  19
ATOM     19  N   UNL d   1       8.507   5.801 -10.459  0.00  0.00    -0.234 NA
ATOM     20  C   UNL d   1       9.193   5.398  -9.379  0.00  0.00     0.275 C 
ATOM     21  O   UNL d   1       9.542   4.246  -9.141  0.00  0.00    -0.266 OA
BRANCH  20  22
ATOM     22  C   UNL d   1       9.578   6.484  -8.452  0.00  0.00     0.060 A 
ATOM     23  C   UNL d   1      10.786   7.187  -8.643  0.00  0.00     0.031 A 
ATOM     24  C   UNL d   1      11.123   8.170  -7.703  0.00  0.00     0.119 A 
ATOM     25  C   UNL d   1      10.287   8.475  -6.651  0.00  0.00     0.119 A 
ATOM     26  O   UNL d   1      12.231   8.947  -7.632  0.00  0.00    -0.300 OA
ATOM     27  C   UNL d   1       9.078   7.791  -6.464  0.00  0.00     0.026 A 
ATOM     28  O   UNL d   1      10.820   9.466  -5.902  0.00  0.00    -0.300 OA
ATOM     29  C   UNL d   1       8.733   6.769  -7.357  0.00  0.00     0.007 A 
ATOM     30  C   UNL d   1      12.041   9.778  -6.513  0.00  0.00     0.304 A 
ENDBRANCH  20  22
ENDBRANCH  18  19
ENDBRANCH  17  18
ENDBRANCH  16  17
ENDBRANCH   1  16
TORSDOF 8
