REMARK  7 active torsions:
REMARK  status: ('A' for Active; 'I' for Inactive)
REMARK    1  A    between atoms: C_2  and  C_3 
REMARK       I    between atoms: C_2  and  N_11 
REMARK    2  A    between atoms: C_14  and  C_16 
REMARK    3  A    between atoms: C_16  and  N_17 
REMARK    4  A    between atoms: N_17  and  C_18 
REMARK    5  A    between atoms: C_18  and  C_19 
REMARK    6  A    between atoms: C_19  and  O_20 
REMARK    7  A    between atoms: O_20  and  C_21 
ROOT
ATOM      1  O   UNL d   1       8.893   0.912 -14.820  0.00  0.00    -0.267 OA
ATOM      2  C   UNL d   1       7.822   1.460 -14.545  0.00  0.00     0.257 C 
ATOM      3  N   UNL d   1       7.725   2.751 -14.104  0.00  0.00    -0.317 N 
ATOM      4  C   UNL d   1       8.934   3.609 -14.053  0.00  0.00     0.107 C 
ATOM      5  C   UNL d   1       9.123   4.199 -12.652  0.00  0.00     0.059 C 
ATOM      6  C   UNL d   1       7.855   4.944 -12.172  0.00  0.00     0.172 C 
ATOM      7  F   UNL d   1       7.655   6.005 -12.955  0.00  0.00    -0.238 F 
ATOM      8  C   UNL d   1       6.619   4.030 -12.301  0.00  0.00     0.059 C 
ATOM      9  C   UNL d   1       6.471   3.460 -13.728  0.00  0.00     0.107 C 
ENDROOT
BRANCH   6  10
ATOM     10  C   UNL d   1       7.984   5.462 -10.735  0.00  0.00     0.323 C 
BRANCH  10  11
ATOM     11  N   UNL d   1       9.094   6.394 -10.632  0.00  0.00     0.345 N 
BRANCH  11  12
ATOM     12  C   UNL d   1       9.866   6.147  -9.428  0.00  0.00     0.323 C 
BRANCH  12  13
ATOM     13  C   UNL d   1       9.029   6.487  -8.173  0.00  0.00     0.187 C 
BRANCH  13  14
ATOM     14  O   UNL d   1       9.830   6.411  -7.002  0.00  0.00    -0.329 OA
BRANCH  14  15
ATOM     15  C   UNL d   1      10.528   7.527  -6.617  0.00  0.00     0.092 A 
ATOM     16  C   UNL d   1      11.104   7.578  -5.324  0.00  0.00     0.019 A 
ATOM     17  C   UNL d   1      11.755   8.707  -4.848  0.00  0.00     0.074 A 
ATOM     18  C   UNL d   1      11.136   6.503  -4.294  0.00  0.00     0.056 A 
ATOM     19  C   UNL d   1      11.898   9.825  -5.673  0.00  0.00     0.018 A 
ATOM     20  N   UNL d   1      12.223   8.567  -3.562  0.00  0.00    -0.271 NA
ATOM     21  C   UNL d   1      11.368   9.784  -6.969  0.00  0.00     0.004 A 
ATOM     22  C   UNL d   1      10.690   8.656  -7.456  0.00  0.00     0.024 A 
ATOM     23  C   UNL d   1      11.961   7.181  -3.173  0.00  0.00     0.130 A 
ENDBRANCH  14  15
ENDBRANCH  13  14
ENDBRANCH  12  13
ENDBRANCH  11  12
ENDBRANCH  10  11
ENDBRANCH   6  10
BRANCH   2  24
ATOM     24  C   UNL d   1       6.557   0.690 -14.814  0.00  0.00     0.057 A 
ATOM     25  C   UNL d   1       6.350   0.113 -16.085  0.00  0.00     0.018 A 
ATOM     26  C   UNL d   1       5.168  -0.595 -16.370  0.00  0.00     0.085 A 
ATOM     27  C   UNL d   1       4.186  -0.727 -15.364  0.00  0.00     0.151 A 
ATOM     28 CL   UNL d   1       4.892  -1.258 -17.939  0.00  0.00    -0.080 Cl
ATOM     29  C   UNL d   1       4.390  -0.174 -14.092  0.00  0.00     0.031 A 
ATOM     30  F   UNL d   1       3.013  -1.347 -15.653  0.00  0.00    -0.203 F 
ATOM     31  C   UNL d   1       5.587   0.518 -13.799  0.00  0.00     0.007 A 
ENDBRANCH   2  24
TORSDOF 7
