REMARK  7 active torsions:
REMARK  status: ('A' for Active; 'I' for Inactive)
REMARK       I    between atoms: C_2  and  N_3 
REMARK    1  A    between atoms: C_2  and  C_24 
REMARK    2  A    between atoms: N_3  and  C_4 
REMARK    3  A    between atoms: C_4  and  C_5 
REMARK    4  A    between atoms: C_5  and  C_6 
REMARK    5  A    between atoms: C_6  and  C_7 
REMARK    6  A    between atoms: C_7  and  N_8 
REMARK    7  A    between atoms: N_11  and  C_12 
ROOT
ATOM      1  C   UNL d   1       7.917   6.293 -12.291  0.00  0.00     0.251 C 
ENDROOT
BRANCH   1   2
ATOM      2  C   UNL d   1       9.024   6.608 -11.289  0.00  0.00     0.037 C 
BRANCH   2   3
ATOM      3  C   UNL d   1       9.483   8.066 -11.382  0.00  0.00     0.029 C 
BRANCH   3   4
ATOM      4  C   UNL d   1      10.677   8.336 -10.459  0.00  0.00     0.129 C 
BRANCH   4   5
ATOM      5  N   UNL d   1      10.290   8.526  -9.075  0.00  0.00    -0.234 NA
ATOM      6  C   UNL d   1      10.418   7.576  -8.131  0.00  0.00     0.276 C 
ATOM      7  O   UNL d   1      10.403   6.370  -8.365  0.00  0.00    -0.266 OA
BRANCH   6   8
ATOM      8  C   UNL d   1      10.749   8.081  -6.759  0.00  0.00     0.077 A 
ATOM      9  C   UNL d   1      11.119   7.171  -5.749  0.00  0.00     0.008 A 
ATOM     10  C   UNL d   1      11.507   7.678  -4.498  0.00  0.00     0.018 A 
ATOM     11  C   UNL d   1      11.497   9.084  -4.288  0.00  0.00     0.081 A 
ATOM     12  C   UNL d   1      11.896   6.795  -3.472  0.00  0.00     0.002 A 
ATOM     13  N   UNL d   1      11.134   9.952  -5.253  0.00  0.00    -0.244 NA
ATOM     14  C   UNL d   1      11.866   9.576  -3.026  0.00  0.00     0.019 A 
ATOM     15  C   UNL d   1      10.777   9.456  -6.449  0.00  0.00     0.104 A 
ATOM     16  C   UNL d   1      12.274   8.700  -2.008  0.00  0.00     0.002 A 
ATOM     17  C   UNL d   1      12.266   7.311  -2.222  0.00  0.00     0.000 A 
ENDBRANCH   6   8
ENDBRANCH   4   5
ENDBRANCH   3   4
ENDBRANCH   2   3
ENDBRANCH   1   2
BRANCH   1  18
ATOM     18  N   UNL d   1       7.858   4.861 -12.542  0.00  0.00     0.141 N 
ATOM     19  C   UNL d   1       8.878   4.485 -13.535  0.00  0.00     0.274 C 
ATOM     20  C   UNL d   1       8.802   2.977 -13.835  0.00  0.00     0.137 C 
ATOM     21  N   UNL d   1       7.458   2.603 -14.239  0.00  0.00    -0.344 N 
ATOM     22  C   UNL d   1       6.366   3.087 -13.395  0.00  0.00     0.137 C 
ATOM     23  C   UNL d   1       6.525   4.568 -13.069  0.00  0.00     0.274 C 
BRANCH  21  24
ATOM     24  C   UNL d   1       7.245   1.810 -15.415  0.00  0.00     0.056 A 
ATOM     25  C   UNL d   1       6.305   0.756 -15.467  0.00  0.00     0.015 A 
ATOM     26  C   UNL d   1       6.107   0.049 -16.700  0.00  0.00     0.001 A 
ATOM     27  C   UNL d   1       5.539   0.324 -14.334  0.00  0.00     0.001 A 
ATOM     28  C   UNL d   1       6.864   0.391 -17.841  0.00  0.00     0.000 A 
ATOM     29  C   UNL d   1       5.171  -1.006 -16.796  0.00  0.00     0.000 A 
ATOM     30  C   UNL d   1       7.810   1.422 -17.782  0.00  0.00     0.002 A 
ATOM     31  C   UNL d   1       8.001   2.129 -16.569  0.00  0.00     0.017 A 
ATOM     32  C   UNL d   1       4.390  -1.369 -15.682  0.00  0.00     0.000 A 
ATOM     33  C   UNL d   1       4.570  -0.680 -14.472  0.00  0.00     0.000 A 
ENDBRANCH  21  24
ENDBRANCH   1  18
TORSDOF 7
