REMARK  8 active torsions:
REMARK  status: ('A' for Active; 'I' for Inactive)
REMARK    1  A    between atoms: O_2  and  C_3 
REMARK    2  A    between atoms: C_8  and  N_9 
REMARK    3  A    between atoms: N_12  and  C_13 
REMARK    4  A    between atoms: C_13  and  C_14 
REMARK    5  A    between atoms: C_14  and  C_15 
REMARK    6  A    between atoms: C_15  and  C_16 
REMARK    7  A    between atoms: C_16  and  N_17 
REMARK    8  A    between atoms: C_19  and  C_20 
ROOT
ATOM      1  C   UNL d   1       8.994   6.236 -11.184  0.00  0.00     0.251 C 
ENDROOT
BRANCH   1   2
ATOM      2  N   UNL d   1       8.476   5.671 -12.424  0.00  0.00     0.141 N 
ATOM      3  C   UNL d   1       7.826   4.384 -12.126  0.00  0.00     0.274 C 
ATOM      4  C   UNL d   1       7.222   3.763 -13.407  0.00  0.00     0.137 C 
ATOM      5  N   UNL d   1       8.260   3.640 -14.429  0.00  0.00    -0.343 N 
ATOM      6  C   UNL d   1       8.978   4.878 -14.695  0.00  0.00     0.137 C 
ATOM      7  C   UNL d   1       9.562   5.408 -13.380  0.00  0.00     0.274 C 
BRANCH   5   8
ATOM      8  C   UNL d   1       8.561   2.432 -15.064  0.00  0.00     0.079 A 
ATOM      9  C   UNL d   1       9.908   2.025 -15.326  0.00  0.00     0.110 A 
ATOM     10  C   UNL d   1      10.141   0.820 -16.016  0.00  0.00     0.026 A 
ATOM     11  C   UNL d   1       9.075   0.000 -16.423  0.00  0.00     0.002 A 
ATOM     12  C   UNL d   1       7.752   0.390 -16.149  0.00  0.00     0.002 A 
ATOM     13  C   UNL d   1       7.498   1.595 -15.483  0.00  0.00     0.019 A 
BRANCH   9  14
ATOM     14  O   UNL d   1      10.944   2.790 -14.836  0.00  0.00    -0.327 OA
ATOM     15  C   UNL d   1      12.107   2.895 -15.649  0.00  0.00     0.181 C 
ENDBRANCH   9  14
ENDBRANCH   5   8
ENDBRANCH   1   2
BRANCH   1  16
ATOM     16  C   UNL d   1       9.471   7.705 -11.333  0.00  0.00     0.037 C 
BRANCH  16  17
ATOM     17  C   UNL d   1      10.266   8.197 -10.121  0.00  0.00     0.029 C 
BRANCH  17  18
ATOM     18  C   UNL d   1       9.424   8.333  -8.845  0.00  0.00     0.129 C 
BRANCH  18  19
ATOM     19  N   UNL d   1      10.217   8.565  -7.664  0.00  0.00    -0.231 N 
ATOM     20  N   UNL d   1      11.098   9.573  -7.643  0.00  0.00    -0.064 NA
ATOM     21  N   UNL d   1      11.636   9.598  -6.476  0.00  0.00    -0.129 NA
ATOM     22  C   UNL d   1      11.126   8.545  -5.726  0.00  0.00     0.123 A 
ATOM     23  C   UNL d   1      10.188   7.888  -6.471  0.00  0.00     0.118 A 
BRANCH  22  24
ATOM     24  C   UNL d   1      11.615   8.299  -4.397  0.00  0.00     0.021 A 
ATOM     25  C   UNL d   1      11.857   6.975  -3.983  0.00  0.00     0.002 A 
ATOM     26  C   UNL d   1      12.305   6.735  -2.680  0.00  0.00     0.000 A 
ATOM     27  C   UNL d   1      12.533   7.813  -1.815  0.00  0.00     0.000 A 
ATOM     28  C   UNL d   1      12.258   9.128  -2.207  0.00  0.00     0.000 A 
ATOM     29  C   UNL d   1      11.817   9.376  -3.512  0.00  0.00     0.002 A 
ENDBRANCH  22  24
ENDBRANCH  18  19
ENDBRANCH  17  18
ENDBRANCH  16  17
ENDBRANCH   1  16
TORSDOF 8
