REMARK  5 active torsions:
REMARK  status: ('A' for Active; 'I' for Inactive)
REMARK    1  A    between atoms: O_2  and  C_3 
REMARK    2  A    between atoms: C_8  and  O_9 
REMARK    3  A    between atoms: N_20  and  C_21 
REMARK    4  A    between atoms: C_21  and  C_22 
REMARK    5  A    between atoms: C_22  and  C_23 
ROOT
ATOM      1  C   UNL d   1      13.261   5.715 -17.136  0.00  0.00     0.116 A 
ATOM      2  C   UNL d   1      12.482   5.322 -16.021  0.00  0.00     0.022 A 
ATOM      3  C   UNL d   1      11.999   4.002 -15.891  0.00  0.00    -0.022 A 
ATOM      4  C   UNL d   1      12.278   3.053 -16.912  0.00  0.00    -0.020 A 
ATOM      5  C   UNL d   1      13.060   3.447 -18.015  0.00  0.00     0.022 A 
ATOM      6  C   UNL d   1      13.560   4.766 -18.136  0.00  0.00     0.116 A 
ATOM      7  C   UNL d   1      11.795   1.604 -16.877  0.00  0.00     0.052 C 
ATOM      8  C   UNL d   1      10.845   1.187 -18.002  0.00  0.00    -0.022 A 
ATOM      9  C   UNL d   1      11.282   0.189 -18.903  0.00  0.00    -0.004 A 
ATOM     10  C   UNL d   1      10.447  -0.255 -19.944  0.00  0.00    -0.000 A 
ATOM     11  C   UNL d   1       9.159   0.287 -20.092  0.00  0.00    -0.000 A 
ATOM     12  C   UNL d   1       8.710   1.278 -19.203  0.00  0.00    -0.004 A 
ATOM     13  C   UNL d   1       9.543   1.736 -18.161  0.00  0.00    -0.024 A 
ATOM     14  C   UNL d   1       9.024   2.831 -17.254  0.00  0.00     0.061 C 
ATOM     15  C   UNL d   1       8.723   2.333 -15.827  0.00  0.00     0.255 C 
ATOM     16  N   UNL d   1       8.603   3.421 -14.855  0.00  0.00     0.138 N 
ATOM     17  C   UNL d   1       9.738   4.356 -14.831  0.00  0.00     0.255 C 
ATOM     18  C   UNL d   1      11.133   3.705 -14.677  0.00  0.00     0.061 C 
ENDROOT
BRANCH  16  19
ATOM     19  C   UNL d   1       8.269   2.863 -13.550  0.00  0.00     0.255 C 
BRANCH  19  20
ATOM     20  C   UNL d   1       7.325   3.753 -12.703  0.00  0.00     0.062 C 
BRANCH  20  21
ATOM     21  C   UNL d   1       7.936   5.061 -12.260  0.00  0.00    -0.020 A 
ATOM     22  C   UNL d   1       7.332   6.249 -12.680  0.00  0.00    -0.004 A 
ATOM     23  C   UNL d   1       7.953   7.482 -12.439  0.00  0.00    -0.000 A 
ATOM     24  C   UNL d   1       9.150   7.529 -11.709  0.00  0.00    -0.000 A 
ATOM     25  C   UNL d   1       9.736   6.345 -11.224  0.00  0.00    -0.000 A 
ATOM     26  C   UNL d   1       9.135   5.096 -11.505  0.00  0.00    -0.004 A 
ENDBRANCH  20  21
ENDBRANCH  19  20
ENDBRANCH  16  19
BRANCH   1  27
ATOM     27  O   UNL d   1      13.760   6.989 -17.309  0.00  0.00    -0.326 OA
ATOM     28  C   UNL d   1      13.346   8.002 -16.403  0.00  0.00     0.181 C 
ENDBRANCH   1  27
BRANCH   6  29
ATOM     29  O   UNL d   1      14.331   5.195 -19.196  0.00  0.00    -0.326 OA
ATOM     30  C   UNL d   1      14.616   4.275 -20.238  0.00  0.00     0.181 C 
ENDBRANCH   6  29
TORSDOF 5
