REMARK  5 active torsions:
REMARK  status: ('A' for Active; 'I' for Inactive)
REMARK       I    between atoms: N_2  and  C_3 
REMARK       I    between atoms: C_3  and  N_15 
REMARK    1  A    between atoms: N_4  and  C_5 
REMARK    2  A    between atoms: C_5  and  C_6 
REMARK    3  A    between atoms: C_6  and  S_7 
REMARK    4  A    between atoms: S_7  and  C_8 
REMARK    5  A    between atoms: C_8  and  C_9 
ROOT
ATOM      1  C   UNL d   1       8.765   5.880  -7.755  0.00  0.00     0.172 C 
ATOM      2  N   UNL d   1       8.296   5.337  -9.011  0.00  0.00    -0.083 NA
ATOM      3  C   UNL d   1       8.767   5.586 -10.323  0.00  0.00     0.751 C 
ATOM      4  N   UNL d   1       9.804   6.169 -10.705  0.00  0.00    -0.085 NA
ATOM      5  N   UNL d   1       7.869   5.008 -11.247  0.00  0.00     0.018 NA
ATOM      6  C   UNL d   1       8.160   4.872 -12.585  0.00  0.00     0.223 C 
ATOM      7  N   UNL d   1       8.371   4.770 -13.713  0.00  0.00    -0.169 NA
ENDROOT
BRANCH   4   8
ATOM      8  C   UNL d   1      10.740   6.848  -9.829  0.00  0.00     0.157 C 
BRANCH   8   9
ATOM      9  C   UNL d   1      10.219   8.235  -9.427  0.00  0.00     0.085 C 
BRANCH   9  10
ATOM     10  S   UNL d   1      11.100   8.906  -7.955  0.00  0.00    -0.132 SA
BRANCH  10  11
ATOM     11  C   UNL d   1      10.205   8.355  -6.455  0.00  0.00     0.104 C 
BRANCH  11  12
ATOM     12  C   UNL d   1      11.000   8.572  -5.236  0.00  0.00     0.085 A 
ATOM     13  C   UNL d   1      11.702   7.680  -4.447  0.00  0.00     0.076 A 
ATOM     14  N   UNL d   1      12.261   8.347  -3.349  0.00  0.00    -0.227 NA
ATOM     15  C   UNL d   1      11.868   6.206  -4.616  0.00  0.00     0.053 C 
ATOM     16  C   UNL d   1      11.866   9.610  -3.516  0.00  0.00     0.199 A 
ATOM     17  N   UNL d   1      11.111   9.796  -4.610  0.00  0.00    -0.227 NA
ENDBRANCH  11  12
ENDBRANCH  10  11
ENDBRANCH   9  10
ENDBRANCH   8   9
ENDBRANCH   4   8
TORSDOF 5
