REMARK  6 active torsions:
REMARK  status: ('A' for Active; 'I' for Inactive)
REMARK    1  A    between atoms: S_2  and  N_4 
REMARK    2  A    between atoms: S_2  and  C_23 
REMARK    3  A    between atoms: N_4  and  C_5 
REMARK    4  A    between atoms: C_5  and  C_6 
REMARK    5  A    between atoms: C_6  and  N_7 
REMARK    6  A    between atoms: C_10  and  C_11 
ROOT
ATOM      1  N   UNL d   1       8.230   4.417 -13.216  0.00  0.00     0.144 N 
ATOM      2  C   UNL d   1       7.076   4.695 -12.366  0.00  0.00     0.276 C 
ATOM      3  C   UNL d   1       7.478   5.343 -11.057  0.00  0.00     0.005 C 
ATOM      4  C   UNL d   1       8.726   5.398 -10.595  0.00  0.00    -0.021 C 
ATOM      5  C   UNL d   1       9.812   4.750 -11.403  0.00  0.00     0.061 C 
ATOM      6  C   UNL d   1       9.316   3.796 -12.466  0.00  0.00     0.255 C 
ENDROOT
BRANCH   1   7
ATOM      7  C   UNL d   1       7.805   3.606 -14.342  0.00  0.00     0.278 C 
BRANCH   7   8
ATOM      8  C   UNL d   1       8.899   3.529 -15.386  0.00  0.00     0.174 C 
BRANCH   8   9
ATOM      9  N   UNL d   1       9.514   4.814 -15.703  0.00  0.00    -0.183 NA
BRANCH   9  10
ATOM     10  S   UNL d   1      11.222   5.051 -15.569  0.00  0.00     0.281 S 
ATOM     11  O   UNL d   1      11.514   6.383 -16.113  0.00  0.00    -0.199 OA
ATOM     12  O   UNL d   1      11.653   4.713 -14.204  0.00  0.00    -0.199 OA
BRANCH  10  13
ATOM     13  C   UNL d   1      11.880   3.818 -16.694  0.00  0.00     0.107 A 
ATOM     14  C   UNL d   1      11.452   2.476 -16.643  0.00  0.00     0.043 A 
ATOM     15  C   UNL d   1      11.905   1.517 -17.537  0.00  0.00     0.141 A 
ATOM     16  C   UNL d   1      12.851   1.883 -18.494  0.00  0.00     0.030 A 
ATOM     17  F   UNL d   1      11.431   0.252 -17.441  0.00  0.00    -0.204 F 
ATOM     18  C   UNL d   1      13.318   3.213 -18.551  0.00  0.00     0.003 A 
ATOM     19  C   UNL d   1      12.830   4.191 -17.659  0.00  0.00     0.013 A 
ENDBRANCH  10  13
ENDBRANCH   9  10
ENDBRANCH   8   9
ENDBRANCH   7   8
ENDBRANCH   1   7
BRANCH   4  20
ATOM     20  C   UNL d   1       9.092   5.997  -9.311  0.00  0.00     0.017 A 
ATOM     21  C   UNL d   1      10.233   6.768  -8.990  0.00  0.00     0.020 A 
ATOM     22  C   UNL d   1      10.107   7.200  -7.636  0.00  0.00     0.082 A 
ATOM     23  C   UNL d   1      11.398   7.196  -9.667  0.00  0.00     0.013 A 
ATOM     24  N   UNL d   1       8.913   6.709  -7.202  0.00  0.00    -0.244 NA
ATOM     25  C   UNL d   1      11.092   7.979  -7.006  0.00  0.00     0.020 A 
ATOM     26  C   UNL d   1       8.261   5.957  -8.175  0.00  0.00     0.099 A 
ATOM     27  C   UNL d   1      12.254   8.336  -7.708  0.00  0.00     0.013 A 
ATOM     28  C   UNL d   1      12.403   7.918  -9.039  0.00  0.00     0.058 A 
ATOM     29 CL   UNL d   1      13.885   7.964  -9.884  0.00  0.00    -0.082 Cl
ENDBRANCH   4  20
TORSDOF 6
