REMARK  4 active torsions:
REMARK  status: ('A' for Active; 'I' for Inactive)
REMARK    1  A    between atoms: C_6  and  C_7 
REMARK       I    between atoms: C_7  and  N_9 
REMARK    2  A    between atoms: N_9  and  C_10 
REMARK    3  A    between atoms: C_10  and  N_11 
REMARK    4  A    between atoms: N_14  and  C_15 
ROOT
ATOM      1  C   UNL d   1       8.252   4.507 -12.208  0.00  0.00     0.066 A 
ATOM      2  C   UNL d   1       6.860   4.447 -11.989  0.00  0.00     0.018 A 
ATOM      3  C   UNL d   1       6.003   3.791 -12.887  0.00  0.00     0.002 A 
ATOM      4  C   UNL d   1       6.542   3.179 -14.029  0.00  0.00     0.001 A 
ATOM      5  C   UNL d   1       7.921   3.241 -14.279  0.00  0.00     0.012 A 
ATOM      6  C   UNL d   1       8.789   3.902 -13.387  0.00  0.00     0.084 A 
ATOM      7  C   UNL d   1      10.207   3.943 -13.725  0.00  0.00     0.102 C 
ATOM      8  N   UNL d   1      11.336   3.990 -14.002  0.00  0.00    -0.191 NA
ENDROOT
BRANCH   1   9
ATOM      9  N   UNL d   1       9.026   5.206 -11.268  0.00  0.00    -0.345 N 
ATOM     10  C   UNL d   1       9.118   4.803  -9.869  0.00  0.00     0.119 C 
ATOM     11  C   UNL d   1       8.924   6.034  -8.973  0.00  0.00     0.102 C 
ATOM     12  N   UNL d   1       9.877   7.104  -9.335  0.00  0.00    -0.232 NA
ATOM     13  C   UNL d   1       9.653   7.518 -10.728  0.00  0.00     0.102 C 
ATOM     14  C   UNL d   1       9.819   6.341 -11.680  0.00  0.00     0.119 C 
BRANCH  12  15
ATOM     15  C   UNL d   1       9.680   8.255  -8.470  0.00  0.00     0.152 C 
BRANCH  15  16
ATOM     16  N   UNL d   1      10.152   8.152  -7.099  0.00  0.00    -0.194 NA
ATOM     17  C   UNL d   1      11.350   8.588  -6.697  0.00  0.00     0.280 C 
ATOM     18  O   UNL d   1      12.226   9.014  -7.442  0.00  0.00    -0.265 OA
BRANCH  17  19
ATOM     19  C   UNL d   1      11.568   8.581  -5.227  0.00  0.00     0.058 A 
ATOM     20  C   UNL d   1      11.568   9.804  -4.541  0.00  0.00     0.005 A 
ATOM     21  C   UNL d   1      11.854   9.837  -3.164  0.00  0.00    -0.000 A 
ATOM     22  C   UNL d   1      12.124   8.652  -2.465  0.00  0.00    -0.004 A 
ATOM     23  C   UNL d   1      12.126   7.428  -3.148  0.00  0.00    -0.022 A 
ATOM     24  C   UNL d   1      12.394   6.170  -2.385  0.00  0.00     0.031 C 
ATOM     25  C   UNL d   1      11.826   7.384  -4.527  0.00  0.00     0.001 A 
ENDBRANCH  17  19
ENDBRANCH  15  16
ENDBRANCH  12  15
ENDBRANCH   1   9
TORSDOF 4
