REMARK  3 active torsions:
REMARK  status: ('A' for Active; 'I' for Inactive)
REMARK       I    between atoms: C_2  and  N_4 
REMARK    1  A    between atoms: N_4  and  C_5 
REMARK    2  A    between atoms: C_5  and  C_6 
REMARK    3  A    between atoms: C_12  and  N_13 
ROOT
ATOM      1  C   UNL d   1       5.642   0.397 -18.906  0.00  0.00     0.002 A 
ATOM      2  C   UNL d   1       4.753  -0.340 -18.090  0.00  0.00    -0.002 A 
ATOM      3  C   UNL d   1       5.052  -0.510 -16.729  0.00  0.00     0.006 A 
ATOM      4  C   UNL d   1       6.237   0.012 -16.179  0.00  0.00     0.027 A 
ATOM      5  C   UNL d   1       7.159   0.745 -16.993  0.00  0.00     0.015 A 
ATOM      6  C   UNL d   1       6.794   0.966 -18.344  0.00  0.00    -0.004 A 
ATOM      7  C   UNL d   1       8.547   1.284 -16.543  0.00  0.00     0.246 C 
ATOM      8  C   UNL d   1       8.750   1.601 -15.034  0.00  0.00     0.065 C 
ATOM      9  C   UNL d   1       7.600   2.260 -14.350  0.00  0.00    -0.014 A 
ATOM     10  C   UNL d   1       7.659   3.617 -13.968  0.00  0.00    -0.004 A 
ATOM     11  C   UNL d   1       6.599   4.189 -13.239  0.00  0.00    -0.000 A 
ATOM     12  C   UNL d   1       5.490   3.396 -12.878  0.00  0.00     0.001 A 
ATOM     13  C   UNL d   1       5.458   2.033 -13.232  0.00  0.00     0.006 A 
ATOM     14  C   UNL d   1       6.491   1.474 -13.990  0.00  0.00     0.025 A 
ATOM     15  S   UNL d   1       6.458  -0.219 -14.446  0.00  0.00    -0.087 SA
ENDROOT
BRANCH   7  16
ATOM     16  N   UNL d   1       9.660   0.474 -17.097  0.00  0.00     0.144 N 
ATOM     17  C   UNL d   1       9.844   0.607 -18.563  0.00  0.00     0.286 C 
ATOM     18  C   UNL d   1      10.375   2.031 -18.911  0.00  0.00     0.286 C 
ATOM     19  N   UNL d   1      11.655   2.313 -18.248  0.00  0.00     0.143 N 
ATOM     20  C   UNL d   1      11.511   2.137 -16.802  0.00  0.00     0.286 C 
ATOM     21  C   UNL d   1      12.142   3.650 -18.556  0.00  0.00     0.285 C 
ATOM     22  C   UNL d   1      10.978   0.724 -16.471  0.00  0.00     0.286 C 
ENDBRANCH   7  16
BRANCH   1  23
ATOM     23  C   UNL d   1       5.373   0.535 -20.397  0.00  0.00     0.155 C 
BRANCH  23  24
ATOM     24  N   UNL d   1       5.058  -0.721 -21.070  0.00  0.00    -0.233 NA
ATOM     25  C   UNL d   1       5.872  -1.772 -21.207  0.00  0.00     0.252 C 
ATOM     26  C   UNL d   1       5.305  -2.983 -21.939  0.00  0.00     0.100 C 
ATOM     27  O   UNL d   1       7.029  -1.796 -20.779  0.00  0.00    -0.271 OA
ENDBRANCH  23  24
ENDBRANCH   1  23
TORSDOF 3
