REMARK  5 active torsions:
REMARK  status: ('A' for Active; 'I' for Inactive)
REMARK    1  A    between atoms: O_2  and  C_3 
REMARK    2  A    between atoms: C_8  and  N_9 
REMARK    3  A    between atoms: N_12  and  C_13 
REMARK    4  A    between atoms: C_13  and  C_14 
REMARK    5  A    between atoms: C_16  and  C_17 
ROOT
ATOM      1  N   UNL d   1      10.102   7.078  -6.891  0.00  0.00    -0.343 N 
ATOM      2  C   UNL d   1      10.326   5.845  -7.624  0.00  0.00     0.137 C 
ATOM      3  C   UNL d   1      10.519   6.115  -9.123  0.00  0.00     0.275 C 
ATOM      4  N   UNL d   1       9.436   6.883  -9.715  0.00  0.00     0.145 N 
ATOM      5  C   UNL d   1       9.466   8.177  -9.007  0.00  0.00     0.275 C 
ATOM      6  C   UNL d   1       9.099   7.944  -7.519  0.00  0.00     0.137 C 
ENDROOT
BRANCH   4   7
ATOM      7  C   UNL d   1       9.737   7.052 -11.146  0.00  0.00     0.277 C 
BRANCH   7   8
ATOM      8  C   UNL d   1       9.440   5.852 -12.063  0.00  0.00     0.011 A 
ATOM      9  C   UNL d   1       8.184   5.291 -12.299  0.00  0.00    -0.002 A 
ATOM     10  C   UNL d   1       8.304   4.163 -13.264  0.00  0.00    -0.002 A 
ATOM     11  C   UNL d   1       7.069   5.767 -11.677  0.00  0.00    -0.000 A 
ATOM     12  C   UNL d   1       9.650   4.068 -13.585  0.00  0.00     0.010 A 
ATOM     13  C   UNL d   1       7.356   3.285 -13.760  0.00  0.00    -0.000 A 
ATOM     14  C   UNL d   1      10.332   5.075 -12.858  0.00  0.00    -0.004 A 
ATOM     15  C   UNL d   1       5.985   3.279 -13.446  0.00  0.00    -0.000 A 
ATOM     16  C   UNL d   1       5.280   4.186 -12.610  0.00  0.00    -0.000 A 
ATOM     17  C   UNL d   1       5.752   5.293 -11.850  0.00  0.00    -0.000 A 
BRANCH  12  18
ATOM     18  C   UNL d   1      10.361   3.106 -14.515  0.00  0.00     0.209 C 
ATOM     19  O   UNL d   1      10.188   1.775 -14.148  0.00  0.00    -0.215 OA
ENDBRANCH  12  18
ENDBRANCH   7   8
ENDBRANCH   4   7
BRANCH   1  20
ATOM     20  C   UNL d   1      10.860   7.455  -5.783  0.00  0.00     0.079 A 
ATOM     21  C   UNL d   1      11.412   8.739  -5.680  0.00  0.00     0.110 A 
ATOM     22  C   UNL d   1      12.083   9.113  -4.492  0.00  0.00     0.026 A 
ATOM     23  C   UNL d   1      12.248   8.221  -3.407  0.00  0.00     0.002 A 
ATOM     24  C   UNL d   1      11.739   6.927  -3.550  0.00  0.00     0.002 A 
ATOM     25  C   UNL d   1      11.087   6.551  -4.720  0.00  0.00     0.019 A 
BRANCH  21  26
ATOM     26  O   UNL d   1      11.292   9.585  -6.767  0.00  0.00    -0.327 OA
ATOM     27  C   UNL d   1      11.741  10.910  -6.551  0.00  0.00     0.181 C 
ENDBRANCH  21  26
ENDBRANCH   1  20
TORSDOF 5
