REMARK  1 active torsions:
REMARK  status: ('A' for Active; 'I' for Inactive)
REMARK    1  A    between atoms: N_2  and  C_4 
ROOT
ATOM      1  C   UNL d   1      11.692   8.081  -4.443  0.00  0.00     0.224 C 
ATOM      2  C   UNL d   1      11.309   9.524  -4.814  0.00  0.00     0.038 C 
ATOM      3  C   UNL d   1      11.523   9.832  -6.301  0.00  0.00     0.028 C 
ATOM      4  C   UNL d   1      11.009   8.744  -7.224  0.00  0.00    -0.024 A 
ATOM      5  C   UNL d   1      10.844   9.037  -8.594  0.00  0.00     0.025 A 
ATOM      6  C   UNL d   1      10.349   8.072  -9.487  0.00  0.00     0.156 A 
ATOM      7  O   UNL d   1      10.190   8.419 -10.794  0.00  0.00    -0.188 OA
ATOM      8  C   UNL d   1      10.042   6.777  -9.015  0.00  0.00     0.156 A 
ATOM      9  O   UNL d   1       9.567   5.801  -9.844  0.00  0.00    -0.188 OA
ATOM     10  C   UNL d   1      10.228   6.477  -7.652  0.00  0.00     0.025 A 
ATOM     11  C   UNL d   1      10.705   7.457  -6.753  0.00  0.00    -0.022 A 
ATOM     12  C   UNL d   1      10.864   7.078  -5.284  0.00  0.00     0.059 C 
ENDROOT
BRANCH   1  13
ATOM     13  N   UNL d   1      11.608   7.804  -2.994  0.00  0.00     0.140 N 
ATOM     14  C   UNL d   1      12.018   6.449  -2.654  0.00  0.00     0.285 C 
ATOM     15  C   UNL d   1      12.405   8.703  -2.162  0.00  0.00     0.285 C 
ENDBRANCH   1  13
TORSDOF 1
