REMARK  8 active torsions:
REMARK  status: ('A' for Active; 'I' for Inactive)
REMARK    1  A    between atoms: C_6  and  C_7 
REMARK    2  A    between atoms: N_10  and  C_11 
REMARK    3  A    between atoms: C_11  and  C_12 
REMARK    4  A    between atoms: C_12  and  C_13 
REMARK    5  A    between atoms: C_13  and  O_14 
REMARK    6  A    between atoms: O_14  and  C_15 
REMARK    7  A    between atoms: C_18  and  C_19 
REMARK    8  A    between atoms: C_19  and  N_20 
ROOT
ATOM      1  C   UNL d   1       8.489   1.495 -16.725  0.00  0.00     0.047 C 
ATOM      2  C   UNL d   1       7.171   1.878 -16.035  0.00  0.00     0.041 C 
ATOM      3  C   UNL d   1       7.402   2.162 -14.537  0.00  0.00     0.251 C 
ATOM      4  N   UNL d   1       8.405   3.226 -14.385  0.00  0.00     0.137 N 
ATOM      5  C   UNL d   1       9.690   2.753 -14.908  0.00  0.00     0.251 C 
ATOM      6  C   UNL d   1       9.575   2.533 -16.411  0.00  0.00     0.041 C 
ENDROOT
BRANCH   4   7
ATOM      7  C   UNL d   1       8.560   3.575 -12.985  0.00  0.00     0.253 C 
BRANCH   7   8
ATOM      8  C   UNL d   1       9.318   4.881 -12.777  0.00  0.00     0.068 C 
BRANCH   8   9
ATOM      9  C   UNL d   1       8.370   6.102 -12.766  0.00  0.00     0.151 C 
BRANCH   9  10
ATOM     10  O   UNL d   1       9.022   7.215 -12.195  0.00  0.00    -0.331 OA
BRANCH  10  11
ATOM     11  C   UNL d   1       9.441   7.110 -10.893  0.00  0.00     0.094 A 
ATOM     12  C   UNL d   1       9.018   6.101  -9.996  0.00  0.00     0.024 A 
ATOM     13  C   UNL d   1       9.549   6.057  -8.685  0.00  0.00    -0.000 A 
ATOM     14  C   UNL d   1      10.491   7.023  -8.255  0.00  0.00     0.011 A 
ATOM     15  C   UNL d   1      10.923   8.012  -9.163  0.00  0.00    -0.000 A 
ATOM     16  C   UNL d   1      10.358   8.082 -10.453  0.00  0.00     0.024 A 
BRANCH  14  17
ATOM     17  C   UNL d   1      11.053   6.965  -6.844  0.00  0.00     0.277 C 
BRANCH  17  18
ATOM     18  N   UNL d   1      10.777   8.151  -6.017  0.00  0.00     0.141 N 
ATOM     19  C   UNL d   1      11.261   9.381  -6.618  0.00  0.00     0.251 C 
ATOM     20  C   UNL d   1      11.238  10.384  -5.479  0.00  0.00     0.037 C 
ATOM     21  C   UNL d   1      11.372   9.544  -4.213  0.00  0.00     0.037 C 
ATOM     22  C   UNL d   1      11.443   8.099  -4.721  0.00  0.00     0.251 C 
ENDBRANCH  17  18
ENDBRANCH  14  17
ENDBRANCH  10  11
ENDBRANCH   9  10
ENDBRANCH   8   9
ENDBRANCH   7   8
ENDBRANCH   4   7
BRANCH   1  23
ATOM     23  C   UNL d   1       8.313   1.335 -18.223  0.00  0.00     0.087 A 
ATOM     24  C   UNL d   1       8.121   0.184 -19.010  0.00  0.00     0.041 A 
ATOM     25  C   UNL d   1       8.059  -1.182 -18.663  0.00  0.00     0.006 A 
ATOM     26  C   UNL d   1       7.953   0.561 -20.344  0.00  0.00     0.129 A 
ATOM     27  C   UNL d   1       7.841  -2.132 -19.685  0.00  0.00     0.030 A 
ATOM     28  C   UNL d   1       7.688  -1.724 -21.036  0.00  0.00     0.142 A 
ATOM     29  F   UNL d   1       7.497  -2.656 -22.003  0.00  0.00    -0.204 F 
ATOM     30  C   UNL d   1       7.739  -0.355 -21.378  0.00  0.00     0.057 A 
ATOM     31  O   UNL d   1       8.039   1.942 -20.344  0.00  0.00    -0.211 OA
ATOM     32  N   UNL d   1       8.265   2.402 -19.018  0.00  0.00    -0.131 NA
ENDBRANCH   1  23
TORSDOF 8
