REMARK  13 active torsions:
REMARK  status: ('A' for Active; 'I' for Inactive)
REMARK    1  A    between atoms: C_2  and  O_3 
REMARK    2  A    between atoms: O_3  and  C_4 
REMARK    3  A    between atoms: C_4  and  C_5 
REMARK    4  A    between atoms: C_5  and  O_6 
REMARK    5  A    between atoms: O_6  and  C_7 
REMARK    6  A    between atoms: C_7  and  C_8 
REMARK    7  A    between atoms: C_11  and  C_12 
REMARK       I    between atoms: C_12  and  N_14 
REMARK    8  A    between atoms: N_14  and  C_15 
REMARK    9  A    between atoms: C_15  and  C_16 
REMARK   10  A    between atoms: C_16  and  C_17 
REMARK   11  A    between atoms: C_17  and  N_18 
REMARK   12  A    between atoms: N_21  and  C_22 
REMARK   13  A    between atoms: C_27  and  O_28 
ROOT
ATOM      1  C   UNL d   1       8.294   5.947 -11.603  0.00  0.00     0.131 C 
ENDROOT
BRANCH   1   2
ATOM      2  N   UNL d   1       8.322   4.861 -12.578  0.00  0.00    -0.234 NA
ATOM      3  C   UNL d   1       9.310   4.571 -13.440  0.00  0.00     0.275 C 
ATOM      4  O   UNL d   1      10.383   5.179 -13.480  0.00  0.00    -0.266 OA
BRANCH   3   5
ATOM      5  C   UNL d   1       9.050   3.426 -14.381  0.00  0.00     0.058 A 
ATOM      6  C   UNL d   1       7.782   2.793 -14.437  0.00  0.00     0.004 A 
ATOM      7  C   UNL d   1       7.553   1.740 -15.340  0.00  0.00    -0.002 A 
ATOM      8  C   UNL d   1       8.584   1.305 -16.197  0.00  0.00     0.007 A 
ATOM      9  C   UNL d   1       9.848   1.925 -16.145  0.00  0.00    -0.002 A 
ATOM     10  C   UNL d   1      10.075   2.980 -15.243  0.00  0.00     0.004 A 
BRANCH   8  11
ATOM     11  C   UNL d   1       8.348   0.140 -17.132  0.00  0.00     0.169 C 
BRANCH  11  12
ATOM     12  O   UNL d   1       7.106   0.230 -17.805  0.00  0.00    -0.347 OA
BRANCH  12  13
ATOM     13  C   UNL d   1       6.853  -0.904 -18.618  0.00  0.00     0.175 C 
BRANCH  13  14
ATOM     14  C   UNL d   1       5.403  -0.837 -19.130  0.00  0.00     0.174 C 
BRANCH  14  15
ATOM     15  O   UNL d   1       4.467  -1.077 -18.083  0.00  0.00    -0.352 OA
BRANCH  15  16
ATOM     16  C   UNL d   1       4.422  -2.408 -17.573  0.00  0.00     0.142 C 
ATOM     17  C   UNL d   1       3.741  -3.365 -18.558  0.00  0.00     0.035 C 
ENDBRANCH  15  16
ENDBRANCH  14  15
ENDBRANCH  13  14
ENDBRANCH  12  13
ENDBRANCH  11  12
ENDBRANCH   8  11
ENDBRANCH   3   5
ENDBRANCH   1   2
BRANCH   1  18
ATOM     18  C   UNL d   1       9.488   5.891 -10.637  0.00  0.00     0.062 C 
BRANCH  18  19
ATOM     19  C   UNL d   1       9.455   7.008  -9.592  0.00  0.00     0.253 C 
BRANCH  19  20
ATOM     20  N   UNL d   1      10.534   6.832  -8.625  0.00  0.00     0.141 N 
ATOM     21  C   UNL d   1       9.994   6.174  -7.430  0.00  0.00     0.274 C 
ATOM     22  C   UNL d   1      11.089   5.997  -6.395  0.00  0.00     0.137 C 
ATOM     23  N   UNL d   1      11.642   7.273  -6.062  0.00  0.00    -0.343 N 
ATOM     24  C   UNL d   1      12.203   7.970  -7.243  0.00  0.00     0.137 C 
ATOM     25  C   UNL d   1      11.077   8.147  -8.260  0.00  0.00     0.274 C 
BRANCH  23  26
ATOM     26  C   UNL d   1      11.853   7.662  -4.739  0.00  0.00     0.079 A 
ATOM     27  C   UNL d   1      11.714   9.015  -4.387  0.00  0.00     0.110 A 
ATOM     28  C   UNL d   1      11.863   9.472  -3.079  0.00  0.00     0.026 A 
ATOM     29  C   UNL d   1      12.228   8.566  -2.075  0.00  0.00     0.002 A 
ATOM     30  C   UNL d   1      12.382   7.211  -2.396  0.00  0.00     0.002 A 
ATOM     31  C   UNL d   1      12.211   6.767  -3.711  0.00  0.00     0.019 A 
BRANCH  27  32
ATOM     32  O   UNL d   1      11.409   9.831  -5.413  0.00  0.00    -0.327 OA
ATOM     33  C   UNL d   1      10.459  10.789  -5.190  0.00  0.00     0.181 C 
ENDBRANCH  27  32
ENDBRANCH  23  26
ENDBRANCH  19  20
ENDBRANCH  18  19
ENDBRANCH   1  18
TORSDOF 13
