REMARK  7 active torsions:
REMARK  status: ('A' for Active; 'I' for Inactive)
REMARK    1  A    between atoms: C_2  and  C_3 
REMARK       I    between atoms: C_2  and  N_9 
REMARK    2  A    between atoms: C_3  and  C_4 
REMARK    3  A    between atoms: N_9  and  C_10 
REMARK    4  A    between atoms: C_13  and  C_14 
REMARK    5  A    between atoms: C_14  and  C_15 
REMARK    6  A    between atoms: C_15  and  N_16 
REMARK    7  A    between atoms: N_19  and  C_20 
ROOT
ATOM      1  C   UNL d   1       9.055   4.921 -10.452  0.00  0.00     0.035 C 
ENDROOT
BRANCH   1   2
ATOM      2  C   UNL d   1       9.201   6.193  -9.623  0.00  0.00     0.002 C 
ATOM      3  C   UNL d   1       9.281   5.866  -8.128  0.00  0.00     0.002 C 
ATOM      4  C   UNL d   1       9.423   7.151  -7.306  0.00  0.00     0.024 C 
ATOM      5  C   UNL d   1      10.661   7.960  -7.775  0.00  0.00     0.106 C 
ATOM      6  C   UNL d   1      10.548   8.320  -9.251  0.00  0.00     0.024 C 
ATOM      7  C   UNL d   1      10.394   7.054 -10.090  0.00  0.00     0.002 C 
BRANCH   5   8
ATOM      8  N   UNL d   1      10.828   9.183  -7.019  0.00  0.00    -0.240 NA
ATOM      9  C   UNL d   1      11.232   9.262  -5.749  0.00  0.00     0.254 C 
ATOM     10  O   UNL d   1      11.382  10.365  -5.245  0.00  0.00    -0.271 OA
BRANCH   9  11
ATOM     11  C   UNL d   1      11.489   7.979  -4.931  0.00  0.00     0.119 C 
BRANCH  11  12
ATOM     12  C   UNL d   1      12.586   8.029  -3.872  0.00  0.00     0.125 C 
ATOM     13  O   UNL d   1      12.665   6.706  -3.332  0.00  0.00    -0.356 OA
ATOM     14  C   UNL d   1      12.256   6.631  -1.984  0.00  0.00     0.142 C 
ATOM     15  C   UNL d   1      11.691   7.996  -1.729  0.00  0.00     0.035 C 
ATOM     16  C   UNL d   1      12.350   8.932  -2.670  0.00  0.00     0.033 C 
ENDBRANCH  11  12
ENDBRANCH   9  11
ENDBRANCH   5   8
ENDBRANCH   1   2
BRANCH   1  17
ATOM     17  C   UNL d   1       8.633   5.225 -11.892  0.00  0.00     0.250 C 
BRANCH  17  18
ATOM     18  N   UNL d   1       8.654   3.990 -12.671  0.00  0.00     0.141 N 
ATOM     19  C   UNL d   1       9.851   3.938 -13.528  0.00  0.00     0.274 C 
ATOM     20  C   UNL d   1       9.875   2.632 -14.351  0.00  0.00     0.138 C 
ATOM     21  N   UNL d   1       8.634   2.475 -15.084  0.00  0.00    -0.330 N 
ATOM     22  C   UNL d   1       7.411   2.638 -14.318  0.00  0.00     0.138 C 
ATOM     23  C   UNL d   1       7.459   3.952 -13.512  0.00  0.00     0.274 C 
BRANCH  21  24
ATOM     24  C   UNL d   1       8.597   2.215 -16.469  0.00  0.00     0.138 A 
ATOM     25  C   UNL d   1       7.711   1.290 -17.039  0.00  0.00     0.036 A 
ATOM     26  C   UNL d   1       7.708   1.063 -18.402  0.00  0.00     0.095 A 
ATOM     27  C   UNL d   1       6.714   0.372 -16.399  0.00  0.00     0.064 C 
ATOM     28  C   UNL d   1       8.576   1.800 -19.227  0.00  0.00     0.045 A 
ATOM     29  O   UNL d   1       6.825   0.096 -18.791  0.00  0.00    -0.331 OA
ATOM     30  C   UNL d   1       9.436   2.714 -18.586  0.00  0.00     0.103 A 
ATOM     31  N   UNL d   1       9.456   2.919 -17.249  0.00  0.00    -0.228 NA
ATOM     32  C   UNL d   1       6.268  -0.491 -17.600  0.00  0.00     0.154 C 
ENDBRANCH  21  24
ENDBRANCH  17  18
ENDBRANCH   1  17
TORSDOF 7
