REMARK  4 active torsions:
REMARK  status: ('A' for Active; 'I' for Inactive)
REMARK    1  A    between atoms: C_8  and  C_9 
REMARK    2  A    between atoms: C_9  and  C_10 
REMARK    3  A    between atoms: C_10  and  N_11 
REMARK    4  A    between atoms: N_14  and  C_15 
ROOT
ATOM      1  N   UNL d   1       8.792   3.115 -13.626  0.00  0.00     0.141 N 
ATOM      2  C   UNL d   1       9.566   3.013 -14.870  0.00  0.00     0.274 C 
ATOM      3  C   UNL d   1       9.324   1.646 -15.531  0.00  0.00     0.138 C 
ATOM      4  N   UNL d   1       7.888   1.423 -15.714  0.00  0.00    -0.330 N 
ATOM      5  C   UNL d   1       7.070   1.645 -14.529  0.00  0.00     0.138 C 
ATOM      6  C   UNL d   1       7.361   3.009 -13.922  0.00  0.00     0.274 C 
ENDROOT
BRANCH   1   7
ATOM      7  C   UNL d   1       9.082   4.394 -13.007  0.00  0.00     0.255 C 
BRANCH   7   8
ATOM      8  C   UNL d   1       8.174   4.762 -11.797  0.00  0.00     0.068 C 
BRANCH   8   9
ATOM      9  C   UNL d   1       8.774   5.819 -10.868  0.00  0.00     0.050 C 
ATOM     10  C   UNL d   1       9.246   7.016 -11.313  0.00  0.00     0.061 C 
ATOM     11  C   UNL d   1       9.194   7.443 -12.748  0.00  0.00     0.052 C 
ATOM     12  N   UNL d   1       9.875   7.928 -10.478  0.00  0.00    -0.234 NA
ATOM     13  C   UNL d   1       9.859   7.718  -9.209  0.00  0.00     0.153 C 
ATOM     14  C   UNL d   1      10.338   8.805  -8.275  0.00  0.00     0.208 C 
ATOM     15  N   UNL d   1       9.332   6.536  -8.640  0.00  0.00    -0.283 N 
ATOM     16  C   UNL d   1      10.734   8.341  -6.874  0.00  0.00     0.043 C 
ATOM     17  O   UNL d   1      11.456   9.422  -8.866  0.00  0.00    -0.215 OA
ATOM     18  C   UNL d   1       9.613   7.505  -6.305  0.00  0.00     0.028 C 
ATOM     19  C   UNL d   1       9.429   6.279  -7.194  0.00  0.00     0.111 C 
ATOM     20  C   UNL d   1       8.852   5.534  -9.426  0.00  0.00     0.259 C 
ATOM     21  O   UNL d   1       8.523   4.447  -8.937  0.00  0.00    -0.267 OA
ENDBRANCH   8   9
ENDBRANCH   7   8
ENDBRANCH   1   7
BRANCH   4  22
ATOM     22  C   UNL d   1       7.322   1.066 -16.934  0.00  0.00     0.141 A 
ATOM     23  C   UNL d   1       6.188   0.198 -17.040  0.00  0.00     0.040 A 
ATOM     24  C   UNL d   1       5.704  -0.072 -18.360  0.00  0.00     0.034 A 
ATOM     25  C   UNL d   1       5.412  -0.526 -16.042  0.00  0.00     0.011 A 
ATOM     26  C   UNL d   1       6.341   0.475 -19.478  0.00  0.00     0.027 A 
ATOM     27  S   UNL d   1       4.299  -1.137 -18.330  0.00  0.00    -0.086 SA
ATOM     28  C   UNL d   1       7.457   1.284 -19.270  0.00  0.00     0.101 A 
ATOM     29  N   UNL d   1       7.912   1.587 -18.043  0.00  0.00    -0.227 NA
ATOM     30  C   UNL d   1       4.384  -1.242 -16.597  0.00  0.00     0.035 A 
ENDBRANCH   4  22
TORSDOF 4
