REMARK  5 active torsions:
REMARK  status: ('A' for Active; 'I' for Inactive)
REMARK    1  A    between atoms: O_2  and  C_3 
REMARK    2  A    between atoms: C_9  and  C_10 
REMARK       I    between atoms: C_10  and  N_12 
REMARK    3  A    between atoms: N_12  and  C_13 
REMARK    4  A    between atoms: C_16  and  O_17 
REMARK    5  A    between atoms: O_17  and  C_18 
ROOT
ATOM      1  C   UNL d   1       9.186   6.332  -9.777  0.00  0.00     0.104 A 
ATOM      2  C   UNL d   1      10.254   7.108 -10.277  0.00  0.00     0.025 A 
ATOM      3  C   UNL d   1      11.047   7.871  -9.403  0.00  0.00     0.046 A 
ATOM      4  C   UNL d   1      10.708   7.849  -8.034  0.00  0.00     0.183 A 
ATOM      5  N   UNL d   1       9.673   7.136  -7.536  0.00  0.00    -0.219 NA
ATOM      6  C   UNL d   1       8.950   6.387  -8.386  0.00  0.00     0.120 A 
ENDROOT
BRANCH   1   7
ATOM      7  N   UNL d   1       8.312   5.552 -10.581  0.00  0.00    -0.206 NA
ATOM      8  C   UNL d   1       8.201   5.525 -11.919  0.00  0.00     0.281 C 
ATOM      9  O   UNL d   1       8.887   6.162 -12.719  0.00  0.00    -0.265 OA
BRANCH   8  10
ATOM     10  C   UNL d   1       7.176   4.596 -12.412  0.00  0.00     0.079 A 
ATOM     11  C   UNL d   1       5.859   4.447 -12.057  0.00  0.00     0.104 A 
ATOM     12  N   UNL d   1       5.325   3.406 -12.809  0.00  0.00    -0.244 NA
ATOM     13  C   UNL d   1       6.295   2.846 -13.626  0.00  0.00     0.082 A 
ATOM     14  C   UNL d   1       6.272   1.705 -14.449  0.00  0.00     0.021 A 
ATOM     15  C   UNL d   1       7.470   3.621 -13.426  0.00  0.00     0.026 A 
ATOM     16  C   UNL d   1       7.440   1.357 -15.156  0.00  0.00     0.026 A 
ATOM     17  C   UNL d   1       8.637   2.078 -14.985  0.00  0.00     0.094 A 
ATOM     18  C   UNL d   1       8.642   3.197 -14.104  0.00  0.00     0.026 A 
BRANCH  17  19
ATOM     19  O   UNL d   1       9.738   1.597 -15.668  0.00  0.00    -0.328 OA
ATOM     20  C   UNL d   1      10.986   2.225 -15.426  0.00  0.00     0.181 C 
ENDBRANCH  17  19
ENDBRANCH   8  10
ENDBRANCH   1   7
BRANCH   4  21
ATOM     21  O   UNL d   1      11.486   8.543  -7.137  0.00  0.00    -0.288 OA
BRANCH  21  22
ATOM     22  C   UNL d   1      11.468   8.254  -5.791  0.00  0.00     0.115 A 
ATOM     23  C   UNL d   1      11.429   9.317  -4.889  0.00  0.00     0.082 A 
ATOM     24  N   UNL d   1      11.539   9.154  -3.552  0.00  0.00    -0.246 NA
ATOM     25  C   UNL d   1      11.194  10.694  -5.428  0.00  0.00     0.054 C 
ATOM     26  C   UNL d   1      11.742   7.908  -3.074  0.00  0.00     0.099 A 
ATOM     27  C   UNL d   1      11.781   6.781  -3.898  0.00  0.00     0.023 A 
ATOM     28  C   UNL d   1      11.628   6.941  -5.284  0.00  0.00     0.028 A 
ENDBRANCH  21  22
ENDBRANCH   4  21
TORSDOF 5
