REMARK  7 active torsions:
REMARK  status: ('A' for Active; 'I' for Inactive)
REMARK    1  A    between atoms: C_6  and  C_7 
REMARK    2  A    between atoms: C_10  and  S_11 
REMARK    3  A    between atoms: S_11  and  C_12 
REMARK    4  A    between atoms: C_12  and  C_13 
REMARK    5  A    between atoms: C_13  and  C_14 
REMARK    6  A    between atoms: C_14  and  N_15 
REMARK    7  A    between atoms: C_19  and  C_20 
ROOT
ATOM      1  S   UNL d   1      11.058   1.419 -18.570  0.00  0.00    -0.075 SA
ENDROOT
BRANCH   1   2
ATOM      2  C   UNL d   1      10.280   1.171 -17.012  0.00  0.00     0.193 A 
ATOM      3  N   UNL d   1      10.819   0.463 -16.025  0.00  0.00    -0.122 NA
ATOM      4  N   UNL d   1       9.899   0.488 -15.009  0.00  0.00    -0.128 NA
ATOM      5  C   UNL d   1       8.877   1.210 -15.463  0.00  0.00     0.167 A 
ATOM      6  N   UNL d   1       9.061   1.668 -16.719  0.00  0.00    -0.289 N 
ATOM      7  C   UNL d   1       8.154   2.471 -17.539  0.00  0.00     0.134 C 
BRANCH   5   8
ATOM      8  C   UNL d   1       7.684   1.460 -14.678  0.00  0.00     0.037 A 
ATOM      9  C   UNL d   1       7.442   2.713 -14.049  0.00  0.00     0.021 A 
ATOM     10  C   UNL d   1       8.369   3.780 -14.142  0.00  0.00     0.003 A 
ATOM     11  C   UNL d   1       6.260   2.920 -13.295  0.00  0.00     0.081 A 
ATOM     12  C   UNL d   1       8.086   4.989 -13.484  0.00  0.00     0.015 A 
ATOM     13  C   UNL d   1       6.885   5.094 -12.762  0.00  0.00     0.059 A 
ATOM     14  C   UNL d   1       6.523   6.373 -12.040  0.00  0.00     0.052 C 
ATOM     15  N   UNL d   1       5.988   4.091 -12.675  0.00  0.00    -0.250 NA
ATOM     16  C   UNL d   1       5.359   1.846 -13.161  0.00  0.00     0.019 A 
ATOM     17  C   UNL d   1       5.582   0.611 -13.791  0.00  0.00     0.002 A 
ATOM     18  C   UNL d   1       6.746   0.417 -14.552  0.00  0.00     0.003 A 
ENDBRANCH   5   8
ENDBRANCH   1   2
BRANCH   1  19
ATOM     19  C   UNL d   1      11.108  -0.320 -19.156  0.00  0.00     0.067 C 
BRANCH  19  20
ATOM     20  C   UNL d   1       9.757  -1.026 -19.095  0.00  0.00     0.047 C 
BRANCH  20  21
ATOM     21  C   UNL d   1       8.649  -0.331 -19.922  0.00  0.00     0.251 C 
BRANCH  21  22
ATOM     22  N   UNL d   1       7.408  -1.126 -19.952  0.00  0.00     0.137 N 
ATOM     23  C   UNL d   1       6.818  -1.359 -18.631  0.00  0.00     0.254 C 
ATOM     24  C   UNL d   1       5.390  -1.773 -18.965  0.00  0.00     0.052 A 
ATOM     25  C   UNL d   1       5.117  -1.140 -20.301  0.00  0.00     0.039 A 
ATOM     26  C   UNL d   1       4.279  -0.744 -19.102  0.00  0.00     0.008 A 
ATOM     27  C   UNL d   1       6.374  -0.432 -20.714  0.00  0.00     0.251 C 
BRANCH  24  28
ATOM     28  C   UNL d   1       5.037  -3.247 -18.749  0.00  0.00    -0.020 A 
ATOM     29  C   UNL d   1       5.711  -4.068 -17.808  0.00  0.00     0.008 A 
ATOM     30  C   UNL d   1       5.375  -5.422 -17.633  0.00  0.00     0.068 A 
ATOM     31  C   UNL d   1       4.329  -5.990 -18.395  0.00  0.00     0.068 A 
ATOM     32 CL   UNL d   1       6.260  -6.362 -16.487  0.00  0.00    -0.082 Cl
ATOM     33  C   UNL d   1       3.633  -5.186 -19.317  0.00  0.00     0.012 A 
ATOM     34 CL   UNL d   1       3.889  -7.651 -18.215  0.00  0.00    -0.082 Cl
ATOM     35  C   UNL d   1       3.976  -3.839 -19.487  0.00  0.00    -0.003 A 
ENDBRANCH  24  28
ENDBRANCH  21  22
ENDBRANCH  20  21
ENDBRANCH  19  20
ENDBRANCH   1  19
TORSDOF 7
