REMARK  6 active torsions:
REMARK  status: ('A' for Active; 'I' for Inactive)
REMARK    1  A    between atoms: O_2  and  C_3 
REMARK    2  A    between atoms: C_6  and  O_7 
REMARK    3  A    between atoms: O_7  and  C_8 
REMARK    4  A    between atoms: C_8  and  C_10 
REMARK    5  A    between atoms: C_10  and  N_11 
REMARK       I    between atoms: N_14  and  C_15 
REMARK    6  A    between atoms: C_15  and  C_17 
ROOT
ATOM      1  N   UNL d   1       8.789   5.904 -10.502  0.00  0.00     0.144 N 
ATOM      2  C   UNL d   1       9.759   6.896 -10.957  0.00  0.00     0.274 C 
ATOM      3  C   UNL d   1       9.800   8.139 -10.115  0.00  0.00     0.140 C 
ATOM      4  N   UNL d   1      10.133   7.766  -8.751  0.00  0.00    -0.311 N 
ATOM      5  C   UNL d   1      11.152   8.363  -8.114  0.00  0.00     0.275 C 
ATOM      6  O   UNL d   1      11.852   9.174  -8.681  0.00  0.00    -0.266 OA
ATOM      7  C   UNL d   1       9.242   6.718  -8.238  0.00  0.00     0.140 C 
ATOM      8  C   UNL d   1       9.221   5.497  -9.174  0.00  0.00     0.274 C 
ENDROOT
BRANCH   1   9
ATOM      9  C   UNL d   1       8.735   4.741 -11.392  0.00  0.00     0.280 C 
BRANCH   9  10
ATOM     10  C   UNL d   1       8.014   4.980 -12.759  0.00  0.00     0.155 C 
ATOM     11  C   UNL d   1       8.665   5.903 -13.812  0.00  0.00     0.035 C 
BRANCH  10  12
ATOM     12  O   UNL d   1       7.714   3.714 -13.374  0.00  0.00    -0.331 OA
BRANCH  12  13
ATOM     13  C   UNL d   1       8.673   3.018 -14.082  0.00  0.00     0.094 C 
ATOM     14  C   UNL d   1       8.206   1.941 -14.863  0.00  0.00     0.026 C 
ATOM     15  C   UNL d   1       9.100   1.209 -15.646  0.00  0.00     0.026 C 
ATOM     16  C   UNL d   1      10.471   1.540 -15.761  0.00  0.00     0.094 C 
ATOM     17  C   UNL d   1      10.942   2.641 -14.994  0.00  0.00     0.026 C 
ATOM     18  C   UNL d   1      10.079   3.272 -14.117  0.00  0.00     0.026 C 
BRANCH  16  19
ATOM     19  O   UNL d   1      11.364   0.835 -16.524  0.00  0.00    -0.328 OA
ATOM     20  C   UNL d   1      10.833  -0.321 -17.172  0.00  0.00     0.181 C 
ENDBRANCH  16  19
ENDBRANCH  12  13
ENDBRANCH  10  12
ENDBRANCH   9  10
ENDBRANCH   1   9
BRANCH   5  21
ATOM     21  C   UNL d   1      11.363   8.114  -6.688  0.00  0.00     0.137 A 
ATOM     22  N   UNL d   1      11.559   9.197  -5.846  0.00  0.00    -0.241 NA
ATOM     23  C   UNL d   1      11.756   8.774  -4.545  0.00  0.00     0.082 A 
ATOM     24  C   UNL d   1      11.693   7.350  -4.594  0.00  0.00     0.019 A 
ATOM     25  C   UNL d   1      11.982   9.456  -3.341  0.00  0.00     0.019 A 
ATOM     26  C   UNL d   1      11.442   6.965  -5.939  0.00  0.00     0.025 A 
ATOM     27  C   UNL d   1      11.878   6.677  -3.380  0.00  0.00     0.002 A 
ATOM     28  C   UNL d   1      12.135   7.326  -2.184  0.00  0.00     0.000 A 
ATOM     29  C   UNL d   1      12.199   8.730  -2.161  0.00  0.00     0.002 A 
ENDBRANCH   5  21
TORSDOF 6
