REMARK  1 active torsions:
REMARK  status: ('A' for Active; 'I' for Inactive)
REMARK    1  A    between atoms: O_2  and  C_3 
ROOT
ATOM      1  C   UNL d   1       5.514  -0.012 -17.229  0.00  0.00     0.104 A 
ATOM      2  C   UNL d   1       6.596   0.782 -17.689  0.00  0.00     0.023 A 
ATOM      3  C   UNL d   1       7.536   1.316 -16.783  0.00  0.00     0.011 A 
ATOM      4  C   UNL d   1       7.397   1.065 -15.400  0.00  0.00    -0.021 A 
ATOM      5  C   UNL d   1       6.324   0.283 -14.934  0.00  0.00     0.009 A 
ATOM      6  C   UNL d   1       5.391  -0.255 -15.842  0.00  0.00     0.080 A 
ATOM      7 CL   UNL d   1       4.086  -1.206 -15.238  0.00  0.00    -0.080 Cl
ATOM      8  C   UNL d   1       8.386   1.670 -14.420  0.00  0.00     0.061 C 
ATOM      9  C   UNL d   1       9.686   2.141 -15.093  0.00  0.00     0.256 C 
ATOM     10  N   UNL d   1       9.354   2.955 -16.261  0.00  0.00     0.143 N 
ATOM     11  C   UNL d   1      10.550   3.671 -16.718  0.00  0.00     0.251 C 
ATOM     12  C   UNL d   1      10.369   4.376 -18.078  0.00  0.00     0.040 C 
ATOM     13  C   UNL d   1      10.403   3.465 -19.334  0.00  0.00     0.028 C 
ATOM     14  C   UNL d   1      10.534   1.963 -19.078  0.00  0.00    -0.024 A 
ATOM     15  C   UNL d   1      11.475   1.219 -19.822  0.00  0.00    -0.004 A 
ATOM     16  C   UNL d   1      11.625  -0.164 -19.604  0.00  0.00    -0.000 A 
ATOM     17  C   UNL d   1      10.835  -0.808 -18.637  0.00  0.00    -0.000 A 
ATOM     18  C   UNL d   1       9.892  -0.080 -17.894  0.00  0.00    -0.002 A 
ATOM     19  C   UNL d   1       9.725   1.309 -18.114  0.00  0.00     0.009 A 
ATOM     20  C   UNL d   1       8.719   2.132 -17.303  0.00  0.00     0.263 C 
ENDROOT
BRANCH   1  21
ATOM     21  O   UNL d   1       4.566  -0.570 -18.061  0.00  0.00    -0.327 OA
ATOM     22  C   UNL d   1       4.635  -0.283 -19.449  0.00  0.00     0.181 C 
ENDBRANCH   1  21
TORSDOF 1
