REMARK  4 active torsions:
REMARK  status: ('A' for Active; 'I' for Inactive)
REMARK    1  A    between atoms: C_8  and  C_9 
REMARK    2  A    between atoms: C_9  and  C_10 
REMARK    3  A    between atoms: C_10  and  N_11 
REMARK    4  A    between atoms: N_14  and  C_15 
ROOT
ATOM      1  N   UNL d   1       8.310   4.429 -12.682  0.00  0.00     0.141 N 
ATOM      2  C   UNL d   1       9.535   4.178 -11.913  0.00  0.00     0.274 C 
ATOM      3  C   UNL d   1       9.359   4.690 -10.462  0.00  0.00     0.137 C 
ATOM      4  N   UNL d   1       9.131   6.104 -10.551  0.00  0.00    -0.344 N 
ATOM      5  C   UNL d   1       8.005   6.479 -11.374  0.00  0.00     0.137 C 
ATOM      6  C   UNL d   1       8.079   5.873 -12.753  0.00  0.00     0.274 C 
ENDROOT
BRANCH   1   7
ATOM      7  C   UNL d   1       8.421   3.965 -14.049  0.00  0.00     0.255 C 
BRANCH   7   8
ATOM      8  C   UNL d   1       8.524   2.431 -14.121  0.00  0.00     0.068 C 
BRANCH   8   9
ATOM      9  C   UNL d   1       9.021   1.958 -15.476  0.00  0.00     0.050 A 
ATOM     10  C   UNL d   1      10.350   2.014 -15.792  0.00  0.00     0.061 A 
ATOM     11  C   UNL d   1      11.415   2.573 -14.870  0.00  0.00     0.052 C 
ATOM     12  N   UNL d   1      10.815   1.551 -17.012  0.00  0.00    -0.236 NA
ATOM     13  C   UNL d   1       9.971   1.066 -17.843  0.00  0.00     0.137 A 
ATOM     14  C   UNL d   1      10.408   0.584 -19.214  0.00  0.00     0.137 C 
ATOM     15  N   UNL d   1       8.584   0.903 -17.575  0.00  0.00    -0.284 N 
ATOM     16  C   UNL d   1       9.397   0.982 -20.324  0.00  0.00     0.026 C 
ATOM     17 CL   UNL d   1      10.635  -1.153 -19.071  0.00  0.00    -0.107 Cl
ATOM     18  C   UNL d   1       7.953   0.614 -19.986  0.00  0.00     0.026 C 
ATOM     19  C   UNL d   1       7.768   0.139 -18.529  0.00  0.00     0.110 C 
ATOM     20  C   UNL d   1       8.066   1.359 -16.412  0.00  0.00     0.259 A 
ATOM     21  O   UNL d   1       6.861   1.242 -16.165  0.00  0.00    -0.267 OA
ENDBRANCH   8   9
ENDBRANCH   7   8
ENDBRANCH   1   7
BRANCH   4  22
ATOM     22  C   UNL d   1       9.845   7.047  -9.779  0.00  0.00     0.057 A 
ATOM     23  C   UNL d   1       9.841   7.058  -8.367  0.00  0.00     0.022 A 
ATOM     24  C   UNL d   1      10.683   7.998  -7.696  0.00  0.00     0.031 A 
ATOM     25  C   UNL d   1       9.136   6.245  -7.428  0.00  0.00     0.009 A 
ATOM     26  C   UNL d   1      11.481   8.918  -8.364  0.00  0.00     0.007 A 
ATOM     27  S   UNL d   1      10.626   7.871  -5.979  0.00  0.00    -0.086 SA
ATOM     28  C   UNL d   1      11.403   8.943  -9.773  0.00  0.00     0.002 A 
ATOM     29  C   UNL d   1      10.570   8.036 -10.445  0.00  0.00     0.017 A 
ATOM     30  C   UNL d   1       9.459   6.625  -6.149  0.00  0.00     0.035 A 
ENDBRANCH   4  22
TORSDOF 4
