REMARK  6 active torsions:
REMARK  status: ('A' for Active; 'I' for Inactive)
REMARK    1  A    between atoms: C_10  and  S_11 
REMARK    2  A    between atoms: S_11  and  C_12 
REMARK    3  A    between atoms: C_12  and  C_13 
REMARK    4  A    between atoms: C_13  and  C_14 
REMARK    5  A    between atoms: C_14  and  N_15 
REMARK    6  A    between atoms: C_23  and  C_24 
ROOT
ATOM      1  C   UNL d   1       9.131   3.380 -16.320  0.00  0.00     0.047 C 
ENDROOT
BRANCH   1   2
ATOM      2  C   UNL d   1       9.409   4.325 -15.146  0.00  0.00     0.067 C 
BRANCH   2   3
ATOM      3  S   UNL d   1       7.949   4.467 -14.009  0.00  0.00    -0.075 SA
BRANCH   3   4
ATOM      4  C   UNL d   1       8.704   5.295 -12.710  0.00  0.00     0.193 A 
ATOM      5  N   UNL d   1       9.996   5.536 -12.655  0.00  0.00    -0.122 NA
ATOM      6  N   UNL d   1      10.220   5.971 -11.398  0.00  0.00    -0.128 NA
ATOM      7  C   UNL d   1       9.050   5.994 -10.796  0.00  0.00     0.167 A 
ATOM      8  C   UNL d   1       9.040   6.306  -9.406  0.00  0.00     0.037 A 
ATOM      9  N   UNL d   1       8.042   5.622 -11.594  0.00  0.00    -0.289 N 
ATOM     10  C   UNL d   1       9.646   7.448  -8.856  0.00  0.00     0.021 A 
ATOM     11  C   UNL d   1       8.296   5.410  -8.591  0.00  0.00     0.003 A 
ATOM     12  C   UNL d   1      10.408   8.349  -9.606  0.00  0.00     0.003 A 
ATOM     13  C   UNL d   1       9.488   7.746  -7.483  0.00  0.00     0.081 A 
ATOM     14  C   UNL d   1      11.046   9.395  -8.939  0.00  0.00     0.015 A 
ATOM     15  C   UNL d   1      10.822   9.597  -7.561  0.00  0.00     0.059 A 
ATOM     16  C   UNL d   1      11.373  10.732  -6.761  0.00  0.00     0.052 C 
ATOM     17  N   UNL d   1      10.021   8.783  -6.848  0.00  0.00    -0.250 NA
ATOM     18  C   UNL d   1       8.701   6.900  -6.726  0.00  0.00     0.019 A 
ATOM     19  C   UNL d   1       8.102   5.793  -7.272  0.00  0.00     0.002 A 
ATOM     20  C   UNL d   1       6.623   5.486 -11.406  0.00  0.00     0.134 C 
ENDBRANCH   3   4
ENDBRANCH   2   3
ENDBRANCH   1   2
BRANCH   1  21
ATOM     21  C   UNL d   1       8.424   2.074 -15.874  0.00  0.00     0.251 C 
BRANCH  21  22
ATOM     22  N   UNL d   1       7.670   1.413 -16.937  0.00  0.00     0.138 N 
ATOM     23  C   UNL d   1       7.104   0.189 -16.361  0.00  0.00     0.255 C 
ATOM     24  C   UNL d   1       6.033  -0.472 -17.246  0.00  0.00     0.063 C 
ATOM     25  C   UNL d   1       6.600  -1.308 -18.386  0.00  0.00    -0.004 A 
ATOM     26  C   UNL d   1       7.414  -0.720 -19.387  0.00  0.00    -0.022 A 
ATOM     27  C   UNL d   1       6.315  -2.693 -18.451  0.00  0.00     0.102 A 
ATOM     28  C   UNL d   1       7.739   0.753 -19.341  0.00  0.00     0.061 C 
ATOM     29  C   UNL d   1       7.944  -1.498 -20.442  0.00  0.00    -0.002 A 
ATOM     30  C   UNL d   1       8.527   1.150 -18.094  0.00  0.00     0.255 C 
ATOM     31  C   UNL d   1       7.666  -2.874 -20.515  0.00  0.00     0.026 A 
ATOM     32  C   UNL d   1       6.867  -3.440 -19.514  0.00  0.00     0.119 A 
ATOM     33  O   UNL d   1       6.484  -4.758 -19.364  0.00  0.00    -0.285 OA
ATOM     34  C   UNL d   1       5.722  -4.737 -18.226  0.00  0.00     0.256 A 
ATOM     35  N   UNL d   1       5.567  -3.535 -17.648  0.00  0.00    -0.217 NA
BRANCH  34  36
ATOM     36  C   UNL d   1       5.103  -6.024 -17.772  0.00  0.00     0.458 C 
ATOM     37  F   UNL d   1       3.864  -6.131 -18.247  0.00  0.00    -0.163 F 
ATOM     38  F   UNL d   1       5.807  -7.068 -18.214  0.00  0.00    -0.163 F 
ATOM     39  F   UNL d   1       5.075  -6.094 -16.437  0.00  0.00    -0.163 F 
ENDBRANCH  34  36
ENDBRANCH  21  22
ENDBRANCH   1  21
TORSDOF 6
