REMARK  4 active torsions:
REMARK  status: ('A' for Active; 'I' for Inactive)
REMARK    1  A    between atoms: C_5  and  C_6 
REMARK    2  A    between atoms: C_16  and  C_17 
REMARK    3  A    between atoms: C_17  and  N_18 
REMARK    4  A    between atoms: N_21  and  C_22 
ROOT
ATOM      1  C   UNL d   1       5.373   4.784 -12.400  0.00  0.00     0.054 C 
ATOM      2  C   UNL d   1       6.630   4.282 -12.995  0.00  0.00     0.079 A 
ATOM      3  N   UNL d   1       6.617   3.199 -13.740  0.00  0.00    -0.170 NA
ATOM      4  N   UNL d   1       7.921   3.019 -14.111  0.00  0.00    -0.231 N 
ATOM      5  C   UNL d   1       8.413   2.005 -14.892  0.00  0.00     0.083 A 
ATOM      6  C   UNL d   1       9.761   2.014 -15.181  0.00  0.00     0.019 A 
ATOM      7  C   UNL d   1      10.611   3.033 -14.685  0.00  0.00     0.003 A 
ATOM      8  C   UNL d   1      10.105   4.042 -13.900  0.00  0.00     0.019 A 
ATOM      9  C   UNL d   1       8.727   4.048 -13.589  0.00  0.00     0.082 A 
ATOM     10  C   UNL d   1       7.907   4.874 -12.864  0.00  0.00     0.044 A 
ENDROOT
BRANCH  10  11
ATOM     11  C   UNL d   1       8.248   6.147 -12.157  0.00  0.00     0.280 C 
BRANCH  11  12
ATOM     12  N   UNL d   1       9.332   6.131 -11.182  0.00  0.00     0.146 N 
ATOM     13  C   UNL d   1       9.852   7.486 -11.010  0.00  0.00     0.275 C 
ATOM     14  C   UNL d   1      11.046   7.451 -10.035  0.00  0.00     0.137 C 
ATOM     15  N   UNL d   1      10.624   6.886  -8.761  0.00  0.00    -0.344 N 
ATOM     16  C   UNL d   1       9.941   5.596  -8.847  0.00  0.00     0.137 C 
ATOM     17  C   UNL d   1       8.811   5.664  -9.892  0.00  0.00     0.275 C 
BRANCH  15  18
ATOM     18  C   UNL d   1      10.840   7.543  -7.541  0.00  0.00     0.056 A 
ATOM     19  C   UNL d   1      11.016   6.792  -6.356  0.00  0.00     0.018 A 
ATOM     20  C   UNL d   1      11.208   7.428  -5.119  0.00  0.00     0.013 A 
ATOM     21  C   UNL d   1      11.253   8.829  -5.051  0.00  0.00     0.058 A 
ATOM     22  C   UNL d   1      11.094   9.596  -6.217  0.00  0.00     0.013 A 
ATOM     23 CL   UNL d   1      11.493   9.586  -3.532  0.00  0.00    -0.082 Cl
ATOM     24  C   UNL d   1      10.888   8.957  -7.457  0.00  0.00     0.018 A 
ENDBRANCH  15  18
ENDBRANCH  11  12
ENDBRANCH  10  11
BRANCH   5  25
ATOM     25  C   UNL d   1       7.513   0.957 -15.416  0.00  0.00     0.018 A 
ATOM     26  C   UNL d   1       6.640   0.243 -14.562  0.00  0.00     0.002 A 
ATOM     27  C   UNL d   1       5.779  -0.748 -15.069  0.00  0.00     0.000 A 
ATOM     28  C   UNL d   1       5.790  -1.051 -16.444  0.00  0.00     0.000 A 
ATOM     29  C   UNL d   1       6.666  -0.364 -17.304  0.00  0.00     0.000 A 
ATOM     30  C   UNL d   1       7.520   0.632 -16.792  0.00  0.00     0.002 A 
ENDBRANCH   5  25
TORSDOF 4
