REMARK  4 active torsions:
REMARK  status: ('A' for Active; 'I' for Inactive)
REMARK       I    between atoms: C_2  and  N_4 
REMARK    1  A    between atoms: N_4  and  C_5 
REMARK    2  A    between atoms: C_8  and  C_9 
REMARK    3  A    between atoms: C_9  and  C_10 
REMARK    4  A    between atoms: C_10  and  N_11 
ROOT
ATOM      1  N   UNL d   1       8.742   5.916 -12.178  0.00  0.00     0.138 N 
ATOM      2  C   UNL d   1       7.354   5.832 -11.729  0.00  0.00     0.253 C 
ATOM      3  C   UNL d   1       6.642   4.950 -12.759  0.00  0.00     0.070 C 
ATOM      4  C   UNL d   1       5.760   3.875 -12.123  0.00  0.00     0.151 C 
ATOM      5  O   UNL d   1       5.315   2.924 -13.084  0.00  0.00    -0.331 OA
ATOM      6  C   UNL d   1       6.317   2.300 -13.791  0.00  0.00     0.090 A 
ATOM      7  C   UNL d   1       6.102   0.991 -14.267  0.00  0.00     0.025 A 
ATOM      8  C   UNL d   1       7.123   0.305 -14.956  0.00  0.00     0.012 A 
ATOM      9  C   UNL d   1       8.366   0.930 -15.189  0.00  0.00     0.068 A 
ATOM     10  C   UNL d   1       9.420   0.230 -15.903  0.00  0.00     0.101 C 
ATOM     11  N   UNL d   1      10.258  -0.331 -16.473  0.00  0.00    -0.191 NA
ATOM     12  C   UNL d   1       8.579   2.247 -14.735  0.00  0.00     0.008 A 
ATOM     13  C   UNL d   1       7.561   2.934 -14.040  0.00  0.00     0.003 A 
ATOM     14  C   UNL d   1       7.781   4.367 -13.591  0.00  0.00     0.062 C 
ATOM     15  C   UNL d   1       9.006   4.584 -12.702  0.00  0.00     0.255 C 
ENDROOT
BRANCH   1  16
ATOM     16  C   UNL d   1       9.633   6.255 -11.075  0.00  0.00     0.255 C 
BRANCH  16  17
ATOM     17  C   UNL d   1       9.651   7.757 -10.771  0.00  0.00     0.062 C 
BRANCH  17  18
ATOM     18  C   UNL d   1      10.243   8.039  -9.393  0.00  0.00    -0.020 A 
ATOM     19  C   UNL d   1      11.561   8.521  -9.252  0.00  0.00    -0.003 A 
ATOM     20  C   UNL d   1      12.078   8.782  -7.966  0.00  0.00     0.019 A 
ATOM     21  C   UNL d   1      11.291   8.568  -6.813  0.00  0.00     0.084 A 
ATOM     22  C   UNL d   1       9.974   8.082  -6.951  0.00  0.00     0.019 A 
ATOM     23  C   UNL d   1       9.463   7.823  -8.238  0.00  0.00    -0.003 A 
BRANCH  21  24
ATOM     24  N   UNL d   1      11.837   8.924  -5.555  0.00  0.00    -0.212 NA
ATOM     25  C   UNL d   1      11.844   8.174  -4.440  0.00  0.00     0.256 C 
ATOM     26  C   UNL d   1      12.484   8.804  -3.209  0.00  0.00     0.100 C 
ATOM     27  O   UNL d   1      11.400   7.028  -4.383  0.00  0.00    -0.270 OA
ENDBRANCH  21  24
ENDBRANCH  17  18
ENDBRANCH  16  17
ENDBRANCH   1  16
TORSDOF 4
