REMARK  1 active torsions:
REMARK  status: ('A' for Active; 'I' for Inactive)
REMARK    1  A    between atoms: C_9  and  C_10 
ROOT
ATOM      1  C   UNL d   1      11.580   5.514 -17.016  0.00  0.00     0.031 C 
ATOM      2  C   UNL d   1      11.834   4.050 -17.372  0.00  0.00    -0.021 A 
ATOM      3  C   UNL d   1      12.748   3.784 -18.416  0.00  0.00    -0.004 A 
ATOM      4  C   UNL d   1      13.011   2.465 -18.825  0.00  0.00     0.000 A 
ATOM      5  C   UNL d   1      12.363   1.398 -18.186  0.00  0.00     0.010 A 
ATOM      6  C   UNL d   1      11.457   1.644 -17.131  0.00  0.00     0.068 A 
ATOM      7  C   UNL d   1      10.799   0.493 -16.520  0.00  0.00     0.101 C 
ATOM      8  N   UNL d   1      10.259  -0.413 -16.036  0.00  0.00    -0.191 NA
ATOM      9  C   UNL d   1      11.166   2.977 -16.711  0.00  0.00     0.006 A 
ENDROOT
BRANCH   9  10
ATOM     10  C   UNL d   1      10.191   3.247 -15.615  0.00  0.00     0.000 A 
ATOM     11  C   UNL d   1       8.826   2.800 -15.605  0.00  0.00    -0.004 A 
ATOM     12  C   UNL d   1       8.062   3.023 -14.433  0.00  0.00    -0.020 A 
ATOM     13  C   UNL d   1       8.141   2.073 -16.717  0.00  0.00    -0.003 A 
ATOM     14  C   UNL d   1       8.559   3.776 -13.354  0.00  0.00    -0.004 A 
ATOM     15  C   UNL d   1       6.695   2.387 -14.299  0.00  0.00     0.064 C 
ATOM     16  C   UNL d   1       9.869   4.261 -13.396  0.00  0.00    -0.000 A 
ATOM     17  C   UNL d   1      10.683   3.955 -14.494  0.00  0.00    -0.000 A 
ATOM     18  C   UNL d   1       6.649   1.005 -15.001  0.00  0.00     0.246 C 
ATOM     19  C   UNL d   1       7.084   1.155 -16.474  0.00  0.00     0.005 A 
ATOM     20  N   UNL d   1       5.336   0.375 -14.815  0.00  0.00     0.142 N 
ATOM     21  C   UNL d   1       6.455   0.378 -17.485  0.00  0.00    -0.022 A 
ATOM     22  C   UNL d   1       6.870   0.544 -18.815  0.00  0.00    -0.004 A 
ATOM     23  C   UNL d   1       5.338  -0.550 -17.036  0.00  0.00     0.061 C 
ATOM     24  C   UNL d   1       7.869   1.482 -19.117  0.00  0.00    -0.000 A 
ATOM     25  C   UNL d   1       8.467   2.236 -18.091  0.00  0.00    -0.000 A 
ATOM     26  C   UNL d   1       5.330  -0.883 -15.545  0.00  0.00     0.255 C 
ATOM     27  C   UNL d   1       5.051   0.080 -13.417  0.00  0.00     0.286 C 
ENDBRANCH   9  10
TORSDOF 1
