REMARK  6 active torsions:
REMARK  status: ('A' for Active; 'I' for Inactive)
REMARK    1  A    between atoms: S_2  and  C_4 
REMARK    2  A    between atoms: S_2  and  N_14 
REMARK    3  A    between atoms: C_17  and  C_18 
REMARK    4  A    between atoms: C_18  and  C_19 
REMARK    5  A    between atoms: C_19  and  N_20 
REMARK    6  A    between atoms: N_23  and  C_24 
ROOT
ATOM      1  N   UNL d   1       9.805   2.444 -15.460  0.00  0.00    -0.275 N 
ATOM      2  C   UNL d   1      10.100   2.010 -14.077  0.00  0.00     0.113 C 
ATOM      3  C   UNL d   1      10.137   3.198 -13.081  0.00  0.00     0.025 C 
ATOM      4  C   UNL d   1       8.894   4.091 -13.172  0.00  0.00     0.006 C 
ATOM      5  C   UNL d   1       8.707   4.564 -14.619  0.00  0.00     0.025 C 
ATOM      6  C   UNL d   1       8.672   3.370 -15.616  0.00  0.00     0.113 C 
ENDROOT
BRANCH   4   7
ATOM      7  C   UNL d   1       8.973   5.277 -12.203  0.00  0.00     0.035 C 
BRANCH   7   8
ATOM      8  C   UNL d   1       9.144   4.854 -10.731  0.00  0.00     0.250 C 
BRANCH   8   9
ATOM      9  N   UNL d   1       9.035   5.978  -9.813  0.00  0.00     0.141 N 
ATOM     10  C   UNL d   1      10.150   6.912  -9.973  0.00  0.00     0.274 C 
ATOM     11  C   UNL d   1       9.984   8.108  -9.032  0.00  0.00     0.137 C 
ATOM     12  N   UNL d   1       9.879   7.642  -7.655  0.00  0.00    -0.344 N 
ATOM     13  C   UNL d   1       8.846   6.642  -7.432  0.00  0.00     0.137 C 
ATOM     14  C   UNL d   1       9.019   5.480  -8.432  0.00  0.00     0.274 C 
BRANCH  12  15
ATOM     15  C   UNL d   1      10.710   8.151  -6.616  0.00  0.00     0.057 A 
ATOM     16  C   UNL d   1      10.951   7.415  -5.436  0.00  0.00     0.028 A 
ATOM     17  C   UNL d   1      11.791   7.941  -4.420  0.00  0.00     0.059 A 
ATOM     18  C   UNL d   1      12.398   9.193  -4.593  0.00  0.00     0.011 A 
ATOM     19 CL   UNL d   1      12.074   7.036  -2.978  0.00  0.00    -0.082 Cl
ATOM     20  C   UNL d   1      12.173   9.918  -5.775  0.00  0.00     0.002 A 
ATOM     21  C   UNL d   1      11.321   9.404  -6.769  0.00  0.00     0.017 A 
ENDBRANCH  12  15
ENDBRANCH   8   9
ENDBRANCH   7   8
ENDBRANCH   4   7
BRANCH   1  22
ATOM     22  S   UNL d   1      10.915   2.173 -16.786  0.00  0.00     0.264 S 
ATOM     23  O   UNL d   1      10.138   2.221 -18.041  0.00  0.00    -0.200 OA
ATOM     24  O   UNL d   1      11.679   0.965 -16.476  0.00  0.00    -0.200 OA
BRANCH  22  25
ATOM     25  C   UNL d   1      12.043   3.582 -16.774  0.00  0.00     0.105 A 
ATOM     26  C   UNL d   1      13.037   3.797 -17.760  0.00  0.00     0.030 A 
ATOM     27  C   UNL d   1      13.888   4.952 -17.684  0.00  0.00     0.082 A 
ATOM     28  C   UNL d   1      13.233   2.887 -18.828  0.00  0.00     0.004 A 
ATOM     29  C   UNL d   1      13.698   5.879 -16.638  0.00  0.00     0.019 A 
ATOM     30  N   UNL d   1      14.872   5.183 -18.584  0.00  0.00    -0.244 NA
ATOM     31  C   UNL d   1      12.709   5.665 -15.677  0.00  0.00     0.002 A 
ATOM     32  C   UNL d   1      11.925   4.518 -15.748  0.00  0.00     0.013 A 
ATOM     33  C   UNL d   1      15.040   4.312 -19.588  0.00  0.00     0.099 A 
ATOM     34  C   UNL d   1      14.261   3.152 -19.760  0.00  0.00     0.021 A 
ENDBRANCH  22  25
ENDBRANCH   1  22
TORSDOF 6
