REMARK  8 active torsions:
REMARK  status: ('A' for Active; 'I' for Inactive)
REMARK    1  A    between atoms: C_6  and  C_7 
REMARK    2  A    between atoms: C_10  and  S_11 
REMARK    3  A    between atoms: S_11  and  C_12 
REMARK    4  A    between atoms: C_12  and  C_13 
REMARK    5  A    between atoms: C_13  and  C_14 
REMARK    6  A    between atoms: C_14  and  N_15 
REMARK    7  A    between atoms: C_19  and  C_20 
REMARK    8  A    between atoms: C_23  and  C_24 
ROOT
ATOM      1  N   UNL d   1       8.945   4.748 -14.079  0.00  0.00     0.143 N 
ATOM      2  C   UNL d   1       8.115   3.622 -13.632  0.00  0.00     0.282 C 
ATOM      3  C   UNL d   1       7.048   4.068 -12.622  0.00  0.00     0.178 C 
ATOM      4  O   UNL d   1       7.682   4.680 -11.505  0.00  0.00    -0.348 OA
ATOM      5  C   UNL d   1       8.487   5.803 -11.855  0.00  0.00     0.171 C 
ATOM      6  C   UNL d   1       9.535   5.379 -12.900  0.00  0.00     0.284 C 
ENDROOT
BRANCH   1   7
ATOM      7  C   UNL d   1       9.992   4.341 -15.028  0.00  0.00     0.251 C 
BRANCH   7   8
ATOM      8  C   UNL d   1       9.476   3.749 -16.358  0.00  0.00     0.047 C 
BRANCH   8   9
ATOM      9  C   UNL d   1      10.504   2.844 -17.066  0.00  0.00     0.067 C 
BRANCH   9  10
ATOM     10  S   UNL d   1       9.712   1.497 -18.012  0.00  0.00    -0.075 SA
BRANCH  10  11
ATOM     11  C   UNL d   1       8.779   0.768 -16.707  0.00  0.00     0.193 A 
ATOM     12  N   UNL d   1       9.278   0.463 -15.505  0.00  0.00    -0.122 NA
ATOM     13  N   UNL d   1       8.188   0.103 -14.746  0.00  0.00    -0.127 NA
ATOM     14  C   UNL d   1       7.139   0.131 -15.570  0.00  0.00     0.184 A 
ATOM     15  N   UNL d   1       7.448   0.577 -16.805  0.00  0.00    -0.287 N 
ATOM     16  C   UNL d   1       6.573   0.847 -17.936  0.00  0.00     0.134 C 
BRANCH  14  17
ATOM     17  C   UNL d   1       5.805  -0.236 -15.117  0.00  0.00     0.117 A 
ATOM     18  N   UNL d   1       5.017  -1.198 -15.755  0.00  0.00    -0.305 N 
ATOM     19  C   UNL d   1       5.332  -2.005 -16.925  0.00  0.00     0.132 C 
ATOM     20  C   UNL d   1       3.878  -1.225 -15.047  0.00  0.00     0.179 A 
ATOM     21  N   UNL d   1       3.860  -0.429 -13.988  0.00  0.00    -0.222 NA
ATOM     22  C   UNL d   1       5.092   0.213 -14.030  0.00  0.00     0.121 A 
ENDBRANCH  14  17
ENDBRANCH  10  11
ENDBRANCH   9  10
ENDBRANCH   8   9
ENDBRANCH   7   8
ENDBRANCH   1   7
BRANCH   5  23
ATOM     23  C   UNL d   1       9.163   6.381 -10.614  0.00  0.00     0.007 A 
ATOM     24  C   UNL d   1       9.070   5.702  -9.374  0.00  0.00    -0.002 A 
ATOM     25  C   UNL d   1       9.686   6.237  -8.229  0.00  0.00     0.004 A 
ATOM     26  C   UNL d   1      10.403   7.447  -8.305  0.00  0.00     0.071 A 
ATOM     27  C   UNL d   1      10.496   8.134  -9.539  0.00  0.00     0.004 A 
ATOM     28  C   UNL d   1       9.879   7.591 -10.687  0.00  0.00    -0.002 A 
BRANCH  26  29
ATOM     29  C   UNL d   1      11.081   8.008  -7.066  0.00  0.00     0.419 C 
ATOM     30  F   UNL d   1      10.233   8.798  -6.407  0.00  0.00    -0.166 F 
ATOM     31  F   UNL d   1      11.459   7.019  -6.255  0.00  0.00    -0.166 F 
ATOM     32  F   UNL d   1      12.158   8.718  -7.405  0.00  0.00    -0.166 F 
ENDBRANCH  26  29
ENDBRANCH   5  23
TORSDOF 8
