REMARK  4 active torsions:
REMARK  status: ('A' for Active; 'I' for Inactive)
REMARK    1  A    between atoms: O_2  and  C_3 
REMARK       I    between atoms: C_3  and  N_5 
REMARK    2  A    between atoms: N_5  and  C_6 
REMARK    3  A    between atoms: C_10  and  C_11 
REMARK    4  A    between atoms: C_11  and  C_13 
ROOT
ATOM      1  C   UNL d   1       8.948   5.450 -11.144  0.00  0.00     0.755 A 
ATOM      2  N   UNL d   1       9.857   6.407 -10.980  0.00  0.00    -0.058 NA
ATOM      3  C   UNL d   1       9.783   6.658  -9.619  0.00  0.00     0.118 A 
ATOM      4  C   UNL d   1      10.521   7.542  -8.795  0.00  0.00     0.025 A 
ATOM      5  C   UNL d   1      10.237   7.650  -7.410  0.00  0.00     0.041 A 
ATOM      6  C   UNL d   1       9.189   6.883  -6.853  0.00  0.00     0.005 A 
ATOM      7  C   UNL d   1       8.466   5.982  -7.648  0.00  0.00     0.021 A 
ATOM      8  C   UNL d   1       8.768   5.864  -9.013  0.00  0.00     0.118 A 
ATOM      9  N   UNL d   1       8.260   5.095 -10.047  0.00  0.00    -0.058 NA
ENDROOT
BRANCH   5  10
ATOM     10  C   UNL d   1      10.986   8.614  -6.566  0.00  0.00     0.202 C 
ATOM     11  O   UNL d   1      11.296   9.729  -6.975  0.00  0.00    -0.286 OA
BRANCH  10  12
ATOM     12  C   UNL d   1      11.373   8.176  -5.218  0.00  0.00     0.068 A 
ATOM     13  S   UNL d   1      11.857   9.393  -4.065  0.00  0.00    -0.083 SA
ATOM     14  C   UNL d   1      12.161   8.184  -2.853  0.00  0.00     0.035 A 
ATOM     15  C   UNL d   1      11.899   6.923  -3.320  0.00  0.00     0.008 A 
ATOM     16  C   UNL d   1      11.460   6.917  -4.677  0.00  0.00     0.010 A 
ENDBRANCH  10  12
ENDBRANCH   5  10
BRANCH   1  17
ATOM     17  N   UNL d   1       8.676   4.807 -12.379  0.00  0.00     0.005 NA
ATOM     18  C   UNL d   1       9.509   4.716 -13.486  0.00  0.00     0.403 C 
ATOM     19  O   UNL d   1      10.645   5.182 -13.632  0.00  0.00    -0.235 OA
BRANCH  18  20
ATOM     20  O   UNL d   1       8.871   3.996 -14.419  0.00  0.00    -0.280 OA
ATOM     21  C   UNL d   1       9.530   3.692 -15.638  0.00  0.00     0.186 C 
ENDBRANCH  18  20
ENDBRANCH   1  17
TORSDOF 4
