REMARK  9 active torsions:
REMARK  status: ('A' for Active; 'I' for Inactive)
REMARK    1  A    between atoms: C_1  and  C_9 
REMARK    2  A    between atoms: C_2  and  C_3 
REMARK    3  A    between atoms: C_9  and  O_10 
REMARK    4  A    between atoms: O_10  and  C_11 
REMARK    5  A    between atoms: C_11  and  C_12 
REMARK    6  A    between atoms: N_15  and  C_16 
REMARK    7  A    between atoms: C_16  and  C_17 
REMARK    8  A    between atoms: C_17  and  C_18 
REMARK    9  A    between atoms: C_18  and  C_19 
ROOT
ATOM      1  C   UNL d   1       8.363   5.474 -11.736  0.00  0.00     0.034 C 
ATOM      2  C   UNL d   1       9.321   6.529 -12.305  0.00  0.00     0.038 C 
ATOM      3  C   UNL d   1       9.605   7.652 -11.287  0.00  0.00     0.250 C 
ATOM      4  N   UNL d   1      10.144   7.103 -10.033  0.00  0.00     0.137 N 
ATOM      5  C   UNL d   1       9.131   6.198  -9.449  0.00  0.00     0.250 C 
ATOM      6  C   UNL d   1       8.864   5.020 -10.373  0.00  0.00     0.038 C 
ENDROOT
BRANCH   1   7
ATOM      7  C   UNL d   1       8.185   4.292 -12.701  0.00  0.00     0.143 C 
BRANCH   7   8
ATOM      8  O   UNL d   1       9.445   3.635 -12.837  0.00  0.00    -0.349 OA
BRANCH   8   9
ATOM      9  C   UNL d   1       9.688   3.015 -14.086  0.00  0.00     0.169 C 
BRANCH   9  10
ATOM     10  C   UNL d   1       8.692   1.912 -14.369  0.00  0.00     0.006 C 
ATOM     11  C   UNL d   1       7.847   1.881 -15.409  0.00  0.00    -0.002 C 
BRANCH  11  12
ATOM     12  C   UNL d   1       6.824   0.844 -15.608  0.00  0.00    -0.000 A 
ATOM     13  C   UNL d   1       6.391  -0.027 -14.579  0.00  0.00    -0.000 A 
ATOM     14  C   UNL d   1       5.446  -1.028 -14.835  0.00  0.00    -0.000 A 
ATOM     15  C   UNL d   1       4.916  -1.191 -16.134  0.00  0.00    -0.000 A 
ATOM     16  C   UNL d   1       5.348  -0.339 -17.167  0.00  0.00    -0.000 A 
ATOM     17  C   UNL d   1       6.299   0.669 -16.909  0.00  0.00    -0.000 A 
ENDBRANCH  11  12
ENDBRANCH   9  10
ENDBRANCH   8   9
ENDBRANCH   7   8
ENDBRANCH   1   7
BRANCH   4  18
ATOM     18  C   UNL d   1      10.437   8.252  -9.172  0.00  0.00     0.251 C 
BRANCH  18  19
ATOM     19  C   UNL d   1      11.024   7.889  -7.789  0.00  0.00     0.040 C 
BRANCH  19  20
ATOM     20  C   UNL d   1      10.463   8.778  -6.665  0.00  0.00     0.028 C 
BRANCH  20  21
ATOM     21  C   UNL d   1      11.067   8.434  -5.313  0.00  0.00    -0.022 A 
ATOM     22  C   UNL d   1      11.458   9.482  -4.463  0.00  0.00    -0.004 A 
ATOM     23  C   UNL d   1      12.058   9.191  -3.216  0.00  0.00    -0.000 A 
ATOM     24  C   UNL d   1      12.259   7.857  -2.818  0.00  0.00    -0.000 A 
ATOM     25  C   UNL d   1      11.856   6.813  -3.652  0.00  0.00    -0.000 A 
ATOM     26  C   UNL d   1      11.249   7.090  -4.888  0.00  0.00    -0.004 A 
ENDBRANCH  20  21
ENDBRANCH  19  20
ENDBRANCH  18  19
ENDBRANCH   4  18
TORSDOF 9
