REMARK  4 active torsions:
REMARK  status: ('A' for Active; 'I' for Inactive)
REMARK    1  A    between atoms: C_8  and  C_9 
REMARK    2  A    between atoms: C_9  and  N_10 
REMARK    3  A    between atoms: C_13  and  C_14 
REMARK    4  A    between atoms: C_14  and  C_16 
ROOT
ATOM      1  N   UNL d   1       9.251   5.888 -12.186  0.00  0.00     0.137 N 
ATOM      2  C   UNL d   1       9.453   5.332 -10.852  0.00  0.00     0.251 C 
ATOM      3  C   UNL d   1      10.358   6.247 -10.021  0.00  0.00     0.043 C 
ATOM      4  C   UNL d   1       9.686   7.630  -9.791  0.00  0.00     0.066 C 
ATOM      5  C   UNL d   1       9.328   8.168 -11.200  0.00  0.00     0.043 C 
ATOM      6  C   UNL d   1       8.524   7.150 -12.042  0.00  0.00     0.251 C 
ENDROOT
BRANCH   1   7
ATOM      7  C   UNL d   1       8.473   4.961 -12.991  0.00  0.00     0.251 C 
BRANCH   7   8
ATOM      8  C   UNL d   1       9.373   3.869 -13.612  0.00  0.00     0.047 C 
ATOM      9  C   UNL d   1       8.520   2.805 -14.348  0.00  0.00     0.048 C 
ATOM     10  C   UNL d   1       9.374   1.967 -15.229  0.00  0.00     0.060 A 
ATOM     11  N   UNL d   1       9.032   0.762 -15.809  0.00  0.00    -0.253 N 
ATOM     12  C   UNL d   1      10.632   2.238 -15.636  0.00  0.00     0.069 A 
ATOM     13  C   UNL d   1       7.787   0.022 -15.758  0.00  0.00     0.153 C 
ATOM     14  N   UNL d   1      10.073   0.242 -16.509  0.00  0.00    -0.168 NA
ATOM     15  C   UNL d   1      11.049   1.143 -16.412  0.00  0.00     0.124 A 
ATOM     16  C   UNL d   1      11.366   3.465 -15.250  0.00  0.00     0.176 C 
ATOM     17  C   UNL d   1      10.465   4.487 -14.534  0.00  0.00     0.072 C 
ATOM     18  O   UNL d   1      12.540   3.699 -15.483  0.00  0.00    -0.291 OA
ENDBRANCH   7   8
ENDBRANCH   1   7
BRANCH   4  19
ATOM     19  C   UNL d   1      10.575   8.611  -8.993  0.00  0.00     0.173 C 
ATOM     20  O   UNL d   1      11.074   9.574  -9.572  0.00  0.00    -0.291 OA
BRANCH  19  21
ATOM     21  C   UNL d   1      10.797   8.388  -7.530  0.00  0.00     0.035 A 
ATOM     22  C   UNL d   1      10.426   7.180  -6.858  0.00  0.00     0.005 A 
ATOM     23  C   UNL d   1      10.817   6.970  -5.524  0.00  0.00     0.030 A 
ATOM     24  C   UNL d   1      11.451   7.984  -4.787  0.00  0.00     0.140 A 
ATOM     25  C   UNL d   1      11.726   9.219  -5.407  0.00  0.00     0.030 A 
ATOM     26  F   UNL d   1      11.717   7.799  -3.474  0.00  0.00    -0.204 F 
ATOM     27  C   UNL d   1      11.430   9.409  -6.770  0.00  0.00     0.005 A 
ENDBRANCH  19  21
ENDBRANCH   4  19
TORSDOF 4
