REMARK  9 active torsions:
REMARK  status: ('A' for Active; 'I' for Inactive)
REMARK    1  A    between atoms: C_6  and  C_7 
REMARK    2  A    between atoms: C_10  and  S_11 
REMARK    3  A    between atoms: S_11  and  C_12 
REMARK    4  A    between atoms: C_12  and  C_13 
REMARK    5  A    between atoms: C_13  and  C_14 
REMARK    6  A    between atoms: C_14  and  N_15 
REMARK    7  A    between atoms: N_20  and  C_21 
REMARK    8  A    between atoms: C_24  and  O_25 
REMARK    9  A    between atoms: O_25  and  C_26 
ROOT
ATOM      1  N   UNL d   1       9.976   3.338 -14.473  0.00  0.00     0.138 N 
ATOM      2  C   UNL d   1       8.525   3.268 -14.726  0.00  0.00     0.252 C 
ATOM      3  C   UNL d   1       7.972   4.495 -14.002  0.00  0.00     0.052 C 
ATOM      4  C   UNL d   1       6.653   4.341 -13.243  0.00  0.00     0.021 C 
ATOM      5  C   UNL d   1       6.940   5.057 -11.928  0.00  0.00     0.077 C 
ATOM      6  N   UNL d   1       8.337   4.776 -11.655  0.00  0.00    -0.252 NA
ATOM      7  C   UNL d   1       9.014   4.772 -12.944  0.00  0.00     0.097 C 
ATOM      8  C   UNL d   1      10.035   3.659 -13.068  0.00  0.00     0.266 C 
ENDROOT
BRANCH   1   9
ATOM      9  C   UNL d   1      10.718   2.110 -14.721  0.00  0.00     0.251 C 
BRANCH   9  10
ATOM     10  C   UNL d   1      10.622   1.825 -16.238  0.00  0.00     0.047 C 
BRANCH  10  11
ATOM     11  C   UNL d   1      11.148   0.429 -16.607  0.00  0.00     0.067 C 
BRANCH  11  12
ATOM     12  S   UNL d   1      10.773  -0.016 -18.353  0.00  0.00    -0.075 SA
BRANCH  12  13
ATOM     13  C   UNL d   1       9.054   0.322 -18.477  0.00  0.00     0.193 A 
ATOM     14  N   UNL d   1       8.515   1.543 -18.417  0.00  0.00    -0.122 NA
ATOM     15  N   UNL d   1       7.188   1.358 -18.383  0.00  0.00    -0.126 NA
ATOM     16  C   UNL d   1       6.970   0.038 -18.437  0.00  0.00     0.191 A 
ATOM     17  N   UNL d   1       8.128  -0.668 -18.568  0.00  0.00    -0.287 N 
ATOM     18  C   UNL d   1       8.315  -2.126 -18.756  0.00  0.00     0.134 C 
BRANCH  16  19
ATOM     19  C   UNL d   1       5.596  -0.506 -18.517  0.00  0.00     0.151 A 
ATOM     20  C   UNL d   1       4.926  -1.619 -18.071  0.00  0.00     0.087 A 
ATOM     21  C   UNL d   1       5.387  -2.770 -17.225  0.00  0.00     0.054 C 
ATOM     22  N   UNL d   1       3.618  -1.563 -18.544  0.00  0.00    -0.221 NA
ATOM     23  C   UNL d   1       3.563  -0.400 -19.182  0.00  0.00     0.225 A 
ATOM     24  O   UNL d   1       4.747   0.255 -19.258  0.00  0.00    -0.282 OA
ENDBRANCH  16  19
ENDBRANCH  12  13
ENDBRANCH  11  12
ENDBRANCH  10  11
ENDBRANCH   9  10
ENDBRANCH   1   9
BRANCH   6  25
ATOM     25  C   UNL d   1       8.906   5.540 -10.627  0.00  0.00     0.037 A 
ATOM     26  C   UNL d   1       9.490   6.800 -10.905  0.00  0.00     0.013 A 
ATOM     27  C   UNL d   1      10.138   7.525  -9.897  0.00  0.00     0.025 A 
ATOM     28  C   UNL d   1      10.149   7.069  -8.571  0.00  0.00     0.102 A 
ATOM     29  C   UNL d   1       9.533   5.821  -8.275  0.00  0.00     0.025 A 
ATOM     30  C   UNL d   1       8.928   5.064  -9.305  0.00  0.00     0.013 A 
BRANCH  28  31
ATOM     31  O   UNL d   1      10.656   7.765  -7.487  0.00  0.00    -0.253 OA
BRANCH  31  32
ATOM     32  C   UNL d   1      11.521   8.793  -7.661  0.00  0.00     0.530 C 
ATOM     33  F   UNL d   1      11.062   9.661  -8.577  0.00  0.00    -0.144 F 
ATOM     34  F   UNL d   1      11.701   9.442  -6.472  0.00  0.00    -0.144 F 
ATOM     35  F   UNL d   1      12.735   8.377  -8.077  0.00  0.00    -0.144 F 
ENDBRANCH  31  32
ENDBRANCH  28  31
ENDBRANCH   6  25
TORSDOF 9
