REMARK  4 active torsions:
REMARK  status: ('A' for Active; 'I' for Inactive)
REMARK       I    between atoms: N_10  and  C_11 
REMARK    1  A    between atoms: C_11  and  C_13 
REMARK    2  A    between atoms: C_13  and  N_14 
REMARK    3  A    between atoms: N_17  and  C_18 
REMARK    4  A    between atoms: C_18  and  C_19 
ROOT
ATOM      1  N   UNL d   1      10.325   3.078 -15.241  0.00  0.00     0.151 N 
ATOM      2  C   UNL d   1      10.860   3.108 -13.876  0.00  0.00     0.286 C 
ATOM      3  C   UNL d   1       9.803   3.562 -12.863  0.00  0.00     0.286 C 
ATOM      4  N   UNL d   1       9.249   4.870 -13.220  0.00  0.00     0.146 N 
ATOM      5  C   UNL d   1       8.655   4.772 -14.546  0.00  0.00     0.286 C 
ATOM      6  C   UNL d   1       9.694   4.358 -15.592  0.00  0.00     0.286 C 
ENDROOT
BRANCH   1   7
ATOM      7  C   UNL d   1      11.302   2.618 -16.232  0.00  0.00     0.337 C 
BRANCH   7   8
ATOM      8  C   UNL d   1      12.442   3.610 -16.564  0.00  0.00     0.271 C 
ATOM      9  N   UNL d   1      13.006   3.585 -17.796  0.00  0.00    -0.299 N 
ATOM     10  C   UNL d   1      12.566   2.748 -18.931  0.00  0.00     0.093 C 
ATOM     11  C   UNL d   1      14.068   4.444 -18.205  0.00  0.00     0.058 A 
ATOM     12  C   UNL d   1      12.906   1.258 -18.695  0.00  0.00     0.025 C 
ATOM     13  C   UNL d   1      13.319   3.307 -20.169  0.00  0.00     0.051 C 
ATOM     14  C   UNL d   1      14.267   4.321 -19.573  0.00  0.00    -0.004 A 
ATOM     15  C   UNL d   1      15.256   5.060 -20.241  0.00  0.00    -0.003 A 
ATOM     16  C   UNL d   1      16.066   5.943 -19.495  0.00  0.00    -0.000 A 
ATOM     17  C   UNL d   1      15.882   6.065 -18.097  0.00  0.00     0.002 A 
ATOM     18  C   UNL d   1      14.891   5.315 -17.445  0.00  0.00     0.017 A 
ATOM     19  O   UNL d   1      12.811   4.395 -15.694  0.00  0.00    -0.270 OA
ENDBRANCH   7   8
ENDBRANCH   1   7
BRANCH   4  20
ATOM     20  C   UNL d   1       8.272   5.319 -12.242  0.00  0.00     0.277 C 
BRANCH  20  21
ATOM     21  C   UNL d   1       8.901   5.836 -10.962  0.00  0.00     0.011 A 
ATOM     22  C   UNL d   1       9.687   7.006 -10.986  0.00  0.00    -0.000 A 
ATOM     23  C   UNL d   1      10.253   7.514  -9.799  0.00  0.00     0.029 A 
ATOM     24  C   UNL d   1      10.018   6.855  -8.578  0.00  0.00     0.140 A 
ATOM     25  C   UNL d   1       9.228   5.692  -8.552  0.00  0.00     0.029 A 
ATOM     26  F   UNL d   1      10.558   7.338  -7.433  0.00  0.00    -0.204 F 
ATOM     27  C   UNL d   1       8.664   5.184  -9.736  0.00  0.00    -0.000 A 
ENDBRANCH  20  21
ENDBRANCH   4  20
TORSDOF 4
