REMARK  6 active torsions:
REMARK  status: ('A' for Active; 'I' for Inactive)
REMARK    1  A    between atoms: C_2  and  C_3 
REMARK    2  A    between atoms: C_3  and  N_4 
REMARK    3  A    between atoms: C_19  and  O_20 
REMARK    4  A    between atoms: O_20  and  C_21 
REMARK       I    between atoms: C_21  and  N_23 
REMARK    5  A    between atoms: N_23  and  C_24 
REMARK    6  A    between atoms: C_24  and  C_25 
ROOT
ATOM      1  N   UNL d   1       8.647   0.922 -15.196  0.00  0.00     0.140 N 
ATOM      2  C   UNL d   1      10.031   0.459 -15.094  0.00  0.00     0.255 C 
ATOM      3  C   UNL d   1      10.902   1.516 -15.760  0.00  0.00     0.061 C 
ATOM      4  C   UNL d   1      10.751   2.903 -15.194  0.00  0.00    -0.022 A 
ATOM      5  C   UNL d   1      11.662   3.954 -15.362  0.00  0.00    -0.004 A 
ATOM      6  C   UNL d   1      11.380   5.191 -14.782  0.00  0.00    -0.000 A 
ATOM      7  C   UNL d   1      10.251   5.361 -13.986  0.00  0.00    -0.000 A 
ATOM      8  C   UNL d   1       9.284   4.359 -13.813  0.00  0.00    -0.001 A 
ATOM      9  C   UNL d   1       9.566   3.138 -14.465  0.00  0.00     0.005 A 
ATOM     10  C   UNL d   1       8.529   2.033 -14.296  0.00  0.00     0.245 C 
ATOM     11  C   UNL d   1       7.085   2.579 -14.319  0.00  0.00     0.064 C 
ATOM     12  C   UNL d   1       6.912   3.746 -13.408  0.00  0.00    -0.018 A 
ATOM     13  C   UNL d   1       5.658   3.910 -12.801  0.00  0.00    -0.004 A 
ATOM     14  C   UNL d   1       5.532   4.918 -11.854  0.00  0.00     0.002 A 
ATOM     15  C   UNL d   1       6.599   5.747 -11.522  0.00  0.00     0.025 A 
ATOM     16  C   UNL d   1       7.854   5.578 -12.099  0.00  0.00     0.104 A 
ATOM     17  C   UNL d   1       8.013   4.586 -13.096  0.00  0.00     0.019 A 
ENDROOT
BRANCH  16  18
ATOM     18  O   UNL d   1       8.881   6.358 -11.644  0.00  0.00    -0.258 OA
BRANCH  18  19
ATOM     19  C   UNL d   1       9.448   6.106 -10.453  0.00  0.00     0.388 C 
ATOM     20  O   UNL d   1       9.148   5.182  -9.690  0.00  0.00    -0.236 OA
ATOM     21  N   UNL d   1      10.438   7.050 -10.272  0.00  0.00    -0.207 NA
BRANCH  21  22
ATOM     22  C   UNL d   1      11.345   7.062  -9.146  0.00  0.00     0.158 C 
BRANCH  22  23
ATOM     23  C   UNL d   1      10.974   7.952  -8.018  0.00  0.00     0.002 A 
ATOM     24  C   UNL d   1      11.968   8.733  -7.396  0.00  0.00    -0.002 A 
ATOM     25  C   UNL d   1      11.630   9.526  -6.293  0.00  0.00    -0.000 A 
ATOM     26  C   UNL d   1      10.309   9.487  -5.816  0.00  0.00    -0.000 A 
ATOM     27  C   UNL d   1       9.344   8.662  -6.435  0.00  0.00    -0.000 A 
ATOM     28  C   UNL d   1       9.675   7.863  -7.514  0.00  0.00    -0.002 A 
ENDBRANCH  22  23
ENDBRANCH  21  22
ENDBRANCH  18  19
ENDBRANCH  16  18
BRANCH   1  29
ATOM     29  C   UNL d   1       7.745  -0.143 -14.771  0.00  0.00     0.251 C 
BRANCH  29  30
ATOM     30  C   UNL d   1       6.522  -0.247 -15.712  0.00  0.00     0.035 C 
ATOM     31  C   UNL d   1       5.453  -1.215 -15.196  0.00  0.00     0.002 C 
ENDBRANCH  29  30
ENDBRANCH   1  29
TORSDOF 6
