REMARK  1 active torsions:
REMARK  status: ('A' for Active; 'I' for Inactive)
REMARK    1  A    between atoms: C_13  and  C_14 
ROOT
ATOM      1  O   UNL d   1       8.774  -0.023 -15.322  0.00  0.00    -0.190 OA
ATOM      2  C   UNL d   1       8.090   1.018 -14.776  0.00  0.00     0.137 A 
ATOM      3  C   UNL d   1       8.740   2.255 -14.666  0.00  0.00     0.024 A 
ATOM      4  C   UNL d   1       8.081   3.380 -14.112  0.00  0.00    -0.018 A 
ATOM      5  C   UNL d   1       6.742   3.226 -13.666  0.00  0.00    -0.023 A 
ATOM      6  C   UNL d   1       6.104   1.975 -13.771  0.00  0.00     0.004 A 
ATOM      7  C   UNL d   1       6.764   0.870 -14.330  0.00  0.00     0.060 A 
ATOM      8 BR   UNL d   1       5.859  -0.803 -14.442  0.00  0.00    -0.047 Br
ATOM      9  C   UNL d   1       5.967   4.365 -13.032  0.00  0.00     0.064 C 
ATOM     10  C   UNL d   1       6.642   4.920 -11.780  0.00  0.00     0.295 C 
ATOM     11  N   UNL d   1       7.696   5.867 -12.084  0.00  0.00     0.340 N 
ATOM     12  C   UNL d   1       8.925   5.264 -12.576  0.00  0.00     0.299 C 
ATOM     13  C   UNL d   1       8.813   4.736 -14.026  0.00  0.00     0.080 C 
ENDROOT
BRANCH  13  14
ATOM     14  C   UNL d   1      10.176   4.748 -14.724  0.00  0.00    -0.016 A 
ATOM     15  C   UNL d   1      11.343   4.335 -14.047  0.00  0.00    -0.004 A 
ATOM     16  C   UNL d   1      12.590   4.381 -14.692  0.00  0.00    -0.000 A 
ATOM     17  C   UNL d   1      12.686   4.816 -16.024  0.00  0.00    -0.000 A 
ATOM     18  C   UNL d   1      11.525   5.210 -16.716  0.00  0.00    -0.000 A 
ATOM     19  C   UNL d   1      10.274   5.169 -16.070  0.00  0.00    -0.004 A 
ENDBRANCH  13  14
TORSDOF 1
