REMARK  6 active torsions:
REMARK  status: ('A' for Active; 'I' for Inactive)
REMARK    1  A    between atoms: N_6  and  C_7 
REMARK    2  A    between atoms: C_7  and  C_8 
REMARK    3  A    between atoms: C_8  and  C_9 
REMARK    4  A    between atoms: C_13  and  C_14 
REMARK    5  A    between atoms: C_14  and  C_16 
REMARK    6  A    between atoms: C_19  and  N_20 
ROOT
ATOM      1  C   UNL d   1       9.025   5.401 -12.508  0.00  0.00     0.080 A 
ATOM      2  C   UNL d   1       8.081   4.701 -13.215  0.00  0.00     0.022 A 
ATOM      3  C   UNL d   1       8.813   3.800 -14.055  0.00  0.00     0.025 A 
ATOM      4  C   UNL d   1       8.501   2.838 -15.029  0.00  0.00     0.005 A 
ATOM      5  C   UNL d   1       9.507   2.050 -15.649  0.00  0.00     0.039 A 
ATOM      6  C   UNL d   1      10.870   2.308 -15.348  0.00  0.00     0.005 A 
ATOM      7  C   UNL d   1      11.221   3.304 -14.415  0.00  0.00     0.025 A 
ATOM      8  C   UNL d   1      10.187   4.016 -13.782  0.00  0.00     0.100 A 
ATOM      9  O   UNL d   1      10.296   5.016 -12.842  0.00  0.00    -0.311 OA
ENDROOT
BRANCH   5  10
ATOM     10  C   UNL d   1       9.171   0.974 -16.637  0.00  0.00     0.196 C 
ATOM     11  O   UNL d   1      10.005   0.595 -17.464  0.00  0.00    -0.287 OA
BRANCH  10  12
ATOM     12  C   UNL d   1       7.798   0.379 -16.614  0.00  0.00     0.039 A 
ATOM     13  C   UNL d   1       7.026   0.297 -15.429  0.00  0.00     0.005 A 
ATOM     14  C   UNL d   1       5.726  -0.223 -15.459  0.00  0.00     0.024 A 
ATOM     15  C   UNL d   1       5.190  -0.758 -16.654  0.00  0.00     0.127 A 
ATOM     16  C   UNL d   1       5.976  -0.735 -17.828  0.00  0.00     0.024 A 
ATOM     17  C   UNL d   1       7.264  -0.168 -17.807  0.00  0.00     0.005 A 
BRANCH  15  18
ATOM     18  N   UNL d   1       3.837  -1.328 -16.664  0.00  0.00    -0.114 N 
ATOM     19  O   UNL d   1       3.459  -1.875 -17.695  0.00  0.00    -0.532 OA
ATOM     20  O   UNL d   1       3.153  -1.212 -15.650  0.00  0.00    -0.532 OA
ENDBRANCH  15  18
ENDBRANCH  10  12
ENDBRANCH   5  10
BRANCH   1  21
ATOM     21  C   UNL d   1       8.916   6.497 -11.513  0.00  0.00     0.087 C 
BRANCH  21  22
ATOM     22  C   UNL d   1       9.438   6.091 -10.121  0.00  0.00     0.257 C 
BRANCH  22  23
ATOM     23  N   UNL d   1       9.859   7.245  -9.325  0.00  0.00     0.135 N 
ATOM     24  C   UNL d   1      10.197   6.881  -7.950  0.00  0.00     0.219 C 
ATOM     25  C   UNL d   1       8.951   6.578  -7.106  0.00  0.00     0.035 C 
ATOM     26  C   UNL d   1      10.969   8.104  -7.449  0.00  0.00     0.035 C 
ATOM     27  C   UNL d   1      11.565   8.733  -8.704  0.00  0.00     0.037 C 
ATOM     28  C   UNL d   1      11.092   7.837  -9.839  0.00  0.00     0.250 C 
ENDBRANCH  22  23
ENDBRANCH  21  22
ENDBRANCH   1  21
TORSDOF 6
