REMARK  3 active torsions:
REMARK  status: ('A' for Active; 'I' for Inactive)
REMARK    1  A    between atoms: C_5  and  N_6 
REMARK    2  A    between atoms: N_6  and  S_7 
REMARK    3  A    between atoms: S_7  and  C_10 
ROOT
ATOM      1  S   UNL d   1      11.105   8.232  -8.803  0.00  0.00     0.287 S 
ATOM      2  O   UNL d   1      12.437   7.989  -9.375  0.00  0.00    -0.198 OA
ATOM      3  O   UNL d   1      10.243   9.309  -9.293  0.00  0.00    -0.198 OA
ENDROOT
BRANCH   1   4
ATOM      4  N   UNL d   1      10.209   6.770  -8.994  0.00  0.00    -0.130 NA
BRANCH   4   5
ATOM      5  C   UNL d   1       9.520   6.432 -10.147  0.00  0.00     0.227 A 
ATOM      6  N   UNL d   1       9.463   7.141 -11.276  0.00  0.00    -0.121 NA
ATOM      7  N   UNL d   1       8.730   6.491 -12.259  0.00  0.00    -0.144 NA
ATOM      8  C   UNL d   1       8.217   5.334 -11.826  0.00  0.00     0.113 A 
ATOM      9  C   UNL d   1       7.376   4.462 -12.691  0.00  0.00     0.061 C 
ATOM     10  S   UNL d   1       8.654   4.915 -10.179  0.00  0.00    -0.030 SA
ENDBRANCH   4   5
ENDBRANCH   1   4
BRANCH   1  11
ATOM     11  C   UNL d   1      11.258   8.382  -7.030  0.00  0.00     0.105 A 
ATOM     12  C   UNL d   1      11.361   7.226  -6.224  0.00  0.00     0.014 A 
ATOM     13  C   UNL d   1      11.496   7.367  -4.830  0.00  0.00     0.015 A 
ATOM     14  C   UNL d   1      11.570   8.652  -4.246  0.00  0.00     0.070 A 
ATOM     15  C   UNL d   1      11.407   9.796  -5.052  0.00  0.00     0.015 A 
ATOM     16  N   UNL d   1      11.853   8.784  -2.889  0.00  0.00    -0.101 NA
ATOM     17  C   UNL d   1      11.275   9.665  -6.448  0.00  0.00     0.014 A 
ENDBRANCH   1  11
TORSDOF 3
