REMARK  1 active torsions:
REMARK  status: ('A' for Active; 'I' for Inactive)
REMARK    1  A    between atoms: C_2  and  C_3 
ROOT
ATOM      1  C   UNL d   1      11.916   8.570  -8.459  0.00  0.00     0.083 C 
ATOM      2  C   UNL d   1      11.729   8.526  -6.946  0.00  0.00    -0.020 A 
ATOM      3  C   UNL d   1      12.104   9.611  -6.128  0.00  0.00    -0.004 A 
ATOM      4  C   UNL d   1      11.945   9.528  -4.732  0.00  0.00    -0.000 A 
ATOM      5  C   UNL d   1      11.461   8.355  -4.135  0.00  0.00    -0.000 A 
ATOM      6  C   UNL d   1      11.087   7.265  -4.933  0.00  0.00    -0.004 A 
ATOM      7  C   UNL d   1      11.211   7.356  -6.336  0.00  0.00    -0.021 A 
ATOM      8  C   UNL d   1      10.829   6.172  -7.192  0.00  0.00     0.052 C 
ATOM      9  C   UNL d   1      10.350   6.572  -8.569  0.00  0.00    -0.021 A 
ATOM     10  C   UNL d   1       9.404   5.787  -9.261  0.00  0.00     0.003 A 
ATOM     11  C   UNL d   1       8.986   6.181 -10.550  0.00  0.00     0.034 A 
ATOM     12 BR   UNL d   1       7.723   5.154 -11.531  0.00  0.00    -0.049 Br
ATOM     13  C   UNL d   1       9.464   7.374 -11.117  0.00  0.00     0.006 A 
ATOM     14  C   UNL d   1      10.393   8.158 -10.415  0.00  0.00    -0.004 A 
ATOM     15  C   UNL d   1      10.860   7.743  -9.160  0.00  0.00    -0.020 A 
ENDROOT
BRANCH   1  16
ATOM     16  C   UNL d   1      13.346   8.149  -8.827  0.00  0.00     0.347 C 
ATOM     17  N   UNL d   1      13.612   7.994 -10.244  0.00  0.00     0.619 N 
ENDBRANCH   1  16
TORSDOF 1
