REMARK  9 active torsions:
REMARK  status: ('A' for Active; 'I' for Inactive)
REMARK    1  A    between atoms: O_2  and  C_3 
REMARK    2  A    between atoms: C_4  and  O_5 
REMARK    3  A    between atoms: O_5  and  C_6 
REMARK    4  A    between atoms: C_6  and  C_7 
REMARK    5  A    between atoms: C_12  and  C_13 
REMARK    6  A    between atoms: C_13  and  C_15 
REMARK    7  A    between atoms: N_18  and  C_19 
REMARK    8  A    between atoms: C_19  and  C_20 
REMARK    9  A    between atoms: C_20  and  C_21 
ROOT
ATOM      1  C   UNL d   1       8.299   4.074 -13.874  0.00  0.00     0.066 C 
ATOM      2  C   UNL d   1       9.373   3.750 -12.810  0.00  0.00     0.043 C 
ATOM      3  C   UNL d   1       9.418   4.855 -11.771  0.00  0.00     0.251 C 
ATOM      4  N   UNL d   1       8.165   4.968 -11.058  0.00  0.00     0.137 N 
ATOM      5  C   UNL d   1       7.155   5.442 -12.008  0.00  0.00     0.251 C 
ATOM      6  C   UNL d   1       6.973   4.390 -13.118  0.00  0.00     0.043 C 
ENDROOT
BRANCH   1   7
ATOM      7  C   UNL d   1       8.138   2.893 -14.827  0.00  0.00     0.175 C 
ATOM      8  O   UNL d   1       7.149   2.173 -14.716  0.00  0.00    -0.291 OA
BRANCH   7   9
ATOM      9  C   UNL d   1       9.164   2.732 -15.921  0.00  0.00     0.059 A 
ATOM     10  C   UNL d   1       8.774   2.190 -17.191  0.00  0.00     0.119 A 
ATOM     11  C   UNL d   1       9.742   2.026 -18.215  0.00  0.00     0.116 A 
ATOM     12  C   UNL d   1      11.085   2.402 -17.976  0.00  0.00     0.026 A 
ATOM     13  C   UNL d   1      11.466   2.900 -16.717  0.00  0.00     0.002 A 
ATOM     14  C   UNL d   1      10.512   3.087 -15.718  0.00  0.00     0.005 A 
BRANCH  10  15
ATOM     15  O   UNL d   1       7.467   1.862 -17.461  0.00  0.00    -0.326 OA
ATOM     16  C   UNL d   1       7.148   0.500 -17.213  0.00  0.00     0.181 C 
ENDBRANCH  10  15
BRANCH  11  17
ATOM     17  O   UNL d   1       9.318   1.469 -19.405  0.00  0.00    -0.326 OA
BRANCH  17  18
ATOM     18  C   UNL d   1      10.319   1.110 -20.355  0.00  0.00     0.187 C 
BRANCH  18  19
ATOM     19  C   UNL d   1      11.249  -0.028 -19.852  0.00  0.00     0.226 C 
ATOM     20  F   UNL d   1      10.518  -1.112 -19.583  0.00  0.00    -0.232 F 
ENDBRANCH  18  19
ENDBRANCH  17  18
ENDBRANCH  11  17
ENDBRANCH   7   9
ENDBRANCH   1   7
BRANCH   4  21
ATOM     21  C   UNL d   1       8.364   5.952  -9.997  0.00  0.00     0.255 C 
BRANCH  21  22
ATOM     22  C   UNL d   1       9.355   5.536  -8.879  0.00  0.00     0.062 C 
BRANCH  22  23
ATOM     23  C   UNL d   1       9.916   6.740  -8.149  0.00  0.00    -0.020 A 
ATOM     24  C   UNL d   1      10.645   7.717  -8.862  0.00  0.00    -0.004 A 
ATOM     25  C   UNL d   1      11.207   8.814  -8.184  0.00  0.00    -0.005 A 
ATOM     26  C   UNL d   1      11.052   8.938  -6.789  0.00  0.00    -0.022 A 
ATOM     27  C   UNL d   1      10.343   7.950  -6.079  0.00  0.00    -0.005 A 
ATOM     28  C   UNL d   1      11.636  10.119  -6.046  0.00  0.00     0.031 C 
ATOM     29  C   UNL d   1       9.764   6.863  -6.758  0.00  0.00    -0.004 A 
ENDBRANCH  22  23
ENDBRANCH  21  22
ENDBRANCH   4  21
TORSDOF 9
