REMARK  10 active torsions:
REMARK  status: ('A' for Active; 'I' for Inactive)
REMARK    1  A    between atoms: C_4  and  S_5 
REMARK    2  A    between atoms: S_5  and  N_8 
REMARK    3  A    between atoms: N_8  and  C_9 
REMARK    4  A    between atoms: N_8  and  C_13 
REMARK    5  A    between atoms: C_9  and  C_10 
REMARK    6  A    between atoms: N_16  and  C_17 
REMARK    7  A    between atoms: C_17  and  C_18 
REMARK    8  A    between atoms: C_18  and  O_19 
REMARK    9  A    between atoms: O_19  and  C_20 
REMARK   10  A    between atoms: C_25  and  C_26 
ROOT
ATOM      1  C   UNL d   1      11.026   1.640 -18.656  0.00  0.00     0.096 C 
ATOM      2  C   UNL d   1      11.872   1.366 -17.393  0.00  0.00     0.058 C 
ATOM      3  C   UNL d   1      11.875   2.595 -16.472  0.00  0.00     0.252 C 
ATOM      4  N   UNL d   1      10.511   2.977 -16.105  0.00  0.00     0.140 N 
ATOM      5  C   UNL d   1       9.720   3.312 -17.287  0.00  0.00     0.252 C 
ATOM      6  C   UNL d   1       9.630   2.107 -18.235  0.00  0.00     0.058 C 
ENDROOT
BRANCH   4   7
ATOM      7  C   UNL d   1      10.571   4.136 -15.220  0.00  0.00     0.283 C 
BRANCH   7   8
ATOM      8  C   UNL d   1      10.881   3.682 -13.775  0.00  0.00     0.184 C 
BRANCH   8   9
ATOM      9  O   UNL d   1      10.197   4.482 -12.828  0.00  0.00    -0.329 OA
BRANCH   9  10
ATOM     10  C   UNL d   1       8.817   4.413 -12.764  0.00  0.00     0.094 A 
ATOM     11  C   UNL d   1       8.167   5.221 -11.792  0.00  0.00     0.022 A 
ATOM     12  C   UNL d   1       6.754   5.260 -11.752  0.00  0.00     0.002 A 
ATOM     13  C   UNL d   1       5.987   4.494 -12.640  0.00  0.00     0.000 A 
ATOM     14  C   UNL d   1       6.628   3.674 -13.586  0.00  0.00     0.002 A 
ATOM     15  C   UNL d   1       8.036   3.604 -13.633  0.00  0.00     0.024 A 
BRANCH  11  16
ATOM     16  C   UNL d   1       8.941   6.043 -10.840  0.00  0.00     0.002 A 
ATOM     17  C   UNL d   1       9.155   5.609  -9.512  0.00  0.00     0.000 A 
ATOM     18  C   UNL d   1       9.887   6.399  -8.601  0.00  0.00     0.000 A 
ATOM     19  C   UNL d   1      10.416   7.638  -9.011  0.00  0.00     0.000 A 
ATOM     20  C   UNL d   1      10.200   8.089 -10.327  0.00  0.00     0.000 A 
ATOM     21  C   UNL d   1       9.467   7.301 -11.231  0.00  0.00     0.000 A 
ENDBRANCH  11  16
ENDBRANCH   9  10
ENDBRANCH   8   9
ENDBRANCH   7   8
ENDBRANCH   4   7
BRANCH   1  22
ATOM     22  N   UNL d   1      10.972   0.473 -19.561  0.00  0.00    -0.276 N 
BRANCH  22  23
ATOM     23  S   UNL d   1      11.868   0.514 -21.047  0.00  0.00     0.267 S 
ATOM     24  O   UNL d   1      11.539   1.758 -21.760  0.00  0.00    -0.200 OA
ATOM     25  O   UNL d   1      11.786  -0.799 -21.707  0.00  0.00    -0.200 OA
BRANCH  23  26
ATOM     26  C   UNL d   1      13.598   0.707 -20.560  0.00  0.00     0.143 A 
ATOM     27  C   UNL d   1      14.591  -0.212 -20.690  0.00  0.00     0.110 A 
ATOM     28  N   UNL d   1      15.707   0.402 -20.155  0.00  0.00    -0.247 N 
ATOM     29  C   UNL d   1      17.043  -0.126 -20.032  0.00  0.00     0.154 C 
ATOM     30  N   UNL d   1      15.458   1.659 -19.715  0.00  0.00    -0.167 NA
ATOM     31  C   UNL d   1      14.174   1.859 -19.970  0.00  0.00     0.135 A 
ENDBRANCH  23  26
ENDBRANCH  22  23
BRANCH  22  32
ATOM     32  C   UNL d   1      10.451  -0.805 -19.043  0.00  0.00     0.113 C 
BRANCH  32  33
ATOM     33  C   UNL d   1       9.164  -1.207 -19.746  0.00  0.00     0.023 A 
ATOM     34  C   UNL d   1       8.250  -2.226 -19.095  0.00  0.00     0.002 A 
ATOM     35  C   UNL d   1       7.812  -0.792 -19.193  0.00  0.00     0.002 A 
ENDBRANCH  32  33
ENDBRANCH  22  32
ENDBRANCH   1  22
TORSDOF 10
