REMARK  5 active torsions:
REMARK  status: ('A' for Active; 'I' for Inactive)
REMARK    1  A    between atoms: C_5  and  C_6 
REMARK    2  A    between atoms: C_6  and  N_7 
REMARK    3  A    between atoms: N_7  and  C_8 
REMARK    4  A    between atoms: C_8  and  C_9 
REMARK       I    between atoms: N_13  and  C_14 
REMARK    5  A    between atoms: C_14  and  C_16 
ROOT
ATOM      1  C   UNL d   1       9.166   5.646 -10.402  0.00  0.00     0.172 C 
ATOM      2  F   UNL d   1       7.863   5.962 -10.550  0.00  0.00    -0.238 F 
ATOM      3  C   UNL d   1      10.008   6.859 -10.849  0.00  0.00     0.059 C 
ATOM      4  C   UNL d   1       9.953   8.066  -9.915  0.00  0.00     0.107 C 
ATOM      5  N   UNL d   1      10.198   7.624  -8.534  0.00  0.00    -0.317 N 
ATOM      6  C   UNL d   1      11.148   8.311  -7.851  0.00  0.00     0.257 C 
ATOM      7  O   UNL d   1      11.837   9.188  -8.356  0.00  0.00    -0.267 OA
ATOM      8  C   UNL d   1       9.284   6.590  -8.022  0.00  0.00     0.107 C 
ATOM      9  C   UNL d   1       9.444   5.335  -8.916  0.00  0.00     0.059 C 
ENDROOT
BRANCH   1  10
ATOM     10  C   UNL d   1       9.336   4.404 -11.299  0.00  0.00     0.323 C 
BRANCH  10  11
ATOM     11  N   UNL d   1       9.646   4.778 -12.670  0.00  0.00     0.348 N 
BRANCH  11  12
ATOM     12  C   UNL d   1       9.792   3.579 -13.478  0.00  0.00     0.336 C 
BRANCH  12  13
ATOM     13  C   UNL d   1      10.627   3.861 -14.710  0.00  0.00     0.095 A 
ATOM     14  C   UNL d   1      10.078   3.682 -15.990  0.00  0.00     0.017 A 
ATOM     15  C   UNL d   1      10.880   3.956 -17.111  0.00  0.00    -0.002 A 
ATOM     16  C   UNL d   1      12.202   4.400 -16.908  0.00  0.00    -0.003 A 
ATOM     17  C   UNL d   1      13.101   4.698 -18.087  0.00  0.00     0.033 C 
ATOM     18  C   UNL d   1      12.657   4.561 -15.583  0.00  0.00     0.094 A 
ATOM     19  N   UNL d   1      11.890   4.302 -14.501  0.00  0.00    -0.247 NA
ENDBRANCH  12  13
ENDBRANCH  11  12
ENDBRANCH  10  11
ENDBRANCH   1  10
BRANCH   6  20
ATOM     20  C   UNL d   1      11.342   8.025  -6.396  0.00  0.00     0.057 A 
ATOM     21  C   UNL d   1      11.522   9.071  -5.458  0.00  0.00     0.018 A 
ATOM     22  C   UNL d   1      11.759   8.792  -4.090  0.00  0.00     0.085 A 
ATOM     23  C   UNL d   1      11.861   7.449  -3.670  0.00  0.00     0.151 A 
ATOM     24 CL   UNL d   1      11.859   9.963  -2.901  0.00  0.00    -0.080 Cl
ATOM     25  C   UNL d   1      11.724   6.431  -4.628  0.00  0.00     0.031 A 
ATOM     26  F   UNL d   1      12.004   7.136  -2.366  0.00  0.00    -0.203 F 
ATOM     27  C   UNL d   1      11.472   6.699  -5.966  0.00  0.00     0.007 A 
ENDBRANCH   6  20
TORSDOF 5
