REMARK  5 active torsions:
REMARK  status: ('A' for Active; 'I' for Inactive)
REMARK    1  A    between atoms: C_2  and  C_4 
REMARK       I    between atoms: N_12  and  C_13 
REMARK    2  A    between atoms: C_13  and  C_15 
REMARK    3  A    between atoms: C_15  and  N_16 
REMARK    4  A    between atoms: N_19  and  C_20 
REMARK    5  A    between atoms: C_20  and  C_21 
ROOT
ATOM      1  C   UNL d   1       9.032   6.777 -10.927  0.00  0.00     0.337 C 
ENDROOT
BRANCH   1   2
ATOM      2  C   UNL d   1      10.056   7.579 -10.082  0.00  0.00     0.272 C 
ATOM      3  N   UNL d   1      10.362   7.245  -8.802  0.00  0.00    -0.289 N 
ATOM      4  C   UNL d   1      10.194   5.902  -8.206  0.00  0.00     0.180 C 
ATOM      5  C   UNL d   1      10.864   8.126  -7.819  0.00  0.00     0.059 A 
ATOM      6  C   UNL d   1      10.897   6.032  -6.809  0.00  0.00     0.062 C 
ATOM      7  C   UNL d   1      11.149   7.484  -6.631  0.00  0.00    -0.004 A 
ATOM      8  C   UNL d   1      11.569   8.160  -5.475  0.00  0.00    -0.003 A 
ATOM      9  C   UNL d   1      11.760   9.559  -5.551  0.00  0.00    -0.000 A 
ATOM     10  C   UNL d   1      11.461  10.216  -6.753  0.00  0.00     0.002 A 
ATOM     11  C   UNL d   1      11.027   9.517  -7.891  0.00  0.00     0.017 A 
ATOM     12  O   UNL d   1      10.583   8.551 -10.638  0.00  0.00    -0.270 OA
BRANCH   4  13
ATOM     13  C   UNL d   1       8.718   5.529  -8.050  0.00  0.00     0.207 C 
ATOM     14  O   UNL d   1       8.257   4.520  -8.583  0.00  0.00    -0.646 OA
ATOM     15  O   UNL d   1       8.010   6.245  -7.139  0.00  0.00    -0.646 OA
ENDBRANCH   4  13
ENDBRANCH   1   2
BRANCH   1  16
ATOM     16  N   UNL d   1       9.673   5.783 -11.798  0.00  0.00     0.151 N 
ATOM     17  C   UNL d   1       8.999   4.488 -11.770  0.00  0.00     0.286 C 
ATOM     18  C   UNL d   1       9.629   3.490 -12.748  0.00  0.00     0.286 C 
ATOM     19  N   UNL d   1       9.648   3.958 -14.116  0.00  0.00     0.146 N 
ATOM     20  C   UNL d   1      10.349   5.229 -14.119  0.00  0.00     0.286 C 
ATOM     21  C   UNL d   1       9.688   6.246 -13.177  0.00  0.00     0.286 C 
BRANCH  19  22
ATOM     22  C   UNL d   1      10.279   2.973 -14.988  0.00  0.00     0.277 C 
BRANCH  22  23
ATOM     23  C   UNL d   1       9.944   3.196 -16.451  0.00  0.00     0.011 A 
ATOM     24  C   UNL d   1       8.983   2.379 -17.083  0.00  0.00    -0.002 A 
ATOM     25  C   UNL d   1       8.673   2.583 -18.442  0.00  0.00     0.011 A 
ATOM     26  C   UNL d   1       9.294   3.623 -19.162  0.00  0.00     0.058 A 
ATOM     27  C   UNL d   1      10.239   4.448 -18.527  0.00  0.00     0.011 A 
ATOM     28 CL   UNL d   1       8.909   3.884 -20.823  0.00  0.00    -0.082 Cl
ATOM     29  C   UNL d   1      10.580   4.220 -17.185  0.00  0.00    -0.002 A 
ENDBRANCH  22  23
ENDBRANCH  19  22
ENDBRANCH   1  16
TORSDOF 5
