REMARK  2 active torsions:
REMARK  status: ('A' for Active; 'I' for Inactive)
REMARK    1  A    between atoms: O_2  and  C_3 
REMARK    2  A    between atoms: C_15  and  O_16 
ROOT
ATOM      1  C   UNL d   1      12.314   7.978  -3.151  0.00  0.00     0.119 A 
ATOM      2  C   UNL d   1      12.540   8.977  -4.101  0.00  0.00     0.022 A 
ATOM      3  C   UNL d   1      11.892   8.871  -5.356  0.00  0.00    -0.020 A 
ATOM      4  C   UNL d   1      11.080   7.764  -5.708  0.00  0.00     0.007 A 
ATOM      5  C   UNL d   1      10.889   6.789  -4.736  0.00  0.00     0.027 A 
ATOM      6  C   UNL d   1      11.472   6.941  -3.473  0.00  0.00     0.153 A 
ATOM      7  O   UNL d   1      11.178   6.171  -2.411  0.00  0.00    -0.188 OA
ATOM      8  C   UNL d   1      10.357   7.692  -7.050  0.00  0.00     0.246 C 
ATOM      9  C   UNL d   1      10.415   6.276  -7.651  0.00  0.00     0.064 C 
ATOM     10  C   UNL d   1       9.889   6.191  -9.070  0.00  0.00    -0.020 A 
ATOM     11  C   UNL d   1       9.537   4.942  -9.608  0.00  0.00    -0.002 A 
ATOM     12  C   UNL d   1       9.102   4.850 -10.941  0.00  0.00     0.026 A 
ATOM     13  C   UNL d   1       8.987   6.005 -11.745  0.00  0.00     0.119 A 
ATOM     14  C   UNL d   1       9.328   7.258 -11.200  0.00  0.00     0.151 A 
ATOM     15  O   UNL d   1       9.100   8.383 -11.942  0.00  0.00    -0.188 OA
ATOM     16  C   UNL d   1       9.797   7.353  -9.865  0.00  0.00     0.034 A 
ATOM     17  C   UNL d   1      10.106   8.690  -9.228  0.00  0.00     0.279 C 
ATOM     18  N   UNL d   1      10.958   8.575  -8.044  0.00  0.00     0.144 N 
ATOM     19  C   UNL d   1      11.110   9.898  -7.472  0.00  0.00     0.256 C 
ATOM     20  C   UNL d   1      12.185   9.889  -6.419  0.00  0.00     0.061 C 
ENDROOT
BRANCH   1  21
ATOM     21  O   UNL d   1      12.665   7.959  -1.833  0.00  0.00    -0.326 OA
ATOM     22  C   UNL d   1      13.331   9.087  -1.357  0.00  0.00     0.181 C 
ENDBRANCH   1  21
BRANCH  13  23
ATOM     23  O   UNL d   1       8.522   5.983 -13.041  0.00  0.00    -0.326 OA
ATOM     24  C   UNL d   1       8.203   4.725 -13.614  0.00  0.00     0.181 C 
ENDBRANCH  13  23
TORSDOF 2
