REMARK  8 active torsions:
REMARK  status: ('A' for Active; 'I' for Inactive)
REMARK    1  A    between atoms: N_3  and  C_4 
REMARK    2  A    between atoms: C_4  and  C_5 
REMARK    3  A    between atoms: C_5  and  C_6 
REMARK    4  A    between atoms: C_6  and  C_7 
REMARK    5  A    between atoms: C_7  and  C_8 
REMARK    6  A    between atoms: C_8  and  C_9 
REMARK    7  A    between atoms: C_9  and  N_10 
REMARK    8  A    between atoms: N_13  and  C_14 
ROOT
ATOM      1  N   UNL d   1       7.915   3.674 -13.242  0.00  0.00     0.141 N 
ATOM      2  C   UNL d   1       8.885   3.559 -14.343  0.00  0.00     0.274 C 
ATOM      3  C   UNL d   1       8.915   2.117 -14.878  0.00  0.00     0.137 C 
ATOM      4  N   UNL d   1       7.575   1.696 -15.275  0.00  0.00    -0.343 N 
ATOM      5  C   UNL d   1       6.556   1.867 -14.243  0.00  0.00     0.137 C 
ATOM      6  C   UNL d   1       6.570   3.307 -13.708  0.00  0.00     0.274 C 
ENDROOT
BRANCH   1   7
ATOM      7  C   UNL d   1       7.876   5.020 -12.689  0.00  0.00     0.250 C 
BRANCH   7   8
ATOM      8  C   UNL d   1       9.107   5.287 -11.808  0.00  0.00     0.035 C 
BRANCH   8   9
ATOM      9  C   UNL d   1       8.873   6.463 -10.857  0.00  0.00     0.002 C 
BRANCH   9  10
ATOM     10  C   UNL d   1      10.045   6.735  -9.900  0.00  0.00     0.002 C 
BRANCH  10  11
ATOM     11  C   UNL d   1       9.777   7.915  -8.951  0.00  0.00     0.027 C 
BRANCH  11  12
ATOM     12  C   UNL d   1      11.068   8.609  -8.449  0.00  0.00     0.132 C 
BRANCH  12  13
ATOM     13  N   UNL d   1      11.246   8.497  -7.003  0.00  0.00    -0.201 N 
ATOM     14  C   UNL d   1      11.421   9.496  -6.123  0.00  0.00     0.352 A 
ATOM     15  O   UNL d   1      11.457  10.705  -6.340  0.00  0.00    -0.244 OA
ATOM     16  N   UNL d   1      11.550   8.876  -4.956  0.00  0.00    -0.241 N 
ATOM     17  C   UNL d   1      11.452   7.516  -5.188  0.00  0.00     0.171 A 
ATOM     18  C   UNL d   1      11.766   9.438  -3.690  0.00  0.00     0.086 A 
ATOM     19  N   UNL d   1      11.276   7.260  -6.438  0.00  0.00    -0.147 NA
ATOM     20  C   UNL d   1      11.613   6.669  -4.025  0.00  0.00     0.039 A 
ATOM     21  C   UNL d   1      11.847   7.203  -2.802  0.00  0.00     0.005 A 
ATOM     22  C   UNL d   1      11.923   8.643  -2.618  0.00  0.00     0.019 A 
ENDBRANCH  12  13
ENDBRANCH  11  12
ENDBRANCH  10  11
ENDBRANCH   9  10
ENDBRANCH   8   9
ENDBRANCH   7   8
ENDBRANCH   1   7
BRANCH   4  23
ATOM     23  C   UNL d   1       7.281   1.162 -16.546  0.00  0.00     0.081 A 
ATOM     24  C   UNL d   1       6.346   0.111 -16.713  0.00  0.00     0.132 A 
ATOM     25  C   UNL d   1       6.051  -0.379 -18.017  0.00  0.00     0.118 A 
ATOM     26  O   UNL d   1       5.738  -0.444 -15.609  0.00  0.00    -0.325 OA
ATOM     27  C   UNL d   1       6.721   0.145 -19.133  0.00  0.00     0.026 A 
ATOM     28  O   UNL d   1       5.121  -1.370 -18.219  0.00  0.00    -0.326 OA
ATOM     29  C   UNL d   1       7.668   1.168 -18.972  0.00  0.00     0.004 A 
ATOM     30  C   UNL d   1       7.939   1.680 -17.688  0.00  0.00     0.019 A 
ATOM     31  C   UNL d   1       4.262  -1.617 -17.108  0.00  0.00     0.181 C 
ATOM     32  C   UNL d   1       5.093  -1.694 -15.822  0.00  0.00     0.182 C 
ENDBRANCH   4  23
TORSDOF 8
