REMARK  5 active torsions:
REMARK  status: ('A' for Active; 'I' for Inactive)
REMARK    1  A    between atoms: C_6  and  C_7 
REMARK    2  A    between atoms: C_10  and  C_11 
REMARK    3  A    between atoms: C_11  and  C_12 
REMARK    4  A    between atoms: C_12  and  N_13 
REMARK    5  A    between atoms: N_16  and  C_17 
ROOT
ATOM      1  N   UNL d   1       9.371   4.131 -13.880  0.00  0.00     0.141 N 
ATOM      2  C   UNL d   1      10.518   4.252 -14.787  0.00  0.00     0.274 C 
ATOM      3  C   UNL d   1      10.110   3.904 -16.232  0.00  0.00     0.137 C 
ATOM      4  N   UNL d   1       9.511   2.580 -16.274  0.00  0.00    -0.343 N 
ATOM      5  C   UNL d   1       8.441   2.337 -15.318  0.00  0.00     0.137 C 
ATOM      6  C   UNL d   1       8.887   2.749 -13.912  0.00  0.00     0.274 C 
ENDROOT
BRANCH   1   7
ATOM      7  C   UNL d   1       9.758   4.486 -12.512  0.00  0.00     0.255 C 
BRANCH   7   8
ATOM      8  C   UNL d   1       8.665   5.321 -11.825  0.00  0.00     0.062 C 
BRANCH   8   9
ATOM      9  C   UNL d   1       9.181   5.980 -10.558  0.00  0.00    -0.020 A 
ATOM     10  C   UNL d   1       9.852   7.217 -10.639  0.00  0.00    -0.004 A 
ATOM     11  C   UNL d   1      10.350   7.841  -9.478  0.00  0.00     0.001 A 
ATOM     12  C   UNL d   1      10.165   7.266  -8.198  0.00  0.00     0.018 A 
ATOM     13  C   UNL d   1       9.464   6.040  -8.136  0.00  0.00     0.001 A 
ATOM     14  C   UNL d   1       8.985   5.393  -9.295  0.00  0.00    -0.004 A 
BRANCH  12  15
ATOM     15  C   UNL d   1      10.684   7.931  -6.971  0.00  0.00     0.083 A 
ATOM     16  C   UNL d   1      10.871   9.328  -6.885  0.00  0.00     0.019 A 
ATOM     17  C   UNL d   1      11.371   9.899  -5.700  0.00  0.00     0.004 A 
ATOM     18  C   UNL d   1      11.674   9.054  -4.619  0.00  0.00     0.034 A 
ATOM     19  C   UNL d   1      11.460   7.672  -4.791  0.00  0.00     0.151 A 
ATOM     20  N   UNL d   1      11.788   6.787  -3.770  0.00  0.00    -0.080 NA
ATOM     21  N   UNL d   1      10.989   7.123  -5.928  0.00  0.00    -0.232 NA
ENDBRANCH  12  15
ENDBRANCH   8   9
ENDBRANCH   7   8
ENDBRANCH   1   7
BRANCH   4  22
ATOM     22  C   UNL d   1       9.926   1.592 -17.191  0.00  0.00     0.074 A 
ATOM     23  C   UNL d   1       8.989   0.840 -17.961  0.00  0.00     0.097 A 
ATOM     24  C   UNL d   1       9.486  -0.186 -18.817  0.00  0.00     0.019 A 
ATOM     25  N   UNL d   1       7.654   1.100 -17.895  0.00  0.00    -0.243 NA
ATOM     26  C   UNL d   1      10.867  -0.437 -18.923  0.00  0.00     0.002 A 
ATOM     27  C   UNL d   1       8.574  -0.957 -19.571  0.00  0.00     0.003 A 
ATOM     28  C   UNL d   1      11.782   0.328 -18.183  0.00  0.00     0.002 A 
ATOM     29  C   UNL d   1      11.310   1.337 -17.319  0.00  0.00     0.018 A 
ATOM     30  C   UNL d   1       7.196  -0.694 -19.452  0.00  0.00     0.021 A 
ATOM     31  C   UNL d   1       6.793   0.341 -18.595  0.00  0.00     0.099 A 
ENDBRANCH   4  22
TORSDOF 5
