REMARK  6 active torsions:
REMARK  status: ('A' for Active; 'I' for Inactive)
REMARK    1  A    between atoms: O_2  and  C_3 
REMARK    2  A    between atoms: C_7  and  C_8 
REMARK    3  A    between atoms: N_12  and  C_13 
REMARK    4  A    between atoms: C_13  and  C_14 
REMARK    5  A    between atoms: C_14  and  N_15 
REMARK    6  A    between atoms: N_18  and  C_19 
ROOT
ATOM      1  C   UNL d   1       9.643   4.692 -15.955  0.00  0.00     0.274 C 
ENDROOT
BRANCH   1   2
ATOM      2  N   UNL d   1       9.764   4.337 -17.361  0.00  0.00     0.139 N 
ATOM      3  C   UNL d   1      10.111   5.539 -18.123  0.00  0.00     0.250 C 
ATOM      4  C   UNL d   1      10.086   5.225 -19.628  0.00  0.00     0.036 C 
ATOM      5  C   UNL d   1      11.082   4.111 -19.957  0.00  0.00     0.008 C 
ATOM      6  C   UNL d   1      10.851   2.892 -19.040  0.00  0.00     0.056 C 
ATOM      7  C   UNL d   1      10.797   3.314 -17.560  0.00  0.00     0.255 C 
BRANCH   6   8
ATOM      8  C   UNL d   1      11.899   1.801 -19.248  0.00  0.00    -0.019 A 
ATOM      9  C   UNL d   1      11.519   0.444 -19.313  0.00  0.00    -0.004 A 
ATOM     10  C   UNL d   1      12.496  -0.557 -19.504  0.00  0.00     0.002 A 
ATOM     11  C   UNL d   1      13.852  -0.213 -19.648  0.00  0.00     0.024 A 
ATOM     12  C   UNL d   1      14.245   1.150 -19.577  0.00  0.00     0.094 A 
ATOM     13  C   UNL d   1      13.268   2.136 -19.354  0.00  0.00     0.020 A 
BRANCH  12  14
ATOM     14  O   UNL d   1      15.541   1.597 -19.693  0.00  0.00    -0.328 OA
ATOM     15  C   UNL d   1      16.552   0.647 -19.977  0.00  0.00     0.181 C 
ENDBRANCH  12  14
ENDBRANCH   6   8
ENDBRANCH   1   2
BRANCH   1  16
ATOM     16  C   UNL d   1       9.042   3.548 -15.110  0.00  0.00     0.141 C 
BRANCH  16  17
ATOM     17  N   UNL d   1       8.555   4.036 -13.826  0.00  0.00    -0.298 N 
ATOM     18  C   UNL d   1       9.317   4.659 -12.921  0.00  0.00     0.328 A 
ATOM     19  N   UNL d   1       8.555   4.976 -11.856  0.00  0.00    -0.280 N 
ATOM     20  O   UNL d   1      10.518   4.900 -13.063  0.00  0.00    -0.247 OA
ATOM     21  C   UNL d   1       7.185   4.490 -12.003  0.00  0.00     0.135 A 
ATOM     22  C   UNL d   1       7.184   3.844 -13.389  0.00  0.00     0.131 A 
BRANCH  19  23
ATOM     23  C   UNL d   1       9.021   5.643 -10.692  0.00  0.00     0.065 A 
ATOM     24  C   UNL d   1       9.855   6.780 -10.794  0.00  0.00     0.029 A 
ATOM     25  C   UNL d   1      10.311   7.442  -9.637  0.00  0.00     0.059 A 
ATOM     26  C   UNL d   1       9.921   6.999  -8.364  0.00  0.00     0.011 A 
ATOM     27 CL   UNL d   1      11.360   8.801  -9.781  0.00  0.00    -0.082 Cl
ATOM     28  C   UNL d   1       9.067   5.892  -8.251  0.00  0.00     0.002 A 
ATOM     29  C   UNL d   1       8.632   5.203  -9.406  0.00  0.00     0.017 A 
ENDBRANCH  19  23
ENDBRANCH  16  17
ENDBRANCH   1  16
TORSDOF 6
