REMARK  7 active torsions:
REMARK  status: ('A' for Active; 'I' for Inactive)
REMARK    1  A    between atoms: N_12  and  C_13 
REMARK    2  A    between atoms: C_13  and  C_14 
REMARK    3  A    between atoms: C_14  and  C_15 
REMARK    4  A    between atoms: C_15  and  C_16 
REMARK    5  A    between atoms: C_16  and  C_17 
REMARK    6  A    between atoms: C_17  and  N_18 
REMARK    7  A    between atoms: N_21  and  C_22 
ROOT
ATOM      1  C   UNL d   1       8.624   4.824 -11.468  0.00  0.00     0.004 C 
ENDROOT
BRANCH   1   2
ATOM      2  C   UNL d   1       9.479   4.704 -12.725  0.00  0.00     0.025 C 
BRANCH   2   3
ATOM      3  C   UNL d   1       9.296   3.411 -13.536  0.00  0.00     0.122 C 
BRANCH   3   4
ATOM      4  N   UNL d   1      10.300   3.205 -14.604  0.00  0.00    -0.221 N 
ATOM      5  C   UNL d   1      11.276   4.135 -15.010  0.00  0.00     0.271 A 
ATOM      6  O   UNL d   1      11.580   5.187 -14.451  0.00  0.00    -0.266 OA
ATOM      7  C   UNL d   1      11.905   3.662 -16.270  0.00  0.00     0.069 A 
ATOM      8  C   UNL d   1      11.430   2.441 -16.740  0.00  0.00     0.108 A 
ATOM      9  C   UNL d   1      12.907   4.362 -16.958  0.00  0.00     0.005 A 
ATOM     10  C   UNL d   1      11.916   1.852 -17.919  0.00  0.00     0.013 A 
ATOM     11  S   UNL d   1      10.175   1.830 -15.650  0.00  0.00     0.270 S 
ATOM     12  C   UNL d   1      12.926   2.562 -18.617  0.00  0.00     0.001 A 
ATOM     13  C   UNL d   1      13.422   3.804 -18.144  0.00  0.00     0.000 A 
ATOM     14  O   UNL d   1       8.860   1.875 -16.310  0.00  0.00    -0.200 OA
ATOM     15  O   UNL d   1      10.646   0.639 -14.928  0.00  0.00    -0.200 OA
ENDBRANCH   3   4
ENDBRANCH   2   3
ENDBRANCH   1   2
BRANCH   1  16
ATOM     16  C   UNL d   1       8.740   6.213 -10.822  0.00  0.00     0.035 C 
BRANCH  16  17
ATOM     17  C   UNL d   1      10.094   6.472 -10.111  0.00  0.00     0.250 C 
BRANCH  17  18
ATOM     18  N   UNL d   1       9.958   7.399  -8.991  0.00  0.00     0.141 N 
ATOM     19  C   UNL d   1       9.440   6.668  -7.824  0.00  0.00     0.274 C 
ATOM     20  C   UNL d   1       9.263   7.617  -6.629  0.00  0.00     0.138 C 
ATOM     21  N   UNL d   1      10.505   8.322  -6.359  0.00  0.00    -0.330 N 
ATOM     22  C   UNL d   1      11.129   8.979  -7.489  0.00  0.00     0.138 C 
ATOM     23  C   UNL d   1      11.263   7.985  -8.658  0.00  0.00     0.274 C 
BRANCH  21  24
ATOM     24  C   UNL d   1      11.110   8.331  -5.098  0.00  0.00     0.140 A 
ATOM     25  N   UNL d   1      11.317   9.538  -4.529  0.00  0.00    -0.227 NA
ATOM     26  C   UNL d   1      11.861   9.575  -3.291  0.00  0.00     0.101 A 
ATOM     27  C   UNL d   1      12.260   8.427  -2.587  0.00  0.00     0.021 A 
ATOM     28  C   UNL d   1      12.053   7.173  -3.184  0.00  0.00     0.005 A 
ATOM     29  C   UNL d   1      11.456   7.122  -4.460  0.00  0.00     0.037 A 
ENDBRANCH  21  24
ENDBRANCH  17  18
ENDBRANCH  16  17
ENDBRANCH   1  16
TORSDOF 7
