REMARK  12 active torsions:
REMARK  status: ('A' for Active; 'I' for Inactive)
REMARK    1  A    between atoms: C_9  and  C_10 
REMARK    2  A    between atoms: C_10  and  C_12 
REMARK    3  A    between atoms: C_12  and  N_13 
REMARK    4  A    between atoms: N_13  and  C_14 
REMARK    5  A    between atoms: C_14  and  C_15 
REMARK    6  A    between atoms: C_15  and  C_16 
REMARK    7  A    between atoms: C_20  and  C_21 
REMARK    8  A    between atoms: C_21  and  N_22 
REMARK    9  A    between atoms: N_22  and  C_23 
REMARK   10  A    between atoms: C_23  and  C_24 
REMARK   11  A    between atoms: C_24  and  C_25 
REMARK   12  A    between atoms: C_25  and  C_26 
ROOT
ATOM      1  C   UNL d   1       9.143   4.966 -13.031  0.00  0.00    -0.020 A 
ATOM      2  C   UNL d   1      10.051   5.420 -13.999  0.00  0.00    -0.004 A 
ATOM      3  C   UNL d   1      10.285   4.703 -15.181  0.00  0.00    -0.001 A 
ATOM      4  C   UNL d   1       9.650   3.466 -15.373  0.00  0.00    -0.002 A 
ATOM      5  C   UNL d   1       8.761   2.972 -14.396  0.00  0.00     0.013 A 
ATOM      6  C   UNL d   1       8.499   3.737 -13.237  0.00  0.00    -0.006 A 
ENDROOT
BRANCH   1   7
ATOM      7  C   UNL d   1       8.859   5.781 -11.778  0.00  0.00     0.065 C 
BRANCH   7   8
ATOM      8  C   UNL d   1       9.479   5.139 -10.530  0.00  0.00     0.295 C 
BRANCH   8   9
ATOM      9  N   UNL d   1       9.220   5.903  -9.350  0.00  0.00     0.343 N 
BRANCH   9  10
ATOM     10  C   UNL d   1       9.682   5.290  -8.115  0.00  0.00     0.327 C 
BRANCH  10  11
ATOM     11  C   UNL d   1       9.279   6.174  -6.931  0.00  0.00     0.211 C 
ATOM     12  O   UNL d   1       7.882   6.219  -6.835  0.00  0.00    -0.216 OA
BRANCH  11  13
ATOM     13  C   UNL d   1       9.942   7.495  -6.850  0.00  0.00     0.018 C 
ATOM     14  C   UNL d   1       9.834   8.356  -7.940  0.00  0.00     0.001 C 
ATOM     15  C   UNL d   1      10.608   9.508  -7.963  0.00  0.00     0.029 C 
ATOM     16  C   UNL d   1      11.265   9.998  -6.792  0.00  0.00     0.149 C 
ATOM     17  C   UNL d   1      11.330   9.150  -5.689  0.00  0.00     0.116 C 
ATOM     18  O   UNL d   1      11.868  11.229  -6.753  0.00  0.00    -0.189 OA
ATOM     19  N   UNL d   1      12.026   9.401  -4.506  0.00  0.00    -0.200 NA
ATOM     20  C   UNL d   1      10.736   7.909  -5.755  0.00  0.00     0.052 C 
ATOM     21  C   UNL d   1      12.031   8.360  -3.604  0.00  0.00     0.311 C 
ATOM     22  O   UNL d   1      12.520   8.351  -2.483  0.00  0.00    -0.258 OA
ATOM     23  S   UNL d   1      11.209   6.948  -4.361  0.00  0.00    -0.024 SA
ENDBRANCH  11  13
ENDBRANCH  10  11
ENDBRANCH   9  10
ENDBRANCH   8   9
ENDBRANCH   7   8
ENDBRANCH   1   7
BRANCH   5  24
ATOM     24  C   UNL d   1       8.111   1.614 -14.568  0.00  0.00     0.317 C 
BRANCH  24  25
ATOM     25  N   UNL d   1       6.661   1.666 -14.493  0.00  0.00     0.344 N 
BRANCH  25  26
ATOM     26  C   UNL d   1       6.120   0.318 -14.580  0.00  0.00     0.291 C 
BRANCH  26  27
ATOM     27  C   UNL d   1       4.600   0.349 -14.617  0.00  0.00     0.044 C 
BRANCH  27  28
ATOM     28  C   UNL d   1       3.916  -0.989 -14.770  0.00  0.00     0.048 C 
BRANCH  28  29
ATOM     29  C   UNL d   1       4.282  -1.684 -16.074  0.00  0.00     0.059 A 
ATOM     30  N   UNL d   1       3.713  -1.211 -17.201  0.00  0.00    -0.248 NA
ATOM     31  C   UNL d   1       4.031  -1.787 -18.375  0.00  0.00     0.099 A 
ATOM     32  C   UNL d   1       4.918  -2.873 -18.482  0.00  0.00     0.021 A 
ATOM     33  C   UNL d   1       5.494  -3.376 -17.302  0.00  0.00     0.003 A 
ATOM     34  C   UNL d   1       5.179  -2.763 -16.078  0.00  0.00     0.015 A 
ENDBRANCH  28  29
ENDBRANCH  27  28
ENDBRANCH  26  27
ENDBRANCH  25  26
ENDBRANCH  24  25
ENDBRANCH   5  24
TORSDOF 12
