REMARK  7 active torsions:
REMARK  status: ('A' for Active; 'I' for Inactive)
REMARK    1  A    between atoms: O_2  and  C_3 
REMARK    2  A    between atoms: C_8  and  O_9 
REMARK    3  A    between atoms: C_14  and  C_15 
REMARK    4  A    between atoms: C_15  and  N_16 
REMARK    5  A    between atoms: N_19  and  C_20 
REMARK    6  A    between atoms: C_20  and  C_21 
REMARK    7  A    between atoms: C_22  and  C_23 
ROOT
ATOM      1  C   UNL d   1       9.531  -0.582 -18.149  0.00  0.00     0.118 A 
ATOM      2  C   UNL d   1       8.485  -0.192 -17.278  0.00  0.00     0.050 A 
ATOM      3  C   UNL d   1       8.664   0.850 -16.351  0.00  0.00     0.097 A 
ATOM      4  C   UNL d   1       9.898   1.543 -16.310  0.00  0.00     0.040 A 
ATOM      5  C   UNL d   1      10.941   1.165 -17.180  0.00  0.00     0.029 A 
ATOM      6  C   UNL d   1      10.767   0.102 -18.101  0.00  0.00     0.116 A 
ATOM      7  C   UNL d   1      10.046   2.664 -15.363  0.00  0.00     0.092 C 
ATOM      8  N   UNL d   1      11.079   3.318 -15.049  0.00  0.00    -0.136 NA
ATOM      9  O   UNL d   1      10.717   4.226 -14.020  0.00  0.00    -0.237 OA
ATOM     10  C   UNL d   1       9.500   3.762 -13.423  0.00  0.00     0.188 C 
ATOM     11  C   UNL d   1       8.842   3.070 -14.608  0.00  0.00     0.105 C 
ATOM     12  C   UNL d   1       7.946   1.860 -14.319  0.00  0.00     0.157 C 
ATOM     13  O   UNL d   1       7.609   1.171 -15.521  0.00  0.00    -0.330 OA
ENDROOT
BRANCH  10  14
ATOM     14  C   UNL d   1       8.674   4.939 -12.866  0.00  0.00     0.283 C 
BRANCH  14  15
ATOM     15  N   UNL d   1       9.455   5.887 -12.071  0.00  0.00     0.144 N 
ATOM     16  C   UNL d   1       9.638   5.425 -10.697  0.00  0.00     0.286 C 
ATOM     17  C   UNL d   1      10.479   6.411  -9.866  0.00  0.00     0.286 C 
ATOM     18  N   UNL d   1       9.868   7.744  -9.807  0.00  0.00     0.146 N 
ATOM     19  C   UNL d   1       9.641   8.210 -11.175  0.00  0.00     0.286 C 
ATOM     20  C   UNL d   1       8.822   7.206 -12.021  0.00  0.00     0.286 C 
BRANCH  18  21
ATOM     21  C   UNL d   1      10.652   8.736  -9.055  0.00  0.00     0.277 C 
BRANCH  21  22
ATOM     22  C   UNL d   1      11.014   8.300  -7.648  0.00  0.00     0.009 C 
ATOM     23  C   UNL d   1      11.007   9.086  -6.554  0.00  0.00    -0.003 C 
BRANCH  23  24
ATOM     24  C   UNL d   1      11.325   8.593  -5.196  0.00  0.00    -0.000 A 
ATOM     25  C   UNL d   1      11.457   7.215  -4.895  0.00  0.00    -0.000 A 
ATOM     26  C   UNL d   1      11.812   6.792  -3.596  0.00  0.00    -0.000 A 
ATOM     27  C   UNL d   1      12.006   7.732  -2.577  0.00  0.00    -0.000 A 
ATOM     28  C   UNL d   1      11.862   9.103  -2.854  0.00  0.00    -0.000 A 
ATOM     29  C   UNL d   1      11.524   9.532  -4.159  0.00  0.00    -0.000 A 
ENDBRANCH  23  24
ENDBRANCH  21  22
ENDBRANCH  18  21
ENDBRANCH  14  15
ENDBRANCH  10  14
BRANCH   6  30
ATOM     30  O   UNL d   1      11.752  -0.321 -18.970  0.00  0.00    -0.326 OA
ATOM     31  C   UNL d   1      12.902   0.496 -19.137  0.00  0.00     0.181 C 
ENDBRANCH   6  30
BRANCH   1  32
ATOM     32  O   UNL d   1       9.416  -1.608 -19.063  0.00  0.00    -0.326 OA
ATOM     33  C   UNL d   1       8.166  -2.273 -19.181  0.00  0.00     0.181 C 
ENDBRANCH   1  32
TORSDOF 7
