REMARK  0 active torsions:
REMARK  status: ('A' for Active; 'I' for Inactive)
ROOT
ATOM      1  C   UNL d   1       7.224   3.279 -13.803  0.00  0.00     0.009 C 
ATOM      2  C   UNL d   1       7.757   2.007 -14.475  0.00  0.00     0.044 A 
ATOM      3  C   UNL d   1       8.383   2.289 -15.841  0.00  0.00    -0.019 A 
ATOM      4  C   UNL d   1       9.460   3.079 -16.290  0.00  0.00    -0.004 A 
ATOM      5  C   UNL d   1       9.805   3.037 -17.666  0.00  0.00    -0.001 A 
ATOM      6  C   UNL d   1       9.102   2.206 -18.580  0.00  0.00    -0.004 A 
ATOM      7  C   UNL d   1       8.019   1.417 -18.131  0.00  0.00    -0.020 A 
ATOM      8  C   UNL d   1       7.702   1.520 -16.777  0.00  0.00    -0.008 A 
ATOM      9  C   UNL d   1       6.644   0.788 -16.137  0.00  0.00    -0.007 A 
ATOM     10  C   UNL d   1       6.651   0.994 -14.764  0.00  0.00    -0.019 A 
ATOM     11  C   UNL d   1       5.701   0.298 -13.977  0.00  0.00    -0.004 A 
ATOM     12  C   UNL d   1       4.769  -0.580 -14.608  0.00  0.00    -0.005 A 
ATOM     13  C   UNL d   1       4.753  -0.747 -16.019  0.00  0.00    -0.022 A 
ATOM     14  C   UNL d   1       5.710  -0.030 -16.758  0.00  0.00     0.005 A 
ATOM     15  C   UNL d   1       5.765   0.091 -18.288  0.00  0.00     0.246 C 
ATOM     16  C   UNL d   1       7.195   0.362 -18.868  0.00  0.00     0.064 C 
ATOM     17  N   UNL d   1       5.100  -1.049 -18.934  0.00  0.00     0.142 N 
ATOM     18  C   UNL d   1       4.942  -0.854 -20.371  0.00  0.00     0.286 C 
ATOM     19  C   UNL d   1       3.763  -1.204 -18.352  0.00  0.00     0.255 C 
ATOM     20  C   UNL d   1       3.864  -1.635 -16.874  0.00  0.00     0.061 C 
ENDROOT
TORSDOF 0
