REMARK  10 active torsions:
REMARK  status: ('A' for Active; 'I' for Inactive)
REMARK    1  A    between atoms: C_2  and  C_3 
REMARK    2  A    between atoms: C_3  and  N_4 
REMARK    3  A    between atoms: N_4  and  C_5 
REMARK    4  A    between atoms: N_4  and  C_24 
REMARK    5  A    between atoms: C_5  and  C_6 
REMARK    6  A    between atoms: C_6  and  C_7 
REMARK    7  A    between atoms: C_7  and  C_8 
REMARK    8  A    between atoms: C_8  and  N_9 
REMARK       I    between atoms: N_9  and  C_10 
REMARK    9  A    between atoms: C_10  and  C_12 
REMARK   10  A    between atoms: C_15  and  C_16 
ROOT
ATOM      1  C   UNL d   1       7.033   4.296 -13.895  0.00  0.00     0.037 C 
ENDROOT
BRANCH   1   2
ATOM      2  C   UNL d   1       7.556   3.023 -14.581  0.00  0.00     0.250 C 
BRANCH   2   3
ATOM      3  N   UNL d   1       8.981   2.956 -14.911  0.00  0.00     0.135 N 
BRANCH   3   4
ATOM      4  C   UNL d   1       9.338   1.651 -15.458  0.00  0.00     0.250 C 
BRANCH   4   5
ATOM      5  C   UNL d   1       8.826   0.411 -14.684  0.00  0.00     0.035 C 
ATOM      6  C   UNL d   1       7.333   0.034 -14.983  0.00  0.00     0.002 C 
ENDBRANCH   4   5
ENDBRANCH   3   4
BRANCH   3   7
ATOM      7  C   UNL d   1       9.434   4.111 -15.741  0.00  0.00     0.224 C 
ATOM      8  C   UNL d   1      10.876   4.473 -15.342  0.00  0.00     0.059 C 
ATOM      9  C   UNL d   1      11.456   5.517 -16.274  0.00  0.00    -0.022 A 
ATOM     10  C   UNL d   1      10.893   5.786 -17.550  0.00  0.00    -0.001 A 
ATOM     11  C   UNL d   1      12.591   6.224 -15.831  0.00  0.00    -0.004 A 
ATOM     12  C   UNL d   1       9.622   5.095 -18.030  0.00  0.00     0.030 C 
ATOM     13  C   UNL d   1      11.514   6.731 -18.384  0.00  0.00     0.127 A 
ATOM     14  C   UNL d   1       9.298   3.824 -17.249  0.00  0.00     0.038 C 
ATOM     15  O   UNL d   1      10.994   7.000 -19.616  0.00  0.00    -0.191 OA
ATOM     16  C   UNL d   1      12.666   7.408 -17.948  0.00  0.00     0.027 A 
ATOM     17  C   UNL d   1      13.201   7.164 -16.673  0.00  0.00     0.002 A 
ENDBRANCH   3   7
ENDBRANCH   2   3
ENDBRANCH   1   2
BRANCH   1  18
ATOM     18  C   UNL d   1       7.367   4.264 -12.384  0.00  0.00     0.029 C 
BRANCH  18  19
ATOM     19  C   UNL d   1       8.893   4.320 -12.134  0.00  0.00     0.129 C 
BRANCH  19  20
ATOM     20  N   UNL d   1       9.190   4.971 -10.868  0.00  0.00    -0.234 NA
ATOM     21  C   UNL d   1       9.450   6.281 -10.739  0.00  0.00     0.275 C 
ATOM     22  O   UNL d   1       9.438   7.079 -11.686  0.00  0.00    -0.266 OA
BRANCH  21  23
ATOM     23  C   UNL d   1       9.873   6.706  -9.373  0.00  0.00     0.058 A 
ATOM     24  C   UNL d   1      10.945   7.603  -9.201  0.00  0.00     0.005 A 
ATOM     25  C   UNL d   1      11.341   8.013  -7.914  0.00  0.00     0.000 A 
ATOM     26  C   UNL d   1      10.659   7.545  -6.764  0.00  0.00     0.000 A 
ATOM     27  C   UNL d   1       9.575   6.662  -6.948  0.00  0.00     0.000 A 
ATOM     28  C   UNL d   1       9.182   6.235  -8.230  0.00  0.00     0.005 A 
BRANCH  26  29
ATOM     29  C   UNL d   1      11.067   7.964  -5.418  0.00  0.00     0.000 A 
ATOM     30  C   UNL d   1      11.082   9.332  -5.067  0.00  0.00     0.000 A 
ATOM     31  C   UNL d   1      11.489   9.739  -3.772  0.00  0.00     0.000 A 
ATOM     32  C   UNL d   1      11.876   8.775  -2.819  0.00  0.00     0.000 A 
ATOM     33  C   UNL d   1      11.864   7.412  -3.157  0.00  0.00     0.000 A 
ATOM     34  C   UNL d   1      11.460   7.017  -4.445  0.00  0.00     0.000 A 
ENDBRANCH  26  29
ENDBRANCH  21  23
ENDBRANCH  19  20
ENDBRANCH  18  19
ENDBRANCH   1  18
TORSDOF 10
