REMARK  6 active torsions:
REMARK  status: ('A' for Active; 'I' for Inactive)
REMARK       I    between atoms: C_2  and  N_3 
REMARK    1  A    between atoms: C_2  and  C_21 
REMARK    2  A    between atoms: N_3  and  C_4 
REMARK    3  A    between atoms: C_4  and  C_5 
REMARK    4  A    between atoms: C_5  and  C_6 
REMARK    5  A    between atoms: C_6  and  N_7 
REMARK    6  A    between atoms: N_10  and  C_11 
ROOT
ATOM      1  O   UNL d   1       9.740   0.869 -15.967  0.00  0.00    -0.266 OA
ATOM      2  C   UNL d   1       9.212   1.394 -16.941  0.00  0.00     0.275 C 
ATOM      3  N   UNL d   1       9.413   2.659 -17.340  0.00  0.00    -0.234 NA
ENDROOT
BRANCH   3   4
ATOM      4  C   UNL d   1      10.337   3.582 -16.715  0.00  0.00     0.131 C 
BRANCH   4   5
ATOM      5  C   UNL d   1       9.683   4.397 -15.604  0.00  0.00     0.062 C 
BRANCH   5   6
ATOM      6  C   UNL d   1       9.402   3.584 -14.311  0.00  0.00     0.253 C 
BRANCH   6   7
ATOM      7  N   UNL d   1       8.830   4.337 -13.188  0.00  0.00     0.141 N 
ATOM      8  C   UNL d   1       9.559   3.930 -11.998  0.00  0.00     0.274 C 
ATOM      9  C   UNL d   1       9.044   4.659 -10.741  0.00  0.00     0.137 C 
ATOM     10  N   UNL d   1       9.053   6.090 -10.944  0.00  0.00    -0.344 N 
ATOM     11  C   UNL d   1       8.368   6.534 -12.135  0.00  0.00     0.137 C 
ATOM     12  C   UNL d   1       8.927   5.781 -13.330  0.00  0.00     0.274 C 
BRANCH  10  13
ATOM     13  C   UNL d   1       9.629   7.036 -10.028  0.00  0.00     0.068 A 
ATOM     14  C   UNL d   1       9.516   6.877  -8.636  0.00  0.00     0.084 A 
ATOM     15  C   UNL d   1      10.156   7.804  -7.761  0.00  0.00     0.070 A 
ATOM     16 CL   UNL d   1       8.541   5.618  -7.964  0.00  0.00    -0.080 Cl
ATOM     17  C   UNL d   1      10.863   8.896  -8.283  0.00  0.00     0.012 A 
ATOM     18 CL   UNL d   1      10.094   7.611  -6.052  0.00  0.00    -0.081 Cl
ATOM     19  C   UNL d   1      10.935   9.083  -9.675  0.00  0.00     0.002 A 
ATOM     20  C   UNL d   1      10.301   8.154 -10.543  0.00  0.00     0.018 A 
ENDBRANCH  10  13
ENDBRANCH   6   7
ENDBRANCH   5   6
ENDBRANCH   4   5
ENDBRANCH   3   4
BRANCH   2  21
ATOM     21  C   UNL d   1       8.315   0.629 -17.848  0.00  0.00     0.058 A 
ATOM     22  C   UNL d   1       7.077   0.067 -17.433  0.00  0.00     0.008 A 
ATOM     23  C   UNL d   1       6.291  -0.611 -18.383  0.00  0.00     0.039 A 
ATOM     24  C   UNL d   1       6.340   0.046 -16.157  0.00  0.00     0.003 A 
ATOM     25  C   UNL d   1       6.713  -0.800 -19.710  0.00  0.00     0.003 A 
ATOM     26  C   UNL d   1       5.032  -1.066 -17.765  0.00  0.00     0.196 A 
ATOM     27  C   UNL d   1       7.958  -0.273 -20.105  0.00  0.00     0.000 A 
ATOM     28  C   UNL d   1       8.741   0.443 -19.179  0.00  0.00     0.005 A 
ATOM     29  C   UNL d   1       5.128  -0.633 -16.358  0.00  0.00     0.039 A 
ATOM     30  O   UNL d   1       4.099  -1.647 -18.319  0.00  0.00    -0.287 OA
ATOM     31  C   UNL d   1       4.187  -0.819 -15.330  0.00  0.00     0.003 A 
ATOM     32  C   UNL d   1       4.483  -0.294 -14.055  0.00  0.00     0.000 A 
ATOM     33  C   UNL d   1       5.720   0.356 -13.823  0.00  0.00     0.000 A 
ATOM     34  C   UNL d   1       6.654   0.529 -14.867  0.00  0.00     0.000 A 
ENDBRANCH   2  21
TORSDOF 6
