REMARK  8 active torsions:
REMARK  status: ('A' for Active; 'I' for Inactive)
REMARK    1  A    between atoms: C_3  and  S_4 
REMARK    2  A    between atoms: S_4  and  C_5 
REMARK    3  A    between atoms: C_5  and  C_6 
REMARK    4  A    between atoms: C_6  and  C_7 
REMARK    5  A    between atoms: C_7  and  N_8 
REMARK    6  A    between atoms: C_13  and  C_14 
REMARK    7  A    between atoms: C_17  and  C_18 
REMARK    8  A    between atoms: C_27  and  C_28 
ROOT
ATOM      1  N   UNL d   1       9.169   5.508 -10.098  0.00  0.00     0.137 N 
ATOM      2  C   UNL d   1       8.142   5.624  -9.076  0.00  0.00     0.250 C 
ATOM      3  C   UNL d   1       8.662   6.670  -8.139  0.00  0.00     0.038 C 
ATOM      4  C   UNL d   1       9.578   7.540  -8.966  0.00  0.00     0.037 A 
ATOM      5  C   UNL d   1       9.653   9.051  -8.812  0.00  0.00     0.007 A 
ATOM      6  C   UNL d   1      10.822   8.203  -8.414  0.00  0.00     0.024 A 
ATOM      7  C   UNL d   1       9.506   6.910 -10.337  0.00  0.00     0.251 C 
ENDROOT
BRANCH   1   8
ATOM      8  C   UNL d   1       8.616   4.885 -11.297  0.00  0.00     0.251 C 
BRANCH   8   9
ATOM      9  C   UNL d   1       9.757   4.433 -12.224  0.00  0.00     0.047 C 
BRANCH   9  10
ATOM     10  C   UNL d   1       9.293   4.085 -13.634  0.00  0.00     0.067 C 
BRANCH  10  11
ATOM     11  S   UNL d   1      10.477   3.011 -14.493  0.00  0.00    -0.075 SA
BRANCH  11  12
ATOM     12  C   UNL d   1       9.415   2.515 -15.818  0.00  0.00     0.193 A 
ATOM     13  N   UNL d   1       8.427   1.601 -15.683  0.00  0.00    -0.287 N 
ATOM     14  C   UNL d   1       8.073   0.885 -14.466  0.00  0.00     0.134 C 
ATOM     15  C   UNL d   1       7.875   1.570 -16.931  0.00  0.00     0.185 A 
ATOM     16  N   UNL d   1       8.511   2.405 -17.765  0.00  0.00    -0.127 NA
ATOM     17  N   UNL d   1       9.509   3.023 -17.044  0.00  0.00    -0.122 NA
BRANCH  15  18
ATOM     18  C   UNL d   1       6.742   0.725 -17.397  0.00  0.00     0.117 A 
ATOM     19  N   UNL d   1       6.124   1.136 -18.544  0.00  0.00    -0.241 NA
ATOM     20  C   UNL d   1       5.106   0.393 -19.040  0.00  0.00     0.099 A 
ATOM     21  C   UNL d   1       4.620  -0.772 -18.414  0.00  0.00     0.021 A 
ATOM     22  C   UNL d   1       5.244  -1.197 -17.239  0.00  0.00     0.003 A 
ATOM     23  C   UNL d   1       6.322  -0.440 -16.737  0.00  0.00     0.022 A 
ENDBRANCH  15  18
ENDBRANCH  11  12
ENDBRANCH  10  11
ENDBRANCH   9  10
ENDBRANCH   8   9
ENDBRANCH   1   8
BRANCH   6  24
ATOM     24  C   UNL d   1      11.208   8.037  -6.983  0.00  0.00    -0.022 A 
ATOM     25  C   UNL d   1      11.460   6.762  -6.444  0.00  0.00    -0.004 A 
ATOM     26  C   UNL d   1      11.753   6.607  -5.083  0.00  0.00     0.004 A 
ATOM     27  C   UNL d   1      11.847   7.736  -4.231  0.00  0.00     0.071 A 
ATOM     28  C   UNL d   1      11.599   9.011  -4.782  0.00  0.00     0.004 A 
ATOM     29  C   UNL d   1      11.288   9.165  -6.140  0.00  0.00    -0.004 A 
BRANCH  27  30
ATOM     30  C   UNL d   1      12.216   7.548  -2.775  0.00  0.00     0.419 C 
ATOM     31  F   UNL d   1      11.149   7.255  -2.040  0.00  0.00    -0.166 F 
ATOM     32  F   UNL d   1      13.052   6.517  -2.636  0.00  0.00    -0.166 F 
ATOM     33  F   UNL d   1      12.799   8.640  -2.284  0.00  0.00    -0.166 F 
ENDBRANCH  27  30
ENDBRANCH   6  24
TORSDOF 8
