REMARK  5 active torsions:
REMARK  status: ('A' for Active; 'I' for Inactive)
REMARK    1  A    between atoms: C_2  and  C_3 
REMARK    2  A    between atoms: C_3  and  N_4 
REMARK    3  A    between atoms: N_4  and  C_5 
REMARK    4  A    between atoms: C_5  and  C_7 
REMARK       I    between atoms: C_7  and  N_9 
REMARK    5  A    between atoms: N_9  and  C_10 
ROOT
ATOM      1  C   UNL d   1      11.242   8.297  -6.099  0.00  0.00     0.278 C 
ATOM      2  O   UNL d   1      10.463   7.650  -5.400  0.00  0.00    -0.268 OA
ATOM      3  N   UNL d   1      11.405   8.043  -7.403  0.00  0.00    -0.210 NA
ENDROOT
BRANCH   1   4
ATOM      4  C   UNL d   1      11.983   9.486  -5.500  0.00  0.00     0.178 C 
ATOM      5  C   UNL d   1      11.341  10.737  -6.086  0.00  0.00     0.036 C 
BRANCH   4   6
ATOM      6  N   UNL d   1      11.953   9.551  -4.024  0.00  0.00    -0.288 NA
BRANCH   6   7
ATOM      7  C   UNL d   1      12.699   8.511  -3.332  0.00  0.00     0.120 C 
BRANCH   7   8
ATOM      8  C   UNL d   1      11.758   7.482  -2.683  0.00  0.00     0.026 C 
ATOM      9  C   UNL d   1      12.495   6.337  -2.034  0.00  0.00     0.002 C 
ENDBRANCH   7   8
ENDBRANCH   6   7
ENDBRANCH   4   6
ENDBRANCH   1   4
BRANCH   3  10
ATOM     10  C   UNL d   1      10.588   7.201  -8.217  0.00  0.00     0.080 A 
ATOM     11  C   UNL d   1      10.491   7.497  -9.593  0.00  0.00    -0.004 A 
ATOM     12  C   UNL d   1       9.693   6.686 -10.438  0.00  0.00    -0.003 A 
ATOM     13  C   UNL d   1      11.223   8.693 -10.174  0.00  0.00     0.033 C 
ATOM     14  C   UNL d   1       8.985   5.580  -9.913  0.00  0.00    -0.000 A 
ATOM     15  C   UNL d   1       9.065   5.293  -8.548  0.00  0.00     0.002 A 
ATOM     16  C   UNL d   1       9.863   6.091  -7.713  0.00  0.00     0.019 A 
ENDBRANCH   3  10
TORSDOF 5
