REMARK  9 active torsions:
REMARK  status: ('A' for Active; 'I' for Inactive)
REMARK    1  A    between atoms: O_2  and  C_3 
REMARK    2  A    between atoms: C_4  and  O_5 
REMARK    3  A    between atoms: O_5  and  C_6 
REMARK    4  A    between atoms: C_6  and  C_7 
REMARK    5  A    between atoms: C_12  and  C_13 
REMARK    6  A    between atoms: C_13  and  C_15 
REMARK    7  A    between atoms: N_18  and  C_19 
REMARK    8  A    between atoms: C_19  and  C_20 
REMARK    9  A    between atoms: C_20  and  C_21 
ROOT
ATOM      1  C   UNL d   1       8.962   6.037 -11.425  0.00  0.00     0.039 C 
ATOM      2  C   UNL d   1       8.254   5.423 -10.211  0.00  0.00     0.038 C 
ATOM      3  C   UNL d   1       9.146   5.433  -8.967  0.00  0.00     0.250 C 
ATOM      4  N   UNL d   1       9.582   6.800  -8.685  0.00  0.00     0.137 N 
ATOM      5  C   UNL d   1      10.400   7.320  -9.778  0.00  0.00     0.250 C 
ATOM      6  C   UNL d   1       9.559   7.408 -11.054  0.00  0.00     0.038 C 
ENDROOT
BRANCH   1   7
ATOM      7  C   UNL d   1       8.031   6.135 -12.652  0.00  0.00     0.176 C 
ATOM      8  O   UNL d   1       7.060   7.154 -12.456  0.00  0.00    -0.218 OA
BRANCH   7   9
ATOM      9  C   UNL d   1       7.401   4.791 -13.022  0.00  0.00     0.032 A 
ATOM     10  C   UNL d   1       8.112   3.869 -13.839  0.00  0.00     0.115 A 
ATOM     11  C   UNL d   1       7.533   2.595 -14.113  0.00  0.00     0.116 A 
ATOM     12  C   UNL d   1       6.240   2.300 -13.615  0.00  0.00     0.026 A 
ATOM     13  C   UNL d   1       5.541   3.232 -12.830  0.00  0.00     0.002 A 
ATOM     14  C   UNL d   1       6.123   4.471 -12.527  0.00  0.00     0.000 A 
BRANCH  10  15
ATOM     15  O   UNL d   1       9.366   4.261 -14.280  0.00  0.00    -0.326 OA
ATOM     16  C   UNL d   1       9.823   3.797 -15.547  0.00  0.00     0.181 C 
ENDBRANCH  10  15
BRANCH  11  17
ATOM     17  O   UNL d   1       8.266   1.671 -14.820  0.00  0.00    -0.326 OA
BRANCH  17  18
ATOM     18  C   UNL d   1       7.721   0.392 -15.116  0.00  0.00     0.187 C 
BRANCH  18  19
ATOM     19  C   UNL d   1       6.564   0.471 -16.132  0.00  0.00     0.226 C 
ATOM     20  F   UNL d   1       6.989   0.962 -17.299  0.00  0.00    -0.232 F 
ENDBRANCH  18  19
ENDBRANCH  17  18
ENDBRANCH  11  17
ENDBRANCH   7   9
ENDBRANCH   1   7
BRANCH   4  21
ATOM     21  C   UNL d   1      10.348   6.776  -7.438  0.00  0.00     0.255 C 
BRANCH  21  22
ATOM     22  C   UNL d   1      10.557   8.175  -6.839  0.00  0.00     0.062 C 
BRANCH  22  23
ATOM     23  C   UNL d   1      11.140   8.143  -5.430  0.00  0.00    -0.020 A 
ATOM     24  C   UNL d   1      11.400   9.353  -4.752  0.00  0.00    -0.002 A 
ATOM     25  C   UNL d   1      11.914   9.332  -3.435  0.00  0.00     0.029 A 
ATOM     26  C   UNL d   1      12.173   8.109  -2.795  0.00  0.00     0.140 A 
ATOM     27  C   UNL d   1      11.921   6.900  -3.467  0.00  0.00     0.029 A 
ATOM     28  F   UNL d   1      12.652   8.089  -1.531  0.00  0.00    -0.204 F 
ATOM     29  C   UNL d   1      11.421   6.917  -4.782  0.00  0.00    -0.002 A 
ENDBRANCH  22  23
ENDBRANCH  21  22
ENDBRANCH   4  21
TORSDOF 9
