REMARK  7 active torsions:
REMARK  status: ('A' for Active; 'I' for Inactive)
REMARK    1  A    between atoms: C_2  and  O_4 
REMARK    2  A    between atoms: O_4  and  C_5 
REMARK    3  A    between atoms: C_10  and  N_11 
REMARK    4  A    between atoms: N_14  and  C_15 
REMARK    5  A    between atoms: C_18  and  N_19 
REMARK    6  A    between atoms: N_19  and  S_20 
REMARK    7  A    between atoms: S_20  and  C_23 
ROOT
ATOM      1  N   UNL d   1      10.839   3.302 -15.383  0.00  0.00    -0.343 N 
ATOM      2  C   UNL d   1      11.005   3.071 -13.970  0.00  0.00     0.137 C 
ATOM      3  C   UNL d   1       9.727   3.433 -13.200  0.00  0.00     0.274 C 
ATOM      4  N   UNL d   1       9.323   4.811 -13.489  0.00  0.00     0.139 N 
ATOM      5  C   UNL d   1       9.067   4.910 -14.938  0.00  0.00     0.274 C 
ATOM      6  C   UNL d   1      10.350   4.609 -15.766  0.00  0.00     0.137 C 
ENDROOT
BRANCH   4   7
ATOM      7  C   UNL d   1       8.116   5.267 -12.772  0.00  0.00     0.220 C 
ATOM      8  C   UNL d   1       8.153   6.749 -12.403  0.00  0.00     0.035 C 
ATOM      9  C   UNL d   1       9.157   7.069 -11.295  0.00  0.00     0.027 C 
ATOM     10  C   UNL d   1       8.922   6.212 -10.030  0.00  0.00     0.116 C 
ATOM     11  C   UNL d   1       8.869   4.737 -10.388  0.00  0.00     0.027 C 
ATOM     12  C   UNL d   1       7.806   4.511 -11.471  0.00  0.00     0.035 C 
BRANCH  10  13
ATOM     13  N   UNL d   1       9.976   6.427  -9.048  0.00  0.00    -0.187 NA
BRANCH  13  14
ATOM     14  S   UNL d   1      10.638   8.000  -8.792  0.00  0.00     0.281 S 
ATOM     15  O   UNL d   1      11.861   8.137  -9.595  0.00  0.00    -0.199 OA
ATOM     16  O   UNL d   1       9.549   8.981  -8.913  0.00  0.00    -0.199 OA
BRANCH  14  17
ATOM     17  C   UNL d   1      11.123   7.967  -7.088  0.00  0.00     0.105 A 
ATOM     18  C   UNL d   1      11.018   6.789  -6.316  0.00  0.00     0.013 A 
ATOM     19  C   UNL d   1      11.383   6.822  -4.961  0.00  0.00     0.001 A 
ATOM     20  C   UNL d   1      11.857   8.019  -4.391  0.00  0.00     0.000 A 
ATOM     21  C   UNL d   1      11.941   9.195  -5.167  0.00  0.00     0.001 A 
ATOM     22  C   UNL d   1      11.570   9.171  -6.523  0.00  0.00     0.013 A 
ENDBRANCH  14  17
ENDBRANCH  13  14
ENDBRANCH  10  13
ENDBRANCH   4   7
BRANCH   1  23
ATOM     23  C   UNL d   1      11.075   2.281 -16.307  0.00  0.00     0.079 A 
ATOM     24  C   UNL d   1      10.253   1.132 -16.381  0.00  0.00     0.109 A 
ATOM     25  C   UNL d   1      10.565   0.143 -17.358  0.00  0.00     0.026 A 
ATOM     26  C   UNL d   1      11.670   0.313 -18.214  0.00  0.00     0.002 A 
ATOM     27  C   UNL d   1      12.490   1.442 -18.106  0.00  0.00     0.002 A 
ATOM     28  C   UNL d   1      12.188   2.432 -17.148  0.00  0.00     0.019 A 
BRANCH  24  29
ATOM     29  O   UNL d   1       9.185   0.996 -15.510  0.00  0.00    -0.332 OA
BRANCH  29  30
ATOM     30  C   UNL d   1       7.969   0.408 -15.981  0.00  0.00     0.122 C 
ATOM     31  C   UNL d   1       7.304   1.341 -17.008  0.00  0.00     0.033 C 
ATOM     32  C   UNL d   1       7.037   0.170 -14.783  0.00  0.00     0.033 C 
ENDBRANCH  29  30
ENDBRANCH  24  29
ENDBRANCH   1  23
TORSDOF 7
