REMARK  8 active torsions:
REMARK  status: ('A' for Active; 'I' for Inactive)
REMARK       I    between atoms: C_2  and  N_3 
REMARK    1  A    between atoms: C_2  and  C_22 
REMARK    2  A    between atoms: N_3  and  C_4 
REMARK    3  A    between atoms: C_4  and  C_5 
REMARK    4  A    between atoms: C_5  and  C_6 
REMARK    5  A    between atoms: C_6  and  C_7 
REMARK    6  A    between atoms: C_7  and  N_8 
REMARK    7  A    between atoms: N_11  and  C_12 
REMARK    8  A    between atoms: C_25  and  C_26 
ROOT
ATOM      1  C   UNL d   1       8.949   4.163 -12.708  0.00  0.00     0.029 C 
ENDROOT
BRANCH   1   2
ATOM      2  C   UNL d   1       8.727   5.668 -12.497  0.00  0.00     0.129 C 
BRANCH   2   3
ATOM      3  N   UNL d   1       9.104   6.058 -11.146  0.00  0.00    -0.234 NA
ATOM      4  C   UNL d   1       9.486   7.295 -10.793  0.00  0.00     0.275 C 
ATOM      5  O   UNL d   1       9.505   8.242 -11.579  0.00  0.00    -0.266 OA
BRANCH   4   6
ATOM      6  C   UNL d   1       9.965   7.446  -9.371  0.00  0.00     0.058 A 
ATOM      7  C   UNL d   1       9.353   6.735  -8.316  0.00  0.00     0.005 A 
ATOM      8  C   UNL d   1       9.788   6.907  -6.987  0.00  0.00     0.000 A 
ATOM      9  C   UNL d   1      10.844   7.790  -6.673  0.00  0.00     0.000 A 
ATOM     10  C   UNL d   1      11.444   8.508  -7.730  0.00  0.00     0.000 A 
ATOM     11  C   UNL d   1      11.007   8.347  -9.062  0.00  0.00     0.005 A 
BRANCH   9  12
ATOM     12  C   UNL d   1      11.301   7.958  -5.277  0.00  0.00     0.000 A 
ATOM     13  C   UNL d   1      11.461   6.841  -4.428  0.00  0.00     0.000 A 
ATOM     14  C   UNL d   1      11.905   6.990  -3.100  0.00  0.00     0.000 A 
ATOM     15  C   UNL d   1      12.189   8.272  -2.595  0.00  0.00     0.000 A 
ATOM     16  C   UNL d   1      12.021   9.397  -3.421  0.00  0.00     0.000 A 
ATOM     17  C   UNL d   1      11.585   9.240  -4.754  0.00  0.00     0.000 A 
ENDBRANCH   9  12
ENDBRANCH   4   6
ENDBRANCH   2   3
ENDBRANCH   1   2
BRANCH   1  18
ATOM     18  C   UNL d   1       8.659   3.716 -14.145  0.00  0.00     0.037 C 
BRANCH  18  19
ATOM     19  C   UNL d   1       8.842   2.194 -14.334  0.00  0.00     0.251 C 
BRANCH  19  20
ATOM     20  N   UNL d   1       8.527   1.774 -15.693  0.00  0.00     0.141 N 
ATOM     21  C   UNL d   1       9.082   0.432 -15.917  0.00  0.00     0.274 C 
ATOM     22  C   UNL d   1       8.783  -0.038 -17.351  0.00  0.00     0.137 C 
ATOM     23  N   UNL d   1       7.354   0.011 -17.622  0.00  0.00    -0.344 N 
ATOM     24  C   UNL d   1       6.707   1.271 -17.296  0.00  0.00     0.137 C 
ATOM     25  C   UNL d   1       7.068   1.707 -15.865  0.00  0.00     0.274 C 
BRANCH  23  26
ATOM     26  C   UNL d   1       6.633  -1.083 -18.128  0.00  0.00     0.068 A 
ATOM     27  C   UNL d   1       7.089  -1.834 -19.244  0.00  0.00     0.084 A 
ATOM     28  C   UNL d   1       6.334  -2.932 -19.707  0.00  0.00     0.070 A 
ATOM     29 CL   UNL d   1       8.529  -1.405 -20.111  0.00  0.00    -0.080 Cl
ATOM     30  C   UNL d   1       5.122  -3.273 -19.087  0.00  0.00     0.012 A 
ATOM     31 CL   UNL d   1       6.872  -3.861 -21.062  0.00  0.00    -0.081 Cl
ATOM     32  C   UNL d   1       4.655  -2.523 -17.996  0.00  0.00     0.002 A 
ATOM     33  C   UNL d   1       5.407  -1.437 -17.517  0.00  0.00     0.018 A 
ENDBRANCH  23  26
ENDBRANCH  19  20
ENDBRANCH  18  19
ENDBRANCH   1  18
TORSDOF 8
