REMARK  3 active torsions:
REMARK  status: ('A' for Active; 'I' for Inactive)
REMARK    1  A    between atoms: O_2  and  C_3 
REMARK    2  A    between atoms: C_8  and  O_9 
REMARK    3  A    between atoms: O_9  and  C_10 
ROOT
ATOM      1  C   UNL d   1       7.096   2.798 -14.049  0.00  0.00     0.117 A 
ATOM      2  C   UNL d   1       7.583   4.059 -13.628  0.00  0.00     0.026 A 
ATOM      3  C   UNL d   1       8.779   4.574 -14.156  0.00  0.00    -0.002 A 
ATOM      4  C   UNL d   1       9.508   3.834 -15.108  0.00  0.00    -0.020 A 
ATOM      5  C   UNL d   1       9.039   2.570 -15.535  0.00  0.00     0.032 A 
ATOM      6  C   UNL d   1       7.822   2.061 -15.011  0.00  0.00     0.123 A 
ATOM      7  C   UNL d   1       9.869   1.778 -16.539  0.00  0.00     0.279 C 
ATOM      8  N   UNL d   1      10.785   2.598 -17.328  0.00  0.00     0.144 N 
ATOM      9  C   UNL d   1      11.555   1.720 -18.203  0.00  0.00     0.256 C 
ATOM     10  C   UNL d   1      12.362   2.583 -19.181  0.00  0.00     0.061 C 
ATOM     11  C   UNL d   1      13.204   3.615 -18.459  0.00  0.00    -0.020 A 
ATOM     12  C   UNL d   1      14.327   4.177 -19.113  0.00  0.00     0.022 A 
ATOM     13  C   UNL d   1      15.090   5.116 -18.404  0.00  0.00     0.119 A 
ATOM     14  C   UNL d   1      14.768   5.491 -17.120  0.00  0.00     0.119 A 
ATOM     15  C   UNL d   1      13.655   4.954 -16.451  0.00  0.00     0.024 A 
ATOM     16  C   UNL d   1      12.855   4.007 -17.136  0.00  0.00     0.007 A 
ATOM     17  C   UNL d   1      11.661   3.358 -16.426  0.00  0.00     0.246 C 
ATOM     18  C   UNL d   1      10.777   4.412 -15.712  0.00  0.00     0.064 C 
ATOM     19  O   UNL d   1      15.681   6.383 -16.662  0.00  0.00    -0.300 OA
ATOM     20  C   UNL d   1      16.587   6.576 -17.718  0.00  0.00     0.304 A 
ATOM     21  O   UNL d   1      16.217   5.761 -18.799  0.00  0.00    -0.300 OA
ENDROOT
BRANCH   6  22
ATOM     22  O   UNL d   1       7.329   0.835 -15.391  0.00  0.00    -0.275 OA
BRANCH  22  23
ATOM     23  C   UNL d   1       6.684   0.713 -16.571  0.00  0.00     0.277 C 
ATOM     24  C   UNL d   1       6.017  -0.643 -16.734  0.00  0.00     0.107 C 
ATOM     25  O   UNL d   1       6.619   1.569 -17.459  0.00  0.00    -0.264 OA
ENDBRANCH  22  23
ENDBRANCH   6  22
BRANCH   1  26
ATOM     26  O   UNL d   1       5.929   2.235 -13.580  0.00  0.00    -0.326 OA
ATOM     27  C   UNL d   1       5.134   2.986 -12.678  0.00  0.00     0.181 C 
ENDBRANCH   1  26
TORSDOF 3
