REMARK  9 active torsions:
REMARK  status: ('A' for Active; 'I' for Inactive)
REMARK    1  A    between atoms: O_2  and  C_3 
REMARK    2  A    between atoms: C_8  and  N_9 
REMARK    3  A    between atoms: N_12  and  C_13 
REMARK    4  A    between atoms: C_13  and  C_14 
REMARK    5  A    between atoms: C_14  and  C_15 
REMARK    6  A    between atoms: C_15  and  C_16 
REMARK    7  A    between atoms: C_16  and  O_17 
REMARK    8  A    between atoms: O_17  and  C_18 
REMARK    9  A    between atoms: C_23  and  C_24 
ROOT
ATOM      1  C   UNL d   1       8.752   5.370 -11.827  0.00  0.00     0.038 C 
ENDROOT
BRANCH   1   2
ATOM      2  C   UNL d   1       9.236   5.125 -10.391  0.00  0.00     0.251 C 
BRANCH   2   3
ATOM      3  N   UNL d   1       9.161   6.350  -9.605  0.00  0.00     0.141 N 
ATOM      4  C   UNL d   1       8.838   6.025  -8.203  0.00  0.00     0.274 C 
ATOM      5  C   UNL d   1       8.746   7.296  -7.327  0.00  0.00     0.137 C 
ATOM      6  N   UNL d   1       9.939   8.091  -7.504  0.00  0.00    -0.343 N 
ATOM      7  C   UNL d   1      10.374   8.387  -8.866  0.00  0.00     0.137 C 
ATOM      8  C   UNL d   1      10.409   7.109  -9.753  0.00  0.00     0.274 C 
BRANCH   6   9
ATOM      9  C   UNL d   1      10.722   8.504  -6.375  0.00  0.00     0.079 A 
ATOM     10  C   UNL d   1      11.419   7.623  -5.490  0.00  0.00     0.110 A 
ATOM     11  C   UNL d   1      12.154   8.172  -4.409  0.00  0.00     0.026 A 
ATOM     12  C   UNL d   1      12.140   9.545  -4.161  0.00  0.00     0.002 A 
ATOM     13  C   UNL d   1      11.417  10.388  -5.015  0.00  0.00     0.002 A 
ATOM     14  C   UNL d   1      10.769   9.872  -6.140  0.00  0.00     0.019 A 
BRANCH  10  15
ATOM     15  O   UNL d   1      11.507   6.271  -5.645  0.00  0.00    -0.327 OA
ATOM     16  C   UNL d   1      12.044   5.849  -6.898  0.00  0.00     0.181 C 
ENDBRANCH  10  15
ENDBRANCH   6   9
ENDBRANCH   2   3
ENDBRANCH   1   2
BRANCH   1  17
ATOM     17  C   UNL d   1       8.230   4.077 -12.471  0.00  0.00     0.035 C 
BRANCH  17  18
ATOM     18  C   UNL d   1       7.494   4.337 -13.789  0.00  0.00     0.149 C 
BRANCH  18  19
ATOM     19  O   UNL d   1       6.966   3.116 -14.298  0.00  0.00    -0.331 OA
BRANCH  19  20
ATOM     20  C   UNL d   1       7.756   2.315 -15.096  0.00  0.00     0.097 A 
ATOM     21  C   UNL d   1       9.033   2.653 -15.519  0.00  0.00     0.043 A 
ATOM     22  C   UNL d   1       9.750   1.772 -16.361  0.00  0.00     0.086 A 
ATOM     23  N   UNL d   1       9.134   0.566 -16.738  0.00  0.00    -0.228 N 
ATOM     24  C   UNL d   1      10.980   1.783 -16.954  0.00  0.00     0.042 A 
ATOM     25  C   UNL d   1       7.883   0.223 -16.333  0.00  0.00     0.102 A 
ATOM     26  N   UNL d   1       9.958  -0.178 -17.541  0.00  0.00    -0.164 NA
ATOM     27  C   UNL d   1       7.188   1.083 -15.514  0.00  0.00     0.045 A 
ATOM     28  C   UNL d   1      11.040   0.560 -17.665  0.00  0.00     0.124 A 
BRANCH  28  29
ATOM     29  C   UNL d   1      12.246   0.215 -18.437  0.00  0.00     0.151 C 
ATOM     30  N   UNL d   1      12.352  -0.804 -19.182  0.00  0.00    -0.093 NA
ATOM     31  O   UNL d   1      13.663  -0.818 -19.754  0.00  0.00    -0.061 OA
ENDBRANCH  28  29
ENDBRANCH  19  20
ENDBRANCH  18  19
ENDBRANCH  17  18
ENDBRANCH   1  17
TORSDOF 9
