REMARK  3 active torsions:
REMARK  status: ('A' for Active; 'I' for Inactive)
REMARK    1  A    between atoms: N_5  and  C_6 
REMARK    2  A    between atoms: C_10  and  O_11 
REMARK    3  A    between atoms: O_11  and  S_12 
ROOT
ATOM      1  C   UNL d   1       9.356   4.768 -13.407  0.00  0.00     0.142 C 
ATOM      2  N   UNL d   1      10.421   5.173 -14.024  0.00  0.00    -0.227 NA
ATOM      3  C   UNL d   1      10.980   4.591 -15.168  0.00  0.00     0.102 A 
ATOM      4  C   UNL d   1      11.615   5.492 -16.039  0.00  0.00     0.046 A 
ATOM      5  C   UNL d   1      12.356   5.046 -17.148  0.00  0.00     0.115 A 
ATOM      6  C   UNL d   1      12.431   3.662 -17.422  0.00  0.00     0.027 A 
ATOM      7  C   UNL d   1      11.783   2.744 -16.570  0.00  0.00     0.023 A 
ATOM      8  C   UNL d   1      11.059   3.200 -15.448  0.00  0.00     0.099 A 
ATOM      9  N   UNL d   1      10.390   2.257 -14.678  0.00  0.00    -0.244 NA
ATOM     10  C   UNL d   1       9.035   2.399 -14.391  0.00  0.00     0.084 A 
ATOM     11  C   UNL d   1       8.190   1.301 -14.660  0.00  0.00     0.019 A 
ATOM     12  C   UNL d   1       6.806   1.397 -14.444  0.00  0.00     0.002 A 
ATOM     13  C   UNL d   1       6.260   2.600 -13.964  0.00  0.00     0.000 A 
ATOM     14  C   UNL d   1       7.095   3.703 -13.709  0.00  0.00     0.004 A 
ATOM     15  C   UNL d   1       8.496   3.610 -13.875  0.00  0.00     0.051 A 
ENDROOT
BRANCH   1  16
ATOM     16  N   UNL d   1       8.946   5.373 -12.213  0.00  0.00    -0.330 N 
ATOM     17  C   UNL d   1       9.209   6.773 -11.870  0.00  0.00     0.138 C 
ATOM     18  C   UNL d   1       9.893   6.885 -10.494  0.00  0.00     0.274 C 
ATOM     19  N   UNL d   1       9.083   6.224  -9.468  0.00  0.00     0.143 N 
ATOM     20  C   UNL d   1       9.707   6.366  -8.166  0.00  0.00     0.286 C 
ATOM     21  C   UNL d   1       8.944   4.810  -9.797  0.00  0.00     0.274 C 
ATOM     22  C   UNL d   1       8.227   4.678 -11.144  0.00  0.00     0.138 C 
ENDBRANCH   1  16
BRANCH   5  23
ATOM     23  O   UNL d   1      12.971   5.958 -17.965  0.00  0.00    -0.230 OA
BRANCH  23  24
ATOM     24  S   UNL d   1      14.233   6.866 -17.301  0.00  0.00     0.285 S 
ATOM     25  C   UNL d   1      14.460   8.065 -18.661  0.00  0.00     0.172 C 
ATOM     26  O   UNL d   1      13.714   7.588 -16.131  0.00  0.00    -0.197 OA
ATOM     27  O   UNL d   1      15.423   6.005 -17.201  0.00  0.00    -0.197 OA
ENDBRANCH  23  24
ENDBRANCH   5  23
TORSDOF 3
