REMARK  1 active torsions:
REMARK  status: ('A' for Active; 'I' for Inactive)
REMARK    1  A    between atoms: N_2  and  C_4 
ROOT
ATOM      1  C   UNL d   1      11.588   8.107  -3.556  0.00  0.00     0.224 C 
ATOM      2  C   UNL d   1      12.620   9.055  -4.165  0.00  0.00     0.038 C 
ATOM      3  C   UNL d   1      12.080   9.793  -5.392  0.00  0.00     0.028 C 
ATOM      4  C   UNL d   1      11.281   8.918  -6.342  0.00  0.00    -0.026 A 
ATOM      5  C   UNL d   1      11.040   9.402  -7.639  0.00  0.00    -0.003 A 
ATOM      6  C   UNL d   1      10.305   8.648  -8.578  0.00  0.00     0.027 A 
ATOM      7  C   UNL d   1       9.802   7.388  -8.213  0.00  0.00     0.131 A 
ATOM      8  O   UNL d   1       9.047   6.663  -9.082  0.00  0.00    -0.190 OA
ATOM      9  C   UNL d   1      10.046   6.896  -6.915  0.00  0.00     0.023 A 
ATOM     10  C   UNL d   1      10.785   7.660  -5.979  0.00  0.00    -0.022 A 
ATOM     11  C   UNL d   1      11.077   7.064  -4.614  0.00  0.00     0.059 C 
ENDROOT
BRANCH   1  12
ATOM     12  N   UNL d   1      12.068   7.441  -2.320  0.00  0.00     0.140 N 
ATOM     13  C   UNL d   1      13.043   6.395  -2.568  0.00  0.00     0.285 C 
ATOM     14  C   UNL d   1      12.638   8.356  -1.337  0.00  0.00     0.285 C 
ENDBRANCH   1  12
TORSDOF 1
