REMARK  9 active torsions:
REMARK  status: ('A' for Active; 'I' for Inactive)
REMARK    1  A    between atoms: O_2  and  C_3 
REMARK    2  A    between atoms: C_7  and  N_8 
REMARK    3  A    between atoms: N_11  and  C_12 
REMARK    4  A    between atoms: C_12  and  C_13 
REMARK    5  A    between atoms: C_13  and  C_14 
REMARK    6  A    between atoms: C_14  and  C_15 
REMARK    7  A    between atoms: C_15  and  C_16 
REMARK    8  A    between atoms: C_16  and  C_17 
REMARK    9  A    between atoms: C_17  and  N_18 
ROOT
ATOM      1  C   UNL d   1       9.294   4.479 -12.270  0.00  0.00     0.002 C 
ENDROOT
BRANCH   1   2
ATOM      2  C   UNL d   1       8.812   5.816 -11.686  0.00  0.00     0.035 C 
BRANCH   2   3
ATOM      3  C   UNL d   1       8.575   5.728 -10.166  0.00  0.00     0.250 C 
BRANCH   3   4
ATOM      4  N   UNL d   1       9.757   6.121  -9.404  0.00  0.00     0.141 N 
ATOM      5  C   UNL d   1       9.588   5.643  -8.031  0.00  0.00     0.274 C 
ATOM      6  C   UNL d   1      10.827   6.002  -7.190  0.00  0.00     0.137 C 
ATOM      7  N   UNL d   1      11.073   7.439  -7.228  0.00  0.00    -0.344 N 
ATOM      8  C   UNL d   1      11.127   8.011  -8.570  0.00  0.00     0.137 C 
ATOM      9  C   UNL d   1       9.869   7.590  -9.350  0.00  0.00     0.274 C 
BRANCH   7  10
ATOM     10  C   UNL d   1      11.178   8.201  -6.058  0.00  0.00     0.058 A 
ATOM     11  C   UNL d   1      10.794   9.560  -6.018  0.00  0.00     0.017 A 
ATOM     12  C   UNL d   1      10.951  10.303  -4.835  0.00  0.00     0.004 A 
ATOM     13  C   UNL d   1      11.474   9.705  -3.673  0.00  0.00     0.024 A 
ATOM     14  C   UNL d   1      11.850   8.348  -3.681  0.00  0.00     0.096 A 
ATOM     15  C   UNL d   1      11.701   7.615  -4.879  0.00  0.00     0.041 A 
BRANCH  14  16
ATOM     16  O   UNL d   1      12.338   7.809  -2.511  0.00  0.00    -0.328 OA
ATOM     17  C   UNL d   1      12.082   6.423  -2.290  0.00  0.00     0.181 C 
ENDBRANCH  14  16
ENDBRANCH   7  10
ENDBRANCH   3   4
ENDBRANCH   2   3
ENDBRANCH   1   2
BRANCH   1  18
ATOM     18  C   UNL d   1       9.727   4.594 -13.735  0.00  0.00     0.002 C 
BRANCH  18  19
ATOM     19  C   UNL d   1      10.267   3.263 -14.293  0.00  0.00     0.025 C 
BRANCH  19  20
ATOM     20  C   UNL d   1      10.426   3.263 -15.830  0.00  0.00     0.109 C 
BRANCH  20  21
ATOM     21  N   UNL d   1      11.215   4.384 -16.350  0.00  0.00    -0.296 N 
ATOM     22  C   UNL d   1      10.841   5.179 -17.473  0.00  0.00     0.063 A 
ATOM     23  C   UNL d   1       9.720   5.167 -18.331  0.00  0.00     0.017 A 
ATOM     24  C   UNL d   1      11.807   6.144 -17.714  0.00  0.00     0.021 A 
ATOM     25  C   UNL d   1       9.645   6.125 -19.372  0.00  0.00     0.002 A 
ATOM     26  C   UNL d   1      10.671   7.090 -19.566  0.00  0.00     0.000 A 
ATOM     27  C   UNL d   1      11.800   7.115 -18.715  0.00  0.00     0.002 A 
ATOM     28  C   UNL d   1      12.916   7.986 -18.722  0.00  0.00     0.000 A 
ATOM     29  C   UNL d   1      13.945   7.846 -17.752  0.00  0.00     0.000 A 
ATOM     30  C   UNL d   1      13.890   6.827 -16.766  0.00  0.00     0.005 A 
ATOM     31  C   UNL d   1      12.780   5.958 -16.759  0.00  0.00     0.058 A 
ATOM     32  C   UNL d   1      12.409   4.817 -15.880  0.00  0.00     0.261 A 
ATOM     33  O   UNL d   1      13.060   4.396 -14.923  0.00  0.00    -0.267 OA
ENDBRANCH  20  21
ENDBRANCH  19  20
ENDBRANCH  18  19
ENDBRANCH   1  18
TORSDOF 9
