REMARK  7 active torsions:
REMARK  status: ('A' for Active; 'I' for Inactive)
REMARK    1  A    between atoms: N_2  and  C_4 
REMARK    2  A    between atoms: C_4  and  C_5 
REMARK    3  A    between atoms: C_5  and  C_6 
REMARK    4  A    between atoms: C_13  and  C_14 
REMARK    5  A    between atoms: C_14  and  C_16 
REMARK    6  A    between atoms: N_22  and  S_23 
REMARK    7  A    between atoms: S_23  and  C_26 
ROOT
ATOM      1  C   UNL d   1       6.346   0.510 -14.141  0.00  0.00    -0.019 A 
ATOM      2  C   UNL d   1       5.497   1.347 -13.389  0.00  0.00    -0.004 A 
ATOM      3  C   UNL d   1       5.819   2.711 -13.221  0.00  0.00     0.001 A 
ATOM      4  C   UNL d   1       6.994   3.236 -13.808  0.00  0.00     0.018 A 
ATOM      5  C   UNL d   1       7.870   2.390 -14.542  0.00  0.00     0.075 A 
ATOM      6  C   UNL d   1       7.549   1.006 -14.695  0.00  0.00     0.015 A 
ATOM      7  C   UNL d   1       8.604   0.378 -15.422  0.00  0.00     0.023 A 
ATOM      8  C   UNL d   1       9.527   1.335 -15.736  0.00  0.00     0.114 A 
ATOM      9  N   UNL d   1       9.086   2.585 -15.220  0.00  0.00    -0.229 N 
ENDROOT
BRANCH   9  10
ATOM     10  S   UNL d   1       9.862   4.147 -15.458  0.00  0.00     0.271 S 
ATOM     11  O   UNL d   1       9.070   5.129 -14.687  0.00  0.00    -0.200 OA
ATOM     12  O   UNL d   1      11.278   4.014 -15.147  0.00  0.00    -0.200 OA
BRANCH  10  13
ATOM     13  C   UNL d   1       9.639   4.549 -17.206  0.00  0.00     0.104 A 
ATOM     14  C   UNL d   1       9.896   5.865 -17.646  0.00  0.00     0.013 A 
ATOM     15  C   UNL d   1       9.717   6.202 -19.009  0.00  0.00     0.001 A 
ATOM     16  C   UNL d   1       9.315   5.216 -19.937  0.00  0.00     0.000 A 
ATOM     17  C   UNL d   1       9.060   3.904 -19.493  0.00  0.00     0.001 A 
ATOM     18  C   UNL d   1       9.182   3.582 -18.134  0.00  0.00     0.013 A 
ENDBRANCH  10  13
ENDBRANCH   9  10
BRANCH   8  19
ATOM     19  C   UNL d   1      10.777   1.150 -16.514  0.00  0.00     0.212 C 
ATOM     20  O   UNL d   1      11.838   1.594 -16.119  0.00  0.00    -0.285 OA
BRANCH  19  21
ATOM     21  C   UNL d   1      10.699   0.508 -17.873  0.00  0.00     0.041 A 
ATOM     22  C   UNL d   1       9.837  -0.595 -18.139  0.00  0.00     0.003 A 
ATOM     23  C   UNL d   1       9.814  -1.154 -19.444  0.00  0.00     0.000 A 
ATOM     24  C   UNL d   1      10.637  -0.662 -20.468  0.00  0.00     0.000 A 
ATOM     25  C   UNL d   1      11.500   0.426 -20.207  0.00  0.00     0.000 A 
ATOM     26  C   UNL d   1      11.524   1.007 -18.910  0.00  0.00     0.003 A 
ENDBRANCH  19  21
ENDBRANCH   8  19
BRANCH   1  27
ATOM     27  C   UNL d   1       6.020  -0.965 -14.324  0.00  0.00     0.062 C 
BRANCH  27  28
ATOM     28  C   UNL d   1       5.610  -1.360 -15.761  0.00  0.00     0.255 C 
BRANCH  28  29
ATOM     29  N   UNL d   1       4.318  -0.831 -16.185  0.00  0.00     0.142 N 
ATOM     30  C   UNL d   1       3.213  -1.209 -15.314  0.00  0.00     0.285 C 
ATOM     31  C   UNL d   1       4.019  -1.322 -17.525  0.00  0.00     0.285 C 
ENDBRANCH  28  29
ENDBRANCH  27  28
ENDBRANCH   1  27
TORSDOF 7
