REMARK  4 active torsions:
REMARK  status: ('A' for Active; 'I' for Inactive)
REMARK       I    between atoms: C_2  and  N_3 
REMARK    1  A    between atoms: C_2  and  C_26 
REMARK    2  A    between atoms: N_3  and  C_4 
REMARK    3  A    between atoms: C_10  and  S_11 
REMARK    4  A    between atoms: S_11  and  C_14 
ROOT
ATOM      1  C   UNL d   1       8.718   2.026 -15.085  0.00  0.00     0.085 A 
ATOM      2  C   UNL d   1       7.509   1.291 -15.012  0.00  0.00     0.021 A 
ATOM      3  C   UNL d   1       6.421   1.795 -14.283  0.00  0.00     0.022 A 
ATOM      4  C   UNL d   1       6.544   3.035 -13.642  0.00  0.00     0.105 A 
ATOM      5  N   UNL d   1       5.691   3.773 -12.840  0.00  0.00    -0.147 NA
ATOM      6  N   UNL d   1       6.210   4.952 -12.424  0.00  0.00    -0.136 NA
ATOM      7  C   UNL d   1       7.442   4.955 -12.880  0.00  0.00     0.192 A 
ATOM      8  C   UNL d   1       7.747   3.797 -13.671  0.00  0.00     0.051 A 
ATOM      9  C   UNL d   1       8.833   3.260 -14.408  0.00  0.00     0.023 A 
ENDROOT
BRANCH   7  10
ATOM     10  S   UNL d   1       8.603   6.228 -12.470  0.00  0.00     0.228 S 
ATOM     11  O   UNL d   1       9.841   5.932 -13.212  0.00  0.00    -0.216 OA
ATOM     12  O   UNL d   1       7.886   7.492 -12.684  0.00  0.00    -0.216 OA
BRANCH  10  13
ATOM     13  C   UNL d   1       8.968   6.059 -10.721  0.00  0.00     0.089 A 
ATOM     14  C   UNL d   1       9.725   7.032 -10.004  0.00  0.00     0.011 A 
ATOM     15  C   UNL d   1       9.943   6.836  -8.617  0.00  0.00     0.001 A 
ATOM     16  C   UNL d   1      10.259   8.198 -10.598  0.00  0.00     0.001 A 
ATOM     17  C   UNL d   1       9.410   5.715  -7.973  0.00  0.00     0.000 A 
ATOM     18  C   UNL d   1      10.688   7.748  -7.851  0.00  0.00     0.000 A 
ATOM     19  C   UNL d   1       8.690   4.753  -8.689  0.00  0.00     0.001 A 
ATOM     20  C   UNL d   1       8.478   4.916 -10.059  0.00  0.00     0.011 A 
ATOM     21  C   UNL d   1      11.241   8.882  -8.458  0.00  0.00     0.000 A 
ATOM     22  C   UNL d   1      11.033   9.102  -9.832  0.00  0.00     0.000 A 
ENDBRANCH  10  13
ENDBRANCH   7  10
BRANCH   1  23
ATOM     23  N   UNL d   1       9.861   1.557 -15.783  0.00  0.00    -0.212 NA
ATOM     24  C   UNL d   1       9.890   0.786 -16.886  0.00  0.00     0.255 C 
ATOM     25  O   UNL d   1       8.900   0.257 -17.390  0.00  0.00    -0.270 OA
BRANCH  24  26
ATOM     26  C   UNL d   1      11.276   0.584 -17.516  0.00  0.00     0.085 C 
ATOM     27  C   UNL d   1      11.317  -0.640 -18.455  0.00  0.00     0.048 C 
ATOM     28  C   UNL d   1      12.675  -0.758 -19.160  0.00  0.00     0.291 C 
ATOM     29  N   UNL d   1      12.962   0.454 -19.915  0.00  0.00     0.339 N 
ATOM     30  C   UNL d   1      13.054   1.603 -19.021  0.00  0.00     0.291 C 
ATOM     31  C   UNL d   1      11.712   1.834 -18.306  0.00  0.00     0.048 C 
ENDBRANCH  24  26
ENDBRANCH   1  23
TORSDOF 4
