REMARK  7 active torsions:
REMARK  status: ('A' for Active; 'I' for Inactive)
REMARK       I    between atoms: N_2  and  C_4 
REMARK       I    between atoms: C_4  and  N_6 
REMARK    1  A    between atoms: N_6  and  C_7 
REMARK    2  A    between atoms: C_10  and  C_11 
REMARK    3  A    between atoms: C_11  and  C_12 
REMARK    4  A    between atoms: C_12  and  N_13 
REMARK    5  A    between atoms: N_13  and  C_14 
REMARK    6  A    between atoms: C_14  and  C_15 
REMARK    7  A    between atoms: C_17  and  C_18 
ROOT
ATOM      1  C   UNL d   1       9.159   5.045 -11.393  0.00  0.00     0.290 C 
ENDROOT
BRANCH   1   2
ATOM      2  C   UNL d   1       9.520   6.459 -10.917  0.00  0.00     0.038 C 
BRANCH   2   3
ATOM      3  C   UNL d   1      10.076   6.475  -9.478  0.00  0.00     0.002 C 
ATOM      4  C   UNL d   1      11.046   7.652  -9.257  0.00  0.00     0.002 C 
ATOM      5  C   UNL d   1      11.590   7.684  -7.821  0.00  0.00     0.025 C 
ATOM      6  C   UNL d   1      10.449   7.718  -6.792  0.00  0.00     0.108 C 
ATOM      7  C   UNL d   1       9.493   6.532  -7.006  0.00  0.00     0.025 C 
ATOM      8  C   UNL d   1       8.949   6.503  -8.431  0.00  0.00     0.002 C 
BRANCH   6   9
ATOM      9  N   UNL d   1      10.994   7.652  -5.445  0.00  0.00    -0.221 NA
ATOM     10  C   UNL d   1      11.453   8.700  -4.745  0.00  0.00     0.342 C 
ATOM     11  N   UNL d   1      11.860   8.379  -3.492  0.00  0.00    -0.297 N 
ATOM     12  O   UNL d   1      11.477   9.841  -5.196  0.00  0.00    -0.245 OA
ATOM     13  C   UNL d   1      11.910   7.016  -2.944  0.00  0.00     0.130 C 
ATOM     14  C   UNL d   1      12.370   9.425  -2.610  0.00  0.00     0.130 C 
ENDBRANCH   6   9
ENDBRANCH   2   3
ENDBRANCH   1   2
BRANCH   1  15
ATOM     15  N   UNL d   1       9.098   5.007 -12.848  0.00  0.00     0.339 N 
BRANCH  15  16
ATOM     16  C   UNL d   1       9.537   3.717 -13.366  0.00  0.00     0.290 C 
BRANCH  16  17
ATOM     17  C   UNL d   1       8.601   3.263 -14.457  0.00  0.00     0.041 A 
ATOM     18  C   UNL d   1       8.143   1.819 -14.509  0.00  0.00     0.025 A 
ATOM     19  C   UNL d   1       7.169   2.911 -14.113  0.00  0.00     0.007 A 
BRANCH  18  20
ATOM     20  C   UNL d   1       8.009   1.090 -15.805  0.00  0.00    -0.011 A 
ATOM     21  C   UNL d   1       9.137   0.654 -16.537  0.00  0.00     0.064 A 
ATOM     22  C   UNL d   1       8.965  -0.010 -17.775  0.00  0.00     0.068 A 
ATOM     23 CL   UNL d   1      10.725   0.936 -15.915  0.00  0.00    -0.082 Cl
ATOM     24  C   UNL d   1       7.670  -0.227 -18.283  0.00  0.00     0.012 A 
ATOM     25 CL   UNL d   1      10.329  -0.545 -18.694  0.00  0.00    -0.082 Cl
ATOM     26  C   UNL d   1       6.543   0.194 -17.549  0.00  0.00     0.001 A 
ATOM     27  C   UNL d   1       6.715   0.833 -16.313  0.00  0.00    -0.003 A 
ENDBRANCH  18  20
ENDBRANCH  16  17
ENDBRANCH  15  16
ENDBRANCH   1  15
TORSDOF 7
