REMARK  8 active torsions:
REMARK  status: ('A' for Active; 'I' for Inactive)
REMARK    1  A    between atoms: O_2  and  C_3 
REMARK    2  A    between atoms: C_8  and  N_9 
REMARK    3  A    between atoms: N_12  and  C_13 
REMARK    4  A    between atoms: C_13  and  C_14 
REMARK    5  A    between atoms: C_14  and  C_15 
REMARK    6  A    between atoms: C_15  and  N_16 
REMARK       I    between atoms: N_16  and  C_17 
REMARK    7  A    between atoms: C_17  and  O_19 
REMARK    8  A    between atoms: O_19  and  C_20 
ROOT
ATOM      1  N   UNL d   1       7.962   3.736 -13.199  0.00  0.00    -0.343 N 
ATOM      2  C   UNL d   1       6.914   4.477 -12.496  0.00  0.00     0.137 C 
ATOM      3  C   UNL d   1       7.397   5.936 -12.267  0.00  0.00     0.274 C 
ATOM      4  N   UNL d   1       8.708   5.950 -11.591  0.00  0.00     0.141 N 
ATOM      5  C   UNL d   1       9.669   5.243 -12.448  0.00  0.00     0.274 C 
ATOM      6  C   UNL d   1       9.273   3.766 -12.589  0.00  0.00     0.137 C 
ENDROOT
BRANCH   4   7
ATOM      7  C   UNL d   1       9.191   7.317 -11.423  0.00  0.00     0.253 C 
BRANCH   7   8
ATOM      8  C   UNL d   1      10.133   7.431 -10.204  0.00  0.00     0.062 C 
BRANCH   8   9
ATOM      9  C   UNL d   1      10.562   8.883  -9.934  0.00  0.00     0.133 C 
BRANCH   9  10
ATOM     10  N   UNL d   1      11.440   8.978  -8.768  0.00  0.00    -0.212 NA
ATOM     11  C   UNL d   1      10.908   9.110  -7.491  0.00  0.00     0.383 C 
ATOM     12  O   UNL d   1       9.709   9.082  -7.205  0.00  0.00    -0.236 OA
BRANCH  11  13
ATOM     13  O   UNL d   1      11.913   9.300  -6.587  0.00  0.00    -0.289 OA
BRANCH  13  14
ATOM     14  C   UNL d   1      11.694   9.251  -5.159  0.00  0.00     0.103 C 
ATOM     15  C   UNL d   1      10.805  10.389  -4.654  0.00  0.00     0.030 C 
ATOM     16  C   UNL d   1      13.072   9.498  -4.501  0.00  0.00     0.030 C 
ATOM     17  C   UNL d   1      11.197   7.854  -4.725  0.00  0.00     0.030 C 
ENDBRANCH  13  14
ENDBRANCH  11  13
ENDBRANCH   9  10
ENDBRANCH   8   9
ENDBRANCH   7   8
ENDBRANCH   4   7
BRANCH   1  18
ATOM     18  C   UNL d   1       7.749   2.895 -14.318  0.00  0.00     0.079 A 
ATOM     19  C   UNL d   1       8.659   2.949 -15.407  0.00  0.00     0.110 A 
ATOM     20  C   UNL d   1       8.399   2.152 -16.544  0.00  0.00     0.026 A 
ATOM     21  C   UNL d   1       7.268   1.316 -16.595  0.00  0.00     0.002 A 
ATOM     22  C   UNL d   1       6.398   1.238 -15.491  0.00  0.00     0.002 A 
ATOM     23  C   UNL d   1       6.630   2.040 -14.361  0.00  0.00     0.019 A 
BRANCH  19  24
ATOM     24  O   UNL d   1       9.678   3.877 -15.337  0.00  0.00    -0.327 OA
ATOM     25  C   UNL d   1      10.591   3.979 -16.408  0.00  0.00     0.181 C 
ENDBRANCH  19  24
ENDBRANCH   1  18
TORSDOF 8
