REMARK  4 active torsions:
REMARK  status: ('A' for Active; 'I' for Inactive)
REMARK    1  A    between atoms: O_2  and  C_3 
REMARK    2  A    between atoms: C_6  and  C_7 
REMARK    3  A    between atoms: N_10  and  C_11 
REMARK    4  A    between atoms: C_11  and  C_12 
ROOT
ATOM      1  C   UNL d   1       9.330   6.741  -9.037  0.00  0.00     0.026 C 
ATOM      2  C   UNL d   1       9.861   5.310  -9.027  0.00  0.00     0.040 C 
ATOM      3  C   UNL d   1       9.386   4.493 -10.241  0.00  0.00     0.251 C 
ATOM      4  N   UNL d   1       9.690   5.128 -11.512  0.00  0.00     0.141 N 
ATOM      5  C   UNL d   1       9.056   6.428 -11.590  0.00  0.00     0.251 C 
ATOM      6  C   UNL d   1       9.580   7.316 -10.457  0.00  0.00     0.040 C 
ENDROOT
BRANCH   4   7
ATOM      7  C   UNL d   1       9.311   4.257 -12.625  0.00  0.00     0.277 C 
BRANCH   7   8
ATOM      8  C   UNL d   1      10.146   4.493 -13.864  0.00  0.00     0.013 A 
ATOM      9  C   UNL d   1       9.518   4.783 -15.086  0.00  0.00     0.019 A 
ATOM     10  C   UNL d   1      10.291   4.942 -16.254  0.00  0.00     0.106 A 
ATOM     11  C   UNL d   1      11.700   4.825 -16.208  0.00  0.00     0.112 A 
ATOM     12  N   UNL d   1       9.681   5.266 -17.480  0.00  0.00    -0.208 NA
ATOM     13  C   UNL d   1      12.330   4.546 -14.986  0.00  0.00     0.025 A 
ATOM     14  O   UNL d   1      12.460   5.015 -17.340  0.00  0.00    -0.319 OA
ATOM     15  C   UNL d   1      11.549   4.374 -13.823  0.00  0.00    -0.000 A 
ATOM     16  C   UNL d   1      11.816   4.792 -18.602  0.00  0.00     0.238 C 
ATOM     17  C   UNL d   1      10.355   5.286 -18.639  0.00  0.00     0.286 C 
ATOM     18  O   UNL d   1       9.837   5.654 -19.686  0.00  0.00    -0.267 OA
ENDBRANCH   7   8
ENDBRANCH   4   7
BRANCH   1  19
ATOM     19  C   UNL d   1       9.972   7.569  -7.901  0.00  0.00    -0.022 A 
ATOM     20  C   UNL d   1      10.508   8.845  -8.150  0.00  0.00    -0.002 A 
ATOM     21  C   UNL d   1      11.084   9.584  -7.101  0.00  0.00     0.024 A 
ATOM     22  C   UNL d   1      11.172   9.060  -5.813  0.00  0.00     0.094 A 
ATOM     23  C   UNL d   1      10.674   7.766  -5.562  0.00  0.00     0.024 A 
ATOM     24  C   UNL d   1      10.050   7.041  -6.591  0.00  0.00    -0.002 A 
BRANCH  22  25
ATOM     25  O   UNL d   1      11.757   9.872  -4.873  0.00  0.00    -0.328 OA
ATOM     26  C   UNL d   1      11.819   9.399  -3.545  0.00  0.00     0.181 C 
ENDBRANCH  22  25
ENDBRANCH   1  19
TORSDOF 4
