REMARK  6 active torsions:
REMARK  status: ('A' for Active; 'I' for Inactive)
REMARK    1  A    between atoms: C_2  and  N_3 
REMARK    2  A    between atoms: N_3  and  C_4 
REMARK    3  A    between atoms: C_7  and  C_8 
REMARK    4  A    between atoms: C_8  and  C_9 
REMARK    5  A    between atoms: C_9  and  N_10 
REMARK    6  A    between atoms: C_13  and  C_14 
ROOT
ATOM      1  N   UNL d   1       9.343   6.180 -11.452  0.00  0.00     0.137 N 
ATOM      2  C   UNL d   1       8.077   6.285 -12.178  0.00  0.00     0.251 C 
ATOM      3  C   UNL d   1       8.108   5.295 -13.359  0.00  0.00     0.040 C 
ATOM      4  C   UNL d   1       8.352   3.866 -12.927  0.00  0.00     0.026 C 
ATOM      5  C   UNL d   1       9.592   3.839 -12.033  0.00  0.00     0.040 C 
ATOM      6  C   UNL d   1       9.378   4.831 -10.861  0.00  0.00     0.251 C 
ENDROOT
BRANCH   1   7
ATOM      7  C   UNL d   1       9.360   7.183 -10.402  0.00  0.00     0.250 C 
BRANCH   7   8
ATOM      8  C   UNL d   1      10.744   7.425  -9.786  0.00  0.00     0.035 C 
BRANCH   8   9
ATOM      9  C   UNL d   1      10.679   8.136  -8.421  0.00  0.00     0.002 C 
ATOM     10  C   UNL d   1      10.016   7.254  -7.344  0.00  0.00     0.002 C 
ATOM     11  C   UNL d   1      10.031   7.935  -5.963  0.00  0.00     0.024 C 
ATOM     12  C   UNL d   1      11.447   8.305  -5.536  0.00  0.00     0.107 C 
ATOM     13  C   UNL d   1      12.102   9.189  -6.596  0.00  0.00     0.024 C 
ATOM     14  C   UNL d   1      12.101   8.511  -7.986  0.00  0.00     0.002 C 
BRANCH  12  15
ATOM     15  N   UNL d   1      11.439   8.990  -4.259  0.00  0.00    -0.232 NA
BRANCH  15  16
ATOM     16  C   UNL d   1      12.207   8.672  -3.203  0.00  0.00     0.333 C 
ATOM     17  O   UNL d   1      12.998   7.725  -3.148  0.00  0.00    -0.260 OA
ENDBRANCH  15  16
ENDBRANCH  12  15
ENDBRANCH   8   9
ENDBRANCH   7   8
ENDBRANCH   1   7
BRANCH   4  18
ATOM     18  C   UNL d   1       8.471   2.947 -14.148  0.00  0.00    -0.024 A 
ATOM     19  C   UNL d   1       7.538   1.929 -14.485  0.00  0.00    -0.001 A 
ATOM     20  C   UNL d   1       7.718   1.087 -15.558  0.00  0.00     0.090 A 
ATOM     21  C   UNL d   1       6.269   1.515 -13.790  0.00  0.00     0.061 C 
ATOM     22  C   UNL d   1       8.835   1.224 -16.412  0.00  0.00     0.024 A 
ATOM     23  O   UNL d   1       6.724   0.157 -15.692  0.00  0.00    -0.331 OA
ATOM     24  C   UNL d   1       9.755   2.261 -16.143  0.00  0.00     0.002 A 
ATOM     25  C   UNL d   1       9.580   3.112 -15.037  0.00  0.00    -0.004 A 
ATOM     26  C   UNL d   1       5.714   0.421 -14.711  0.00  0.00     0.154 C 
ENDBRANCH   4  18
TORSDOF 6
