REMARK  6 active torsions:
REMARK  status: ('A' for Active; 'I' for Inactive)
REMARK    1  A    between atoms: N_12  and  C_13 
REMARK    2  A    between atoms: C_13  and  C_14 
REMARK    3  A    between atoms: C_14  and  C_15 
REMARK    4  A    between atoms: C_15  and  C_16 
REMARK    5  A    between atoms: C_16  and  N_17 
REMARK    6  A    between atoms: N_20  and  C_21 
ROOT
ATOM      1  C   UNL d   1       7.144   3.451 -13.876  0.00  0.00     0.037 C 
ENDROOT
BRANCH   1   2
ATOM      2  C   UNL d   1       8.330   2.691 -14.503  0.00  0.00     0.028 C 
BRANCH   2   3
ATOM      3  C   UNL d   1       8.131   1.165 -14.534  0.00  0.00     0.122 C 
BRANCH   3   4
ATOM      4  N   UNL d   1       7.161   0.773 -15.554  0.00  0.00    -0.221 N 
ATOM      5  C   UNL d   1       6.019   0.014 -15.276  0.00  0.00     0.271 A 
ATOM      6  O   UNL d   1       5.556  -0.223 -14.157  0.00  0.00    -0.266 OA
ATOM      7  C   UNL d   1       5.429  -0.467 -16.564  0.00  0.00     0.069 A 
ATOM      8  C   UNL d   1       6.167  -0.092 -17.696  0.00  0.00     0.108 A 
ATOM      9  C   UNL d   1       4.267  -1.227 -16.704  0.00  0.00     0.005 A 
ATOM     10  C   UNL d   1       5.767  -0.425 -18.999  0.00  0.00     0.013 A 
ATOM     11  S   UNL d   1       7.583   0.837 -17.221  0.00  0.00     0.270 S 
ATOM     12  C   UNL d   1       4.587  -1.179 -19.147  0.00  0.00     0.001 A 
ATOM     13  C   UNL d   1       3.843  -1.582 -18.010  0.00  0.00     0.000 A 
ATOM     14  O   UNL d   1       8.803   0.042 -17.434  0.00  0.00    -0.200 OA
ATOM     15  O   UNL d   1       7.469   2.222 -17.696  0.00  0.00    -0.200 OA
ENDBRANCH   3   4
ENDBRANCH   2   3
ENDBRANCH   1   2
BRANCH   1  16
ATOM     16  C   UNL d   1       7.502   4.905 -13.529  0.00  0.00     0.251 C 
BRANCH  16  17
ATOM     17  N   UNL d   1       8.497   5.019 -12.460  0.00  0.00     0.141 N 
ATOM     18  C   UNL d   1       8.882   6.422 -12.347  0.00  0.00     0.274 C 
ATOM     19  C   UNL d   1       9.960   6.606 -11.302  0.00  0.00     0.137 C 
ATOM     20  N   UNL d   1       9.676   6.004 -10.039  0.00  0.00    -0.344 N 
ATOM     21  C   UNL d   1       9.062   4.676 -10.105  0.00  0.00     0.137 C 
ATOM     22  C   UNL d   1       7.948   4.626 -11.171  0.00  0.00     0.274 C 
BRANCH  20  23
ATOM     23  C   UNL d   1       9.826   6.734  -8.860  0.00  0.00     0.068 C 
ATOM     24  C   UNL d   1      10.924   7.610  -8.559  0.00  0.00     0.084 C 
ATOM     25  C   UNL d   1      10.938   8.287  -7.314  0.00  0.00     0.070 C 
ATOM     26 CL   UNL d   1      12.263   7.974  -9.633  0.00  0.00    -0.080 Cl
ATOM     27  C   UNL d   1       9.841   8.199  -6.457  0.00  0.00     0.012 C 
ATOM     28 CL   UNL d   1      12.246   9.293  -6.803  0.00  0.00    -0.081 Cl
ATOM     29  C   UNL d   1       8.743   7.427  -6.805  0.00  0.00     0.002 C 
ATOM     30  C   UNL d   1       8.771   6.615  -7.954  0.00  0.00     0.018 C 
ENDBRANCH  20  23
ENDBRANCH  16  17
ENDBRANCH   1  16
TORSDOF 6
