REMARK  9 active torsions:
REMARK  status: ('A' for Active; 'I' for Inactive)
REMARK    1  A    between atoms: O_2  and  C_3 
REMARK    2  A    between atoms: C_9  and  N_10 
REMARK    3  A    between atoms: N_13  and  C_14 
REMARK    4  A    between atoms: C_14  and  C_15 
REMARK    5  A    between atoms: C_15  and  C_16 
REMARK    6  A    between atoms: C_16  and  C_17 
REMARK    7  A    between atoms: C_17  and  N_18 
REMARK       I    between atoms: N_18  and  C_19 
REMARK    8  A    between atoms: C_19  and  C_21 
REMARK    9  A    between atoms: C_25  and  C_26 
ROOT
ATOM      1  C   UNL d   1       9.587   2.892 -13.803  0.00  0.00     0.251 C 
ENDROOT
BRANCH   1   2
ATOM      2  N   UNL d   1       9.022   1.838 -14.652  0.00  0.00     0.141 N 
ATOM      3  C   UNL d   1      10.111   1.050 -15.239  0.00  0.00     0.274 C 
ATOM      4  C   UNL d   1       9.519  -0.104 -16.079  0.00  0.00     0.138 C 
ATOM      5  N   UNL d   1       8.659   0.466 -17.098  0.00  0.00    -0.328 N 
ATOM      6  C   UNL d   1       7.593   1.313 -16.614  0.00  0.00     0.138 C 
ATOM      7  C   UNL d   1       8.194   2.410 -15.718  0.00  0.00     0.274 C 
BRANCH   5   8
ATOM      8  C   UNL d   1       8.826   0.217 -18.486  0.00  0.00     0.169 A 
ATOM      9  N   UNL d   1       7.803   0.209 -19.317  0.00  0.00    -0.109 NA
ATOM     10  O   UNL d   1       8.339  -0.111 -20.600  0.00  0.00    -0.210 OA
ATOM     11  C   UNL d   1       9.711  -0.251 -20.517  0.00  0.00     0.128 A 
ATOM     12  C   UNL d   1      10.671  -0.527 -21.505  0.00  0.00     0.029 A 
ATOM     13  C   UNL d   1      10.039  -0.024 -19.169  0.00  0.00     0.063 A 
ATOM     14  C   UNL d   1      12.023  -0.586 -21.107  0.00  0.00     0.026 A 
ATOM     15  C   UNL d   1      12.399  -0.353 -19.756  0.00  0.00     0.094 A 
ATOM     16  C   UNL d   1      11.410  -0.039 -18.787  0.00  0.00     0.029 A 
BRANCH  15  17
ATOM     17  O   UNL d   1      13.699  -0.409 -19.313  0.00  0.00    -0.328 OA
ATOM     18  C   UNL d   1      14.696  -0.776 -20.234  0.00  0.00     0.181 C 
ENDBRANCH  15  17
ENDBRANCH   5   8
ENDBRANCH   1   2
BRANCH   1  19
ATOM     19  C   UNL d   1       8.507   3.808 -13.191  0.00  0.00     0.037 C 
BRANCH  19  20
ATOM     20  C   UNL d   1       9.041   4.681 -12.056  0.00  0.00     0.029 C 
BRANCH  20  21
ATOM     21  C   UNL d   1       7.945   5.054 -11.035  0.00  0.00     0.129 C 
BRANCH  21  22
ATOM     22  N   UNL d   1       8.461   5.987 -10.055  0.00  0.00    -0.234 NA
ATOM     23  C   UNL d   1       9.421   5.735  -9.164  0.00  0.00     0.275 C 
ATOM     24  O   UNL d   1       9.805   4.594  -8.877  0.00  0.00    -0.266 OA
BRANCH  23  25
ATOM     25  C   UNL d   1      10.058   6.932  -8.527  0.00  0.00     0.058 A 
ATOM     26  C   UNL d   1      10.436   6.917  -7.168  0.00  0.00     0.008 A 
ATOM     27  C   UNL d   1      11.070   8.034  -6.573  0.00  0.00     0.036 A 
ATOM     28  C   UNL d   1      11.352   9.166  -7.374  0.00  0.00     0.003 A 
ATOM     29  C   UNL d   1      11.012   9.171  -8.741  0.00  0.00     0.000 A 
ATOM     30  C   UNL d   1      10.365   8.073  -9.314  0.00  0.00     0.005 A 
BRANCH  27  31
ATOM     31  C   UNL d   1      11.453   8.020  -5.141  0.00  0.00     0.162 A 
ATOM     32  N   UNL d   1      11.711   9.197  -4.550  0.00  0.00    -0.225 NA
ATOM     33  C   UNL d   1      12.061   9.184  -3.247  0.00  0.00     0.102 A 
ATOM     34  C   UNL d   1      12.155   7.988  -2.520  0.00  0.00     0.041 A 
ATOM     35  C   UNL d   1      11.865   6.811  -3.225  0.00  0.00     0.102 A 
ATOM     36  N   UNL d   1      11.514   6.835  -4.528  0.00  0.00    -0.225 NA
ENDBRANCH  27  31
ENDBRANCH  23  25
ENDBRANCH  21  22
ENDBRANCH  20  21
ENDBRANCH  19  20
ENDBRANCH   1  19
TORSDOF 9
