REMARK  6 active torsions:
REMARK  status: ('A' for Active; 'I' for Inactive)
REMARK    1  A    between atoms: C_5  and  N_6 
REMARK    2  A    between atoms: N_9  and  C_10 
REMARK    3  A    between atoms: C_10  and  C_11 
REMARK    4  A    between atoms: C_11  and  C_12 
REMARK    5  A    between atoms: N_16  and  S_17 
REMARK    6  A    between atoms: S_17  and  C_20 
ROOT
ATOM      1  C   UNL d   1       7.576   3.894 -14.036  0.00  0.00     0.075 C 
ATOM      2  C   UNL d   1       6.066   3.559 -14.228  0.00  0.00     0.019 C 
ATOM      3  C   UNL d   1       5.343   4.162 -13.067  0.00  0.00     0.020 C 
ATOM      4  C   UNL d   1       6.392   4.141 -11.993  0.00  0.00     0.088 C 
ATOM      5  N   UNL d   1       7.697   4.327 -12.650  0.00  0.00    -0.178 NA
ENDROOT
BRANCH   1   6
ATOM      6  C   UNL d   1       8.478   2.672 -14.295  0.00  0.00     0.052 C 
BRANCH   6   7
ATOM      7  C   UNL d   1       9.748   2.994 -15.096  0.00  0.00     0.252 C 
BRANCH   7   8
ATOM      8  N   UNL d   1      10.269   1.817 -15.795  0.00  0.00     0.141 N 
ATOM      9  C   UNL d   1       9.269   1.185 -16.678  0.00  0.00     0.274 C 
ATOM     10  C   UNL d   1       9.860  -0.024 -17.407  0.00  0.00     0.137 C 
ATOM     11  N   UNL d   1      11.033   0.378 -18.162  0.00  0.00    -0.343 N 
ATOM     12  C   UNL d   1      12.029   1.108 -17.393  0.00  0.00     0.137 C 
ATOM     13  C   UNL d   1      11.395   2.271 -16.622  0.00  0.00     0.274 C 
BRANCH  11  14
ATOM     14  C   UNL d   1      11.186   0.075 -19.535  0.00  0.00     0.076 A 
ATOM     15  C   UNL d   1      12.450  -0.152 -20.123  0.00  0.00     0.125 A 
ATOM     16  N   UNL d   1      13.719  -0.183 -19.567  0.00  0.00    -0.182 NA
ATOM     17  C   UNL d   1      12.628  -0.418 -21.465  0.00  0.00     0.124 A 
ATOM     18  C   UNL d   1      14.661  -0.409 -20.549  0.00  0.00     0.392 A 
ATOM     19  O   UNL d   1      15.884  -0.413 -20.419  0.00  0.00    -0.236 OA
ATOM     20  O   UNL d   1      13.966  -0.575 -21.721  0.00  0.00    -0.256 OA
ATOM     21  C   UNL d   1      11.526  -0.500 -22.332  0.00  0.00     0.026 A 
ATOM     22  C   UNL d   1      10.238  -0.303 -21.784  0.00  0.00     0.004 A 
ATOM     23  C   UNL d   1      10.069  -0.017 -20.404  0.00  0.00     0.019 A 
ENDBRANCH  11  14
ENDBRANCH   7   8
ENDBRANCH   6   7
ENDBRANCH   1   6
BRANCH   5  24
ATOM     24  S   UNL d   1       8.565   5.797 -12.367  0.00  0.00     0.248 S 
ATOM     25  O   UNL d   1       9.842   5.660 -13.099  0.00  0.00    -0.206 OA
ATOM     26  O   UNL d   1       7.643   6.888 -12.684  0.00  0.00    -0.206 OA
BRANCH  24  27
ATOM     27  C   UNL d   1       8.958   5.820 -10.610  0.00  0.00     0.117 A 
ATOM     28  C   UNL d   1       9.702   6.868 -10.012  0.00  0.00     0.015 A 
ATOM     29  C   UNL d   1       9.956   6.815  -8.613  0.00  0.00     0.020 A 
ATOM     30  C   UNL d   1      10.247   7.953 -10.724  0.00  0.00     0.001 A 
ATOM     31  C   UNL d   1       9.411   5.754  -7.895  0.00  0.00     0.099 A 
ATOM     32  C   UNL d   1      10.731   7.776  -7.944  0.00  0.00     0.002 A 
ATOM     33  N   UNL d   1       8.724   4.749  -8.434  0.00  0.00    -0.242 NA
ATOM     34  C   UNL d   1       8.523   4.797  -9.764  0.00  0.00     0.111 A 
ATOM     35  C   UNL d   1      11.285   8.826  -8.680  0.00  0.00     0.000 A 
ATOM     36  C   UNL d   1      11.053   8.902 -10.061  0.00  0.00     0.000 A 
ENDBRANCH  24  27
ENDBRANCH   5  24
TORSDOF 6
