REMARK  7 active torsions:
REMARK  status: ('A' for Active; 'I' for Inactive)
REMARK    1  A    between atoms: C_2  and  C_3 
REMARK       I    between atoms: C_2  and  N_13 
REMARK    2  A    between atoms: C_3  and  C_4 
REMARK    3  A    between atoms: N_13  and  C_14 
REMARK    4  A    between atoms: C_17  and  C_18 
REMARK    5  A    between atoms: C_18  and  C_19 
REMARK    6  A    between atoms: C_19  and  N_20 
REMARK    7  A    between atoms: N_23  and  C_24 
ROOT
ATOM      1  C   UNL d   1       6.599   1.025 -15.509  0.00  0.00     0.106 C 
ATOM      2  C   UNL d   1       6.482   0.506 -14.069  0.00  0.00     0.024 C 
ATOM      3  C   UNL d   1       5.780   1.523 -13.144  0.00  0.00     0.002 C 
ATOM      4  C   UNL d   1       6.461   2.906 -13.149  0.00  0.00     0.002 C 
ATOM      5  C   UNL d   1       6.611   3.398 -14.542  0.00  0.00     0.002 C 
ATOM      6  C   UNL d   1       7.293   2.388 -15.503  0.00  0.00     0.024 C 
ENDROOT
BRANCH   4   7
ATOM      7  C   UNL d   1       5.736   3.924 -12.242  0.00  0.00     0.035 C 
BRANCH   7   8
ATOM      8  C   UNL d   1       6.372   5.338 -12.225  0.00  0.00     0.250 C 
BRANCH   8   9
ATOM      9  N   UNL d   1       7.780   5.322 -11.834  0.00  0.00     0.141 N 
ATOM     10  C   UNL d   1       7.861   5.118 -10.387  0.00  0.00     0.274 C 
ATOM     11  C   UNL d   1       9.292   5.101  -9.875  0.00  0.00     0.137 C 
ATOM     12  N   UNL d   1       9.889   6.367 -10.233  0.00  0.00    -0.343 N 
ATOM     13  C   UNL d   1       9.809   6.698 -11.644  0.00  0.00     0.137 C 
ATOM     14  C   UNL d   1       8.351   6.636 -12.135  0.00  0.00     0.274 C 
BRANCH  12  15
ATOM     15  C   UNL d   1      10.587   7.167  -9.315  0.00  0.00     0.081 A 
ATOM     16  C   UNL d   1      10.156   7.344  -7.989  0.00  0.00     0.135 A 
ATOM     17  C   UNL d   1      10.832   8.130  -7.094  0.00  0.00     0.121 A 
ATOM     18  O   UNL d   1       9.062   6.818  -7.401  0.00  0.00    -0.298 OA
ATOM     19  C   UNL d   1      12.034   8.781  -7.398  0.00  0.00     0.026 A 
ATOM     20  O   UNL d   1      10.185   8.155  -5.911  0.00  0.00    -0.299 OA
ATOM     21  C   UNL d   1      12.531   8.539  -8.689  0.00  0.00     0.004 A 
ATOM     22  C   UNL d   1      11.793   7.809  -9.632  0.00  0.00     0.019 A 
ATOM     23  C   UNL d   1       9.054   7.362  -6.123  0.00  0.00     0.304 A 
ENDBRANCH  12  15
ENDBRANCH   8   9
ENDBRANCH   7   8
ENDBRANCH   4   7
BRANCH   1  24
ATOM     24  N   UNL d   1       7.326   0.068 -16.348  0.00  0.00    -0.240 NA
ATOM     25  C   UNL d   1       7.423   0.125 -17.686  0.00  0.00     0.256 C 
ATOM     26  O   UNL d   1       6.957   1.042 -18.365  0.00  0.00    -0.270 OA
BRANCH  25  27
ATOM     27  C   UNL d   1       8.156  -1.025 -18.372  0.00  0.00     0.116 C 
BRANCH  27  28
ATOM     28  C   UNL d   1       9.538  -0.596 -18.825  0.00  0.00    -0.011 A 
ATOM     29  C   UNL d   1       9.697   0.005 -20.096  0.00  0.00     0.022 A 
ATOM     30  C   UNL d   1      10.992   0.366 -20.498  0.00  0.00     0.119 A 
ATOM     31  C   UNL d   1      12.087   0.152 -19.688  0.00  0.00     0.119 A 
ATOM     32  O   UNL d   1      11.393   0.946 -21.657  0.00  0.00    -0.300 OA
ATOM     33  C   UNL d   1      11.958  -0.434 -18.422  0.00  0.00     0.026 A 
ATOM     34  O   UNL d   1      13.210   0.590 -20.310  0.00  0.00    -0.300 OA
ATOM     35  C   UNL d   1      10.665  -0.807 -17.990  0.00  0.00    -0.002 A 
ATOM     36  C   UNL d   1      12.785   1.095 -21.549  0.00  0.00     0.304 A 
ENDBRANCH  27  28
ENDBRANCH  25  27
ENDBRANCH   1  24
TORSDOF 7
