REMARK  6 active torsions:
REMARK  status: ('A' for Active; 'I' for Inactive)
REMARK    1  A    between atoms: C_2  and  C_3 
REMARK    2  A    between atoms: C_5  and  N_6 
REMARK       I    between atoms: N_6  and  C_7 
REMARK    3  A    between atoms: C_11  and  C_12 
REMARK    4  A    between atoms: N_14  and  S_15 
REMARK    5  A    between atoms: S_15  and  C_18 
REMARK    6  A    between atoms: C_27  and  O_28 
ROOT
ATOM      1  C   UNL d   1       8.790   3.690 -14.660  0.00  0.00     0.039 A 
ATOM      2  C   UNL d   1       8.771   4.884 -13.983  0.00  0.00     0.093 A 
ATOM      3  N   UNL d   1       7.729   4.916 -13.097  0.00  0.00    -0.231 N 
ATOM      4  C   UNL d   1       7.022   3.740 -13.169  0.00  0.00     0.075 A 
ATOM      5  C   UNL d   1       5.912   3.275 -12.466  0.00  0.00     0.020 A 
ATOM      6  C   UNL d   1       5.447   1.988 -12.731  0.00  0.00     0.026 A 
ATOM      7  C   UNL d   1       6.041   1.155 -13.686  0.00  0.00     0.094 A 
ATOM      8  C   UNL d   1       7.159   1.644 -14.403  0.00  0.00     0.026 A 
ATOM      9  C   UNL d   1       7.674   2.934 -14.139  0.00  0.00     0.022 A 
ENDROOT
BRANCH   1  10
ATOM     10  C   UNL d   1       9.736   3.290 -15.727  0.00  0.00     0.115 A 
ATOM     11  C   UNL d   1      10.758   3.937 -16.403  0.00  0.00     0.096 A 
ATOM     12  N   UNL d   1      11.288   3.115 -17.368  0.00  0.00    -0.062 NA
ATOM     13  C   UNL d   1      10.625   1.986 -17.224  0.00  0.00     0.752 A 
ATOM     14  N   UNL d   1       9.667   2.023 -16.294  0.00  0.00    -0.058 NA
BRANCH  11  15
ATOM     15  C   UNL d   1      11.315   5.338 -16.228  0.00  0.00     0.048 C 
ATOM     16  C   UNL d   1      12.736   5.337 -15.627  0.00  0.00     0.007 C 
ENDBRANCH  11  15
BRANCH  13  17
ATOM     17  N   UNL d   1      10.882   0.802 -17.963  0.00  0.00    -0.023 NA
ATOM     18  C   UNL d   1      11.937   0.499 -18.741  0.00  0.00     0.273 C 
ATOM     19  C   UNL d   1      13.155   1.473 -18.944  0.00  0.00     0.101 C 
ATOM     20  O   UNL d   1      11.941  -0.599 -19.303  0.00  0.00    -0.270 OA
ENDBRANCH  13  17
ENDBRANCH   1  10
BRANCH   3  21
ATOM     21  S   UNL d   1       7.440   6.269 -12.104  0.00  0.00     0.271 S 
ATOM     22  O   UNL d   1       7.939   7.421 -12.848  0.00  0.00    -0.200 OA
ATOM     23  O   UNL d   1       6.016   6.157 -11.723  0.00  0.00    -0.200 OA
BRANCH  21  24
ATOM     24  C   UNL d   1       8.510   5.980 -10.703  0.00  0.00     0.104 A 
ATOM     25  C   UNL d   1       9.476   6.931 -10.336  0.00  0.00     0.013 A 
ATOM     26  C   UNL d   1      10.274   6.716  -9.193  0.00  0.00     0.001 A 
ATOM     27  C   UNL d   1      10.108   5.537  -8.451  0.00  0.00     0.000 A 
ATOM     28  C   UNL d   1       9.167   4.566  -8.843  0.00  0.00     0.001 A 
ATOM     29  C   UNL d   1       8.352   4.790  -9.971  0.00  0.00     0.013 A 
ENDBRANCH  21  24
ENDBRANCH   3  21
BRANCH   7  30
ATOM     30  O   UNL d   1       5.532  -0.112 -13.815  0.00  0.00    -0.328 OA
ATOM     31  C   UNL d   1       6.167  -0.986 -14.732  0.00  0.00     0.181 C 
ENDBRANCH   7  30
TORSDOF 6
