REMARK  8 active torsions:
REMARK  status: ('A' for Active; 'I' for Inactive)
REMARK    1  A    between atoms: S_2  and  N_5 
REMARK    2  A    between atoms: N_5  and  C_6 
REMARK    3  A    between atoms: C_8  and  O_9 
REMARK    4  A    between atoms: O_9  and  C_10 
REMARK    5  A    between atoms: C_10  and  C_11 
REMARK    6  A    between atoms: C_11  and  N_12 
REMARK    7  A    between atoms: C_15  and  O_16 
REMARK    8  A    between atoms: O_16  and  C_17 
ROOT
ATOM      1  N   UNL d   1       8.625   2.924 -14.924  0.00  0.00     0.140 N 
ATOM      2  C   UNL d   1       9.828   2.761 -14.106  0.00  0.00     0.253 C 
ATOM      3  C   UNL d   1      10.270   4.113 -13.513  0.00  0.00     0.066 C 
ATOM      4  C   UNL d   1       9.130   4.681 -12.670  0.00  0.00     0.125 C 
ATOM      5  C   UNL d   1       7.858   4.801 -13.510  0.00  0.00     0.066 C 
ATOM      6  C   UNL d   1       7.512   3.428 -14.106  0.00  0.00     0.253 C 
ENDROOT
BRANCH   1   7
ATOM      7  C   UNL d   1       8.298   1.612 -15.486  0.00  0.00     0.283 C 
BRANCH   7   8
ATOM      8  C   UNL d   1       7.287   1.781 -16.651  0.00  0.00     0.184 C 
BRANCH   8   9
ATOM      9  O   UNL d   1       7.024   0.603 -17.368  0.00  0.00    -0.329 OA
BRANCH   9  10
ATOM     10  C   UNL d   1       7.957   0.208 -18.289  0.00  0.00     0.096 A 
ATOM     11  C   UNL d   1       9.321   0.619 -18.294  0.00  0.00     0.046 A 
ATOM     12  C   UNL d   1      10.207   0.080 -19.252  0.00  0.00     0.123 A 
ATOM     13  C   UNL d   1       9.708  -0.787 -20.267  0.00  0.00     0.159 A 
ATOM     14  C   UNL d   1       8.339  -1.134 -20.284  0.00  0.00     0.033 A 
ATOM     15  F   UNL d   1      10.492  -1.217 -21.284  0.00  0.00    -0.203 F 
ATOM     16  C   UNL d   1       7.463  -0.664 -19.284  0.00  0.00     0.027 A 
BRANCH  12  17
ATOM     17  N   UNL d   1      11.547   0.497 -19.142  0.00  0.00    -0.160 NA
BRANCH  17  18
ATOM     18  S   UNL d   1      12.991  -0.006 -19.962  0.00  0.00     0.266 S 
ATOM     19  C   UNL d   1      14.134   1.381 -19.653  0.00  0.00     0.165 C 
ATOM     20  O   UNL d   1      12.703   0.003 -21.395  0.00  0.00    -0.203 OA
ATOM     21  O   UNL d   1      13.458  -1.211 -19.251  0.00  0.00    -0.203 OA
ENDBRANCH  17  18
ENDBRANCH  12  17
ENDBRANCH   9  10
ENDBRANCH   8   9
ENDBRANCH   7   8
ENDBRANCH   1   7
BRANCH   4  22
ATOM     22  O   UNL d   1       9.504   5.973 -12.183  0.00  0.00    -0.333 OA
BRANCH  22  23
ATOM     23  C   UNL d   1       9.555   6.216 -10.826  0.00  0.00     0.095 A 
ATOM     24  C   UNL d   1      10.211   7.393 -10.337  0.00  0.00     0.043 A 
ATOM     25  C   UNL d   1      10.327   7.631  -8.947  0.00  0.00     0.082 A 
ATOM     26  C   UNL d   1       9.809   6.672  -8.042  0.00  0.00    -0.004 A 
ATOM     27  N   UNL d   1      10.959   8.798  -8.442  0.00  0.00    -0.212 NA
ATOM     28  C   UNL d   1       9.160   5.525  -8.529  0.00  0.00    -0.001 A 
ATOM     29  C   UNL d   1       9.953   6.895  -6.552  0.00  0.00     0.038 C 
ATOM     30  C   UNL d   1       9.003   5.297  -9.901  0.00  0.00     0.024 A 
ATOM     31  C   UNL d   1       9.963   8.393  -6.214  0.00  0.00     0.095 C 
ATOM     32  C   UNL d   1      10.873   9.188  -7.156  0.00  0.00     0.256 C 
ATOM     33  O   UNL d   1      11.469  10.166  -6.720  0.00  0.00    -0.270 OA
ENDBRANCH  22  23
ENDBRANCH   4  22
TORSDOF 8
