REMARK  4 active torsions:
REMARK  status: ('A' for Active; 'I' for Inactive)
REMARK    1  A    between atoms: O_2  and  C_3 
REMARK    2  A    between atoms: C_8  and  N_9 
REMARK    3  A    between atoms: N_12  and  C_13 
REMARK    4  A    between atoms: C_13  and  C_14 
ROOT
ATOM      1  N   UNL d   1       7.281   0.724 -17.098  0.00  0.00    -0.343 N 
ATOM      2  C   UNL d   1       8.328   0.223 -17.984  0.00  0.00     0.137 C 
ATOM      3  C   UNL d   1       9.712   0.289 -17.291  0.00  0.00     0.275 C 
ATOM      4  N   UNL d   1       9.982   1.656 -16.829  0.00  0.00     0.147 N 
ATOM      5  C   UNL d   1       8.946   2.047 -15.862  0.00  0.00     0.275 C 
ATOM      6  C   UNL d   1       7.549   2.012 -16.489  0.00  0.00     0.137 C 
ENDROOT
BRANCH   4   7
ATOM      7  C   UNL d   1      11.301   1.723 -16.196  0.00  0.00     0.295 C 
BRANCH   7   8
ATOM      8  C   UNL d   1      11.733   3.118 -15.831  0.00  0.00     0.091 A 
ATOM      9  N   UNL d   1      12.631   3.858 -16.595  0.00  0.00    -0.275 N 
ATOM     10  C   UNL d   1      12.785   5.102 -15.940  0.00  0.00     0.150 A 
ATOM     11  C   UNL d   1      13.317   3.590 -17.751  0.00  0.00     0.183 A 
ATOM     12  N   UNL d   1      12.042   5.141 -14.833  0.00  0.00    -0.231 NA
ATOM     13  C   UNL d   1      13.670   6.036 -16.538  0.00  0.00     0.052 A 
ATOM     14  C   UNL d   1      11.405   3.913 -14.757  0.00  0.00     0.075 A 
ATOM     15  C   UNL d   1      10.495   3.619 -13.598  0.00  0.00     0.053 C 
ATOM     16  C   UNL d   1      14.308   5.660 -17.693  0.00  0.00     0.064 A 
ATOM     17  C   UNL d   1      15.259   6.614 -18.385  0.00  0.00     0.052 C 
ATOM     18  N   UNL d   1      14.135   4.439 -18.300  0.00  0.00    -0.230 NA
ENDBRANCH   7   8
ENDBRANCH   4   7
BRANCH   1  19
ATOM     19  C   UNL d   1       6.158  -0.025 -16.738  0.00  0.00     0.079 A 
ATOM     20  C   UNL d   1       5.363  -0.672 -17.720  0.00  0.00     0.110 A 
ATOM     21  C   UNL d   1       4.213  -1.390 -17.300  0.00  0.00     0.026 A 
ATOM     22  C   UNL d   1       3.865  -1.456 -15.941  0.00  0.00     0.002 A 
ATOM     23  C   UNL d   1       4.647  -0.812 -14.976  0.00  0.00     0.002 A 
ATOM     24  C   UNL d   1       5.792  -0.099 -15.374  0.00  0.00     0.019 A 
BRANCH  20  25
ATOM     25  O   UNL d   1       5.726  -0.545 -19.047  0.00  0.00    -0.327 OA
ATOM     26  C   UNL d   1       4.888  -1.115 -20.041  0.00  0.00     0.181 C 
ENDBRANCH  20  25
ENDBRANCH   1  19
TORSDOF 4
