REMARK  8 active torsions:
REMARK  status: ('A' for Active; 'I' for Inactive)
REMARK    1  A    between atoms: O_2  and  C_3 
REMARK    2  A    between atoms: C_8  and  N_9 
REMARK    3  A    between atoms: N_12  and  C_13 
REMARK    4  A    between atoms: C_13  and  C_14 
REMARK    5  A    between atoms: C_14  and  C_15 
REMARK    6  A    between atoms: C_15  and  C_16 
REMARK    7  A    between atoms: C_16  and  N_17 
REMARK       I    between atoms: N_17  and  C_18 
REMARK    8  A    between atoms: C_18  and  C_20 
ROOT
ATOM      1  N   UNL d   1       8.428   2.041 -16.821  0.00  0.00    -0.343 N 
ATOM      2  C   UNL d   1       9.268   3.238 -16.791  0.00  0.00     0.137 C 
ATOM      3  C   UNL d   1       9.823   3.454 -15.362  0.00  0.00     0.274 C 
ATOM      4  N   UNL d   1       8.725   3.544 -14.392  0.00  0.00     0.141 N 
ATOM      5  C   UNL d   1       7.971   2.284 -14.412  0.00  0.00     0.274 C 
ATOM      6  C   UNL d   1       7.379   2.007 -15.814  0.00  0.00     0.137 C 
ENDROOT
BRANCH   4   7
ATOM      7  C   UNL d   1       9.258   3.792 -13.052  0.00  0.00     0.251 C 
BRANCH   7   8
ATOM      8  C   UNL d   1       9.178   5.288 -12.688  0.00  0.00     0.037 C 
BRANCH   8   9
ATOM      9  C   UNL d   1       9.285   5.525 -11.170  0.00  0.00     0.029 C 
BRANCH   9  10
ATOM     10  C   UNL d   1       9.518   6.999 -10.800  0.00  0.00     0.129 C 
BRANCH  10  11
ATOM     11  N   UNL d   1       9.842   7.138  -9.383  0.00  0.00    -0.234 NA
ATOM     12  C   UNL d   1      10.470   8.194  -8.838  0.00  0.00     0.281 C 
ATOM     13  O   UNL d   1      10.812   9.186  -9.479  0.00  0.00    -0.265 OA
BRANCH  12  14
ATOM     14  C   UNL d   1      10.726   8.094  -7.387  0.00  0.00     0.087 A 
ATOM     15  S   UNL d   1      11.204   9.557  -6.543  0.00  0.00    -0.076 SA
ATOM     16  C   UNL d   1      11.354   8.658  -5.065  0.00  0.00     0.059 A 
ATOM     17  C   UNL d   1      11.079   7.326  -5.206  0.00  0.00     0.013 A 
ATOM     18  I   UNL d   1      11.856   9.586  -3.259  0.00  0.00    -0.036 I 
ATOM     19  C   UNL d   1      10.718   7.005  -6.547  0.00  0.00     0.012 A 
ENDBRANCH  12  14
ENDBRANCH  10  11
ENDBRANCH   9  10
ENDBRANCH   8   9
ENDBRANCH   7   8
ENDBRANCH   4   7
BRANCH   1  20
ATOM     20  C   UNL d   1       8.640   0.958 -17.695  0.00  0.00     0.079 A 
ATOM     21  C   UNL d   1       9.944   0.480 -17.983  0.00  0.00     0.110 A 
ATOM     22  C   UNL d   1      10.105  -0.575 -18.917  0.00  0.00     0.026 A 
ATOM     23  C   UNL d   1       8.986  -1.180 -19.522  0.00  0.00     0.002 A 
ATOM     24  C   UNL d   1       7.696  -0.730 -19.200  0.00  0.00     0.002 A 
ATOM     25  C   UNL d   1       7.524   0.334 -18.297  0.00  0.00     0.019 A 
BRANCH  21  26
ATOM     26  O   UNL d   1      11.008   1.045 -17.305  0.00  0.00    -0.327 OA
ATOM     27  C   UNL d   1      12.317   0.823 -17.808  0.00  0.00     0.181 C 
ENDBRANCH  21  26
ENDBRANCH   1  20
TORSDOF 8
