REMARK  4 active torsions:
REMARK  status: ('A' for Active; 'I' for Inactive)
REMARK    1  A    between atoms: O_2  and  C_3 
REMARK    2  A    between atoms: N_12  and  C_13 
REMARK    3  A    between atoms: C_13  and  C_14 
REMARK    4  A    between atoms: C_14  and  C_15 
ROOT
ATOM      1  C   UNL d   1       8.972   1.667 -14.562  0.00  0.00     0.090 A 
ATOM      2  C   UNL d   1       8.158   0.770 -15.289  0.00  0.00     0.024 A 
ATOM      3  C   UNL d   1       6.759   0.890 -15.227  0.00  0.00     0.002 A 
ATOM      4  C   UNL d   1       6.189   1.875 -14.431  0.00  0.00    -0.004 A 
ATOM      5  C   UNL d   1       6.970   2.812 -13.731  0.00  0.00    -0.024 A 
ATOM      6  C   UNL d   1       8.370   2.688 -13.791  0.00  0.00    -0.002 A 
ATOM      7  C   UNL d   1       9.251   3.603 -12.967  0.00  0.00     0.057 C 
ATOM      8  C   UNL d   1       9.918   4.591 -13.918  0.00  0.00     0.042 C 
ATOM      9  C   UNL d   1       9.900   5.836 -13.083  0.00  0.00     0.251 C 
ATOM     10  N   UNL d   1       8.639   5.819 -12.387  0.00  0.00     0.136 N 
ATOM     11  C   UNL d   1       8.558   4.454 -11.873  0.00  0.00     0.224 C 
ATOM     12  C   UNL d   1       7.088   4.108 -11.578  0.00  0.00     0.038 C 
ATOM     13  C   UNL d   1       6.295   3.853 -12.860  0.00  0.00     0.028 C 
ENDROOT
BRANCH  10  14
ATOM     14  C   UNL d   1       8.591   6.817 -11.323  0.00  0.00     0.255 C 
BRANCH  14  15
ATOM     15  C   UNL d   1       9.949   7.208 -10.697  0.00  0.00     0.062 C 
BRANCH  15  16
ATOM     16  C   UNL d   1       9.862   7.542  -9.231  0.00  0.00    -0.020 A 
ATOM     17  C   UNL d   1       9.474   6.532  -8.317  0.00  0.00    -0.004 A 
ATOM     18  C   UNL d   1       9.469   6.795  -6.938  0.00  0.00    -0.000 A 
ATOM     19  C   UNL d   1       9.841   8.067  -6.462  0.00  0.00    -0.000 A 
ATOM     20  C   UNL d   1      10.226   9.076  -7.365  0.00  0.00    -0.000 A 
ATOM     21  C   UNL d   1      10.226   8.807  -8.753  0.00  0.00    -0.004 A 
ENDBRANCH  15  16
ENDBRANCH  14  15
ENDBRANCH  10  14
BRANCH   1  22
ATOM     22  O   UNL d   1      10.337   1.538 -14.512  0.00  0.00    -0.328 OA
ATOM     23  C   UNL d   1      10.970   1.180 -15.724  0.00  0.00     0.181 C 
ENDBRANCH   1  22
TORSDOF 4
