REMARK  8 active torsions:
REMARK  status: ('A' for Active; 'I' for Inactive)
REMARK    1  A    between atoms: N_2  and  C_3 
REMARK    2  A    between atoms: N_2  and  S_24 
REMARK    3  A    between atoms: N_6  and  C_7 
REMARK    4  A    between atoms: C_7  and  C_8 
REMARK    5  A    between atoms: C_8  and  O_9 
REMARK    6  A    between atoms: O_9  and  C_10 
REMARK    7  A    between atoms: C_15  and  C_16 
REMARK    8  A    between atoms: S_24  and  C_27 
ROOT
ATOM      1  C   UNL d   1      10.175   7.722  -8.798  0.00  0.00     0.096 C 
ATOM      2  C   UNL d   1      10.020   6.252  -8.391  0.00  0.00     0.058 C 
ATOM      3  C   UNL d   1       9.190   5.468  -9.415  0.00  0.00     0.252 C 
ATOM      4  N   UNL d   1       9.750   5.684 -10.733  0.00  0.00     0.140 N 
ATOM      5  C   UNL d   1       9.771   7.067 -11.148  0.00  0.00     0.252 C 
ATOM      6  C   UNL d   1      10.661   7.894 -10.239  0.00  0.00     0.058 C 
ENDROOT
BRANCH   4   7
ATOM      7  C   UNL d   1       9.100   4.812 -11.754  0.00  0.00     0.283 C 
BRANCH   7   8
ATOM      8  C   UNL d   1       8.122   5.585 -12.703  0.00  0.00     0.184 C 
BRANCH   8   9
ATOM      9  O   UNL d   1       7.691   4.772 -13.773  0.00  0.00    -0.329 OA
BRANCH   9  10
ATOM     10  C   UNL d   1       8.665   4.124 -14.460  0.00  0.00     0.094 A 
ATOM     11  C   UNL d   1       8.380   2.774 -14.821  0.00  0.00     0.022 A 
ATOM     12  C   UNL d   1       9.399   2.075 -15.523  0.00  0.00     0.002 A 
ATOM     13  C   UNL d   1      10.606   2.701 -15.926  0.00  0.00     0.000 A 
ATOM     14  C   UNL d   1      10.859   4.036 -15.575  0.00  0.00     0.002 A 
ATOM     15  C   UNL d   1       9.906   4.716 -14.810  0.00  0.00     0.024 A 
BRANCH  11  16
ATOM     16  C   UNL d   1       7.081   2.125 -14.425  0.00  0.00     0.002 A 
ATOM     17  C   UNL d   1       6.296   2.524 -13.307  0.00  0.00     0.000 A 
ATOM     18  C   UNL d   1       5.138   1.824 -12.906  0.00  0.00     0.000 A 
ATOM     19  C   UNL d   1       4.728   0.703 -13.654  0.00  0.00     0.000 A 
ATOM     20  C   UNL d   1       5.471   0.296 -14.765  0.00  0.00     0.000 A 
ATOM     21  C   UNL d   1       6.628   1.000 -15.160  0.00  0.00     0.000 A 
ENDBRANCH  11  16
ENDBRANCH   9  10
ENDBRANCH   8   9
ENDBRANCH   7   8
ENDBRANCH   4   7
BRANCH   1  22
ATOM     22  N   UNL d   1      11.082   8.439  -7.869  0.00  0.00    -0.274 N 
ATOM     23  C   UNL d   1      12.517   8.105  -7.882  0.00  0.00     0.138 C 
BRANCH  22  24
ATOM     24  S   UNL d   1      10.426   9.160  -6.456  0.00  0.00     0.264 S 
ATOM     25  O   UNL d   1      10.905  10.558  -6.414  0.00  0.00    -0.200 OA
ATOM     26  O   UNL d   1       8.993   8.793  -6.422  0.00  0.00    -0.200 OA
BRANCH  24  27
ATOM     27  C   UNL d   1      11.161   8.372  -5.072  0.00  0.00     0.103 A 
ATOM     28  C   UNL d   1      11.285   6.991  -5.081  0.00  0.00     0.013 A 
ATOM     29  C   UNL d   1      12.007   6.392  -4.030  0.00  0.00     0.001 A 
ATOM     30  C   UNL d   1      12.526   7.162  -2.974  0.00  0.00     0.000 A 
ATOM     31  C   UNL d   1      12.361   8.553  -2.957  0.00  0.00     0.001 A 
ATOM     32  C   UNL d   1      11.663   9.172  -4.016  0.00  0.00     0.013 A 
ENDBRANCH  24  27
ENDBRANCH  22  24
ENDBRANCH   1  22
TORSDOF 8
