REMARK  10 active torsions:
REMARK  status: ('A' for Active; 'I' for Inactive)
REMARK    1  A    between atoms: N_2  and  C_3 
REMARK       I    between atoms: N_2  and  C_21 
REMARK    2  A    between atoms: C_3  and  C_4 
REMARK    3  A    between atoms: C_4  and  C_5 
REMARK    4  A    between atoms: C_21  and  C_23 
REMARK    5  A    between atoms: C_23  and  C_24 
REMARK    6  A    between atoms: C_27  and  O_28 
REMARK    7  A    between atoms: O_28  and  C_29 
REMARK    8  A    between atoms: C_29  and  C_30 
REMARK    9  A    between atoms: C_30  and  C_31 
REMARK   10  A    between atoms: C_31  and  N_32 
ROOT
ATOM      1  C   UNL d   1      10.138  -1.632 -17.495  0.00  0.00     0.128 C 
ATOM      2  N   UNL d   1      10.203  -0.240 -17.929  0.00  0.00    -0.318 N 
ATOM      3  C   UNL d   1      10.478   0.091 -19.217  0.00  0.00     0.238 C 
ATOM      4  O   UNL d   1      10.768  -0.773 -20.074  0.00  0.00    -0.272 OA
ENDROOT
BRANCH   2   5
ATOM      5  C   UNL d   1      10.004   0.712 -16.822  0.00  0.00     0.109 C 
BRANCH   5   6
ATOM      6  C   UNL d   1       8.760   1.609 -17.050  0.00  0.00     0.050 C 
BRANCH   6   7
ATOM      7  C   UNL d   1       8.263   2.260 -15.790  0.00  0.00    -0.024 C 
ATOM      8  C   UNL d   1       8.701   3.444 -15.290  0.00  0.00    -0.005 C 
ATOM      9  C   UNL d   1       8.098   3.941 -14.057  0.00  0.00    -0.004 A 
ATOM     10  C   UNL d   1       9.723   4.303 -15.960  0.00  0.00    -0.004 A 
ATOM     11  C   UNL d   1       8.888   4.357 -12.953  0.00  0.00    -0.022 A 
ATOM     12  C   UNL d   1       6.688   4.012 -13.983  0.00  0.00    -0.000 A 
ATOM     13  C   UNL d   1      10.403   4.281 -12.877  0.00  0.00     0.031 C 
ATOM     14  C   UNL d   1       8.246   4.840 -11.795  0.00  0.00    -0.004 A 
ATOM     15  C   UNL d   1      11.197   3.662 -14.024  0.00  0.00     0.031 C 
ATOM     16  C   UNL d   1      10.974   4.430 -15.294  0.00  0.00    -0.022 A 
ATOM     17  C   UNL d   1      11.988   5.212 -15.853  0.00  0.00    -0.004 A 
ATOM     18  C   UNL d   1      11.796   5.825 -17.122  0.00  0.00    -0.000 A 
ATOM     19  C   UNL d   1      10.580   5.696 -17.792  0.00  0.00    -0.000 A 
ATOM     20  C   UNL d   1       9.546   4.918 -17.207  0.00  0.00    -0.000 A 
ATOM     21  C   UNL d   1       6.851   4.945 -11.745  0.00  0.00    -0.000 A 
ATOM     22  C   UNL d   1       6.067   4.531 -12.835  0.00  0.00    -0.000 A 
ENDBRANCH   6   7
ENDBRANCH   5   6
ENDBRANCH   2   5
BRANCH   3  23
ATOM     23  C   UNL d   1      10.476   1.512 -19.747  0.00  0.00     0.114 C 
BRANCH  23  24
ATOM     24  C   UNL d   1      11.802   2.199 -19.481  0.00  0.00    -0.013 C 
ATOM     25  C   UNL d   1      12.108   2.812 -18.259  0.00  0.00    -0.002 C 
ATOM     26  C   UNL d   1      13.347   3.370 -17.977  0.00  0.00     0.024 C 
ATOM     27  C   UNL d   1      14.294   3.510 -19.002  0.00  0.00     0.094 C 
ATOM     28  C   UNL d   1      14.020   2.943 -20.282  0.00  0.00     0.024 C 
ATOM     29  C   UNL d   1      12.801   2.246 -20.502  0.00  0.00    -0.002 C 
BRANCH  27  30
ATOM     30  O   UNL d   1      15.462   4.244 -18.866  0.00  0.00    -0.331 OA
BRANCH  30  31
ATOM     31  C   UNL d   1      15.769   4.886 -17.621  0.00  0.00     0.151 C 
BRANCH  31  32
ATOM     32  C   UNL d   1      16.177   6.341 -17.907  0.00  0.00     0.068 C 
BRANCH  32  33
ATOM     33  C   UNL d   1      15.062   7.129 -18.638  0.00  0.00     0.253 C 
BRANCH  33  34
ATOM     34  N   UNL d   1      15.481   8.479 -18.999  0.00  0.00     0.137 N 
ATOM     35  C   UNL d   1      16.037   8.449 -20.353  0.00  0.00     0.250 C 
ATOM     36  C   UNL d   1      16.530   9.844 -20.755  0.00  0.00     0.035 C 
ATOM     37  C   UNL d   1      15.390  10.867 -20.683  0.00  0.00     0.004 C 
ATOM     38  C   UNL d   1      14.732  10.797 -19.301  0.00  0.00     0.035 C 
ATOM     39  C   UNL d   1      14.311   9.368 -18.960  0.00  0.00     0.250 C 
ENDBRANCH  33  34
ENDBRANCH  32  33
ENDBRANCH  31  32
ENDBRANCH  30  31
ENDBRANCH  27  30
ENDBRANCH  23  24
ENDBRANCH   3  23
TORSDOF 10
