REMARK  2 active torsions:
REMARK  status: ('A' for Active; 'I' for Inactive)
REMARK    1  A    between atoms: C_2  and  N_3 
REMARK    2  A    between atoms: C_7  and  C_8 
ROOT
ATOM      1  C   UNL d   1      10.899   8.341  -6.655  0.00  0.00     0.038 A 
ATOM      2  C   UNL d   1      11.182   9.680  -6.774  0.00  0.00     0.100 A 
ATOM      3  N   UNL d   1      11.730  10.152  -5.604  0.00  0.00    -0.244 NA
ATOM      4  C   UNL d   1      11.813   9.155  -4.668  0.00  0.00     0.082 A 
ATOM      5  C   UNL d   1      12.274   9.149  -3.340  0.00  0.00     0.019 A 
ATOM      6  C   UNL d   1      12.259   7.955  -2.605  0.00  0.00     0.002 A 
ATOM      7  C   UNL d   1      11.767   6.785  -3.209  0.00  0.00     0.000 A 
ATOM      8  C   UNL d   1      11.295   6.804  -4.543  0.00  0.00     0.002 A 
ATOM      9  C   UNL d   1      11.303   7.989  -5.310  0.00  0.00     0.021 A 
ENDROOT
BRANCH   1  10
ATOM     10  C   UNL d   1      10.314   7.453  -7.657  0.00  0.00     0.082 A 
ATOM     11  N   UNL d   1      10.562   7.526  -9.036  0.00  0.00    -0.309 N 
ATOM     12  C   UNL d   1       9.881   6.497  -9.558  0.00  0.00     0.179 A 
ATOM     13  N   UNL d   1       9.207   5.762  -8.689  0.00  0.00    -0.223 NA
ATOM     14  C   UNL d   1       9.452   6.390  -7.474  0.00  0.00     0.118 A 
BRANCH  11  15
ATOM     15  C   UNL d   1      11.392   8.452  -9.799  0.00  0.00     0.108 C 
ATOM     16  C   UNL d   1      12.843   7.960  -9.933  0.00  0.00     0.027 C 
ENDBRANCH  11  15
ENDBRANCH   1  10
TORSDOF 2
