REMARK  9 active torsions:
REMARK  status: ('A' for Active; 'I' for Inactive)
REMARK    1  A    between atoms: O_2  and  C_3 
REMARK    2  A    between atoms: C_8  and  C_9 
REMARK    3  A    between atoms: C_11  and  C_12 
REMARK    4  A    between atoms: C_12  and  N_13 
REMARK    5  A    between atoms: N_13  and  C_14 
REMARK    6  A    between atoms: C_14  and  C_15 
REMARK    7  A    between atoms: C_15  and  C_16 
REMARK    8  A    between atoms: C_19  and  N_20 
REMARK       I    between atoms: N_20  and  C_21 
REMARK    9  A    between atoms: C_21  and  C_23 
ROOT
ATOM      1  C   UNL d   1       8.139   5.320 -10.704  0.00  0.00     0.002 C 
ATOM      2  C   UNL d   1       8.574   4.582  -9.429  0.00  0.00     0.002 C 
ATOM      3  C   UNL d   1       9.021   5.553  -8.370  0.00  0.00     0.024 C 
ATOM      4  C   UNL d   1      10.208   6.370  -8.878  0.00  0.00     0.107 C 
ATOM      5  C   UNL d   1       9.841   7.110 -10.164  0.00  0.00     0.024 C 
ATOM      6  C   UNL d   1       9.314   6.156 -11.233  0.00  0.00     0.002 C 
ENDROOT
BRANCH   1   7
ATOM      7  C   UNL d   1       7.660   4.318 -11.745  0.00  0.00     0.038 C 
BRANCH   7   8
ATOM      8  C   UNL d   1       6.948   4.937 -12.960  0.00  0.00     0.290 C 
BRANCH   8   9
ATOM      9  N   UNL d   1       6.133   3.933 -13.629  0.00  0.00     0.339 N 
BRANCH   9  10
ATOM     10  C   UNL d   1       6.907   2.862 -14.239  0.00  0.00     0.290 C 
BRANCH  10  11
ATOM     11  C   UNL d   1       6.130   1.561 -14.235  0.00  0.00     0.041 A 
ATOM     12  C   UNL d   1       6.606   0.424 -15.119  0.00  0.00     0.026 A 
ATOM     13  C   UNL d   1       6.704   0.315 -13.624  0.00  0.00     0.007 A 
BRANCH  12  14
ATOM     14  C   UNL d   1       7.822   0.608 -15.991  0.00  0.00    -0.000 A 
ATOM     15  C   UNL d   1       7.658   1.043 -17.333  0.00  0.00     0.090 A 
ATOM     16  C   UNL d   1       8.810   1.227 -18.152  0.00  0.00     0.024 A 
ATOM     17  C   UNL d   1      10.098   0.994 -17.638  0.00  0.00     0.002 A 
ATOM     18  C   UNL d   1      10.256   0.556 -16.306  0.00  0.00    -0.000 A 
ATOM     19  C   UNL d   1       9.122   0.365 -15.501  0.00  0.00    -0.002 A 
BRANCH  15  20
ATOM     20  O   UNL d   1       6.378   1.274 -17.789  0.00  0.00    -0.328 OA
ATOM     21  C   UNL d   1       6.131   1.183 -19.190  0.00  0.00     0.181 C 
ENDBRANCH  15  20
ENDBRANCH  12  14
ENDBRANCH  10  11
ENDBRANCH   9  10
ENDBRANCH   8   9
ENDBRANCH   7   8
ENDBRANCH   1   7
BRANCH   4  22
ATOM     22  N   UNL d   1      10.594   7.317  -7.864  0.00  0.00    -0.236 NA
ATOM     23  C   UNL d   1      11.374   7.034  -6.816  0.00  0.00     0.275 C 
ATOM     24  O   UNL d   1      11.959   5.975  -6.700  0.00  0.00    -0.266 OA
BRANCH  23  25
ATOM     25  C   UNL d   1      11.421   8.057  -5.732  0.00  0.00     0.058 A 
ATOM     26  C   UNL d   1      11.063   9.392  -5.988  0.00  0.00     0.005 A 
ATOM     27  C   UNL d   1      11.057  10.331  -4.946  0.00  0.00     0.000 A 
ATOM     28  C   UNL d   1      11.453   9.962  -3.649  0.00  0.00     0.000 A 
ATOM     29  C   UNL d   1      11.871   8.639  -3.390  0.00  0.00     0.000 A 
ATOM     30  C   UNL d   1      11.850   7.688  -4.431  0.00  0.00     0.005 A 
ENDBRANCH  23  25
ENDBRANCH   4  22
TORSDOF 9
