REMARK  6 active torsions:
REMARK  status: ('A' for Active; 'I' for Inactive)
REMARK       I    between atoms: C_2  and  N_3 
REMARK    1  A    between atoms: C_2  and  C_27 
REMARK    2  A    between atoms: N_3  and  C_4 
REMARK    3  A    between atoms: C_7  and  C_8 
REMARK    4  A    between atoms: C_8  and  C_9 
REMARK    5  A    between atoms: C_9  and  N_10 
REMARK    6  A    between atoms: C_13  and  C_14 
ROOT
ATOM      1  C   UNL d   1       8.350   5.045 -11.726  0.00  0.00     0.250 C 
ENDROOT
BRANCH   1   2
ATOM      2  C   UNL d   1       9.180   4.930 -10.436  0.00  0.00     0.035 C 
BRANCH   2   3
ATOM      3  C   UNL d   1       9.056   6.172  -9.558  0.00  0.00     0.002 C 
ATOM      4  C   UNL d   1       9.662   5.894  -8.186  0.00  0.00     0.002 C 
ATOM      5  C   UNL d   1       9.596   7.110  -7.299  0.00  0.00     0.024 C 
ATOM      6  C   UNL d   1      10.336   8.308  -7.928  0.00  0.00     0.106 C 
ATOM      7  C   UNL d   1       9.715   8.653  -9.296  0.00  0.00     0.024 C 
ATOM      8  C   UNL d   1       9.733   7.412 -10.203  0.00  0.00     0.002 C 
BRANCH   6   9
ATOM      9  N   UNL d   1      10.283   9.485  -7.071  0.00  0.00    -0.238 NA
ATOM     10  C   UNL d   1      10.868   9.656  -5.878  0.00  0.00     0.279 C 
ATOM     11  O   UNL d   1      10.692  10.693  -5.234  0.00  0.00    -0.268 OA
BRANCH  10  12
ATOM     12  C   UNL d   1      11.736   8.523  -5.324  0.00  0.00     0.195 C 
ATOM     13  O   UNL d   1      10.926   7.539  -4.739  0.00  0.00    -0.347 OA
ATOM     14  C   UNL d   1      11.750   6.651  -4.045  0.00  0.00     0.143 C 
ATOM     15  C   UNL d   1      12.723   7.602  -3.332  0.00  0.00     0.035 C 
ATOM     16  C   UNL d   1      12.687   8.884  -4.176  0.00  0.00     0.042 C 
ENDBRANCH  10  12
ENDBRANCH   6   9
ENDBRANCH   2   3
ENDBRANCH   1   2
BRANCH   1  17
ATOM     17  N   UNL d   1       8.765   4.027 -12.681  0.00  0.00     0.137 N 
ATOM     18  C   UNL d   1       7.657   3.784 -13.590  0.00  0.00     0.251 C 
ATOM     19  C   UNL d   1       8.011   2.643 -14.535  0.00  0.00     0.040 C 
ATOM     20  C   UNL d   1       9.273   2.943 -15.371  0.00  0.00     0.028 C 
ATOM     21  C   UNL d   1      10.388   3.388 -14.400  0.00  0.00     0.040 C 
ATOM     22  C   UNL d   1       9.922   4.489 -13.449  0.00  0.00     0.251 C 
BRANCH  20  23
ATOM     23  C   UNL d   1       9.698   1.761 -16.253  0.00  0.00     0.002 A 
ATOM     24  C   UNL d   1       8.752   0.909 -16.877  0.00  0.00     0.115 A 
ATOM     25  C   UNL d   1       9.142  -0.177 -17.645  0.00  0.00     0.119 A 
ATOM     26  O   UNL d   1       7.396   0.961 -16.854  0.00  0.00    -0.300 OA
ATOM     27  C   UNL d   1      10.492  -0.476 -17.869  0.00  0.00     0.026 A 
ATOM     28  O   UNL d   1       8.043  -0.833 -18.102  0.00  0.00    -0.300 OA
ATOM     29  C   UNL d   1      11.458   0.378 -17.291  0.00  0.00     0.002 A 
ATOM     30  C   UNL d   1      11.065   1.472 -16.488  0.00  0.00    -0.002 A 
ATOM     31  C   UNL d   1       6.938  -0.135 -17.593  0.00  0.00     0.304 A 
ENDBRANCH  20  23
ENDBRANCH   1  17
TORSDOF 6
