REMARK  6 active torsions:
REMARK  status: ('A' for Active; 'I' for Inactive)
REMARK    1  A    between atoms: C_2  and  C_3 
REMARK    2  A    between atoms: N_13  and  C_14 
REMARK    3  A    between atoms: C_14  and  C_15 
REMARK    4  A    between atoms: C_15  and  C_17 
REMARK    5  A    between atoms: C_17  and  N_18 
REMARK    6  A    between atoms: N_21  and  C_22 
ROOT
ATOM      1  C   UNL d   1      10.975   3.892 -16.337  0.00  0.00     0.208 C 
ATOM      2  O   UNL d   1      10.061   4.218 -17.363  0.00  0.00    -0.219 OA
ENDROOT
BRANCH   1   3
ATOM      3  C   UNL d   1      11.748   2.620 -16.730  0.00  0.00     0.148 C 
BRANCH   3   4
ATOM      4  N   UNL d   1      10.895   1.445 -16.868  0.00  0.00    -0.247 N 
ATOM      5  C   UNL d   1      10.271   0.818 -15.863  0.00  0.00     0.348 A 
ATOM      6  N   UNL d   1       9.548  -0.184 -16.372  0.00  0.00    -0.209 NA
ATOM      7  O   UNL d   1      10.347   1.097 -14.671  0.00  0.00    -0.245 OA
ATOM      8  C   UNL d   1       9.596  -0.230 -17.824  0.00  0.00     0.179 A 
ATOM      9  C   UNL d   1      10.122  -1.598 -18.276  0.00  0.00     0.039 C 
ATOM     10  C   UNL d   1      10.621   0.870 -18.046  0.00  0.00     0.265 A 
ATOM     11  O   UNL d   1      11.102   1.151 -19.146  0.00  0.00    -0.269 OA
BRANCH   8  12
ATOM     12  C   UNL d   1       8.268   0.146 -18.502  0.00  0.00     0.006 A 
ATOM     13  C   UNL d   1       7.111   0.432 -17.737  0.00  0.00     0.000 A 
ATOM     14  C   UNL d   1       5.900   0.775 -18.368  0.00  0.00     0.029 A 
ATOM     15  C   UNL d   1       5.824   0.833 -19.771  0.00  0.00     0.140 A 
ATOM     16  C   UNL d   1       6.969   0.571 -20.543  0.00  0.00     0.029 A 
ATOM     17  F   UNL d   1       4.661   1.164 -20.379  0.00  0.00    -0.204 F 
ATOM     18  C   UNL d   1       8.181   0.225 -19.915  0.00  0.00     0.000 A 
ENDBRANCH   8  12
ENDBRANCH   3   4
ENDBRANCH   1   3
BRANCH   1  19
ATOM     19  C   UNL d   1      11.848   5.140 -16.065  0.00  0.00     0.285 C 
BRANCH  19  20
ATOM     20  N   UNL d   1      12.724   5.575 -17.163  0.00  0.00     0.144 N 
ATOM     21  C   UNL d   1      14.020   4.881 -17.170  0.00  0.00     0.274 C 
ATOM     22  C   UNL d   1      14.869   5.260 -18.382  0.00  0.00     0.137 C 
ATOM     23  N   UNL d   1      15.084   6.704 -18.387  0.00  0.00    -0.343 N 
ATOM     24  C   UNL d   1      13.870   7.524 -18.285  0.00  0.00     0.137 C 
ATOM     25  C   UNL d   1      12.999   7.021 -17.106  0.00  0.00     0.274 C 
BRANCH  23  26
ATOM     26  C   UNL d   1      16.368   7.250 -18.384  0.00  0.00     0.084 A 
ATOM     27  C   UNL d   1      17.431   6.674 -17.625  0.00  0.00     0.158 A 
ATOM     28  C   UNL d   1      18.723   7.218 -17.672  0.00  0.00     0.061 A 
ATOM     29  F   UNL d   1      17.214   5.624 -16.796  0.00  0.00    -0.203 F 
ATOM     30  C   UNL d   1      18.986   8.355 -18.457  0.00  0.00     0.142 A 
ATOM     31  C   UNL d   1      17.947   8.951 -19.196  0.00  0.00     0.031 A 
ATOM     32  F   UNL d   1      20.230   8.877 -18.491  0.00  0.00    -0.204 F 
ATOM     33  C   UNL d   1      16.651   8.407 -19.157  0.00  0.00     0.021 A 
ENDBRANCH  23  26
ENDBRANCH  19  20
ENDBRANCH   1  19
TORSDOF 6
