REMARK  7 active torsions:
REMARK  status: ('A' for Active; 'I' for Inactive)
REMARK       I    between atoms: C_2  and  N_3 
REMARK    1  A    between atoms: C_2  and  C_20 
REMARK    2  A    between atoms: N_3  and  C_4 
REMARK    3  A    between atoms: C_4  and  C_5 
REMARK    4  A    between atoms: C_5  and  C_6 
REMARK    5  A    between atoms: C_6  and  C_7 
REMARK    6  A    between atoms: C_7  and  N_8 
REMARK    7  A    between atoms: N_11  and  C_12 
ROOT
ATOM      1  C   UNL d   1       7.581   5.371 -11.298  0.00  0.00     0.029 C 
ENDROOT
BRANCH   1   2
ATOM      2  C   UNL d   1       7.652   5.655 -12.808  0.00  0.00     0.129 C 
BRANCH   2   3
ATOM      3  N   UNL d   1       8.292   4.583 -13.554  0.00  0.00    -0.233 NA
ATOM      4  C   UNL d   1       9.608   4.451 -13.777  0.00  0.00     0.293 C 
ATOM      5  O   UNL d   1      10.456   5.188 -13.274  0.00  0.00    -0.264 OA
BRANCH   4   6
ATOM      6  C   UNL d   1       9.996   3.367 -14.748  0.00  0.00     0.139 A 
ATOM      7  N   UNL d   1      11.290   3.349 -15.147  0.00  0.00    -0.239 NA
ATOM      8  C   UNL d   1      11.687   2.418 -16.039  0.00  0.00     0.099 A 
ATOM      9  C   UNL d   1      10.819   1.452 -16.576  0.00  0.00     0.019 A 
ATOM     10  C   UNL d   1       9.470   1.471 -16.162  0.00  0.00     0.003 A 
ATOM     11  C   UNL d   1      11.266   0.485 -17.499  0.00  0.00     0.002 A 
ATOM     12  C   UNL d   1       9.044   2.436 -15.235  0.00  0.00     0.024 A 
ATOM     13  C   UNL d   1       8.561   0.529 -16.676  0.00  0.00     0.000 A 
ATOM     14  C   UNL d   1       9.002  -0.433 -17.602  0.00  0.00     0.000 A 
ATOM     15  C   UNL d   1      10.352  -0.460 -18.009  0.00  0.00     0.000 A 
ENDBRANCH   4   6
ENDBRANCH   2   3
ENDBRANCH   1   2
BRANCH   1  16
ATOM     16  C   UNL d   1       8.841   5.824 -10.543  0.00  0.00     0.037 C 
BRANCH  16  17
ATOM     17  C   UNL d   1       8.627   5.939  -9.032  0.00  0.00     0.251 C 
BRANCH  17  18
ATOM     18  N   UNL d   1       9.635   6.824  -8.445  0.00  0.00     0.141 N 
ATOM     19  C   UNL d   1      10.585   6.015  -7.695  0.00  0.00     0.274 C 
ATOM     20  C   UNL d   1      11.690   6.880  -7.081  0.00  0.00     0.138 C 
ATOM     21  N   UNL d   1      11.093   7.902  -6.235  0.00  0.00    -0.330 N 
ATOM     22  C   UNL d   1      10.060   8.696  -6.878  0.00  0.00     0.138 C 
ATOM     23  C   UNL d   1       9.001   7.765  -7.505  0.00  0.00     0.274 C 
BRANCH  21  24
ATOM     24  C   UNL d   1      11.468   8.097  -4.893  0.00  0.00     0.140 A 
ATOM     25  N   UNL d   1      11.448   9.363  -4.416  0.00  0.00    -0.227 NA
ATOM     26  C   UNL d   1      11.858   9.577  -3.147  0.00  0.00     0.101 A 
ATOM     27  C   UNL d   1      12.259   8.550  -2.279  0.00  0.00     0.021 A 
ATOM     28  C   UNL d   1      12.256   7.232  -2.761  0.00  0.00     0.005 A 
ATOM     29  C   UNL d   1      11.857   7.001  -4.085  0.00  0.00     0.037 A 
ENDBRANCH  21  24
ENDBRANCH  17  18
ENDBRANCH  16  17
ENDBRANCH   1  16
TORSDOF 7
