REMARK  7 active torsions:
REMARK  status: ('A' for Active; 'I' for Inactive)
REMARK    1  A    between atoms: S_2  and  N_4 
REMARK    2  A    between atoms: S_2  and  C_22 
REMARK    3  A    between atoms: N_4  and  C_5 
REMARK    4  A    between atoms: N_8  and  C_9 
REMARK    5  A    between atoms: C_9  and  C_10 
REMARK    6  A    between atoms: C_10  and  C_11 
REMARK    7  A    between atoms: C_11  and  C_12 
ROOT
ATOM      1  C   UNL d   1       9.236   6.400 -11.028  0.00  0.00     0.151 C 
ATOM      2  C   UNL d   1       7.780   5.988 -10.875  0.00  0.00     0.063 C 
ATOM      3  C   UNL d   1       7.645   4.695 -11.640  0.00  0.00     0.252 C 
ATOM      4  N   UNL d   1       8.710   4.754 -12.637  0.00  0.00     0.139 N 
ATOM      5  C   UNL d   1       9.836   5.258 -11.863  0.00  0.00     0.275 C 
ENDROOT
BRANCH   1   6
ATOM      6  N   UNL d   1       9.902   6.535  -9.729  0.00  0.00    -0.183 NA
BRANCH   6   7
ATOM      7  S   UNL d   1      10.756   7.988  -9.364  0.00  0.00     0.303 S 
ATOM      8  O   UNL d   1      12.081   7.902  -9.993  0.00  0.00    -0.197 OA
ATOM      9  O   UNL d   1       9.872   9.137  -9.610  0.00  0.00    -0.197 OA
BRANCH   7  10
ATOM     10  C   UNL d   1      11.025   7.910  -7.615  0.00  0.00     0.204 A 
ATOM     11  O   UNL d   1      11.099   9.081  -6.910  0.00  0.00    -0.295 OA
ATOM     12  C   UNL d   1      11.355   8.730  -5.604  0.00  0.00     0.101 A 
ATOM     13  C   UNL d   1      11.431   7.319  -5.496  0.00  0.00     0.025 A 
ATOM     14  C   UNL d   1      11.528   9.594  -4.514  0.00  0.00     0.025 A 
ATOM     15  C   UNL d   1      11.208   6.804  -6.816  0.00  0.00     0.040 A 
ATOM     16  C   UNL d   1      11.699   6.791  -4.213  0.00  0.00     0.002 A 
ATOM     17  C   UNL d   1      11.880   7.639  -3.102  0.00  0.00     0.000 A 
ATOM     18  C   UNL d   1      11.806   9.041  -3.249  0.00  0.00     0.002 A 
ENDBRANCH   7  10
ENDBRANCH   6   7
ENDBRANCH   1   6
BRANCH   4  19
ATOM     19  C   UNL d   1       9.030   3.456 -13.226  0.00  0.00     0.251 C 
BRANCH  19  20
ATOM     20  C   UNL d   1       7.808   2.827 -13.933  0.00  0.00     0.042 C 
BRANCH  20  21
ATOM     21  C   UNL d   1       8.020   1.364 -14.354  0.00  0.00     0.050 C 
BRANCH  21  22
ATOM     22  C   UNL d   1       6.719   0.605 -14.449  0.00  0.00     0.088 A 
ATOM     23  C   UNL d   1       6.062   0.045 -15.560  0.00  0.00     0.041 A 
ATOM     24  C   UNL d   1       4.878  -0.558 -15.135  0.00  0.00     0.126 A 
ATOM     25  C   UNL d   1       6.416   0.009 -16.925  0.00  0.00     0.003 A 
ATOM     26  O   UNL d   1       4.831  -0.351 -13.768  0.00  0.00    -0.211 OA
ATOM     27  C   UNL d   1       4.001  -1.214 -16.010  0.00  0.00     0.027 A 
ATOM     28  N   UNL d   1       5.990   0.362 -13.356  0.00  0.00    -0.131 NA
ATOM     29  C   UNL d   1       4.351  -1.252 -17.376  0.00  0.00     0.002 A 
ATOM     30  C   UNL d   1       5.549  -0.646 -17.828  0.00  0.00     0.000 A 
ENDBRANCH  21  22
ENDBRANCH  20  21
ENDBRANCH  19  20
ENDBRANCH   4  19
TORSDOF 7
