REMARK  10 active torsions:
REMARK  status: ('A' for Active; 'I' for Inactive)
REMARK    1  A    between atoms: C_11  and  C_12 
REMARK    2  A    between atoms: C_12  and  N_13 
REMARK    3  A    between atoms: N_13  and  C_14 
REMARK    4  A    between atoms: C_17  and  C_18 
REMARK       I    between atoms: C_18  and  N_20 
REMARK    5  A    between atoms: N_20  and  CA_21 
REMARK    6  A    between atoms: CA_21  and  CB_22 
REMARK    7  A    between atoms: CA_21  and  C_27 
REMARK    8  A    between atoms: CB_22  and  CG_23 
REMARK    9  A    between atoms: CG_23  and  CD_24 
REMARK   10  A    between atoms: N_32  and  C_33 
ROOT
ATOM      1  C   UNK d   0       7.249   4.252 -13.285  0.00  0.00     0.076 C 
ATOM      2  C   UNK d   0       8.546   3.803 -12.925  0.00  0.00     0.019 C 
ATOM      3  C   UNK d   0       9.148   4.161 -11.725  0.00  0.00     0.006 C 
ATOM      4  C   UNK d   0       8.573   5.157 -10.948  0.00  0.00     0.058 C 
ATOM      5  C   UNK d   0       7.390   5.745 -11.415  0.00  0.00     0.006 C 
ATOM      6  C   UNK d   0       6.710   5.319 -12.559  0.00  0.00     0.019 C 
ENDROOT
BRANCH   1   7
ATOM      7  N   UNK d   0       6.430   3.677 -14.267  0.00  0.00    -0.269 NA
BRANCH   7   8
ATOM      8  C   UNK d   0       7.023   2.756 -15.221  0.00  0.00     0.150 C 
BRANCH   8   9
ATOM      9  C   UNK d   0       7.349   1.432 -14.559  0.00  0.00     0.138 C 
ATOM     10  C   UNK d   0       8.415   0.632 -15.297  0.00  0.00     0.152 C 
ATOM     11  N   UNK d   0       7.766  -0.062 -16.382  0.00  0.00    -0.249 NA
ATOM     12  C   UNK d   0       6.446  -0.448 -16.301  0.00  0.00     0.198 A 
ATOM     13  C   UNK d   0       5.605  -0.123 -15.266  0.00  0.00     0.158 A 
ATOM     14  N   UNK d   0       6.032  -1.212 -17.372  0.00  0.00    -0.037 NA
ATOM     15  C   UNK d   0       4.184  -0.484 -15.365  0.00  0.00     0.314 A 
ATOM     16  N   UNK d   0       6.109   0.710 -14.260  0.00  0.00    -0.283 N 
ATOM     17  N   UNK d   0       3.884  -1.237 -16.422  0.00  0.00    -0.016 NA
ATOM     18  O   UNK d   0       3.264  -0.067 -14.654  0.00  0.00    -0.263 OA
ATOM     19  C   UNK d   0       4.800  -1.585 -17.407  0.00  0.00     0.773 A 
ATOM     20  N   UNK d   0       4.218  -2.303 -18.417  0.00  0.00     0.062 N 
BRANCH  16  21
ATOM     21  C   UNK d   0       5.700   0.702 -12.979  0.00  0.00     0.318 C 
ATOM     22  O   UNK d   0       4.896  -0.013 -12.532  0.00  0.00    -0.262 OA
ENDBRANCH  16  21
ENDBRANCH   8   9
ENDBRANCH   7   8
ENDBRANCH   1   7
BRANCH   4  23
ATOM     23  C   UNK d   0       9.246   5.578  -9.678  0.00  0.00     0.275 C 
ATOM     24  O   UNK d   0       9.830   4.756  -8.978  0.00  0.00    -0.266 OA
ATOM     25  N   GLU d   1       9.282   6.902  -9.491  0.00  0.00    -0.225 NA
BRANCH  25  26
ATOM     26  CA  GLU d   1       9.992   7.565  -8.418  0.00  0.00     0.194 C 
BRANCH  26  27
ATOM     27  CB  GLU d   1      10.377   8.971  -8.934  0.00  0.00     0.047 C 
BRANCH  27  28
ATOM     28  CG  GLU d   1      11.533   8.968  -9.941  0.00  0.00     0.100 C 
BRANCH  28  29
ATOM     29  CD  GLU d   1      12.798   8.280  -9.426  0.00  0.00     0.185 C 
ATOM     30  OE1 GLU d   1      13.009   8.069  -8.239  0.00  0.00    -0.647 OA
ATOM     31  OE2 GLU d   1      13.675   7.986 -10.410  0.00  0.00    -0.647 OA
ENDBRANCH  28  29
ENDBRANCH  27  28
ENDBRANCH  26  27
BRANCH  26  32
ATOM     32  C   GLU d   1       9.095   7.686  -7.177  0.00  0.00     0.209 C 
ATOM     33  O   GLU d   1       9.124   8.673  -6.447  0.00  0.00    -0.646 OA
ATOM     34  OXT GLU d   1       8.306   6.630  -6.864  0.00  0.00    -0.646 OA
ENDBRANCH  26  32
ENDBRANCH  25  26
ENDBRANCH   4  23
TORSDOF 10
