REMARK  7 active torsions:
REMARK  status: ('A' for Active; 'I' for Inactive)
REMARK    1  A    between atoms: C_2  and  C_3 
REMARK    2  A    between atoms: C_2  and  C_21 
REMARK    3  A    between atoms: C_3  and  C_4 
REMARK    4  A    between atoms: C_4  and  C_5 
REMARK    5  A    between atoms: C_5  and  N_6 
REMARK    6  A    between atoms: C_9  and  S_10 
REMARK    7  A    between atoms: S_10  and  C_13 
ROOT
ATOM      1  N   UNL d   1       9.172   4.541 -13.273  0.00  0.00     0.137 N 
ATOM      2  C   UNL d   1       7.878   3.935 -13.575  0.00  0.00     0.251 C 
ATOM      3  C   UNL d   1       8.040   3.008 -14.777  0.00  0.00     0.052 C 
ATOM      4  C   UNL d   1       9.100   1.919 -14.518  0.00  0.00     0.116 C 
ATOM      5  C   UNL d   1      10.425   2.584 -14.131  0.00  0.00     0.052 C 
ATOM      6  C   UNL d   1      10.182   3.526 -12.958  0.00  0.00     0.251 C 
ENDROOT
BRANCH   1   7
ATOM      7  C   UNL d   1       9.027   5.491 -12.181  0.00  0.00     0.251 C 
BRANCH   7   8
ATOM      8  C   UNL d   1       8.870   4.835 -10.787  0.00  0.00     0.043 C 
BRANCH   8   9
ATOM      9  C   UNL d   1       8.646   5.805  -9.641  0.00  0.00     0.071 C 
BRANCH   9  10
ATOM     10  C   UNL d   1       9.673   6.949  -9.586  0.00  0.00     0.173 C 
ATOM     11  O   UNL d   1      10.004   7.513 -10.610  0.00  0.00    -0.291 OA
BRANCH  10  12
ATOM     12  C   UNL d   1      10.197   7.366  -8.250  0.00  0.00     0.035 A 
ATOM     13  C   UNL d   1       9.751   6.796  -7.034  0.00  0.00     0.005 A 
ATOM     14  C   UNL d   1      10.273   7.239  -5.806  0.00  0.00     0.030 A 
ATOM     15  C   UNL d   1      11.232   8.272  -5.772  0.00  0.00     0.140 A 
ATOM     16  C   UNL d   1      11.693   8.847  -6.979  0.00  0.00     0.030 A 
ATOM     17  F   UNL d   1      11.727   8.715  -4.592  0.00  0.00    -0.204 F 
ATOM     18  C   UNL d   1      11.178   8.385  -8.208  0.00  0.00     0.005 A 
ENDBRANCH  10  12
ENDBRANCH   9  10
ENDBRANCH   8   9
ENDBRANCH   7   8
ENDBRANCH   1   7
BRANCH   4  19
ATOM     19  S   UNL d   1       9.340   0.896 -16.006  0.00  0.00     0.189 S 
ATOM     20  O   UNL d   1       9.823   1.774 -17.083  0.00  0.00    -0.222 OA
ATOM     21  O   UNL d   1      10.121  -0.290 -15.636  0.00  0.00    -0.222 OA
BRANCH  19  22
ATOM     22  C   UNL d   1       7.678   0.385 -16.428  0.00  0.00     0.084 A 
ATOM     23  C   UNL d   1       7.259   0.428 -17.772  0.00  0.00     0.011 A 
ATOM     24  C   UNL d   1       5.949   0.029 -18.102  0.00  0.00     0.001 A 
ATOM     25  C   UNL d   1       5.067  -0.407 -17.091  0.00  0.00     0.000 A 
ATOM     26  C   UNL d   1       5.486  -0.431 -15.746  0.00  0.00     0.001 A 
ATOM     27  C   UNL d   1       6.795  -0.038 -15.412  0.00  0.00     0.011 A 
ENDBRANCH  19  22
ENDBRANCH   4  19
TORSDOF 7
