REMARK  9 active torsions:
REMARK  status: ('A' for Active; 'I' for Inactive)
REMARK    1  A    between atoms: O_2  and  C_3 
REMARK    2  A    between atoms: C_8  and  N_9 
REMARK    3  A    between atoms: N_12  and  C_13 
REMARK    4  A    between atoms: C_13  and  C_14 
REMARK    5  A    between atoms: C_14  and  C_15 
REMARK    6  A    between atoms: C_15  and  C_16 
REMARK    7  A    between atoms: C_16  and  N_17 
REMARK       I    between atoms: N_17  and  C_18 
REMARK    8  A    between atoms: C_18  and  C_20 
REMARK    9  A    between atoms: C_23  and  C_24 
ROOT
ATOM      1  C   UNL d   1       6.447   2.959 -13.913  0.00  0.00     0.037 C 
ENDROOT
BRANCH   1   2
ATOM      2  C   UNL d   1       6.607   1.422 -13.892  0.00  0.00     0.251 C 
BRANCH   2   3
ATOM      3  N   UNL d   1       5.851   0.785 -14.965  0.00  0.00     0.141 N 
ATOM      4  C   UNL d   1       5.688  -0.651 -14.695  0.00  0.00     0.274 C 
ATOM      5  C   UNL d   1       4.832  -1.330 -15.793  0.00  0.00     0.137 C 
ATOM      6  N   UNL d   1       5.401  -1.068 -17.108  0.00  0.00    -0.343 N 
ATOM      7  C   UNL d   1       5.677   0.333 -17.394  0.00  0.00     0.137 C 
ATOM      8  C   UNL d   1       6.525   0.946 -16.259  0.00  0.00     0.274 C 
BRANCH   6   9
ATOM      9  C   UNL d   1       5.766  -2.119 -17.974  0.00  0.00     0.079 A 
ATOM     10  C   UNL d   1       7.021  -2.138 -18.645  0.00  0.00     0.110 A 
ATOM     11  C   UNL d   1       7.316  -3.212 -19.523  0.00  0.00     0.026 A 
ATOM     12  C   UNL d   1       6.400  -4.261 -19.717  0.00  0.00     0.002 A 
ATOM     13  C   UNL d   1       5.170  -4.249 -19.039  0.00  0.00     0.002 A 
ATOM     14  C   UNL d   1       4.859  -3.182 -18.174  0.00  0.00     0.019 A 
BRANCH  10  15
ATOM     15  O   UNL d   1       7.914  -1.117 -18.387  0.00  0.00    -0.327 OA
ATOM     16  C   UNL d   1       9.198  -1.153 -18.981  0.00  0.00     0.181 C 
ENDBRANCH  10  15
ENDBRANCH   6   9
ENDBRANCH   2   3
ENDBRANCH   1   2
BRANCH   1  17
ATOM     17  C   UNL d   1       7.132   3.643 -12.726  0.00  0.00     0.029 C 
BRANCH  17  18
ATOM     18  C   UNL d   1       7.030   5.176 -12.730  0.00  0.00     0.129 C 
BRANCH  18  19
ATOM     19  N   UNL d   1       7.684   5.755 -11.558  0.00  0.00    -0.234 NA
ATOM     20  C   UNL d   1       9.011   5.883 -11.409  0.00  0.00     0.275 C 
ATOM     21  O   UNL d   1       9.821   5.586 -12.289  0.00  0.00    -0.266 OA
BRANCH  20  22
ATOM     22  C   UNL d   1       9.466   6.438 -10.091  0.00  0.00     0.058 A 
ATOM     23  C   UNL d   1      10.390   7.505 -10.056  0.00  0.00     0.005 A 
ATOM     24  C   UNL d   1      10.852   8.018  -8.830  0.00  0.00     0.000 A 
ATOM     25  C   UNL d   1      10.387   7.476  -7.615  0.00  0.00     0.001 A 
ATOM     26  C   UNL d   1       9.456   6.415  -7.645  0.00  0.00     0.000 A 
ATOM     27  C   UNL d   1       9.003   5.893  -8.874  0.00  0.00     0.005 A 
BRANCH  25  28
ATOM     28  C   UNL d   1      10.859   8.027  -6.344  0.00  0.00     0.007 A 
ATOM     29  C   UNL d   1      11.065   9.352  -6.049  0.00  0.00     0.035 A 
ATOM     30  S   UNL d   1      11.621   9.585  -4.416  0.00  0.00    -0.086 SA
ATOM     31  C   UNL d   1      11.632   7.867  -4.141  0.00  0.00     0.035 A 
ATOM     32  C   UNL d   1      11.180   7.180  -5.238  0.00  0.00     0.007 A 
ENDBRANCH  25  28
ENDBRANCH  20  22
ENDBRANCH  18  19
ENDBRANCH  17  18
ENDBRANCH   1  17
TORSDOF 9
