REMARK  2 active torsions:
REMARK  status: ('A' for Active; 'I' for Inactive)
REMARK       I    between atoms: C_2  and  N_3 
REMARK       I    between atoms: C_2  and  N_10 
REMARK    1  A    between atoms: N_3  and  C_4 
REMARK    2  A    between atoms: N_10  and  C_11 
ROOT
ATOM      1  N   UNL d   1      11.459  10.277  -6.833  0.00  0.00     0.062 N 
ATOM      2  C   UNL d   1      10.992   9.096  -7.007  0.00  0.00     0.768 C 
ATOM      3  N   UNL d   1      10.484   8.729  -8.239  0.00  0.00    -0.058 NA
ATOM      4  N   UNL d   1      10.982   8.142  -6.007  0.00  0.00    -0.058 NA
ENDROOT
BRANCH   3   5
ATOM      5  C   UNL d   1      10.002   7.556  -8.838  0.00  0.00     0.100 A 
ATOM      6  C   UNL d   1       9.940   7.505 -10.250  0.00  0.00     0.020 A 
ATOM      7  C   UNL d   1       9.435   6.362 -10.894  0.00  0.00     0.002 A 
ATOM      8  C   UNL d   1       8.994   5.258 -10.145  0.00  0.00     0.000 A 
ATOM      9  C   UNL d   1       9.061   5.298  -8.744  0.00  0.00     0.002 A 
ATOM     10  C   UNL d   1       9.548   6.438  -8.091  0.00  0.00     0.020 A 
ENDBRANCH   3   5
BRANCH   4  11
ATOM     11  C   UNL d   1      11.470   8.106  -4.697  0.00  0.00     0.100 A 
ATOM     12  C   UNL d   1      11.637   9.279  -3.921  0.00  0.00     0.020 A 
ATOM     13  C   UNL d   1      12.125   9.199  -2.615  0.00  0.00     0.002 A 
ATOM     14  C   UNL d   1      12.421   7.958  -2.039  0.00  0.00     0.000 A 
ATOM     15  C   UNL d   1      12.249   6.782  -2.795  0.00  0.00     0.002 A 
ATOM     16  C   UNL d   1      11.779   6.858  -4.125  0.00  0.00     0.020 A 
ENDBRANCH   4  11
TORSDOF 2
