REMARK  5 active torsions:
REMARK  status: ('A' for Active; 'I' for Inactive)
REMARK    1  A    between atoms: C_6  and  C_7 
REMARK    2  A    between atoms: C_10  and  C_11 
REMARK       I    between atoms: C_11  and  N_13 
REMARK    3  A    between atoms: N_13  and  C_14 
REMARK    4  A    between atoms: N_17  and  C_18 
REMARK    5  A    between atoms: C_18  and  C_19 
ROOT
ATOM      1  C   UNL d   1       9.094   5.660 -11.686  0.00  0.00     0.275 C 
ATOM      2  O   UNL d   1       9.859   5.649 -12.645  0.00  0.00    -0.266 OA
ATOM      3  N   UNL d   1       7.835   5.191 -11.725  0.00  0.00    -0.234 NA
ENDROOT
BRANCH   1   4
ATOM      4  C   UNL d   1       9.498   6.239 -10.372  0.00  0.00     0.058 A 
ATOM      5  C   UNL d   1      10.258   7.435 -10.339  0.00  0.00     0.005 A 
ATOM      6  C   UNL d   1      10.666   7.977  -9.113  0.00  0.00     0.000 A 
ATOM      7  C   UNL d   1      10.321   7.350  -7.896  0.00  0.00     0.000 A 
ATOM      8  C   UNL d   1       9.559   6.161  -7.944  0.00  0.00     0.000 A 
ATOM      9  C   UNL d   1       9.157   5.603  -9.169  0.00  0.00     0.005 A 
BRANCH   7  10
ATOM     10  C   UNL d   1      10.750   7.924  -6.605  0.00  0.00     0.001 A 
ATOM     11  C   UNL d   1      10.809   9.320  -6.423  0.00  0.00     0.000 A 
ATOM     12  C   UNL d   1      11.215   9.877  -5.195  0.00  0.00     0.001 A 
ATOM     13  C   UNL d   1      11.583   9.034  -4.128  0.00  0.00     0.014 A 
ATOM     14  C   UNL d   1      11.534   7.640  -4.292  0.00  0.00     0.070 A 
ATOM     15  N   UNL d   1      11.897   6.792  -3.244  0.00  0.00    -0.101 NA
ATOM     16  C   UNL d   1      11.111   7.089  -5.521  0.00  0.00     0.014 A 
ENDBRANCH   7  10
ENDBRANCH   1   4
BRANCH   3  17
ATOM     17  C   UNL d   1       7.183   4.734 -12.934  0.00  0.00     0.142 C 
ATOM     18  C   UNL d   1       7.925   3.591 -13.643  0.00  0.00     0.275 C 
ATOM     19  N   UNL d   1       6.855   2.771 -14.209  0.00  0.00     0.143 N 
ATOM     20  C   UNL d   1       5.848   2.768 -13.155  0.00  0.00     0.253 C 
ATOM     21  C   UNL d   1       5.792   4.191 -12.640  0.00  0.00     0.062 C 
BRANCH  19  22
ATOM     22  C   UNL d   1       7.344   1.422 -14.553  0.00  0.00     0.277 C 
BRANCH  22  23
ATOM     23  C   UNL d   1       6.285   0.459 -15.083  0.00  0.00     0.011 A 
ATOM     24  C   UNL d   1       6.293   0.074 -16.442  0.00  0.00    -0.002 A 
ATOM     25  C   UNL d   1       5.287  -0.787 -16.942  0.00  0.00    -0.000 A 
ATOM     26  C   UNL d   1       4.257  -1.240 -16.096  0.00  0.00    -0.000 A 
ATOM     27  C   UNL d   1       4.249  -0.858 -14.742  0.00  0.00    -0.000 A 
ATOM     28  C   UNL d   1       5.289  -0.054 -14.225  0.00  0.00    -0.002 A 
ENDBRANCH  22  23
ENDBRANCH  19  22
ENDBRANCH   3  17
TORSDOF 5
