REMARK  0 active torsions:
REMARK  status: ('A' for Active; 'I' for Inactive)
ROOT
ATOM      1  S   UNL d   1      11.460  10.643  -6.188  0.00  0.00    -0.028 SA
ATOM      2  C   UNL d   1      11.461   9.000  -5.508  0.00  0.00     0.139 A 
ATOM      3  N   UNL d   1      11.050   8.020  -6.327  0.00  0.00    -0.215 NA
ATOM      4  C   UNL d   1      11.069   6.788  -5.824  0.00  0.00     0.201 A 
ATOM      5  N   UNL d   1      11.479   6.389  -4.611  0.00  0.00    -0.203 NA
ATOM      6  C   UNL d   1      11.863   7.370  -3.797  0.00  0.00     0.185 A 
ATOM      7  N   UNL d   1      12.275   7.240  -2.479  0.00  0.00    -0.203 NA
ATOM      8  C   UNL d   1      12.504   8.511  -2.149  0.00  0.00     0.201 A 
ATOM      9  N   UNL d   1      12.277   9.438  -3.092  0.00  0.00    -0.219 NA
ATOM     10  C   UNL d   1      11.861   8.728  -4.199  0.00  0.00     0.143 A 
ENDROOT
TORSDOF 0
