REMARK  6 active torsions:
REMARK  status: ('A' for Active; 'I' for Inactive)
REMARK    1  A    between atoms: C_2  and  C_3 
REMARK    2  A    between atoms: C_2  and  N_13 
REMARK    3  A    between atoms: C_7  and  C_8 
REMARK    4  A    between atoms: N_16  and  C_17 
REMARK    5  A    between atoms: C_17  and  C_18 
REMARK    6  A    between atoms: C_18  and  N_19 
ROOT
ATOM      1  N   UNL d   1       8.670   5.219 -13.310  0.00  0.00    -0.299 N 
ATOM      2  C   UNL d   1       7.469   6.042 -13.189  0.00  0.00     0.130 C 
ATOM      3  C   UNL d   1       7.399   6.357 -11.726  0.00  0.00     0.130 C 
ATOM      4  N   UNL d   1       8.566   5.682 -11.195  0.00  0.00    -0.299 N 
ATOM      5  C   UNL d   1       9.150   4.895 -12.111  0.00  0.00     0.324 C 
ATOM      6  O   UNL d   1      10.001   4.036 -11.921  0.00  0.00    -0.247 OA
ENDROOT
BRANCH   1   7
ATOM      7  C   UNL d   1       9.113   4.617 -14.589  0.00  0.00     0.108 C 
ATOM      8  C   UNL d   1      10.625   4.906 -14.858  0.00  0.00     0.029 C 
BRANCH   7   9
ATOM      9  C   UNL d   1       8.743   3.117 -14.652  0.00  0.00    -0.002 A 
ATOM     10  C   UNL d   1       7.461   2.689 -14.225  0.00  0.00     0.001 A 
ATOM     11  C   UNL d   1       7.091   1.328 -14.255  0.00  0.00     0.071 A 
ATOM     12  C   UNL d   1       8.008   0.370 -14.725  0.00  0.00     0.004 A 
ATOM     13  C   UNL d   1       9.292   0.767 -15.142  0.00  0.00    -0.000 A 
ATOM     14  C   UNL d   1       9.656   2.129 -15.109  0.00  0.00    -0.003 A 
BRANCH  11  15
ATOM     15  C   UNL d   1       5.737   0.873 -13.734  0.00  0.00     0.419 C 
ATOM     16  F   UNL d   1       5.922  -0.069 -12.821  0.00  0.00    -0.166 F 
ATOM     17  F   UNL d   1       5.058   1.869 -13.171  0.00  0.00    -0.166 F 
ATOM     18  F   UNL d   1       5.013   0.384 -14.737  0.00  0.00    -0.166 F 
ENDBRANCH  11  15
ENDBRANCH   7   9
ENDBRANCH   1   7
BRANCH   4  19
ATOM     19  C   UNL d   1       8.878   5.839  -9.785  0.00  0.00     0.141 C 
BRANCH  19  20
ATOM     20  C   UNL d   1       9.729   7.104  -9.520  0.00  0.00     0.275 C 
BRANCH  20  21
ATOM     21  N   UNL d   1       9.798   7.413  -8.096  0.00  0.00     0.148 N 
ATOM     22  C   UNL d   1      10.608   6.478  -7.324  0.00  0.00     0.277 C 
ATOM     23  C   UNL d   1      10.978   7.268  -6.096  0.00  0.00     0.009 A 
ATOM     24  C   UNL d   1      10.803   8.607  -6.371  0.00  0.00     0.009 A 
ATOM     25  C   UNL d   1      11.462   6.820  -4.856  0.00  0.00    -0.003 A 
ATOM     26  C   UNL d   1      10.324   8.746  -7.795  0.00  0.00     0.277 C 
ATOM     27  C   UNL d   1      11.071   9.600  -5.412  0.00  0.00    -0.003 A 
ATOM     28  C   UNL d   1      11.548   9.174  -4.148  0.00  0.00    -0.000 A 
ATOM     29  C   UNL d   1      11.756   7.798  -3.875  0.00  0.00    -0.000 A 
ENDBRANCH  20  21
ENDBRANCH  19  20
ENDBRANCH   4  19
TORSDOF 6
