REMARK  3 active torsions:
REMARK  status: ('A' for Active; 'I' for Inactive)
REMARK    1  A    between atoms: C_2  and  C_3 
REMARK    2  A    between atoms: C_3  and  N_4 
REMARK    3  A    between atoms: N_4  and  C_5 
ROOT
ATOM      1  C   UNL d   1      10.100   7.830  -6.407  0.00  0.00     0.283 C 
ATOM      2  C   UNL d   1       9.710   6.379  -6.775  0.00  0.00     0.066 C 
ATOM      3  C   UNL d   1       9.296   6.167  -8.195  0.00  0.00    -0.003 A 
ATOM      4  C   UNL d   1       8.611   5.071  -8.736  0.00  0.00    -0.003 A 
ATOM      5  C   UNL d   1       8.355   5.059 -10.112  0.00  0.00     0.001 A 
ATOM      6  C   UNL d   1       8.837   6.086 -10.945  0.00  0.00     0.021 A 
ATOM      7  C   UNL d   1       9.566   7.157 -10.417  0.00  0.00     0.101 A 
ATOM      8  N   UNL d   1      10.092   8.250 -11.033  0.00  0.00    -0.203 NA
ATOM      9  C   UNL d   1      10.716   8.804  -9.982  0.00  0.00     0.282 A 
ATOM     10  O   UNL d   1      11.462   9.941  -9.976  0.00  0.00    -0.149 OA
ATOM     11  N   UNL d   1      10.547   8.203  -8.796  0.00  0.00    -0.288 N 
ATOM     12  C   UNL d   1       9.800   7.139  -9.063  0.00  0.00     0.077 A 
ATOM     13  C   UNL d   1      10.995   8.492  -7.449  0.00  0.00     0.146 C 
ENDROOT
BRANCH   1  14
ATOM     14  N   UNL d   1      10.758   7.985  -5.120  0.00  0.00     0.339 N 
BRANCH  14  15
ATOM     15  C   UNL d   1      11.482   6.801  -4.670  0.00  0.00     0.290 C 
BRANCH  15  16
ATOM     16  C   UNL d   1      12.372   7.113  -3.484  0.00  0.00     0.038 C 
ATOM     17  C   UNL d   1      11.622   7.662  -2.272  0.00  0.00     0.002 C 
ENDBRANCH  15  16
ENDBRANCH  14  15
ENDBRANCH   1  14
TORSDOF 3
