REMARK  6 active torsions:
REMARK  status: ('A' for Active; 'I' for Inactive)
REMARK    1  A    between atoms: O_2  and  C_3 
REMARK    2  A    between atoms: C_15  and  O_16 
REMARK    3  A    between atoms: O_16  and  C_17 
REMARK    4  A    between atoms: C_17  and  C_18 
REMARK    5  A    between atoms: C_18  and  C_19 
REMARK    6  A    between atoms: C_21  and  O_22 
ROOT
ATOM      1  C   UNL d   1       7.575   0.660 -16.204  0.00  0.00     0.119 A 
ATOM      2  C   UNL d   1       8.540   1.614 -16.531  0.00  0.00     0.022 A 
ATOM      3  C   UNL d   1       8.756   2.737 -15.690  0.00  0.00    -0.020 A 
ATOM      4  C   UNL d   1       8.036   2.904 -14.480  0.00  0.00     0.007 A 
ATOM      5  C   UNL d   1       7.059   1.926 -14.156  0.00  0.00     0.027 A 
ATOM      6  C   UNL d   1       6.891   0.789 -14.974  0.00  0.00     0.153 A 
ATOM      7  O   UNL d   1       6.054  -0.207 -14.559  0.00  0.00    -0.188 OA
ATOM      8  C   UNL d   1       8.268   4.156 -13.609  0.00  0.00     0.246 C 
ATOM      9  C   UNL d   1       8.404   3.846 -12.124  0.00  0.00     0.064 C 
ATOM     10  C   UNL d   1       8.796   4.938 -11.156  0.00  0.00    -0.020 C 
ATOM     11  C   UNL d   1       8.660   4.791  -9.754  0.00  0.00    -0.002 C 
ATOM     12  C   UNL d   1       9.055   5.842  -8.918  0.00  0.00     0.026 C 
ATOM     13  C   UNL d   1       9.571   7.046  -9.457  0.00  0.00     0.116 C 
ATOM     14  C   UNL d   1       9.600   7.209 -10.865  0.00  0.00     0.114 C 
ATOM     15  C   UNL d   1       9.296   6.114 -11.711  0.00  0.00     0.031 C 
ATOM     16  C   UNL d   1       9.385   6.159 -13.235  0.00  0.00     0.279 C 
ATOM     17  N   UNL d   1       9.492   4.880 -13.930  0.00  0.00     0.144 N 
ATOM     18  C   UNL d   1       9.542   5.097 -15.359  0.00  0.00     0.256 C 
ATOM     19  C   UNL d   1       9.773   3.789 -16.093  0.00  0.00     0.061 C 
ENDROOT
BRANCH  13  20
ATOM     20  O   UNL d   1       9.941   8.124  -8.685  0.00  0.00    -0.329 OA
BRANCH  20  21
ATOM     21  C   UNL d   1       9.982   7.947  -7.285  0.00  0.00     0.152 C 
BRANCH  21  22
ATOM     22  C   UNL d   1      10.813   9.094  -6.715  0.00  0.00     0.068 C 
BRANCH  22  23
ATOM     23  C   UNL d   1      11.203   8.815  -5.262  0.00  0.00     0.185 C 
ATOM     24  O   UNL d   1      11.083   9.983  -4.481  0.00  0.00    -0.221 OA
ENDBRANCH  22  23
ENDBRANCH  21  22
ENDBRANCH  20  21
ENDBRANCH  13  20
BRANCH  14  25
ATOM     25  O   UNL d   1       9.905   8.436 -11.405  0.00  0.00    -0.326 OA
ATOM     26  C   UNL d   1       8.836   9.116 -12.020  0.00  0.00     0.181 C 
ENDBRANCH  14  25
BRANCH   1  27
ATOM     27  O   UNL d   1       7.470  -0.414 -17.056  0.00  0.00    -0.326 OA
ATOM     28  C   UNL d   1       6.191  -0.522 -17.681  0.00  0.00     0.181 C 
ENDBRANCH   1  27
TORSDOF 6
