REMARK  3 active torsions:
REMARK  status: ('A' for Active; 'I' for Inactive)
REMARK    1  A    between atoms: O_2  and  C_3 
REMARK    2  A    between atoms: N_13  and  C_14 
REMARK    3  A    between atoms: C_14  and  C_15 
ROOT
ATOM      1  C   UNL d   1       6.742   0.734 -18.922  0.00  0.00     0.096 A 
ATOM      2  C   UNL d   1       7.678   1.566 -19.582  0.00  0.00     0.024 A 
ATOM      3  C   UNL d   1       8.866   1.963 -18.935  0.00  0.00    -0.000 A 
ATOM      4  C   UNL d   1       9.155   1.534 -17.629  0.00  0.00     0.002 A 
ATOM      5  C   UNL d   1       8.229   0.681 -16.960  0.00  0.00     0.092 A 
ATOM      6  C   UNL d   1       7.037   0.305 -17.604  0.00  0.00     0.048 A 
ATOM      7  O   UNL d   1       8.460   0.231 -15.700  0.00  0.00    -0.331 OA
ATOM      8  C   UNL d   1       9.829  -0.038 -15.408  0.00  0.00     0.151 C 
ATOM      9  C   UNL d   1      10.726   1.195 -15.614  0.00  0.00     0.070 C 
ATOM     10  C   UNL d   1      10.640   2.194 -14.466  0.00  0.00     0.254 C 
ATOM     11  N   UNL d   1      10.878   3.472 -15.132  0.00  0.00     0.142 N 
ATOM     12  C   UNL d   1      10.248   3.459 -16.447  0.00  0.00     0.255 C 
ATOM     13  C   UNL d   1      10.397   1.996 -16.887  0.00  0.00     0.062 C 
ENDROOT
BRANCH  11  14
ATOM     14  C   UNL d   1      10.524   4.643 -14.332  0.00  0.00     0.277 C 
BRANCH  14  15
ATOM     15  C   UNL d   1       9.130   4.597 -13.711  0.00  0.00     0.011 A 
ATOM     16  C   UNL d   1       8.810   5.439 -12.612  0.00  0.00    -0.002 A 
ATOM     17  C   UNL d   1       7.557   5.376 -12.013  0.00  0.00    -0.000 A 
ATOM     18  C   UNL d   1       6.568   4.480 -12.482  0.00  0.00    -0.000 A 
ATOM     19  C   UNL d   1       6.863   3.643 -13.573  0.00  0.00    -0.000 A 
ATOM     20  C   UNL d   1       8.127   3.722 -14.199  0.00  0.00    -0.002 A 
ENDBRANCH  14  15
ENDBRANCH  11  14
BRANCH   1  21
ATOM     21  O   UNL d   1       5.579   0.366 -19.562  0.00  0.00    -0.328 OA
ATOM     22  C   UNL d   1       4.685  -0.485 -18.849  0.00  0.00     0.181 C 
ENDBRANCH   1  21
TORSDOF 3
