REMARK  6 active torsions:
REMARK  status: ('A' for Active; 'I' for Inactive)
REMARK       I    between atoms: C_2  and  N_3 
REMARK    1  A    between atoms: C_2  and  C_27 
REMARK    2  A    between atoms: N_3  and  C_4 
REMARK    3  A    between atoms: C_7  and  C_8 
REMARK    4  A    between atoms: C_8  and  C_9 
REMARK    5  A    between atoms: C_9  and  N_10 
REMARK    6  A    between atoms: N_13  and  C_14 
ROOT
ATOM      1  N   UNL d   1       7.955   4.849 -12.162  0.00  0.00     0.141 N 
ATOM      2  C   UNL d   1       8.955   4.016 -12.822  0.00  0.00     0.274 C 
ATOM      3  C   UNL d   1       8.543   3.710 -14.243  0.00  0.00     0.138 C 
ATOM      4  N   UNL d   1       7.214   3.095 -14.273  0.00  0.00    -0.330 N 
ATOM      5  C   UNL d   1       6.174   3.833 -13.540  0.00  0.00     0.138 C 
ATOM      6  C   UNL d   1       6.660   4.142 -12.115  0.00  0.00     0.274 C 
ENDROOT
BRANCH   1   7
ATOM      7  C   UNL d   1       8.444   5.107 -10.819  0.00  0.00     0.250 C 
BRANCH   7   8
ATOM      8  C   UNL d   1       9.333   6.357 -10.808  0.00  0.00     0.035 C 
BRANCH   8   9
ATOM      9  C   UNL d   1      10.046   6.551  -9.456  0.00  0.00     0.002 C 
ATOM     10  C   UNL d   1      10.824   7.884  -9.430  0.00  0.00     0.002 C 
ATOM     11  C   UNL d   1      11.522   8.119  -8.082  0.00  0.00     0.024 C 
ATOM     12  C   UNL d   1      10.514   8.030  -6.923  0.00  0.00     0.107 C 
ATOM     13  C   UNL d   1       9.796   6.688  -6.927  0.00  0.00     0.024 C 
ATOM     14  C   UNL d   1       9.082   6.456  -8.254  0.00  0.00     0.002 C 
BRANCH  12  15
ATOM     15  N   UNL d   1      11.197   8.174  -5.656  0.00  0.00    -0.233 NA
ATOM     16  C   UNL d   1      11.249   9.299  -4.937  0.00  0.00     0.347 C 
ATOM     17  O   UNL d   1      10.667  10.340  -5.228  0.00  0.00    -0.261 OA
BRANCH  16  18
ATOM     18  C   UNL d   1      12.195   9.261  -3.743  0.00  0.00     0.474 C 
ATOM     19  F   UNL d   1      13.395   9.590  -4.215  0.00  0.00    -0.162 F 
ATOM     20  F   UNL d   1      11.806  10.155  -2.839  0.00  0.00    -0.162 F 
ATOM     21  F   UNL d   1      12.219   8.043  -3.179  0.00  0.00    -0.162 F 
ENDBRANCH  16  18
ENDBRANCH  12  15
ENDBRANCH   8   9
ENDBRANCH   7   8
ENDBRANCH   1   7
BRANCH   4  22
ATOM     22  C   UNL d   1       6.961   1.913 -14.961  0.00  0.00     0.138 A 
ATOM     23  C   UNL d   1       7.619   1.530 -16.175  0.00  0.00     0.036 A 
ATOM     24  C   UNL d   1       7.260   0.366 -16.822  0.00  0.00     0.095 A 
ATOM     25  C   UNL d   1       8.656   2.236 -17.009  0.00  0.00     0.064 C 
ATOM     26  C   UNL d   1       6.250  -0.453 -16.302  0.00  0.00     0.045 A 
ATOM     27  O   UNL d   1       7.958   0.151 -17.979  0.00  0.00    -0.331 OA
ATOM     28  C   UNL d   1       5.649  -0.037 -15.099  0.00  0.00     0.103 A 
ATOM     29  N   UNL d   1       5.990   1.099 -14.449  0.00  0.00    -0.228 NA
ATOM     30  C   UNL d   1       8.930   1.197 -18.106  0.00  0.00     0.154 C 
ENDBRANCH   4  22
TORSDOF 6
