REMARK  7 active torsions:
REMARK  status: ('A' for Active; 'I' for Inactive)
REMARK    1  A    between atoms: C_7  and  C_8 
REMARK    2  A    between atoms: N_11  and  C_12 
REMARK    3  A    between atoms: C_12  and  C_13 
REMARK    4  A    between atoms: C_13  and  C_14 
REMARK    5  A    between atoms: C_14  and  C_15 
REMARK    6  A    between atoms: C_15  and  C_16 
REMARK    7  A    between atoms: C_16  and  N_17 
ROOT
ATOM      1  C   UNL d   1       7.763   2.960 -13.990  0.00  0.00    -0.021 C 
ATOM      2  C   UNL d   1       9.051   3.369 -14.004  0.00  0.00     0.005 C 
ATOM      3  C   UNL d   1       9.519   4.711 -13.500  0.00  0.00     0.276 C 
ATOM      4  N   UNL d   1       8.426   5.651 -13.251  0.00  0.00     0.142 N 
ATOM      5  C   UNL d   1       7.300   5.021 -12.569  0.00  0.00     0.255 C 
ATOM      6  C   UNL d   1       6.709   3.891 -13.394  0.00  0.00     0.061 C 
ENDROOT
BRANCH   4   7
ATOM      7  C   UNL d   1       8.872   6.862 -12.582  0.00  0.00     0.251 C 
BRANCH   7   8
ATOM      8  C   UNL d   1       9.205   6.667 -11.092  0.00  0.00     0.035 C 
BRANCH   8   9
ATOM      9  C   UNL d   1       9.646   7.969 -10.436  0.00  0.00     0.004 C 
BRANCH   9  10
ATOM     10  C   UNL d   1      10.065   7.629  -9.005  0.00  0.00     0.025 C 
BRANCH  10  11
ATOM     11  C   UNL d   1       9.910   8.808  -8.025  0.00  0.00     0.112 C 
BRANCH  11  12
ATOM     12  N   UNL d   1      10.537   8.596  -6.707  0.00  0.00    -0.264 N 
ATOM     13  C   UNL d   1      10.439   7.399  -6.039  0.00  0.00     0.263 A 
ATOM     14  C   UNL d   1      11.252   7.589  -4.812  0.00  0.00     0.061 A 
ATOM     15  O   UNL d   1       9.797   6.404  -6.307  0.00  0.00    -0.267 OA
ATOM     16  C   UNL d   1      11.668   8.887  -4.748  0.00  0.00     0.061 A 
ATOM     17  C   UNL d   1      11.483   6.694  -3.757  0.00  0.00     0.005 A 
ATOM     18  C   UNL d   1      11.240   9.546  -6.012  0.00  0.00     0.263 A 
ATOM     19  C   UNL d   1      12.345   9.367  -3.614  0.00  0.00     0.005 A 
ATOM     20  O   UNL d   1      11.499  10.717  -6.321  0.00  0.00    -0.267 OA
ATOM     21  C   UNL d   1      12.593   8.486  -2.538  0.00  0.00     0.000 A 
ATOM     22  C   UNL d   1      12.158   7.145  -2.600  0.00  0.00     0.000 A 
ENDBRANCH  11  12
ENDBRANCH  10  11
ENDBRANCH   9  10
ENDBRANCH   8   9
ENDBRANCH   7   8
ENDBRANCH   4   7
BRANCH   1  23
ATOM     23  C   UNL d   1       7.391   1.594 -14.433  0.00  0.00     0.016 A 
ATOM     24  C   UNL d   1       6.149   0.890 -14.147  0.00  0.00     0.018 A 
ATOM     25  C   UNL d   1       4.921   1.135 -13.496  0.00  0.00     0.002 A 
ATOM     26  C   UNL d   1       6.237  -0.355 -14.836  0.00  0.00     0.077 A 
ATOM     27  C   UNL d   1       3.822   0.272 -13.633  0.00  0.00    -0.000 A 
ATOM     28  C   UNL d   1       3.926  -0.946 -14.314  0.00  0.00    -0.003 A 
ATOM     29  C   UNL d   1       5.157  -1.262 -14.901  0.00  0.00    -0.004 A 
ATOM     30  C   UNL d   1       5.302  -2.586 -15.589  0.00  0.00     0.033 C 
ATOM     31  N   UNL d   1       7.499  -0.406 -15.384  0.00  0.00    -0.244 NA
ATOM     32  C   UNL d   1       8.230   0.741 -15.105  0.00  0.00     0.099 A 
ENDBRANCH   1  23
TORSDOF 7
