REMARK  8 active torsions:
REMARK  status: ('A' for Active; 'I' for Inactive)
REMARK    1  A    between atoms: C_2  and  C_3 
REMARK       I    between atoms: C_2  and  N_14 
REMARK    2  A    between atoms: C_3  and  C_4 
REMARK    3  A    between atoms: C_4  and  C_5 
REMARK    4  A    between atoms: C_5  and  C_6 
REMARK    5  A    between atoms: C_6  and  C_8 
REMARK    6  A    between atoms: N_14  and  C_15 
REMARK    7  A    between atoms: C_15  and  C_16 
REMARK    8  A    between atoms: C_16  and  C_17 
ROOT
ATOM      1  O   UNL d   1       9.602   9.170  -8.966  0.00  0.00    -0.271 OA
ATOM      2  C   UNL d   1      10.537   8.681  -9.607  0.00  0.00     0.251 C 
ATOM      3  N   UNL d   1      10.423   8.205 -10.840  0.00  0.00    -0.238 NA
ENDROOT
BRANCH   2   4
ATOM      4  C   UNL d   1      11.938   8.596  -9.004  0.00  0.00     0.090 C 
BRANCH   4   5
ATOM      5  C   UNL d   1      11.906   8.484  -7.485  0.00  0.00     0.013 C 
BRANCH   5   6
ATOM      6  C   UNL d   1      11.493   7.057  -7.042  0.00  0.00     0.038 C 
BRANCH   6   7
ATOM      7  C   UNL d   1      10.646   7.035  -5.772  0.00  0.00     0.174 C 
ATOM      8  O   UNL d   1       9.463   7.745  -6.043  0.00  0.00    -0.219 OA
BRANCH   7   9
ATOM      9  C   UNL d   1      11.381   7.580  -4.561  0.00  0.00     0.008 A 
ATOM     10  C   UNL d   1      11.896   6.678  -3.614  0.00  0.00    -0.002 A 
ATOM     11  C   UNL d   1      12.525   7.138  -2.443  0.00  0.00    -0.000 A 
ATOM     12  C   UNL d   1      12.652   8.519  -2.220  0.00  0.00    -0.000 A 
ATOM     13  C   UNL d   1      12.117   9.427  -3.153  0.00  0.00    -0.000 A 
ATOM     14  C   UNL d   1      11.475   8.967  -4.319  0.00  0.00    -0.002 A 
ENDBRANCH   7   9
ENDBRANCH   6   7
ENDBRANCH   5   6
ENDBRANCH   4   5
ENDBRANCH   2   4
BRANCH   3  15
ATOM     15  C   UNL d   1       9.230   8.055 -11.637  0.00  0.00     0.129 C 
BRANCH  15  16
ATOM     16  C   UNL d   1       8.747   6.588 -11.591  0.00  0.00     0.035 C 
BRANCH  16  17
ATOM     17  C   UNL d   1       7.688   6.263 -12.665  0.00  0.00     0.046 A 
ATOM     18  C   UNL d   1       7.900   4.932 -13.370  0.00  0.00    -0.018 A 
ATOM     19  C   UNL d   1       6.812   4.084 -13.155  0.00  0.00    -0.004 A 
ATOM     20  C   UNL d   1       8.962   4.536 -14.201  0.00  0.00    -0.004 A 
ATOM     21  C   UNL d   1       5.859   4.779 -12.319  0.00  0.00    -0.005 A 
ATOM     22  C   UNL d   1       6.737   2.806 -13.730  0.00  0.00    -0.000 A 
ATOM     23  C   UNL d   1       6.323   6.003 -12.055  0.00  0.00    -0.022 A 
ATOM     24  C   UNL d   1       7.812   2.384 -14.540  0.00  0.00    -0.000 A 
ATOM     25  C   UNL d   1       8.910   3.246 -14.782  0.00  0.00    -0.000 A 
ENDBRANCH  16  17
ENDBRANCH  15  16
ENDBRANCH   3  15
TORSDOF 8
