REMARK  6 active torsions:
REMARK  status: ('A' for Active; 'I' for Inactive)
REMARK       I    between atoms: C_2  and  N_3 
REMARK    1  A    between atoms: C_2  and  C_27 
REMARK    2  A    between atoms: N_3  and  C_4 
REMARK    3  A    between atoms: C_7  and  C_8 
REMARK    4  A    between atoms: C_8  and  C_9 
REMARK    5  A    between atoms: C_9  and  N_10 
REMARK    6  A    between atoms: N_13  and  C_14 
ROOT
ATOM      1  C   UNL d   1       9.835   4.704 -12.640  0.00  0.00     0.250 C 
ENDROOT
BRANCH   1   2
ATOM      2  C   UNL d   1       8.787   5.064 -11.567  0.00  0.00     0.035 C 
BRANCH   2   3
ATOM      3  C   UNL d   1       9.393   5.582 -10.257  0.00  0.00     0.002 C 
ATOM      4  C   UNL d   1       9.876   7.035 -10.414  0.00  0.00     0.002 C 
ATOM      5  C   UNL d   1      10.444   7.587  -9.111  0.00  0.00     0.024 C 
ATOM      6  C   UNL d   1       9.434   7.450  -7.957  0.00  0.00     0.107 C 
ATOM      7  C   UNL d   1       8.895   6.011  -7.812  0.00  0.00     0.024 C 
ATOM      8  C   UNL d   1       8.356   5.465  -9.130  0.00  0.00     0.002 C 
BRANCH   6   9
ATOM      9  N   UNL d   1      10.006   7.943  -6.709  0.00  0.00    -0.236 NA
ATOM     10  C   UNL d   1      11.039   7.400  -6.044  0.00  0.00     0.281 C 
ATOM     11  O   UNL d   1      11.628   6.386  -6.412  0.00  0.00    -0.265 OA
BRANCH  10  12
ATOM     12  C   UNL d   1      11.418   8.080  -4.802  0.00  0.00     0.087 A 
ATOM     13  S   UNL d   1      12.077   7.073  -3.538  0.00  0.00    -0.082 SA
ATOM     14  C   UNL d   1      12.273   8.447  -2.502  0.00  0.00     0.036 A 
ATOM     15  C   UNL d   1      11.856   9.602  -3.113  0.00  0.00     0.008 A 
ATOM     16  C   UNL d   1      11.374   9.397  -4.436  0.00  0.00     0.012 A 
ENDBRANCH  10  12
ENDBRANCH   6   9
ENDBRANCH   2   3
ENDBRANCH   1   2
BRANCH   1  17
ATOM     17  N   UNL d   1       9.243   4.236 -13.888  0.00  0.00     0.141 N 
ATOM     18  C   UNL d   1      10.310   3.997 -14.863  0.00  0.00     0.274 C 
ATOM     19  C   UNL d   1       9.697   3.555 -16.203  0.00  0.00     0.138 C 
ATOM     20  N   UNL d   1       8.850   2.382 -16.027  0.00  0.00    -0.329 N 
ATOM     21  C   UNL d   1       7.870   2.479 -14.957  0.00  0.00     0.138 C 
ATOM     22  C   UNL d   1       8.534   2.975 -13.668  0.00  0.00     0.274 C 
BRANCH  20  23
ATOM     23  C   UNL d   1       9.024   1.191 -16.760  0.00  0.00     0.148 A 
ATOM     24  C   UNL d   1       7.898   0.472 -17.322  0.00  0.00     0.042 A 
ATOM     25  C   UNL d   1       8.366  -0.686 -18.007  0.00  0.00     0.050 A 
ATOM     26  C   UNL d   1       6.497   0.699 -17.336  0.00  0.00     0.004 A 
ATOM     27  S   UNL d   1      10.113  -0.720 -17.854  0.00  0.00     0.015 SA
ATOM     28  C   UNL d   1       7.492  -1.583 -18.651  0.00  0.00     0.008 A 
ATOM     29  N   UNL d   1      10.228   0.703 -16.974  0.00  0.00    -0.192 NA
ATOM     30  C   UNL d   1       6.106  -1.330 -18.630  0.00  0.00     0.001 A 
ATOM     31  C   UNL d   1       5.612  -0.187 -17.977  0.00  0.00     0.000 A 
ENDBRANCH  20  23
ENDBRANCH   1  17
TORSDOF 6
