REMARK  7 active torsions:
REMARK  status: ('A' for Active; 'I' for Inactive)
REMARK       I    between atoms: C_2  and  N_3 
REMARK    1  A    between atoms: C_2  and  C_27 
REMARK    2  A    between atoms: N_3  and  C_4 
REMARK    3  A    between atoms: C_7  and  C_8 
REMARK    4  A    between atoms: C_8  and  C_9 
REMARK    5  A    between atoms: C_9  and  N_10 
REMARK    6  A    between atoms: C_13  and  C_14 
REMARK    7  A    between atoms: C_30  and  N_31 
ROOT
ATOM      1  C   UNL d   1       8.704   2.866 -15.250  0.00  0.00     0.107 C 
ATOM      2  C   UNL d   1       7.519   2.957 -14.262  0.00  0.00     0.024 C 
ATOM      3  C   UNL d   1       7.663   4.163 -13.326  0.00  0.00     0.002 C 
ATOM      4  C   UNL d   1       9.021   4.145 -12.614  0.00  0.00     0.002 C 
ATOM      5  C   UNL d   1      10.180   4.071 -13.625  0.00  0.00     0.002 C 
ATOM      6  C   UNL d   1      10.059   2.850 -14.531  0.00  0.00     0.024 C 
ENDROOT
BRANCH   4   7
ATOM      7  C   UNL d   1       9.174   5.356 -11.678  0.00  0.00     0.035 C 
BRANCH   7   8
ATOM      8  C   UNL d   1       8.454   5.211 -10.318  0.00  0.00     0.250 C 
BRANCH   8   9
ATOM      9  N   UNL d   1       8.957   6.127  -9.282  0.00  0.00     0.137 N 
ATOM     10  C   UNL d   1       8.540   5.630  -7.979  0.00  0.00     0.251 C 
ATOM     11  C   UNL d   1       8.951   6.590  -6.848  0.00  0.00     0.040 C 
ATOM     12  C   UNL d   1      10.465   6.814  -6.860  0.00  0.00     0.028 C 
ATOM     13  C   UNL d   1      10.911   7.214  -8.264  0.00  0.00     0.040 C 
ATOM     14  C   UNL d   1      10.408   6.218  -9.300  0.00  0.00     0.251 C 
BRANCH  12  15
ATOM     15  C   UNL d   1      10.875   7.851  -5.835  0.00  0.00     0.002 A 
ATOM     16  C   UNL d   1      11.483   7.499  -4.609  0.00  0.00     0.115 A 
ATOM     17  C   UNL d   1      11.853   8.445  -3.670  0.00  0.00     0.119 A 
ATOM     18  O   UNL d   1      11.800   6.275  -4.126  0.00  0.00    -0.300 OA
ATOM     19  C   UNL d   1      11.619   9.804  -3.878  0.00  0.00     0.026 A 
ATOM     20  O   UNL d   1      12.406   7.847  -2.586  0.00  0.00    -0.300 OA
ATOM     21  C   UNL d   1      11.051  10.187  -5.116  0.00  0.00     0.002 A 
ATOM     22  C   UNL d   1      10.656   9.232  -6.068  0.00  0.00    -0.002 A 
ATOM     23  C   UNL d   1      12.334   6.475  -2.842  0.00  0.00     0.304 A 
ENDBRANCH  12  15
ENDBRANCH   8   9
ENDBRANCH   7   8
ENDBRANCH   4   7
BRANCH   1  24
ATOM     24  N   UNL d   1       8.572   1.674 -16.084  0.00  0.00    -0.236 NA
ATOM     25  C   UNL d   1       8.146   1.702 -17.349  0.00  0.00     0.275 C 
ATOM     26  O   UNL d   1       8.104   2.709 -18.047  0.00  0.00    -0.266 OA
BRANCH  25  27
ATOM     27  C   UNL d   1       7.601   0.411 -17.857  0.00  0.00     0.058 A 
ATOM     28  C   UNL d   1       6.213   0.267 -18.034  0.00  0.00     0.006 A 
ATOM     29  C   UNL d   1       5.687  -0.946 -18.515  0.00  0.00     0.017 A 
ATOM     30  C   UNL d   1       6.542  -2.033 -18.832  0.00  0.00     0.056 A 
ATOM     31  C   UNL d   1       7.942  -1.850 -18.675  0.00  0.00     0.017 A 
ATOM     32  C   UNL d   1       8.469  -0.641 -18.181  0.00  0.00     0.006 A 
BRANCH  30  33
ATOM     33  N   UNL d   1       5.985  -3.247 -19.295  0.00  0.00    -0.343 N 
ATOM     34  C   UNL d   1       6.859  -4.263 -19.880  0.00  0.00     0.134 C 
ATOM     35  C   UNL d   1       7.395  -5.213 -18.784  0.00  0.00     0.167 C 
ATOM     36  O   UNL d   1       6.303  -5.785 -18.069  0.00  0.00    -0.350 OA
ATOM     37  C   UNL d   1       5.490  -4.792 -17.444  0.00  0.00     0.167 C 
ATOM     38  C   UNL d   1       4.906  -3.838 -18.501  0.00  0.00     0.134 C 
ENDBRANCH  30  33
ENDBRANCH  25  27
ENDBRANCH   1  24
TORSDOF 7
