REMARK  3 active torsions:
REMARK  status: ('A' for Active; 'I' for Inactive)
REMARK    1  A    between atoms: C_4  and  C_5 
REMARK    2  A    between atoms: C_5  and  N_6 
REMARK       I    between atoms: N_9  and  C_10 
REMARK    3  A    between atoms: C_10  and  C_12 
ROOT
ATOM      1  N   UNL d   1      10.220   2.768 -15.096  0.00  0.00     0.141 N 
ATOM      2  C   UNL d   1       9.083   3.602 -15.501  0.00  0.00     0.274 C 
ATOM      3  C   UNL d   1       9.138   5.015 -14.865  0.00  0.00     0.140 C 
ATOM      4  N   UNL d   1       9.298   4.932 -13.408  0.00  0.00    -0.312 N 
ATOM      5  C   UNL d   1       8.510   5.632 -12.542  0.00  0.00     0.257 C 
ATOM      6  O   UNL d   1       7.454   6.166 -12.856  0.00  0.00    -0.267 OA
ATOM      7  C   UNL d   1      10.349   4.010 -12.965  0.00  0.00     0.140 C 
ATOM      8  C   UNL d   1      10.191   2.641 -13.640  0.00  0.00     0.274 C 
ENDROOT
BRANCH   1   9
ATOM      9  C   UNL d   1      11.538   3.235 -15.535  0.00  0.00     0.251 C 
BRANCH   9  10
ATOM     10  C   UNL d   1      11.802   3.001 -17.029  0.00  0.00     0.048 C 
ATOM     11  C   UNL d   1      11.872   1.473 -17.307  0.00  0.00     0.072 C 
ATOM     12  C   UNL d   1      12.261   1.121 -18.751  0.00  0.00     0.175 C 
ATOM     13  O   UNL d   1      11.827   0.110 -19.306  0.00  0.00    -0.291 OA
ATOM     14  C   UNL d   1      13.209   2.038 -19.376  0.00  0.00     0.055 A 
ATOM     15  C   UNL d   1      13.536   3.219 -18.761  0.00  0.00     0.081 A 
ATOM     16  C   UNL d   1      13.933   2.039 -20.609  0.00  0.00     0.031 A 
ATOM     17  C   UNL d   1      13.061   3.755 -17.466  0.00  0.00     0.054 C 
ATOM     18  O   UNL d   1      14.432   3.932 -19.489  0.00  0.00    -0.309 OA
ATOM     19  C   UNL d   1      14.651   3.208 -20.613  0.00  0.00     0.122 A 
ENDBRANCH   9  10
ENDBRANCH   1   9
BRANCH   5  20
ATOM     20  C   UNL d   1       9.000   5.822 -11.148  0.00  0.00     0.056 A 
ATOM     21  C   UNL d   1       9.858   6.891 -10.837  0.00  0.00     0.007 A 
ATOM     22  C   UNL d   1      10.270   7.098  -9.506  0.00  0.00     0.030 A 
ATOM     23  C   UNL d   1       9.832   6.223  -8.493  0.00  0.00     0.140 A 
ATOM     24  C   UNL d   1       8.974   5.150  -8.808  0.00  0.00     0.030 A 
ATOM     25  F   UNL d   1      10.235   6.416  -7.213  0.00  0.00    -0.204 F 
ATOM     26  C   UNL d   1       8.550   4.956 -10.139  0.00  0.00     0.007 A 
ENDBRANCH   5  20
TORSDOF 3
