REMARK  8 active torsions:
REMARK  status: ('A' for Active; 'I' for Inactive)
REMARK    1  A    between atoms: O_2  and  C_3 
REMARK    2  A    between atoms: C_6  and  C_7 
REMARK    3  A    between atoms: C_7  and  C_8 
REMARK       I    between atoms: C_8  and  N_10 
REMARK    4  A    between atoms: N_10  and  C_11 
REMARK    5  A    between atoms: C_14  and  C_15 
REMARK    6  A    between atoms: C_15  and  C_16 
REMARK    7  A    between atoms: C_16  and  N_17 
REMARK    8  A    between atoms: N_20  and  C_21 
ROOT
ATOM      1  C   UNL d   1       9.956   6.892  -9.497  0.00  0.00     0.106 C 
ATOM      2  C   UNL d   1       8.952   5.877  -8.931  0.00  0.00     0.024 C 
ATOM      3  C   UNL d   1       8.802   4.664  -9.840  0.00  0.00     0.002 C 
ATOM      4  C   UNL d   1       8.454   5.098 -11.295  0.00  0.00     0.002 C 
ATOM      5  C   UNL d   1       9.468   6.105 -11.835  0.00  0.00     0.002 C 
ATOM      6  C   UNL d   1       9.622   7.305 -10.930  0.00  0.00     0.024 C 
ENDROOT
BRANCH   4   7
ATOM      7  C   UNL d   1       8.355   3.901 -12.239  0.00  0.00     0.035 C 
BRANCH   7   8
ATOM      8  C   UNL d   1       8.275   4.166 -13.729  0.00  0.00     0.250 C 
BRANCH   8   9
ATOM      9  N   UNL d   1       8.381   2.890 -14.469  0.00  0.00     0.141 N 
ATOM     10  C   UNL d   1       7.044   2.404 -14.738  0.00  0.00     0.274 C 
ATOM     11  C   UNL d   1       7.064   1.133 -15.603  0.00  0.00     0.138 C 
ATOM     12  N   UNL d   1       7.883   1.324 -16.793  0.00  0.00    -0.330 N 
ATOM     13  C   UNL d   1       9.248   1.803 -16.528  0.00  0.00     0.138 C 
ATOM     14  C   UNL d   1       9.210   3.077 -15.656  0.00  0.00     0.274 C 
BRANCH  12  15
ATOM     15  C   UNL d   1       7.427   0.950 -18.070  0.00  0.00     0.141 A 
ATOM     16  C   UNL d   1       6.533  -0.112 -18.351  0.00  0.00     0.040 A 
ATOM     17  C   UNL d   1       6.157  -0.329 -19.732  0.00  0.00     0.034 A 
ATOM     18  C   UNL d   1       5.898  -1.139 -17.513  0.00  0.00     0.011 A 
ATOM     19  C   UNL d   1       6.699   0.484 -20.741  0.00  0.00     0.027 A 
ATOM     20  S   UNL d   1       5.027  -1.660 -19.912  0.00  0.00    -0.086 SA
ATOM     21  C   UNL d   1       7.577   1.497 -20.376  0.00  0.00     0.101 A 
ATOM     22  N   UNL d   1       7.903   1.728 -19.088  0.00  0.00    -0.227 NA
ATOM     23  C   UNL d   1       5.052  -1.957 -18.202  0.00  0.00     0.035 A 
ENDBRANCH  12  15
ENDBRANCH   8   9
ENDBRANCH   7   8
ENDBRANCH   4   7
BRANCH   1  24
ATOM     24  N   UNL d   1       9.939   8.062  -8.659  0.00  0.00    -0.240 NA
ATOM     25  C   UNL d   1      10.557   8.095  -7.471  0.00  0.00     0.251 C 
ATOM     26  O   UNL d   1      11.313   7.195  -7.121  0.00  0.00    -0.271 OA
BRANCH  25  27
ATOM     27  C   UNL d   1      10.222   9.279  -6.577  0.00  0.00     0.090 C 
BRANCH  27  28
ATOM     28  C   UNL d   1      11.161   9.616  -5.441  0.00  0.00     0.012 C 
ATOM     29  C   UNL d   1      12.583   9.905  -5.895  0.00  0.00     0.003 C 
ATOM     30  C   UNL d   1      13.438   9.448  -4.744  0.00  0.00     0.030 C 
ATOM     31  C   UNL d   1      12.666   8.308  -4.049  0.00  0.00     0.116 C 
ATOM     32  C   UNL d   1      11.193   8.577  -4.332  0.00  0.00     0.030 C 
BRANCH  31  33
ATOM     33  O   UNL d   1      12.883   8.272  -2.655  0.00  0.00    -0.354 OA
ATOM     34  C   UNL d   1      12.486   7.052  -2.067  0.00  0.00     0.174 C 
ENDBRANCH  31  33
ENDBRANCH  27  28
ENDBRANCH  25  27
ENDBRANCH   1  24
TORSDOF 8
