REMARK  6 active torsions:
REMARK  status: ('A' for Active; 'I' for Inactive)
REMARK    1  A    between atoms: S_2  and  C_4 
REMARK    2  A    between atoms: S_2  and  N_14 
REMARK    3  A    between atoms: C_17  and  C_18 
REMARK    4  A    between atoms: C_18  and  C_19 
REMARK    5  A    between atoms: C_19  and  N_20 
REMARK    6  A    between atoms: N_23  and  C_24 
ROOT
ATOM      1  N   UNL d   1       7.485   2.973 -13.977  0.00  0.00    -0.275 N 
ATOM      2  C   UNL d   1       6.668   3.938 -13.183  0.00  0.00     0.113 C 
ATOM      3  C   UNL d   1       7.479   4.526 -12.016  0.00  0.00     0.025 C 
ATOM      4  C   UNL d   1       8.821   5.112 -12.483  0.00  0.00     0.006 C 
ATOM      5  C   UNL d   1       9.616   3.999 -13.189  0.00  0.00     0.025 C 
ATOM      6  C   UNL d   1       8.834   3.425 -14.354  0.00  0.00     0.113 C 
ENDROOT
BRANCH   4   7
ATOM      7  C   UNL d   1       9.669   5.648 -11.335  0.00  0.00     0.035 C 
BRANCH   7   8
ATOM      8  C   UNL d   1       9.055   6.811 -10.544  0.00  0.00     0.250 C 
BRANCH   8   9
ATOM      9  N   UNL d   1      10.027   7.544  -9.720  0.00  0.00     0.141 N 
ATOM     10  C   UNL d   1       9.316   8.450  -8.806  0.00  0.00     0.274 C 
ATOM     11  C   UNL d   1      10.313   9.248  -7.944  0.00  0.00     0.137 C 
ATOM     12  N   UNL d   1      11.210   8.360  -7.247  0.00  0.00    -0.344 N 
ATOM     13  C   UNL d   1      11.857   7.386  -8.081  0.00  0.00     0.137 C 
ATOM     14  C   UNL d   1      10.815   6.628  -8.909  0.00  0.00     0.274 C 
BRANCH  12  15
ATOM     15  C   UNL d   1      11.365   8.363  -5.842  0.00  0.00     0.056 A 
ATOM     16  C   UNL d   1      11.450   9.584  -5.146  0.00  0.00     0.019 A 
ATOM     17  C   UNL d   1      11.691   9.583  -3.756  0.00  0.00     0.031 A 
ATOM     18  C   UNL d   1      11.864   8.371  -3.067  0.00  0.00     0.140 A 
ATOM     19  C   UNL d   1      11.773   7.150  -3.758  0.00  0.00     0.031 A 
ATOM     20  F   UNL d   1      12.140   8.377  -1.745  0.00  0.00    -0.204 F 
ATOM     21  C   UNL d   1      11.487   7.147  -5.136  0.00  0.00     0.019 A 
ENDBRANCH  12  15
ENDBRANCH   8   9
ENDBRANCH   7   8
ENDBRANCH   4   7
BRANCH   1  22
ATOM     22  S   UNL d   1       6.955   1.327 -14.253  0.00  0.00     0.266 S 
ATOM     23  O   UNL d   1       5.679   1.173 -13.540  0.00  0.00    -0.200 OA
ATOM     24  O   UNL d   1       8.071   0.419 -13.950  0.00  0.00    -0.200 OA
BRANCH  22  25
ATOM     25  C   UNL d   1       6.707   1.204 -16.020  0.00  0.00     0.122 A 
ATOM     26  C   UNL d   1       5.780   0.297 -16.594  0.00  0.00     0.015 A 
ATOM     27  C   UNL d   1       5.696   0.263 -18.014  0.00  0.00     0.020 A 
ATOM     28  C   UNL d   1       4.926  -0.568 -15.850  0.00  0.00     0.001 A 
ATOM     29  C   UNL d   1       6.550   1.074 -18.779  0.00  0.00     0.099 A 
ATOM     30  C   UNL d   1       4.776  -0.577 -18.672  0.00  0.00     0.002 A 
ATOM     31  N   UNL d   1       7.467   1.900 -18.230  0.00  0.00    -0.242 NA
ATOM     32  C   UNL d   1       7.532   1.965 -16.885  0.00  0.00     0.112 A 
ATOM     33  C   UNL d   1       3.922  -1.408 -17.921  0.00  0.00     0.000 A 
ATOM     34  C   UNL d   1       3.997  -1.398 -16.514  0.00  0.00     0.000 A 
ENDBRANCH  22  25
ENDBRANCH   1  22
TORSDOF 6
