REMARK  8 active torsions:
REMARK  status: ('A' for Active; 'I' for Inactive)
REMARK    1  A    between atoms: S_2  and  C_4 
REMARK    2  A    between atoms: S_2  and  C_23 
REMARK    3  A    between atoms: C_4  and  C_5 
REMARK    4  A    between atoms: N_8  and  C_9 
REMARK    5  A    between atoms: C_9  and  C_10 
REMARK    6  A    between atoms: C_10  and  C_11 
REMARK    7  A    between atoms: C_11  and  C_12 
REMARK    8  A    between atoms: C_26  and  C_27 
ROOT
ATOM      1  C   UNL d   1       6.609   4.691 -12.782  0.00  0.00     0.052 C 
ATOM      2  C   UNL d   1       5.311   3.962 -12.457  0.00  0.00     0.038 C 
ATOM      3  C   UNL d   1       5.533   2.518 -12.880  0.00  0.00     0.250 C 
ATOM      4  N   UNL d   1       6.558   2.615 -13.913  0.00  0.00     0.137 N 
ATOM      5  C   UNL d   1       7.492   3.619 -13.416  0.00  0.00     0.251 C 
ENDROOT
BRANCH   1   6
ATOM      6  C   UNL d   1       7.237   5.363 -11.555  0.00  0.00     0.129 C 
BRANCH   6   7
ATOM      7  S   UNL d   1       8.915   6.060 -11.888  0.00  0.00     0.190 S 
ATOM      8  O   UNL d   1       9.850   4.978 -12.244  0.00  0.00    -0.222 OA
ATOM      9  O   UNL d   1       8.735   7.191 -12.810  0.00  0.00    -0.222 OA
BRANCH   7  10
ATOM     10  C   UNL d   1       9.459   6.698 -10.315  0.00  0.00     0.084 A 
ATOM     11  C   UNL d   1      10.143   7.926 -10.257  0.00  0.00     0.011 A 
ATOM     12  C   UNL d   1      10.558   8.427  -9.003  0.00  0.00     0.004 A 
ATOM     13  C   UNL d   1      10.287   7.694  -7.821  0.00  0.00     0.071 A 
ATOM     14  C   UNL d   1       9.605   6.464  -7.899  0.00  0.00     0.004 A 
ATOM     15  C   UNL d   1       9.213   5.949  -9.148  0.00  0.00     0.011 A 
BRANCH  13  16
ATOM     16  C   UNL d   1      10.727   8.231  -6.470  0.00  0.00     0.419 C 
ATOM     17  F   UNL d   1      11.918   8.806  -6.597  0.00  0.00    -0.166 F 
ATOM     18  F   UNL d   1       9.859   9.149  -6.056  0.00  0.00    -0.166 F 
ATOM     19  F   UNL d   1      10.808   7.265  -5.549  0.00  0.00    -0.166 F 
ENDBRANCH  13  16
ENDBRANCH   7  10
ENDBRANCH   6   7
ENDBRANCH   1   6
BRANCH   4  20
ATOM     20  C   UNL d   1       7.220   1.337 -14.171  0.00  0.00     0.251 C 
BRANCH  20  21
ATOM     21  C   UNL d   1       7.089   0.986 -15.655  0.00  0.00     0.042 C 
BRANCH  21  22
ATOM     22  C   UNL d   1       5.775   0.247 -15.967  0.00  0.00     0.050 C 
BRANCH  22  23
ATOM     23  C   UNL d   1       5.587  -0.009 -17.436  0.00  0.00     0.088 A 
ATOM     24  C   UNL d   1       5.125  -1.155 -18.114  0.00  0.00     0.041 A 
ATOM     25  C   UNL d   1       5.095  -0.890 -19.485  0.00  0.00     0.129 A 
ATOM     26  C   UNL d   1       4.694  -2.414 -17.642  0.00  0.00     0.006 A 
ATOM     27  O   UNL d   1       5.524   0.420 -19.612  0.00  0.00    -0.211 OA
ATOM     28  C   UNL d   1       4.676  -1.829 -20.437  0.00  0.00     0.057 A 
ATOM     29  N   UNL d   1       5.828   0.953 -18.329  0.00  0.00    -0.131 NA
ATOM     30  C   UNL d   1       4.255  -3.092 -19.970  0.00  0.00     0.142 A 
ATOM     31  F   UNL d   1       3.841  -4.028 -20.856  0.00  0.00    -0.204 F 
ATOM     32  C   UNL d   1       4.258  -3.377 -18.582  0.00  0.00     0.030 A 
ENDBRANCH  22  23
ENDBRANCH  21  22
ENDBRANCH  20  21
ENDBRANCH   4  20
TORSDOF 8
