REMARK  7 active torsions:
REMARK  status: ('A' for Active; 'I' for Inactive)
REMARK    1  A    between atoms: C_6  and  N_7 
REMARK    2  A    between atoms: N_10  and  C_11 
REMARK    3  A    between atoms: C_11  and  C_12 
REMARK    4  A    between atoms: C_12  and  C_13 
REMARK    5  A    between atoms: C_13  and  C_14 
REMARK    6  A    between atoms: C_14  and  N_15 
REMARK       I    between atoms: N_15  and  C_16 
REMARK    7  A    between atoms: C_16  and  C_18 
ROOT
ATOM      1  N   UNL d   1      10.661   6.976  -8.434  0.00  0.00    -0.330 N 
ATOM      2  C   UNL d   1      11.017   7.409  -9.783  0.00  0.00     0.138 C 
ATOM      3  C   UNL d   1       9.790   7.323 -10.712  0.00  0.00     0.274 C 
ATOM      4  N   UNL d   1       9.204   5.973 -10.697  0.00  0.00     0.141 N 
ATOM      5  C   UNL d   1       8.775   5.671  -9.322  0.00  0.00     0.274 C 
ATOM      6  C   UNL d   1       9.970   5.696  -8.362  0.00  0.00     0.138 C 
ENDROOT
BRANCH   4   7
ATOM      7  C   UNL d   1       8.055   5.944 -11.605  0.00  0.00     0.251 C 
BRANCH   7   8
ATOM      8  C   UNL d   1       7.511   4.519 -11.837  0.00  0.00     0.037 C 
BRANCH   8   9
ATOM      9  C   UNL d   1       6.124   4.516 -12.497  0.00  0.00     0.029 C 
BRANCH   9  10
ATOM     10  C   UNL d   1       5.641   3.104 -12.865  0.00  0.00     0.129 C 
BRANCH  10  11
ATOM     11  N   UNL d   1       6.506   2.500 -13.870  0.00  0.00    -0.233 NA
ATOM     12  C   UNL d   1       6.377   1.249 -14.337  0.00  0.00     0.293 C 
ATOM     13  O   UNL d   1       5.458   0.493 -14.022  0.00  0.00    -0.264 OA
BRANCH  12  14
ATOM     14  C   UNL d   1       7.458   0.821 -15.283  0.00  0.00     0.139 A 
ATOM     15  N   UNL d   1       7.079   0.409 -16.515  0.00  0.00    -0.239 NA
ATOM     16  C   UNL d   1       8.033  -0.008 -17.370  0.00  0.00     0.099 A 
ATOM     17  C   UNL d   1       9.404  -0.028 -17.051  0.00  0.00     0.021 A 
ATOM     18  C   UNL d   1       9.800   0.403 -15.771  0.00  0.00     0.003 A 
ATOM     19  C   UNL d   1       8.810   0.842 -14.871  0.00  0.00     0.024 A 
ENDBRANCH  12  14
ENDBRANCH  10  11
ENDBRANCH   9  10
ENDBRANCH   8   9
ENDBRANCH   7   8
ENDBRANCH   4   7
BRANCH   1  20
ATOM     20  C   UNL d   1      10.910   7.743  -7.282  0.00  0.00     0.140 A 
ATOM     21  C   UNL d   1      11.002   9.149  -7.357  0.00  0.00     0.037 A 
ATOM     22  C   UNL d   1      11.275   9.883  -6.186  0.00  0.00     0.004 A 
ATOM     23  C   UNL d   1      11.447   9.191  -4.976  0.00  0.00     0.015 A 
ATOM     24  C   UNL d   1      11.332   7.790  -4.992  0.00  0.00     0.061 A 
ATOM     25  C   UNL d   1      11.496   6.982  -3.722  0.00  0.00     0.052 C 
ATOM     26  N   UNL d   1      11.064   7.083  -6.111  0.00  0.00    -0.233 NA
ENDBRANCH   1  20
TORSDOF 7
