REMARK  9 active torsions:
REMARK  status: ('A' for Active; 'I' for Inactive)
REMARK    1  A    between atoms: C_2  and  N_3 
REMARK       I    between atoms: N_3  and  C_4 
REMARK    2  A    between atoms: C_4  and  C_6 
REMARK    3  A    between atoms: C_8  and  O_9 
REMARK    4  A    between atoms: O_9  and  C_10 
REMARK    5  A    between atoms: C_10  and  C_11 
REMARK    6  A    between atoms: C_11  and  C_12 
REMARK    7  A    between atoms: C_12  and  C_13 
REMARK    8  A    between atoms: C_13  and  N_14 
REMARK    9  A    between atoms: C_17  and  C_18 
ROOT
ATOM      1  N   UNL d   1       8.913   5.961  -9.536  0.00  0.00     0.137 N 
ATOM      2  C   UNL d   1      10.353   6.199  -9.581  0.00  0.00     0.251 C 
ATOM      3  C   UNL d   1      10.771   7.273  -8.587  0.00  0.00     0.041 C 
ATOM      4  C   UNL d   1      10.345   6.888  -7.167  0.00  0.00     0.047 C 
ATOM      5  C   UNL d   1       8.857   6.522  -7.154  0.00  0.00     0.041 C 
ATOM      6  C   UNL d   1       8.540   5.461  -8.217  0.00  0.00     0.251 C 
ENDROOT
BRANCH   1   7
ATOM      7  C   UNL d   1       8.542   4.956 -10.527  0.00  0.00     0.250 C 
BRANCH   7   8
ATOM      8  C   UNL d   1       8.606   5.561 -11.939  0.00  0.00     0.038 C 
BRANCH   8   9
ATOM      9  C   UNL d   1       8.310   4.520 -12.982  0.00  0.00     0.035 C 
BRANCH   9  10
ATOM     10  C   UNL d   1       6.858   4.107 -13.210  0.00  0.00     0.149 C 
BRANCH  10  11
ATOM     11  O   UNL d   1       6.745   2.769 -13.696  0.00  0.00    -0.331 OA
BRANCH  11  12
ATOM     12  C   UNL d   1       7.435   2.356 -14.834  0.00  0.00     0.097 A 
ATOM     13  C   UNL d   1       6.764   1.375 -15.628  0.00  0.00     0.048 A 
ATOM     14  C   UNL d   1       7.389   0.939 -16.817  0.00  0.00     0.141 A 
ATOM     15  N   UNL d   1       8.586   1.407 -17.254  0.00  0.00    -0.239 NA
ATOM     16  C   UNL d   1       9.229   2.296 -16.453  0.00  0.00     0.101 A 
ATOM     17  C   UNL d   1       8.720   2.779 -15.244  0.00  0.00     0.045 A 
BRANCH  14  18
ATOM     18  C   UNL d   1       6.767  -0.091 -17.684  0.00  0.00     0.293 C 
ATOM     19  N   UNL d   1       5.421  -0.072 -17.699  0.00  0.00    -0.233 NA
ATOM     20  O   UNL d   1       7.465  -0.844 -18.377  0.00  0.00    -0.264 OA
BRANCH  19  21
ATOM     21  C   UNL d   1       4.598  -0.968 -18.482  0.00  0.00     0.129 C 
ATOM     22  C   UNL d   1       3.753  -1.858 -17.571  0.00  0.00     0.029 C 
ENDBRANCH  19  21
ENDBRANCH  14  18
ENDBRANCH  11  12
ENDBRANCH  10  11
ENDBRANCH   9  10
ENDBRANCH   8   9
ENDBRANCH   7   8
ENDBRANCH   1   7
BRANCH   4  23
ATOM     23  C   UNL d   1      10.661   7.993  -6.197  0.00  0.00     0.087 A 
ATOM     24  C   UNL d   1      11.316   7.979  -4.951  0.00  0.00     0.041 A 
ATOM     25  C   UNL d   1      11.333   9.273  -4.430  0.00  0.00     0.129 A 
ATOM     26  C   UNL d   1      11.857   6.919  -4.202  0.00  0.00     0.006 A 
ATOM     27  O   UNL d   1      10.685  10.055  -5.368  0.00  0.00    -0.211 OA
ATOM     28  C   UNL d   1      11.885   9.584  -3.185  0.00  0.00     0.057 A 
ATOM     29  N   UNL d   1      10.258   9.236  -6.447  0.00  0.00    -0.131 NA
ATOM     30  C   UNL d   1      12.450   8.528  -2.440  0.00  0.00     0.142 A 
ATOM     31  F   UNL d   1      13.031   8.783  -1.248  0.00  0.00    -0.204 F 
ATOM     32  C   UNL d   1      12.431   7.205  -2.941  0.00  0.00     0.030 A 
ENDBRANCH   4  23
TORSDOF 9
