REMARK  9 active torsions:
REMARK  status: ('A' for Active; 'I' for Inactive)
REMARK    1  A    between atoms: O_2  and  C_3 
REMARK    2  A    between atoms: C_8  and  C_9 
REMARK    3  A    between atoms: N_11  and  C_12 
REMARK    4  A    between atoms: C_12  and  C_13 
REMARK    5  A    between atoms: C_13  and  C_14 
REMARK    6  A    between atoms: C_14  and  C_16 
REMARK    7  A    between atoms: C_16  and  N_17 
REMARK    8  A    between atoms: N_20  and  C_21 
REMARK    9  A    between atoms: C_26  and  O_27 
ROOT
ATOM      1  C   UNL d   1       9.450   7.014 -11.297  0.00  0.00     0.188 C 
ATOM      2  O   UNL d   1       8.857   7.765 -12.338  0.00  0.00    -0.221 OA
ENDROOT
BRANCH   1   3
ATOM      3  C   UNL d   1       8.547   5.780 -10.997  0.00  0.00     0.061 C 
BRANCH   3   4
ATOM      4  C   UNL d   1       9.139   4.450 -11.500  0.00  0.00     0.132 C 
BRANCH   4   5
ATOM      5  N   UNL d   1       9.439   4.397 -12.930  0.00  0.00    -0.230 N 
ATOM      6  C   UNL d   1       9.021   3.470 -13.872  0.00  0.00     0.118 A 
ATOM      7  C   UNL d   1       9.582   3.947 -15.031  0.00  0.00     0.125 A 
ATOM      8  N   UNL d   1      10.386   5.023 -14.695  0.00  0.00    -0.129 NA
ATOM      9  N   UNL d   1      10.255   5.310 -13.472  0.00  0.00    -0.064 NA
BRANCH   7  10
ATOM     10  C   UNL d   1       9.457   3.529 -16.438  0.00  0.00     0.043 A 
ATOM     11  C   UNL d   1       8.999   2.229 -16.757  0.00  0.00     0.096 A 
ATOM     12  C   UNL d   1       8.869   1.871 -18.119  0.00  0.00     0.024 A 
ATOM     13  C   UNL d   1       9.192   2.789 -19.134  0.00  0.00     0.002 A 
ATOM     14  C   UNL d   1       9.644   4.082 -18.814  0.00  0.00     0.000 A 
ATOM     15  C   UNL d   1       9.777   4.448 -17.467  0.00  0.00     0.004 A 
BRANCH  11  16
ATOM     16  O   UNL d   1       8.699   1.393 -15.711  0.00  0.00    -0.328 OA
ATOM     17  C   UNL d   1       8.228   0.089 -15.982  0.00  0.00     0.181 C 
ENDBRANCH  11  16
ENDBRANCH   7  10
ENDBRANCH   4   5
ENDBRANCH   3   4
ENDBRANCH   1   3
BRANCH   1  18
ATOM     18  C   UNL d   1       9.745   8.000 -10.175  0.00  0.00     0.283 C 
BRANCH  18  19
ATOM     19  N   UNL d   1      10.000   7.310  -8.927  0.00  0.00     0.144 N 
ATOM     20  C   UNL d   1       9.288   7.949  -7.843  0.00  0.00     0.274 C 
ATOM     21  C   UNL d   1       9.532   7.254  -6.492  0.00  0.00     0.137 C 
ATOM     22  N   UNL d   1      10.964   7.179  -6.256  0.00  0.00    -0.343 N 
ATOM     23  C   UNL d   1      11.730   6.558  -7.341  0.00  0.00     0.137 C 
ATOM     24  C   UNL d   1      11.415   7.293  -8.655  0.00  0.00     0.274 C 
BRANCH  22  25
ATOM     25  C   UNL d   1      11.472   7.589  -5.031  0.00  0.00     0.079 A 
ATOM     26  C   UNL d   1      12.098   8.844  -4.867  0.00  0.00     0.110 A 
ATOM     27  C   UNL d   1      12.647   9.193  -3.633  0.00  0.00     0.026 A 
ATOM     28  C   UNL d   1      12.572   8.342  -2.520  0.00  0.00     0.002 A 
ATOM     29  C   UNL d   1      11.957   7.085  -2.674  0.00  0.00     0.002 A 
ATOM     30  C   UNL d   1      11.428   6.725  -3.924  0.00  0.00     0.019 A 
BRANCH  26  31
ATOM     31  O   UNL d   1      12.284   9.675  -5.932  0.00  0.00    -0.327 OA
ATOM     32  C   UNL d   1      11.212  10.554  -6.177  0.00  0.00     0.181 C 
ENDBRANCH  26  31
ENDBRANCH  22  25
ENDBRANCH  18  19
ENDBRANCH   1  18
TORSDOF 9
