REMARK  8 active torsions:
REMARK  status: ('A' for Active; 'I' for Inactive)
REMARK       I    between atoms: N_2  and  C_3 
REMARK    1  A    between atoms: C_3  and  C_5 
REMARK    2  A    between atoms: C_10  and  O_11 
REMARK    3  A    between atoms: O_11  and  C_12 
REMARK    4  A    between atoms: C_12  and  C_13 
REMARK    5  A    between atoms: C_13  and  C_14 
REMARK    6  A    between atoms: C_14  and  C_15 
REMARK    7  A    between atoms: C_15  and  N_16 
REMARK    8  A    between atoms: N_19  and  C_20 
ROOT
ATOM      1  C   UNL d   1       8.638   2.542 -14.451  0.00  0.00     0.038 C 
ENDROOT
BRANCH   1   2
ATOM      2  C   UNL d   1       8.807   1.938 -15.847  0.00  0.00     0.035 C 
BRANCH   2   3
ATOM      3  C   UNL d   1       8.539   0.430 -15.903  0.00  0.00     0.149 C 
BRANCH   3   4
ATOM      4  O   UNL d   1       7.509   0.079 -14.977  0.00  0.00    -0.330 OA
BRANCH   4   5
ATOM      5  C   UNL d   1       6.260  -0.324 -15.397  0.00  0.00     0.105 A 
ATOM      6  C   UNL d   1       5.196  -0.248 -14.468  0.00  0.00     0.080 A 
ATOM      7  C   UNL d   1       3.903  -0.692 -14.814  0.00  0.00     0.014 A 
ATOM      8 CL   UNL d   1       5.464   0.409 -12.892  0.00  0.00    -0.080 Cl
ATOM      9  C   UNL d   1       3.669  -1.222 -16.095  0.00  0.00     0.006 A 
ATOM     10  C   UNL d   1       4.723  -1.318 -17.029  0.00  0.00     0.059 A 
ATOM     11  C   UNL d   1       6.008  -0.861 -16.679  0.00  0.00     0.030 A 
BRANCH  10  12
ATOM     12  C   UNL d   1       4.475  -1.871 -18.402  0.00  0.00     0.275 C 
ATOM     13  N   UNL d   1       5.434  -2.677 -18.886  0.00  0.00    -0.232 NA
ATOM     14  C   UNL d   1       5.373  -3.309 -20.196  0.00  0.00     0.155 C 
ATOM     15  O   UNL d   1       3.461  -1.592 -19.021  0.00  0.00    -0.266 OA
ENDBRANCH  10  12
ENDBRANCH   4   5
ENDBRANCH   3   4
ENDBRANCH   2   3
ENDBRANCH   1   2
BRANCH   1  16
ATOM     16  C   UNL d   1       8.998   4.035 -14.412  0.00  0.00     0.251 C 
BRANCH  16  17
ATOM     17  N   UNL d   1       8.603   4.624 -13.138  0.00  0.00     0.141 N 
ATOM     18  C   UNL d   1       9.511   4.162 -12.088  0.00  0.00     0.274 C 
ATOM     19  C   UNL d   1       9.127   4.783 -10.740  0.00  0.00     0.137 C 
ATOM     20  N   UNL d   1       9.132   6.230 -10.858  0.00  0.00    -0.344 N 
ATOM     21  C   UNL d   1       8.305   6.762 -11.924  0.00  0.00     0.137 C 
ATOM     22  C   UNL d   1       8.706   6.080 -13.240  0.00  0.00     0.274 C 
BRANCH  20  23
ATOM     23  C   UNL d   1       9.784   7.079  -9.940  0.00  0.00     0.068 A 
ATOM     24  C   UNL d   1       9.681   6.898  -8.543  0.00  0.00     0.084 A 
ATOM     25  C   UNL d   1      10.391   7.740  -7.661  0.00  0.00     0.070 A 
ATOM     26 CL   UNL d   1       8.631   5.700  -7.898  0.00  0.00    -0.080 Cl
ATOM     27  C   UNL d   1      11.179   8.790  -8.163  0.00  0.00     0.012 A 
ATOM     28 CL   UNL d   1      10.307   7.516  -5.957  0.00  0.00    -0.081 Cl
ATOM     29  C   UNL d   1      11.248   9.001  -9.552  0.00  0.00     0.002 A 
ATOM     30  C   UNL d   1      10.545   8.159 -10.429  0.00  0.00     0.018 A 
ENDBRANCH  20  23
ENDBRANCH  16  17
ENDBRANCH   1  16
TORSDOF 8
