REMARK  2 active torsions:
REMARK  status: ('A' for Active; 'I' for Inactive)
REMARK    1  A    between atoms: C_5  and  C_6 
REMARK    2  A    between atoms: C_8  and  C_9 
ROOT
ATOM      1  C   UNL d   1       9.463   7.234  -8.590  0.00  0.00     0.082 A 
ATOM      2  C   UNL d   1      10.194   6.852  -7.502  0.00  0.00     0.037 A 
ATOM      3  C   UNL d   1      10.284   8.028  -6.706  0.00  0.00     0.104 A 
ATOM      4  N   UNL d   1       9.671   9.059  -7.263  0.00  0.00    -0.148 NA
ATOM      5  N   UNL d   1       9.171   8.556  -8.391  0.00  0.00    -0.152 NA
ENDROOT
BRANCH   1   6
ATOM      6  C   UNL d   1       8.995   6.494  -9.797  0.00  0.00     0.046 C 
ATOM      7  C   UNL d   1       9.571   5.080  -9.847  0.00  0.00     0.041 C 
ATOM      8  C   UNL d   1       9.294   4.386 -11.188  0.00  0.00     0.251 C 
ATOM      9  N   UNL d   1       9.743   5.171 -12.332  0.00  0.00     0.139 N 
ATOM     10  C   UNL d   1       9.492   4.419 -13.549  0.00  0.00     0.285 C 
ATOM     11  C   UNL d   1       9.023   6.436 -12.355  0.00  0.00     0.251 C 
ATOM     12  C   UNL d   1       9.352   7.243 -11.099  0.00  0.00     0.041 C 
ENDBRANCH   1   6
BRANCH   3  13
ATOM     13  C   UNL d   1      10.946   8.183  -5.418  0.00  0.00     0.019 A 
ATOM     14  C   UNL d   1      11.459   7.045  -4.755  0.00  0.00     0.002 A 
ATOM     15  C   UNL d   1      12.107   7.180  -3.518  0.00  0.00     0.011 A 
ATOM     16  C   UNL d   1      12.240   8.462  -2.955  0.00  0.00     0.058 A 
ATOM     17  C   UNL d   1      11.722   9.589  -3.595  0.00  0.00     0.011 A 
ATOM     18 CL   UNL d   1      13.018   8.688  -1.466  0.00  0.00    -0.082 Cl
ATOM     19  C   UNL d   1      11.073   9.464  -4.827  0.00  0.00     0.002 A 
ENDBRANCH   3  13
TORSDOF 2
