REMARK  4 active torsions:
REMARK  status: ('A' for Active; 'I' for Inactive)
REMARK    1  A    between atoms: C_8  and  C_9 
REMARK    2  A    between atoms: C_9  and  C_10 
REMARK    3  A    between atoms: C_10  and  N_11 
REMARK    4  A    between atoms: C_14  and  C_15 
ROOT
ATOM      1  N   UNL d   1       9.591   1.535 -16.046  0.00  0.00     0.137 N 
ATOM      2  C   UNL d   1       9.525   1.051 -14.643  0.00  0.00     0.251 C 
ATOM      3  C   UNL d   1       8.264   0.213 -14.419  0.00  0.00     0.041 C 
ATOM      4  C   UNL d   1       6.981   0.940 -14.879  0.00  0.00     0.047 C 
ATOM      5  C   UNL d   1       7.173   1.313 -16.357  0.00  0.00     0.041 C 
ATOM      6  C   UNL d   1       8.379   2.184 -16.593  0.00  0.00     0.251 C 
ENDROOT
BRANCH   1   7
ATOM      7  C   UNL d   1      10.804   2.345 -16.247  0.00  0.00     0.255 C 
BRANCH   7   8
ATOM      8  C   UNL d   1      11.086   2.671 -17.725  0.00  0.00     0.068 C 
BRANCH   8   9
ATOM      9  C   UNL d   1      12.163   3.736 -17.870  0.00  0.00     0.050 A 
ATOM     10  C   UNL d   1      13.377   3.463 -18.406  0.00  0.00     0.061 A 
ATOM     11  C   UNL d   1      13.771   2.080 -18.889  0.00  0.00     0.052 C 
ATOM     12  N   UNL d   1      14.347   4.452 -18.536  0.00  0.00    -0.232 NA
ATOM     13  C   UNL d   1      14.092   5.661 -18.153  0.00  0.00     0.184 A 
ATOM     14  C   UNL d   1      15.183   6.729 -18.266  0.00  0.00     0.313 C 
ATOM     15  N   UNL d   1      12.841   6.036 -17.594  0.00  0.00    -0.280 N 
ATOM     16  C   UNL d   1      14.678   8.172 -18.269  0.00  0.00     0.076 C 
ATOM     17  F   UNL d   1      16.036   6.591 -17.250  0.00  0.00    -0.196 F 
ATOM     18  F   UNL d   1      15.876   6.561 -19.394  0.00  0.00    -0.196 F 
ATOM     19  C   UNL d   1      13.742   8.370 -17.093  0.00  0.00     0.031 C 
ATOM     20  C   UNL d   1      12.537   7.445 -17.252  0.00  0.00     0.111 C 
ATOM     21  C   UNL d   1      11.842   5.116 -17.446  0.00  0.00     0.259 A 
ATOM     22  O   UNL d   1      10.737   5.434 -16.994  0.00  0.00    -0.267 OA
ENDBRANCH   8   9
ENDBRANCH   7   8
ENDBRANCH   1   7
BRANCH   4  23
ATOM     23  C   UNL d   1       6.626   2.138 -13.992  0.00  0.00     0.087 A 
ATOM     24  C   UNL d   1       7.311   3.359 -13.681  0.00  0.00     0.041 A 
ATOM     25  C   UNL d   1       6.561   4.101 -12.777  0.00  0.00     0.129 A 
ATOM     26  C   UNL d   1       8.565   3.877 -14.088  0.00  0.00     0.006 A 
ATOM     27  O   UNL d   1       5.426   3.333 -12.526  0.00  0.00    -0.211 OA
ATOM     28  C   UNL d   1       7.022   5.367 -12.295  0.00  0.00     0.057 A 
ATOM     29  N   UNL d   1       5.504   2.105 -13.263  0.00  0.00    -0.131 NA
ATOM     30  C   UNL d   1       8.283   5.867 -12.750  0.00  0.00     0.142 A 
ATOM     31  F   UNL d   1       8.772   7.072 -12.337  0.00  0.00    -0.204 F 
ATOM     32  C   UNL d   1       9.049   5.105 -13.648  0.00  0.00     0.030 A 
ENDBRANCH   4  23
TORSDOF 4
