REMARK  5 active torsions:
REMARK  status: ('A' for Active; 'I' for Inactive)
REMARK    1  A    between atoms: C_10  and  N_11 
REMARK    2  A    between atoms: N_14  and  C_15 
REMARK    3  A    between atoms: C_15  and  C_16 
REMARK    4  A    between atoms: C_16  and  C_17 
REMARK    5  A    between atoms: C_17  and  C_18 
ROOT
ATOM      1  N   UNL d   1       8.829   4.196 -12.898  0.00  0.00    -0.344 N 
ATOM      2  C   UNL d   1       8.398   5.574 -12.916  0.00  0.00     0.137 C 
ATOM      3  C   UNL d   1       7.979   5.993 -11.492  0.00  0.00     0.274 C 
ATOM      4  N   UNL d   1       9.117   5.872 -10.548  0.00  0.00     0.141 N 
ATOM      5  C   UNL d   1       9.397   4.425 -10.531  0.00  0.00     0.274 C 
ATOM      6  C   UNL d   1       9.855   3.908 -11.927  0.00  0.00     0.137 C 
ENDROOT
BRANCH   4   7
ATOM      7  C   UNL d   1       8.688   6.056  -9.181  0.00  0.00     0.251 C 
BRANCH   7   8
ATOM      8  C   UNL d   1       9.782   6.739  -8.410  0.00  0.00     0.040 C 
BRANCH   8   9
ATOM      9  C   UNL d   1       9.396   7.001  -6.952  0.00  0.00     0.030 C 
BRANCH   9  10
ATOM     10  C   UNL d   1      10.334   7.976  -6.327  0.00  0.00    -0.002 A 
ATOM     11  C   UNL d   1      11.071   7.816  -5.109  0.00  0.00     0.015 A 
ATOM     12  C   UNL d   1      11.831   9.002  -4.892  0.00  0.00     0.081 A 
ATOM     13  C   UNL d   1      11.196   6.783  -4.147  0.00  0.00     0.001 A 
ATOM     14  N   UNL d   1      11.561   9.823  -5.968  0.00  0.00    -0.244 NA
ATOM     15  C   UNL d   1      12.649   9.160  -3.764  0.00  0.00     0.019 A 
ATOM     16  C   UNL d   1      10.663   9.211  -6.822  0.00  0.00     0.095 A 
ATOM     17  C   UNL d   1      12.698   8.145  -2.794  0.00  0.00     0.002 A 
ATOM     18  C   UNL d   1      11.987   6.948  -2.992  0.00  0.00     0.000 A 
ENDBRANCH   9  10
ENDBRANCH   8   9
ENDBRANCH   7   8
ENDBRANCH   4   7
BRANCH   1  19
ATOM     19  C   UNL d   1       8.410   3.277 -13.881  0.00  0.00     0.054 A 
ATOM     20  C   UNL d   1       9.318   2.638 -14.756  0.00  0.00     0.012 A 
ATOM     21  C   UNL d   1      10.817   2.883 -14.707  0.00  0.00     0.039 C 
ATOM     22  C   UNL d   1       8.827   1.696 -15.697  0.00  0.00     0.082 A 
ATOM     23  C   UNL d   1      11.470   2.709 -16.078  0.00  0.00     0.095 C 
ATOM     24  C   UNL d   1      10.986   1.445 -16.798  0.00  0.00     0.256 C 
ATOM     25  O   UNL d   1      11.737   0.826 -17.552  0.00  0.00    -0.270 OA
ATOM     26  N   UNL d   1       9.716   1.060 -16.593  0.00  0.00    -0.212 NA
ATOM     27  C   UNL d   1       7.456   1.386 -15.726  0.00  0.00     0.019 A 
ATOM     28  C   UNL d   1       6.574   2.007 -14.818  0.00  0.00     0.003 A 
ATOM     29  C   UNL d   1       7.037   2.975 -13.934  0.00  0.00     0.017 A 
ENDBRANCH   1  19
TORSDOF 5
