REMARK  2 active torsions:
REMARK  status: ('A' for Active; 'I' for Inactive)
REMARK    1  A    between atoms: C_9  and  N_10 
REMARK       I    between atoms: N_10  and  C_11 
REMARK    2  A    between atoms: C_11  and  C_13 
ROOT
ATOM      1  N   UNL d   1       9.232   6.272 -11.304  0.00  0.00    -0.235 NA
ATOM      2  C   UNL d   1       8.681   5.103 -11.652  0.00  0.00     0.294 C 
ATOM      3  O   UNL d   1       7.913   4.472 -10.926  0.00  0.00    -0.264 OA
ENDROOT
BRANCH   2   4
ATOM      4  C   UNL d   1       9.131   4.592 -12.973  0.00  0.00     0.160 A 
ATOM      5  C   UNL d   1       8.343   3.662 -13.745  0.00  0.00     0.041 A 
ATOM      6  C   UNL d   1       9.172   3.337 -14.852  0.00  0.00     0.080 A 
ATOM      7  C   UNL d   1       7.073   3.046 -13.662  0.00  0.00     0.003 A 
ATOM      8  N   UNL d   1      10.322   4.069 -14.661  0.00  0.00    -0.249 N 
ATOM      9  C   UNL d   1       8.745   2.445 -15.865  0.00  0.00     0.019 A 
ATOM     10  N   UNL d   1      10.296   4.813 -13.525  0.00  0.00    -0.165 NA
ATOM     11  C   UNL d   1      11.510   4.157 -15.486  0.00  0.00     0.154 C 
ATOM     12  C   UNL d   1       7.487   1.842 -15.758  0.00  0.00     0.002 A 
ATOM     13  C   UNL d   1       6.655   2.119 -14.648  0.00  0.00     0.000 A 
ENDBRANCH   2   4
BRANCH   1  14
ATOM     14  C   UNL d   1       9.280   6.818  -9.948  0.00  0.00     0.111 C 
ATOM     15  C   UNL d   1       9.824   8.257 -10.033  0.00  0.00     0.058 C 
ATOM     16  C   UNL d   1      10.344   8.813  -8.696  0.00  0.00     0.221 C 
ATOM     17  N   UNL d   1      11.351   7.958  -8.086  0.00  0.00     0.135 N 
ATOM     18  C   UNL d   1       9.283   9.081  -7.627  0.00  0.00     0.033 C 
ATOM     19  C   UNL d   1      12.600   7.946  -8.835  0.00  0.00     0.285 C 
ATOM     20  C   UNL d   1      10.768   6.649  -7.774  0.00  0.00     0.221 C 
ATOM     21  C   UNL d   1      10.197   5.959  -9.044  0.00  0.00     0.058 C 
ATOM     22  C   UNL d   1       9.758   6.833  -6.642  0.00  0.00     0.033 C 
ATOM     23  C   UNL d   1       8.672   7.839  -6.979  0.00  0.00     0.004 C 
ENDBRANCH   1  14
TORSDOF 2
