REMARK  8 active torsions:
REMARK  status: ('A' for Active; 'I' for Inactive)
REMARK    1  A    between atoms: O_2  and  C_3 
REMARK    2  A    between atoms: C_3  and  C_5 
REMARK    3  A    between atoms: C_5  and  C_6 
REMARK       I    between atoms: C_6  and  N_8 
REMARK    4  A    between atoms: N_8  and  C_9 
REMARK    5  A    between atoms: C_12  and  C_13 
REMARK    6  A    between atoms: C_13  and  C_14 
REMARK    7  A    between atoms: C_14  and  N_15 
REMARK    8  A    between atoms: N_18  and  C_19 
ROOT
ATOM      1  C   UNL d   1       8.616   1.129 -15.968  0.00  0.00     0.250 C 
ENDROOT
BRANCH   1   2
ATOM      2  C   UNL d   1       7.878   2.422 -15.673  0.00  0.00     0.035 C 
BRANCH   2   3
ATOM      3  C   UNL d   1       7.989   2.819 -14.197  0.00  0.00     0.002 C 
ATOM      4  C   UNL d   1       9.290   3.604 -13.896  0.00  0.00     0.002 C 
ATOM      5  C   UNL d   1       9.362   4.046 -12.433  0.00  0.00     0.024 C 
ATOM      6  C   UNL d   1       8.110   4.851 -12.005  0.00  0.00     0.106 C 
ATOM      7  C   UNL d   1       6.809   4.080 -12.308  0.00  0.00     0.024 C 
ATOM      8  C   UNL d   1       6.756   3.627 -13.772  0.00  0.00     0.002 C 
BRANCH   6   9
ATOM      9  N   UNL d   1       8.154   5.185 -10.583  0.00  0.00    -0.240 NA
ATOM     10  C   UNL d   1       9.059   5.998 -10.022  0.00  0.00     0.254 C 
ATOM     11  O   UNL d   1       9.931   6.560 -10.680  0.00  0.00    -0.271 OA
BRANCH  10  12
ATOM     12  C   UNL d   1       8.960   6.234  -8.508  0.00  0.00     0.119 C 
BRANCH  12  13
ATOM     13  C   UNL d   1       9.498   7.615  -8.050  0.00  0.00     0.125 C 
ATOM     14  C   UNL d   1       9.115   7.895  -6.583  0.00  0.00     0.033 C 
BRANCH  13  15
ATOM     15  O   UNL d   1      10.921   7.621  -8.162  0.00  0.00    -0.353 OA
ATOM     16  C   UNL d   1      11.520   8.911  -8.196  0.00  0.00     0.174 C 
ENDBRANCH  13  15
ENDBRANCH  12  13
ENDBRANCH  10  12
ENDBRANCH   6   9
ENDBRANCH   2   3
ENDBRANCH   1   2
BRANCH   1  17
ATOM     17  N   UNL d   1       8.563   0.818 -17.396  0.00  0.00     0.141 N 
ATOM     18  C   UNL d   1       9.170  -0.484 -17.656  0.00  0.00     0.274 C 
ATOM     19  C   UNL d   1      10.683  -0.486 -17.332  0.00  0.00     0.138 C 
ATOM     20  N   UNL d   1      11.355   0.634 -18.043  0.00  0.00    -0.330 N 
ATOM     21  C   UNL d   1      10.690   1.940 -17.988  0.00  0.00     0.138 C 
ATOM     22  C   UNL d   1       9.196   1.801 -18.290  0.00  0.00     0.274 C 
BRANCH  20  23
ATOM     23  C   UNL d   1      12.503   0.441 -18.781  0.00  0.00     0.138 A 
ATOM     24  C   UNL d   1      13.463   1.472 -18.977  0.00  0.00     0.036 A 
ATOM     25  C   UNL d   1      14.615   1.236 -19.722  0.00  0.00     0.095 A 
ATOM     26  C   UNL d   1      13.519   2.859 -18.436  0.00  0.00     0.064 C 
ATOM     27  C   UNL d   1      14.806  -0.018 -20.308  0.00  0.00     0.045 A 
ATOM     28  O   UNL d   1      15.460   2.304 -19.739  0.00  0.00    -0.331 OA
ATOM     29  C   UNL d   1      13.825  -1.004 -20.078  0.00  0.00     0.103 A 
ATOM     30  N   UNL d   1      12.715  -0.784 -19.328  0.00  0.00    -0.228 NA
ATOM     31  C   UNL d   1      14.923   3.316 -18.865  0.00  0.00     0.154 C 
ENDBRANCH  20  23
ENDBRANCH   1  17
TORSDOF 8
