REMARK  8 active torsions:
REMARK  status: ('A' for Active; 'I' for Inactive)
REMARK    1  A    between atoms: C_2  and  O_3 
REMARK    2  A    between atoms: O_3  and  C_4 
REMARK    3  A    between atoms: C_9  and  N_10 
REMARK    4  A    between atoms: N_13  and  C_14 
REMARK    5  A    between atoms: C_14  and  C_15 
REMARK    6  A    between atoms: C_15  and  C_17 
REMARK    7  A    between atoms: C_17  and  N_18 
REMARK    8  A    between atoms: C_22  and  C_24 
ROOT
ATOM      1  C   UNL d   1       9.436   7.553  -9.034  0.00  0.00     0.208 C 
ATOM      2  O   UNL d   1       9.508   8.490 -10.075  0.00  0.00    -0.219 OA
ENDROOT
BRANCH   1   3
ATOM      3  C   UNL d   1       8.680   6.271  -9.394  0.00  0.00     0.285 C 
BRANCH   3   4
ATOM      4  N   UNL d   1       9.077   5.805 -10.704  0.00  0.00     0.144 N 
ATOM      5  C   UNL d   1       8.000   6.027 -11.681  0.00  0.00     0.274 C 
ATOM      6  C   UNL d   1       8.328   5.491 -13.079  0.00  0.00     0.137 C 
ATOM      7  N   UNL d   1       8.688   4.088 -12.976  0.00  0.00    -0.343 N 
ATOM      8  C   UNL d   1       9.706   3.828 -11.975  0.00  0.00     0.137 C 
ATOM      9  C   UNL d   1       9.284   4.389 -10.616  0.00  0.00     0.274 C 
BRANCH   7  10
ATOM     10  C   UNL d   1       8.161   3.125 -13.813  0.00  0.00     0.079 A 
ATOM     11  C   UNL d   1       8.963   2.379 -14.743  0.00  0.00     0.109 A 
ATOM     12  C   UNL d   1       8.359   1.363 -15.527  0.00  0.00     0.026 A 
ATOM     13  C   UNL d   1       6.996   1.068 -15.387  0.00  0.00     0.002 A 
ATOM     14  C   UNL d   1       6.232   1.758 -14.437  0.00  0.00     0.002 A 
ATOM     15  C   UNL d   1       6.786   2.799 -13.687  0.00  0.00     0.019 A 
BRANCH  11  16
ATOM     16  O   UNL d   1      10.298   2.720 -14.827  0.00  0.00    -0.329 OA
BRANCH  16  17
ATOM     17  C   UNL d   1      11.130   2.037 -15.761  0.00  0.00     0.149 C 
ATOM     18  C   UNL d   1      12.287   2.961 -16.124  0.00  0.00     0.035 C 
ENDBRANCH  16  17
ENDBRANCH  11  16
ENDBRANCH   7  10
ENDBRANCH   3   4
ENDBRANCH   1   3
BRANCH   1  19
ATOM     19  C   UNL d   1      10.845   7.219  -8.534  0.00  0.00     0.148 C 
BRANCH  19  20
ATOM     20  N   UNL d   1      11.281   8.136  -7.501  0.00  0.00    -0.247 N 
ATOM     21  C   UNL d   1      10.621   8.415  -6.376  0.00  0.00     0.265 A 
ATOM     22  C   UNL d   1      11.451   9.393  -5.545  0.00  0.00     0.179 A 
ATOM     23  O   UNL d   1       9.531   7.955  -6.034  0.00  0.00    -0.269 OA
ATOM     24  N   UNL d   1      12.560   9.534  -6.466  0.00  0.00    -0.209 NA
ATOM     25  C   UNL d   1      10.721  10.731  -5.406  0.00  0.00     0.039 C 
ATOM     26  C   UNL d   1      12.430   8.786  -7.565  0.00  0.00     0.348 A 
ATOM     27  O   UNL d   1      13.260   8.689  -8.458  0.00  0.00    -0.245 OA
BRANCH  22  28
ATOM     28  C   UNL d   1      11.864   8.780  -4.201  0.00  0.00     0.006 A 
ATOM     29  C   UNL d   1      11.932   9.582  -3.034  0.00  0.00    -0.002 A 
ATOM     30  C   UNL d   1      12.312   9.001  -1.811  0.00  0.00    -0.000 A 
ATOM     31  C   UNL d   1      12.645   7.646  -1.741  0.00  0.00    -0.000 A 
ATOM     32  C   UNL d   1      12.555   6.832  -2.872  0.00  0.00    -0.000 A 
ATOM     33  C   UNL d   1      12.182   7.402  -4.104  0.00  0.00    -0.002 A 
ENDBRANCH  22  28
ENDBRANCH  19  20
ENDBRANCH   1  19
TORSDOF 8
