REMARK  13 active torsions:
REMARK  status: ('A' for Active; 'I' for Inactive)
REMARK    1  A    between atoms: C_9  and  C_10 
REMARK    2  A    between atoms: C_10  and  C_12 
REMARK    3  A    between atoms: C_12  and  N_13 
REMARK    4  A    between atoms: N_13  and  C_14 
REMARK    5  A    between atoms: C_14  and  C_15 
REMARK    6  A    between atoms: C_15  and  C_16 
REMARK    7  A    between atoms: C_16  and  O_17 
REMARK    8  A    between atoms: O_17  and  C_18 
REMARK    9  A    between atoms: C_18  and  C_19 
REMARK   10  A    between atoms: C_19  and  N_20 
REMARK   11  A    between atoms: N_20  and  C_21 
REMARK   12  A    between atoms: C_21  and  C_22 
REMARK   13  A    between atoms: C_22  and  C_23 
ROOT
ATOM      1  C   UNL d   1       6.814   1.913 -14.657  0.00  0.00     0.122 C 
ENDROOT
BRANCH   1   2
ATOM      2  N   UNL d   1       7.309   1.350 -15.914  0.00  0.00    -0.292 NA
BRANCH   2   3
ATOM      3  C   UNL d   1       8.550   0.583 -15.805  0.00  0.00     0.157 C 
BRANCH   3   4
ATOM      4  C   UNL d   1       9.382   0.664 -17.106  0.00  0.00     0.199 C 
ATOM      5  O   UNL d   1      10.582  -0.049 -16.895  0.00  0.00    -0.216 OA
BRANCH   4   6
ATOM      6  C   UNL d   1       9.665   2.109 -17.532  0.00  0.00     0.018 A 
ATOM      7  C   UNL d   1       9.170   2.602 -18.764  0.00  0.00     0.001 A 
ATOM      8  C   UNL d   1       9.394   3.942 -19.165  0.00  0.00     0.029 A 
ATOM      9  C   UNL d   1      10.105   4.832 -18.331  0.00  0.00     0.149 A 
ATOM     10  C   UNL d   1      10.603   4.344 -17.109  0.00  0.00     0.116 A 
ATOM     11  O   UNL d   1      10.322   6.128 -18.703  0.00  0.00    -0.189 OA
ATOM     12  N   UNL d   1      11.328   5.090 -16.159  0.00  0.00    -0.200 NA
ATOM     13  C   UNL d   1      10.401   3.014 -16.731  0.00  0.00     0.052 A 
ATOM     14  C   UNL d   1      11.706   4.379 -15.022  0.00  0.00     0.311 A 
ATOM     15  O   UNL d   1      12.318   4.784 -14.038  0.00  0.00    -0.258 OA
ATOM     16  S   UNL d   1      11.145   2.680 -15.191  0.00  0.00    -0.024 SA
ENDBRANCH   4   6
ENDBRANCH   3   4
ENDBRANCH   2   3
ENDBRANCH   1   2
BRANCH   1  17
ATOM     17  C   UNL d   1       7.790   2.934 -14.046  0.00  0.00     0.058 C 
BRANCH  17  18
ATOM     18  C   UNL d   1       7.169   3.814 -12.958  0.00  0.00     0.144 C 
BRANCH  18  19
ATOM     19  O   UNL d   1       8.243   4.413 -12.251  0.00  0.00    -0.352 OA
BRANCH  19  20
ATOM     20  C   UNL d   1       7.836   4.941 -11.003  0.00  0.00     0.180 C 
BRANCH  20  21
ATOM     21  C   UNL d   1       9.033   5.554 -10.271  0.00  0.00     0.322 C 
BRANCH  21  22
ATOM     22  N   UNL d   1       8.664   5.988  -8.931  0.00  0.00     0.342 N 
BRANCH  22  23
ATOM     23  C   UNL d   1       9.744   6.656  -8.221  0.00  0.00     0.295 C 
BRANCH  23  24
ATOM     24  C   UNL d   1       9.277   7.192  -6.865  0.00  0.00     0.065 C 
BRANCH  24  25
ATOM     25  C   UNL d   1      10.396   7.872  -6.101  0.00  0.00    -0.019 A 
ATOM     26  C   UNL d   1      10.986   7.242  -4.982  0.00  0.00     0.007 A 
ATOM     27  C   UNL d   1      11.965   7.914  -4.230  0.00  0.00     0.057 A 
ATOM     28  C   UNL d   1      12.406   9.188  -4.627  0.00  0.00     0.011 A 
ATOM     29 CL   UNL d   1      12.612   7.179  -2.812  0.00  0.00    -0.082 Cl
ATOM     30  C   UNL d   1      11.850   9.805  -5.764  0.00  0.00     0.001 A 
ATOM     31  C   UNL d   1      10.839   9.152  -6.495  0.00  0.00    -0.004 A 
ENDBRANCH  24  25
ENDBRANCH  23  24
ENDBRANCH  22  23
ENDBRANCH  21  22
ENDBRANCH  20  21
ENDBRANCH  19  20
ENDBRANCH  18  19
ENDBRANCH  17  18
ENDBRANCH   1  17
TORSDOF 13
