REMARK  4 active torsions:
REMARK  status: ('A' for Active; 'I' for Inactive)
REMARK       I    between atoms: C_2  and  N_3 
REMARK    1  A    between atoms: C_2  and  C_18 
REMARK    2  A    between atoms: N_3  and  C_4 
REMARK    3  A    between atoms: C_4  and  N_5 
REMARK    4  A    between atoms: N_8  and  C_9 
ROOT
ATOM      1  N   UNL d   1       7.295   4.011 -12.873  0.00  0.00     0.166 N 
ATOM      2  C   UNL d   1       8.479   4.194 -13.719  0.00  0.00     0.277 C 
ATOM      3  C   UNL d   1       8.993   2.819 -14.166  0.00  0.00     0.137 C 
ATOM      4  N   UNL d   1       7.945   2.066 -14.841  0.00  0.00    -0.344 N 
ATOM      5  C   UNL d   1       6.669   1.971 -14.141  0.00  0.00     0.137 C 
ATOM      6  C   UNL d   1       6.219   3.364 -13.634  0.00  0.00     0.277 C 
ENDROOT
BRANCH   1   7
ATOM      7  C   UNL d   1       6.876   5.304 -12.337  0.00  0.00     0.380 C 
BRANCH   7   8
ATOM      8  N   UNL d   1       7.720   5.980 -11.353  0.00  0.00    -0.200 NA
ATOM      9  C   UNL d   1       8.839   5.516 -10.800  0.00  0.00     0.277 C 
ATOM     10  O   UNL d   1       9.343   4.419 -11.060  0.00  0.00    -0.266 OA
BRANCH   9  11
ATOM     11  C   UNL d   1       9.500   6.435  -9.816  0.00  0.00     0.058 A 
ATOM     12  C   UNL d   1       9.829   5.965  -8.533  0.00  0.00     0.006 A 
ATOM     13  C   UNL d   1      10.504   6.793  -7.619  0.00  0.00     0.012 A 
ATOM     14  C   UNL d   1      10.853   8.108  -8.001  0.00  0.00     0.058 A 
ATOM     15  C   UNL d   1      10.541   8.584  -9.294  0.00  0.00     0.012 A 
ATOM     16 CL   UNL d   1      11.652   9.142  -6.869  0.00  0.00    -0.082 Cl
ATOM     17  C   UNL d   1       9.863   7.745 -10.202  0.00  0.00     0.006 A 
ENDBRANCH   9  11
ENDBRANCH   7   8
ENDBRANCH   1   7
BRANCH   4  18
ATOM     18  C   UNL d   1       8.151   1.522 -16.120  0.00  0.00     0.067 A 
ATOM     19  C   UNL d   1       9.314   0.782 -16.436  0.00  0.00     0.073 A 
ATOM     20  C   UNL d   1       9.498   0.286 -17.745  0.00  0.00     0.013 A 
ATOM     21 CL   UNL d   1      10.534   0.402 -15.265  0.00  0.00    -0.081 Cl
ATOM     22  C   UNL d   1       8.519   0.495 -18.731  0.00  0.00     0.001 A 
ATOM     23  C   UNL d   1       7.352   1.205 -18.415  0.00  0.00     0.002 A 
ATOM     24  C   UNL d   1       7.171   1.724 -17.113  0.00  0.00     0.018 A 
ENDBRANCH   4  18
TORSDOF 4
