REMARK  4 active torsions:
REMARK  status: ('A' for Active; 'I' for Inactive)
REMARK    1  A    between atoms: N_2  and  C_4 
REMARK    2  A    between atoms: C_4  and  C_5 
REMARK    3  A    between atoms: C_5  and  O_6 
REMARK    4  A    between atoms: O_6  and  C_7 
ROOT
ATOM      1  C   UNL d   1       9.163   3.724 -14.478  0.00  0.00     0.095 C 
ATOM      2  C   UNL d   1       8.672   2.577 -15.009  0.00  0.00     0.025 C 
ATOM      3  C   UNL d   1       7.546   1.761 -14.579  0.00  0.00     0.008 C 
ATOM      4  C   UNL d   1       7.620   0.377 -14.815  0.00  0.00     0.001 C 
ATOM      5  C   UNL d   1       6.589  -0.484 -14.368  0.00  0.00     0.000 C 
ATOM      6  C   UNL d   1       5.512   0.031 -13.614  0.00  0.00     0.001 C 
ATOM      7  C   UNL d   1       5.462   1.407 -13.361  0.00  0.00     0.006 C 
ATOM      8  C   UNL d   1       6.386   2.253 -13.918  0.00  0.00     0.029 C 
ATOM      9  S   UNL d   1       6.056   3.926 -13.872  0.00  0.00    -0.087 SA
ATOM     10  C   UNL d   1       7.318   4.438 -12.856  0.00  0.00     0.031 A 
ATOM     11  C   UNL d   1       6.931   4.936 -11.637  0.00  0.00     0.007 A 
ATOM     12  C   UNL d   1       7.854   5.549 -10.796  0.00  0.00     0.012 A 
ATOM     13  C   UNL d   1       9.178   5.711 -11.209  0.00  0.00     0.058 A 
ATOM     14 CL   UNL d   1      10.248   6.617 -10.199  0.00  0.00    -0.082 Cl
ATOM     15  C   UNL d   1       9.601   5.099 -12.427  0.00  0.00     0.014 A 
ATOM     16  C   UNL d   1       8.681   4.416 -13.265  0.00  0.00     0.029 A 
ENDROOT
BRANCH   1  17
ATOM     17  O   UNL d   1      10.178   4.426 -15.099  0.00  0.00    -0.329 OA
BRANCH  17  18
ATOM     18  C   UNL d   1      10.324   4.340 -16.521  0.00  0.00     0.184 C 
BRANCH  18  19
ATOM     19  C   UNL d   1       9.694   5.604 -17.108  0.00  0.00     0.283 C 
BRANCH  19  20
ATOM     20  N   UNL d   1       9.503   5.502 -18.551  0.00  0.00     0.144 N 
ATOM     21  C   UNL d   1      10.781   5.403 -19.245  0.00  0.00     0.286 C 
ATOM     22  C   UNL d   1       8.807   6.694 -19.014  0.00  0.00     0.286 C 
ENDBRANCH  19  20
ENDBRANCH  18  19
ENDBRANCH  17  18
ENDBRANCH   1  17
TORSDOF 4
