REMARK  6 active torsions:
REMARK  status: ('A' for Active; 'I' for Inactive)
REMARK    1  A    between atoms: C_6  and  O_7 
REMARK    2  A    between atoms: O_7  and  C_8 
REMARK    3  A    between atoms: C_8  and  C_9 
REMARK    4  A    between atoms: N_12  and  C_13 
REMARK    5  A    between atoms: C_13  and  C_14 
REMARK    6  A    between atoms: C_14  and  C_15 
ROOT
ATOM      1  N   UNL d   1       6.683   1.428 -15.172  0.00  0.00    -0.191 NA
ATOM      2  C   UNL d   1       7.194   2.262 -14.556  0.00  0.00     0.101 C 
ATOM      3  C   UNL d   1       7.840   3.309 -13.779  0.00  0.00     0.068 A 
ATOM      4  C   UNL d   1       9.230   3.516 -13.896  0.00  0.00     0.012 A 
ATOM      5  C   UNL d   1       9.849   4.500 -13.099  0.00  0.00     0.025 A 
ATOM      6  C   UNL d   1       9.103   5.272 -12.185  0.00  0.00     0.094 A 
ATOM      7  C   UNL d   1       7.700   5.087 -12.111  0.00  0.00     0.025 A 
ATOM      8  C   UNL d   1       7.082   4.092 -12.888  0.00  0.00     0.012 A 
ENDROOT
BRANCH   6   9
ATOM      9  O   UNL d   1       9.835   6.139 -11.403  0.00  0.00    -0.331 OA
BRANCH   9  10
ATOM     10  C   UNL d   1       9.197   6.872 -10.377  0.00  0.00     0.149 C 
BRANCH  10  11
ATOM     11  C   UNL d   1      10.116   6.966  -9.164  0.00  0.00     0.034 C 
ATOM     12  C   UNL d   1      11.269   7.953  -9.371  0.00  0.00     0.038 C 
ATOM     13  C   UNL d   1      12.089   8.125  -8.081  0.00  0.00     0.250 C 
ATOM     14  N   UNL d   1      11.223   8.581  -6.988  0.00  0.00     0.137 N 
ATOM     15  C   UNL d   1      10.208   7.560  -6.711  0.00  0.00     0.250 C 
ATOM     16  C   UNL d   1       9.308   7.377  -7.929  0.00  0.00     0.038 C 
BRANCH  14  17
ATOM     17  C   UNL d   1      12.007   8.813  -5.787  0.00  0.00     0.253 C 
BRANCH  17  18
ATOM     18  C   UNL d   1      11.305   9.780  -4.834  0.00  0.00     0.073 C 
BRANCH  18  19
ATOM     19  C   UNL d   1      11.946   9.786  -3.447  0.00  0.00     0.195 C 
ATOM     20  F   UNL d   1      11.793   8.607  -2.849  0.00  0.00    -0.234 F 
ENDBRANCH  18  19
ENDBRANCH  17  18
ENDBRANCH  14  17
ENDBRANCH  10  11
ENDBRANCH   9  10
ENDBRANCH   6   9
TORSDOF 6
