REMARK  6 active torsions:
REMARK  status: ('A' for Active; 'I' for Inactive)
REMARK    1  A    between atoms: C_6  and  O_7 
REMARK    2  A    between atoms: O_7  and  C_8 
REMARK    3  A    between atoms: C_8  and  C_9 
REMARK    4  A    between atoms: C_9  and  N_10 
REMARK    5  A    between atoms: N_10  and  C_11 
REMARK    6  A    between atoms: C_11  and  C_12 
ROOT
ATOM      1  C   UNL d   1       9.382   6.906 -11.506  0.00  0.00     0.187 C 
ENDROOT
BRANCH   1   2
ATOM      2  O   UNL d   1       9.484   5.895 -12.501  0.00  0.00    -0.329 OA
BRANCH   2   3
ATOM      3  C   UNL d   1       8.397   5.083 -12.747  0.00  0.00     0.096 A 
ATOM      4  C   UNL d   1       7.133   5.230 -12.120  0.00  0.00     0.024 A 
ATOM      5  C   UNL d   1       6.073   4.373 -12.449  0.00  0.00     0.004 A 
ATOM      6  C   UNL d   1       6.252   3.358 -13.406  0.00  0.00     0.028 A 
ATOM      7  C   UNL d   1       7.504   3.191 -14.029  0.00  0.00     0.133 A 
ATOM      8  O   UNL d   1       7.679   2.196 -14.941  0.00  0.00    -0.190 OA
ATOM      9  C   UNL d   1       8.572   4.051 -13.694  0.00  0.00     0.052 A 
ENDBRANCH   2   3
ENDBRANCH   1   2
BRANCH   1  10
ATOM     10  C   UNL d   1       9.482   6.283 -10.102  0.00  0.00     0.323 C 
BRANCH  10  11
ATOM     11  N   UNL d   1       9.459   7.341  -9.122  0.00  0.00     0.347 N 
BRANCH  11  12
ATOM     12  C   UNL d   1       9.451   6.796  -7.775  0.00  0.00     0.317 C 
BRANCH  12  13
ATOM     13  C   UNL d   1      10.202   7.659  -6.776  0.00  0.00     0.014 A 
ATOM     14  C   UNL d   1      10.764   7.067  -5.626  0.00  0.00    -0.002 A 
ATOM     15  C   UNL d   1      11.466   7.854  -4.693  0.00  0.00    -0.000 A 
ATOM     16  C   UNL d   1      11.622   9.236  -4.909  0.00  0.00    -0.000 A 
ATOM     17  C   UNL d   1      11.068   9.830  -6.060  0.00  0.00    -0.000 A 
ATOM     18  C   UNL d   1      10.357   9.049  -6.982  0.00  0.00    -0.002 A 
ENDBRANCH  12  13
ENDBRANCH  11  12
ENDBRANCH  10  11
ENDBRANCH   1  10
TORSDOF 6
