REMARK  6 active torsions:
REMARK  status: ('A' for Active; 'I' for Inactive)
REMARK       I    between atoms: C_2  and  N_3 
REMARK    1  A    between atoms: C_2  and  C_30 
REMARK    2  A    between atoms: N_3  and  C_4 
REMARK    3  A    between atoms: C_10  and  C_11 
REMARK    4  A    between atoms: C_11  and  C_12 
REMARK    5  A    between atoms: C_12  and  N_13 
REMARK    6  A    between atoms: N_16  and  C_17 
ROOT
ATOM      1  C   UNL d   1       8.801   1.113 -14.252  0.00  0.00     0.129 C 
ATOM      2  C   UNL d   1      10.023   0.460 -14.962  0.00  0.00     0.034 C 
ATOM      3  C   UNL d   1      10.917   1.603 -15.494  0.00  0.00     0.028 C 
ATOM      4  C   UNL d   1      10.391   2.818 -14.785  0.00  0.00    -0.024 A 
ATOM      5  C   UNL d   1      10.949   4.107 -14.772  0.00  0.00    -0.005 A 
ATOM      6  C   UNL d   1      10.267   5.117 -14.063  0.00  0.00    -0.005 A 
ATOM      7  C   UNL d   1       9.044   4.847 -13.392  0.00  0.00    -0.020 A 
ATOM      8  C   UNL d   1       8.519   3.543 -13.407  0.00  0.00    -0.007 A 
ATOM      9  C   UNL d   1       9.220   2.545 -14.091  0.00  0.00    -0.004 A 
ENDROOT
BRANCH   7  10
ATOM     10  C   UNL d   1       8.262   5.941 -12.695  0.00  0.00     0.062 C 
BRANCH  10  11
ATOM     11  C   UNL d   1       8.106   5.697 -11.174  0.00  0.00     0.255 C 
BRANCH  11  12
ATOM     12  N   UNL d   1       9.328   5.882 -10.380  0.00  0.00     0.141 N 
ATOM     13  C   UNL d   1       8.949   5.739  -8.966  0.00  0.00     0.274 C 
ATOM     14  C   UNL d   1      10.140   5.956  -8.026  0.00  0.00     0.138 C 
ATOM     15  N   UNL d   1      10.786   7.232  -8.286  0.00  0.00    -0.329 N 
ATOM     16  C   UNL d   1      11.095   7.478  -9.686  0.00  0.00     0.138 C 
ATOM     17  C   UNL d   1       9.860   7.238 -10.570  0.00  0.00     0.274 C 
BRANCH  15  18
ATOM     18  C   UNL d   1      11.047   8.196  -7.272  0.00  0.00     0.148 A 
ATOM     19  C   UNL d   1      11.346   7.854  -5.883  0.00  0.00     0.042 A 
ATOM     20  C   UNL d   1      11.580   9.040  -5.130  0.00  0.00     0.050 A 
ATOM     21  C   UNL d   1      11.490   6.635  -5.190  0.00  0.00     0.004 A 
ATOM     22  S   UNL d   1      11.468  10.377  -6.220  0.00  0.00     0.015 SA
ATOM     23  C   UNL d   1      11.896   9.028  -3.745  0.00  0.00     0.008 A 
ATOM     24  N   UNL d   1      11.086   9.460  -7.579  0.00  0.00    -0.192 NA
ATOM     25  C   UNL d   1      11.985   7.792  -3.093  0.00  0.00     0.001 A 
ATOM     26  C   UNL d   1      11.802   6.607  -3.811  0.00  0.00     0.000 A 
ENDBRANCH  15  18
ENDBRANCH  11  12
ENDBRANCH  10  11
ENDBRANCH   7  10
BRANCH   1  27
ATOM     27  N   UNL d   1       7.606   0.977 -15.071  0.00  0.00    -0.230 NA
ATOM     28  C   UNL d   1       6.453   0.427 -14.664  0.00  0.00     0.298 C 
ATOM     29  O   UNL d   1       6.164   0.230 -13.486  0.00  0.00    -0.263 OA
BRANCH  28  30
ATOM     30  C   UNL d   1       5.604  -0.059 -15.764  0.00  0.00     0.157 A 
ATOM     31  O   UNL d   1       4.517  -0.819 -15.460  0.00  0.00    -0.300 OA
ATOM     32  C   UNL d   1       3.972  -1.215 -16.644  0.00  0.00     0.123 A 
ATOM     33  C   UNL d   1       4.663  -0.683 -17.696  0.00  0.00     0.029 A 
ATOM     34  C   UNL d   1       5.723   0.069 -17.120  0.00  0.00     0.032 A 
ENDBRANCH  28  30
ENDBRANCH   1  27
TORSDOF 6
