REMARK  9 active torsions:
REMARK  status: ('A' for Active; 'I' for Inactive)
REMARK    1  A    between atoms: C_2  and  C_5 
REMARK    2  A    between atoms: C_7  and  N_8 
REMARK    3  A    between atoms: N_11  and  C_12 
REMARK    4  A    between atoms: C_12  and  C_13 
REMARK    5  A    between atoms: C_13  and  C_14 
REMARK    6  A    between atoms: C_14  and  C_15 
REMARK    7  A    between atoms: C_15  and  N_16 
REMARK    8  A    between atoms: C_19  and  N_20 
REMARK    9  A    between atoms: C_30  and  C_31 
ROOT
ATOM      1  N   UNL d   1       9.093   0.694 -17.420  0.00  0.00    -0.330 N 
ATOM      2  C   UNL d   1       9.990   1.767 -17.854  0.00  0.00     0.138 C 
ATOM      3  C   UNL d   1      10.272   2.712 -16.684  0.00  0.00     0.274 C 
ATOM      4  N   UNL d   1      10.799   1.982 -15.526  0.00  0.00     0.141 N 
ATOM      5  C   UNL d   1       9.839   0.952 -15.100  0.00  0.00     0.274 C 
ATOM      6  C   UNL d   1       9.553  -0.038 -16.233  0.00  0.00     0.138 C 
ENDROOT
BRANCH   4   7
ATOM      7  C   UNL d   1      11.127   2.910 -14.442  0.00  0.00     0.251 C 
BRANCH   7   8
ATOM      8  C   UNL d   1       9.876   3.571 -13.804  0.00  0.00     0.037 C 
BRANCH   8   9
ATOM      9  C   UNL d   1      10.174   4.449 -12.610  0.00  0.00     0.027 C 
BRANCH   9  10
ATOM     10  C   UNL d   1       8.886   5.118 -12.111  0.00  0.00     0.111 C 
BRANCH  10  11
ATOM     11  N   UNL d   1       9.150   5.990 -10.964  0.00  0.00    -0.279 N 
ATOM     12  C   UNL d   1       9.036   5.549  -9.636  0.00  0.00     0.351 A 
ATOM     13  N   UNL d   1       9.310   6.433  -8.647  0.00  0.00    -0.181 NA
ATOM     14  O   UNL d   1       8.714   4.398  -9.358  0.00  0.00    -0.244 OA
ATOM     15  C   UNL d   1       9.670   7.675  -8.877  0.00  0.00     0.126 A 
ATOM     16  C   UNL d   1       9.862   8.159 -10.228  0.00  0.00     0.050 A 
ATOM     17  C   UNL d   1       9.555   7.292 -11.223  0.00  0.00     0.082 A 
BRANCH  15  18
ATOM     18  N   UNL d   1       9.906   8.485  -7.818  0.00  0.00    -0.237 NA
ATOM     19  C   UNL d   1      11.232   8.997  -7.516  0.00  0.00     0.080 C 
ATOM     20  C   UNL d   1      10.791   9.025  -6.056  0.00  0.00     0.035 C 
ATOM     21  C   UNL d   1       9.648   8.093  -6.435  0.00  0.00     0.080 C 
ENDBRANCH  15  18
ENDBRANCH  10  11
ENDBRANCH   9  10
ENDBRANCH   8   9
ENDBRANCH   7   8
ENDBRANCH   4   7
BRANCH   1  22
ATOM     22  C   UNL d   1       7.870   0.418 -18.067  0.00  0.00     0.143 A 
ATOM     23  N   UNL d   1       6.998  -0.426 -17.465  0.00  0.00    -0.214 NA
ATOM     24  C   UNL d   1       5.850  -0.727 -18.079  0.00  0.00     0.140 A 
ATOM     25  N   UNL d   1       5.500  -0.284 -19.286  0.00  0.00    -0.227 NA
ATOM     26  C   UNL d   1       6.332   0.573 -19.907  0.00  0.00     0.157 A 
ATOM     27  C   UNL d   1       7.551   0.965 -19.331  0.00  0.00     0.060 A 
BRANCH  24  28
ATOM     28  C   UNL d   1       4.966  -1.817 -17.448  0.00  0.00     0.052 C 
ATOM     29  C   UNL d   1       5.567  -3.215 -17.689  0.00  0.00     0.008 C 
ATOM     30  C   UNL d   1       3.552  -1.785 -18.069  0.00  0.00     0.008 C 
ATOM     31  C   UNL d   1       4.816  -1.594 -15.928  0.00  0.00     0.008 C 
ENDBRANCH  24  28
BRANCH  26  32
ATOM     32  C   UNL d   1       5.898   1.089 -21.272  0.00  0.00     0.435 C 
ATOM     33  F   UNL d   1       6.707   2.059 -21.697  0.00  0.00    -0.165 F 
ATOM     34  F   UNL d   1       5.927   0.100 -22.162  0.00  0.00    -0.165 F 
ATOM     35  F   UNL d   1       4.662   1.578 -21.192  0.00  0.00    -0.165 F 
ENDBRANCH  26  32
ENDBRANCH   1  22
TORSDOF 9
