REMARK  7 active torsions:
REMARK  status: ('A' for Active; 'I' for Inactive)
REMARK    1  A    between atoms: C_3  and  C_4 
REMARK    2  A    between atoms: N_15  and  C_16 
REMARK    3  A    between atoms: C_16  and  C_17 
REMARK    4  A    between atoms: C_17  and  C_18 
REMARK    5  A    between atoms: C_18  and  C_19 
REMARK    6  A    between atoms: C_19  and  N_20 
REMARK    7  A    between atoms: C_24  and  C_25 
ROOT
ATOM      1  O   UNL d   1      11.213   5.489 -14.487  0.00  0.00    -0.267 OA
ATOM      2  C   UNL d   1      10.211   4.803 -14.571  0.00  0.00     0.265 A 
ATOM      3  C   UNL d   1       9.164   4.760 -13.537  0.00  0.00     0.068 A 
ATOM      4  C   UNL d   1       8.134   3.886 -13.662  0.00  0.00     0.046 A 
ATOM      5  N   UNL d   1       8.017   3.011 -14.767  0.00  0.00    -0.285 N 
ATOM      6  C   UNL d   1       8.929   3.107 -15.839  0.00  0.00     0.333 A 
ATOM      7  O   UNL d   1       8.731   2.472 -16.901  0.00  0.00    -0.246 OA
ATOM      8  N   UNL d   1       9.992   3.998 -15.718  0.00  0.00    -0.249 N 
ATOM      9  C   UNL d   1       6.894   2.127 -14.986  0.00  0.00     0.110 C 
ATOM     10  C   UNL d   1       6.014   1.869 -13.770  0.00  0.00     0.025 C 
ATOM     11  C   UNL d   1       5.720   3.178 -13.037  0.00  0.00     0.008 C 
ATOM     12  C   UNL d   1       7.019   3.847 -12.607  0.00  0.00     0.044 C 
ENDROOT
BRANCH   8  13
ATOM     13  C   UNL d   1      10.903   4.106 -16.848  0.00  0.00     0.114 C 
BRANCH  13  14
ATOM     14  C   UNL d   1      11.764   2.844 -16.988  0.00  0.00     0.027 C 
BRANCH  14  15
ATOM     15  C   UNL d   1      12.573   2.862 -18.272  0.00  0.00     0.037 C 
BRANCH  15  16
ATOM     16  C   UNL d   1      13.425   1.571 -18.341  0.00  0.00     0.250 C 
BRANCH  16  17
ATOM     17  N   UNL d   1      14.424   1.630 -19.414  0.00  0.00     0.137 N 
ATOM     18  C   UNL d   1      13.803   1.796 -20.748  0.00  0.00     0.255 C 
ATOM     19  C   UNL d   1      14.885   2.039 -21.842  0.00  0.00     0.057 C 
ATOM     20  C   UNL d   1      15.743   0.767 -21.950  0.00  0.00     0.009 C 
ATOM     21  C   UNL d   1      16.352   0.458 -20.568  0.00  0.00     0.036 C 
ATOM     22  C   UNL d   1      15.270   0.420 -19.464  0.00  0.00     0.250 C 
BRANCH  19  23
ATOM     23  C   UNL d   1      15.698   3.298 -21.602  0.00  0.00     0.000 A 
ATOM     24  C   UNL d   1      15.302   4.535 -20.947  0.00  0.00     0.015 A 
ATOM     25  C   UNL d   1      16.444   5.409 -20.921  0.00  0.00     0.081 A 
ATOM     26  C   UNL d   1      14.109   5.042 -20.351  0.00  0.00     0.001 A 
ATOM     27  N   UNL d   1      17.457   4.719 -21.565  0.00  0.00    -0.244 NA
ATOM     28  C   UNL d   1      16.398   6.686 -20.329  0.00  0.00     0.019 A 
ATOM     29  C   UNL d   1      17.014   3.476 -21.974  0.00  0.00     0.095 A 
ATOM     30  C   UNL d   1      15.208   7.136 -19.717  0.00  0.00     0.002 A 
ATOM     31  C   UNL d   1      14.075   6.296 -19.721  0.00  0.00     0.000 A 
ENDBRANCH  19  23
ENDBRANCH  16  17
ENDBRANCH  15  16
ENDBRANCH  14  15
ENDBRANCH  13  14
ENDBRANCH   8  13
BRANCH   3  32
ATOM     32  C   UNL d   1       9.293   5.593 -12.299  0.00  0.00     0.006 A 
ATOM     33  C   UNL d   1       9.533   4.956 -11.063  0.00  0.00     0.001 A 
ATOM     34  C   UNL d   1       9.786   5.728  -9.905  0.00  0.00     0.011 A 
ATOM     35  C   UNL d   1       9.764   7.139  -9.951  0.00  0.00     0.058 A 
ATOM     36  C   UNL d   1       9.468   7.768 -11.171  0.00  0.00     0.011 A 
ATOM     37 CL   UNL d   1      10.011   8.097  -8.535  0.00  0.00    -0.082 Cl
ATOM     38  C   UNL d   1       9.200   7.011 -12.333  0.00  0.00     0.001 A 
ENDBRANCH   3  32
TORSDOF 7
