REMARK  3 active torsions:
REMARK  status: ('A' for Active; 'I' for Inactive)
REMARK    1  A    between atoms: C_6  and  N_7 
REMARK    2  A    between atoms: N_10  and  C_11 
REMARK    3  A    between atoms: C_11  and  C_12 
ROOT
ATOM      1  N   UNL d   1       9.540   6.262 -10.545  0.00  0.00    -0.330 N 
ATOM      2  C   UNL d   1      10.211   7.530 -10.743  0.00  0.00     0.138 C 
ATOM      3  C   UNL d   1       9.965   8.477  -9.562  0.00  0.00     0.275 C 
ATOM      4  N   UNL d   1      10.308   7.811  -8.298  0.00  0.00     0.147 N 
ATOM      5  C   UNL d   1       9.449   6.621  -8.140  0.00  0.00     0.275 C 
ATOM      6  C   UNL d   1       9.718   5.621  -9.259  0.00  0.00     0.138 C 
ENDROOT
BRANCH   4   7
ATOM      7  C   UNL d   1      10.092   8.746  -7.210  0.00  0.00     0.298 C 
BRANCH   7   8
ATOM      8  C   UNL d   1      10.725   8.504  -5.879  0.00  0.00     0.114 A 
ATOM      9  N   UNL d   1      11.017   9.527  -5.092  0.00  0.00    -0.168 NA
ATOM     10  N   UNL d   1      11.586   8.946  -3.986  0.00  0.00    -0.229 N 
ATOM     11  C   UNL d   1      11.640   7.553  -4.119  0.00  0.00     0.084 A 
ATOM     12  C   UNL d   1      12.028   9.584  -2.874  0.00  0.00     0.100 A 
ATOM     13  C   UNL d   1      11.103   7.252  -5.321  0.00  0.00     0.038 A 
ATOM     14  C   UNL d   1      12.163   6.784  -3.065  0.00  0.00     0.019 A 
ATOM     15  C   UNL d   1      12.629   7.426  -1.955  0.00  0.00     0.003 A 
ATOM     16  C   UNL d   1      12.573   8.829  -1.859  0.00  0.00     0.021 A 
ENDBRANCH   7   8
ENDBRANCH   4   7
BRANCH   1  17
ATOM     17  C   UNL d   1       8.768   5.684 -11.543  0.00  0.00     0.142 A 
ATOM     18  C   UNL d   1       7.387   5.564 -11.343  0.00  0.00     0.037 A 
ATOM     19  C   UNL d   1       6.596   4.962 -12.333  0.00  0.00     0.007 A 
ATOM     20  C   UNL d   1       7.233   4.486 -13.491  0.00  0.00     0.050 A 
ATOM     21  C   UNL d   1       8.624   4.670 -13.624  0.00  0.00     0.224 A 
ATOM     22  F   UNL d   1       9.229   4.268 -14.770  0.00  0.00    -0.183 F 
ATOM     23  N   UNL d   1       9.382   5.252 -12.675  0.00  0.00    -0.201 NA
ENDBRANCH   1  17
TORSDOF 3
