REMARK  9 active torsions:
REMARK  status: ('A' for Active; 'I' for Inactive)
REMARK       I    between atoms: N_2  and  C_3 
REMARK    1  A    between atoms: C_3  and  C_5 
REMARK    2  A    between atoms: C_9  and  O_10 
REMARK    3  A    between atoms: O_10  and  C_11 
REMARK    4  A    between atoms: C_11  and  C_12 
REMARK    5  A    between atoms: C_12  and  C_13 
REMARK    6  A    between atoms: C_13  and  C_14 
REMARK    7  A    between atoms: C_14  and  N_15 
REMARK    8  A    between atoms: N_18  and  C_19 
REMARK    9  A    between atoms: C_29  and  O_30 
ROOT
ATOM      1  C   UNL d   1       7.512   4.055 -12.657  0.00  0.00     0.038 C 
ENDROOT
BRANCH   1   2
ATOM      2  C   UNL d   1       7.600   3.015 -13.788  0.00  0.00     0.035 C 
BRANCH   2   3
ATOM      3  C   UNL d   1       6.344   2.150 -13.885  0.00  0.00     0.149 C 
BRANCH   3   4
ATOM      4  O   UNL d   1       6.466   1.303 -15.020  0.00  0.00    -0.329 OA
BRANCH   4   5
ATOM      5  C   UNL d   1       5.486   0.367 -15.250  0.00  0.00     0.116 A 
ATOM      6  C   UNL d   1       4.531  -0.023 -14.277  0.00  0.00     0.026 A 
ATOM      7  C   UNL d   1       3.532  -0.940 -14.599  0.00  0.00     0.002 A 
ATOM      8  C   UNL d   1       3.472  -1.487 -15.893  0.00  0.00     0.007 A 
ATOM      9  C   UNL d   1       4.423  -1.159 -16.876  0.00  0.00     0.082 A 
ATOM     10  C   UNL d   1       5.428  -0.210 -16.551  0.00  0.00     0.121 A 
BRANCH   9  11
ATOM     11  C   UNL d   1       4.298  -1.759 -18.263  0.00  0.00     0.277 C 
ATOM     12  N   UNL d   1       3.864  -3.031 -18.309  0.00  0.00    -0.232 NA
ATOM     13  C   UNL d   1       3.754  -3.814 -19.532  0.00  0.00     0.155 C 
ATOM     14  O   UNL d   1       4.601  -1.128 -19.268  0.00  0.00    -0.266 OA
ENDBRANCH   9  11
BRANCH  10  15
ATOM     15  O   UNL d   1       6.327   0.216 -17.496  0.00  0.00    -0.326 OA
ATOM     16  C   UNL d   1       7.521  -0.539 -17.476  0.00  0.00     0.181 C 
ENDBRANCH  10  15
ENDBRANCH   4   5
ENDBRANCH   3   4
ENDBRANCH   2   3
ENDBRANCH   1   2
BRANCH   1  17
ATOM     17  C   UNL d   1       8.754   4.948 -12.638  0.00  0.00     0.251 C 
BRANCH  17  18
ATOM     18  N   UNL d   1       8.612   5.945 -11.579  0.00  0.00     0.141 N 
ATOM     19  C   UNL d   1       9.590   6.989 -11.846  0.00  0.00     0.274 C 
ATOM     20  C   UNL d   1       9.618   8.133 -10.836  0.00  0.00     0.137 C 
ATOM     21  N   UNL d   1       9.826   7.516  -9.537  0.00  0.00    -0.344 N 
ATOM     22  C   UNL d   1       8.971   6.396  -9.171  0.00  0.00     0.137 C 
ATOM     23  C   UNL d   1       8.985   5.343 -10.283  0.00  0.00     0.274 C 
BRANCH  21  24
ATOM     24  C   UNL d   1      10.694   8.093  -8.614  0.00  0.00     0.068 A 
ATOM     25  C   UNL d   1      10.292   8.512  -7.313  0.00  0.00     0.084 A 
ATOM     26  C   UNL d   1      11.230   9.067  -6.429  0.00  0.00     0.070 A 
ATOM     27 CL   UNL d   1       8.652   8.354  -6.835  0.00  0.00    -0.080 Cl
ATOM     28  C   UNL d   1      12.552   9.195  -6.840  0.00  0.00     0.012 A 
ATOM     29 CL   UNL d   1      10.869   9.654  -4.854  0.00  0.00    -0.081 Cl
ATOM     30  C   UNL d   1      12.948   8.773  -8.129  0.00  0.00     0.002 A 
ATOM     31  C   UNL d   1      12.027   8.264  -9.025  0.00  0.00     0.018 A 
ENDBRANCH  21  24
ENDBRANCH  17  18
ENDBRANCH   1  17
TORSDOF 9
