REMARK  7 active torsions:
REMARK  status: ('A' for Active; 'I' for Inactive)
REMARK    1  A    between atoms: C_2  and  C_3 
REMARK    2  A    between atoms: C_7  and  N_8 
REMARK    3  A    between atoms: N_11  and  C_12 
REMARK    4  A    between atoms: C_12  and  C_13 
REMARK    5  A    between atoms: C_14  and  C_15 
REMARK    6  A    between atoms: C_15  and  N_16 
REMARK       I    between atoms: N_16  and  C_17 
REMARK    7  A    between atoms: C_17  and  C_19 
ROOT
ATOM      1  N   UNL d   1       9.581   7.101 -10.084  0.00  0.00    -0.344 N 
ATOM      2  C   UNL d   1       9.274   7.750 -11.346  0.00  0.00     0.137 C 
ATOM      3  C   UNL d   1       9.225   6.684 -12.439  0.00  0.00     0.275 C 
ATOM      4  N   UNL d   1       8.294   5.602 -12.136  0.00  0.00     0.145 N 
ATOM      5  C   UNL d   1       8.709   4.947 -10.889  0.00  0.00     0.275 C 
ATOM      6  C   UNL d   1       8.737   5.966  -9.742  0.00  0.00     0.137 C 
ENDROOT
BRANCH   4   7
ATOM      7  C   UNL d   1       8.282   4.649 -13.247  0.00  0.00     0.276 C 
BRANCH   7   8
ATOM      8  C   UNL d   1       7.130   3.670 -13.152  0.00  0.00     0.006 C 
ATOM      9  C   UNL d   1       7.143   2.420 -13.643  0.00  0.00    -0.003 C 
BRANCH   9  10
ATOM     10  C   UNL d   1       5.999   1.433 -13.535  0.00  0.00     0.155 C 
BRANCH  10  11
ATOM     11  N   UNL d   1       5.866   0.685 -14.770  0.00  0.00    -0.227 NA
ATOM     12  C   UNL d   1       4.999  -0.317 -14.972  0.00  0.00     0.311 C 
ATOM     13  O   UNL d   1       4.260  -0.762 -14.091  0.00  0.00    -0.262 OA
BRANCH  12  14
ATOM     14  C   UNL d   1       4.959  -0.833 -16.380  0.00  0.00     0.221 A 
ATOM     15  N   UNL d   1       5.800  -0.375 -17.330  0.00  0.00    -0.220 NA
ATOM     16  C   UNL d   1       5.518  -1.028 -18.517  0.00  0.00     0.116 A 
ATOM     17  C   UNL d   1       4.487  -1.885 -18.221  0.00  0.00     0.080 A 
ATOM     18  N   UNL d   1       4.130  -1.741 -16.878  0.00  0.00    -0.226 NA
ATOM     19  C   UNL d   1       3.793  -2.864 -19.115  0.00  0.00     0.054 C 
ENDBRANCH  12  14
ENDBRANCH  10  11
ENDBRANCH   9  10
ENDBRANCH   7   8
ENDBRANCH   4   7
BRANCH   1  20
ATOM     20  C   UNL d   1      10.534   7.627  -9.215  0.00  0.00     0.067 C 
ATOM     21  C   UNL d   1      11.789   7.967  -9.784  0.00  0.00     0.018 C 
ATOM     22  C   UNL d   1      12.835   8.394  -8.975  0.00  0.00     0.001 C 
ATOM     23  C   UNL d   1      12.600   8.674  -7.640  0.00  0.00    -0.003 C 
ATOM     24  C   UNL d   1      11.355   8.348  -7.028  0.00  0.00    -0.010 C 
ATOM     25  C   UNL d   1      10.315   7.832  -7.831  0.00  0.00     0.069 C 
ATOM     26 CL   UNL d   1       8.765   7.524  -7.093  0.00  0.00    -0.081 Cl
BRANCH  24  27
ATOM     27  C   UNL d   1      11.201   8.537  -5.533  0.00  0.00     0.027 C 
ATOM     28  C   UNL d   1      11.159  10.010  -5.152  0.00  0.00     0.005 C 
ENDBRANCH  24  27
ENDBRANCH   1  20
TORSDOF 7
