REMARK  6 active torsions:
REMARK  status: ('A' for Active; 'I' for Inactive)
REMARK       I    between atoms: C_2  and  N_3 
REMARK    1  A    between atoms: C_2  and  C_27 
REMARK    2  A    between atoms: N_3  and  C_4 
REMARK    3  A    between atoms: C_7  and  C_8 
REMARK    4  A    between atoms: C_8  and  C_9 
REMARK    5  A    between atoms: C_9  and  N_10 
REMARK    6  A    between atoms: N_13  and  C_14 
ROOT
ATOM      1  C   UNL d   1       7.215   3.388 -14.172  0.00  0.00     0.035 C 
ENDROOT
BRANCH   1   2
ATOM      2  C   UNL d   1       7.515   4.056 -12.839  0.00  0.00     0.002 C 
ATOM      3  C   UNL d   1       8.988   3.870 -12.422  0.00  0.00     0.002 C 
ATOM      4  C   UNL d   1       9.236   4.561 -11.069  0.00  0.00     0.024 C 
ATOM      5  C   UNL d   1       8.941   6.064 -11.149  0.00  0.00     0.106 C 
ATOM      6  C   UNL d   1       7.496   6.277 -11.632  0.00  0.00     0.024 C 
ATOM      7  C   UNL d   1       7.225   5.557 -12.937  0.00  0.00     0.002 C 
BRANCH   5   8
ATOM      8  N   UNL d   1       9.089   6.641  -9.827  0.00  0.00    -0.238 NA
ATOM      9  C   UNL d   1      10.210   7.098  -9.247  0.00  0.00     0.279 C 
ATOM     10  O   UNL d   1      11.275   7.205  -9.851  0.00  0.00    -0.268 OA
BRANCH   9  11
ATOM     11  C   UNL d   1      10.147   7.469  -7.750  0.00  0.00     0.198 C 
ATOM     12  C   UNL d   1      10.406   8.982  -7.535  0.00  0.00     0.040 C 
ATOM     13  C   UNL d   1      10.411   9.348  -6.036  0.00  0.00     0.003 C 
ATOM     14  C   UNL d   1      11.405   8.506  -5.226  0.00  0.00     0.000 C 
ATOM     15  C   UNL d   1      11.200   6.998  -5.460  0.00  0.00     0.003 C 
ATOM     16  C   UNL d   1      11.214   6.662  -6.965  0.00  0.00     0.040 C 
ATOM     17  O   UNL d   1       8.866   7.128  -7.222  0.00  0.00    -0.216 OA
ENDBRANCH   9  11
ENDBRANCH   5   8
ENDBRANCH   1   2
BRANCH   1  18
ATOM     18  C   UNL d   1       7.180   1.859 -14.124  0.00  0.00     0.250 C 
BRANCH  18  19
ATOM     19  N   UNL d   1       6.495   1.307 -15.287  0.00  0.00     0.141 N 
ATOM     20  C   UNL d   1       6.317  -0.129 -15.083  0.00  0.00     0.274 C 
ATOM     21  C   UNL d   1       5.508  -0.745 -16.233  0.00  0.00     0.137 C 
ATOM     22  N   UNL d   1       6.135  -0.450 -17.516  0.00  0.00    -0.343 N 
ATOM     23  C   UNL d   1       6.425   0.960 -17.737  0.00  0.00     0.137 C 
ATOM     24  C   UNL d   1       7.221   1.533 -16.545  0.00  0.00     0.274 C 
BRANCH  22  25
ATOM     25  C   UNL d   1       6.454  -1.457 -18.451  0.00  0.00     0.081 A 
ATOM     26  C   UNL d   1       5.716  -2.657 -18.533  0.00  0.00     0.135 A 
ATOM     27  C   UNL d   1       6.026  -3.659 -19.424  0.00  0.00     0.121 A 
ATOM     28  O   UNL d   1       4.623  -3.030 -17.815  0.00  0.00    -0.298 OA
ATOM     29  C   UNL d   1       7.098  -3.542 -20.327  0.00  0.00     0.026 A 
ATOM     30  O   UNL d   1       5.156  -4.690 -19.278  0.00  0.00    -0.299 OA
ATOM     31  C   UNL d   1       7.854  -2.350 -20.288  0.00  0.00     0.004 A 
ATOM     32  C   UNL d   1       7.541  -1.326 -19.355  0.00  0.00     0.019 A 
ATOM     33  C   UNL d   1       4.275  -4.311 -18.254  0.00  0.00     0.304 A 
ENDBRANCH  22  25
ENDBRANCH  18  19
ENDBRANCH   1  18
TORSDOF 6
