REMARK  6 active torsions:
REMARK  status: ('A' for Active; 'I' for Inactive)
REMARK       I    between atoms: C_2  and  N_3 
REMARK    1  A    between atoms: C_2  and  C_27 
REMARK    2  A    between atoms: N_3  and  C_4 
REMARK    3  A    between atoms: C_7  and  C_8 
REMARK    4  A    between atoms: C_8  and  C_9 
REMARK    5  A    between atoms: C_9  and  N_10 
REMARK    6  A    between atoms: C_13  and  C_14 
ROOT
ATOM      1  C   UNL d   1       9.113   6.665  -9.645  0.00  0.00     0.107 C 
ATOM      2  C   UNL d   1       9.451   7.507 -10.895  0.00  0.00     0.024 C 
ATOM      3  C   UNL d   1       8.915   6.886 -12.191  0.00  0.00     0.002 C 
ATOM      4  C   UNL d   1       9.378   5.430 -12.370  0.00  0.00     0.002 C 
ATOM      5  C   UNL d   1       9.040   4.617 -11.115  0.00  0.00     0.002 C 
ATOM      6  C   UNL d   1       9.571   5.230  -9.817  0.00  0.00     0.024 C 
ENDROOT
BRANCH   4   7
ATOM      7  C   UNL d   1       8.786   4.802 -13.645  0.00  0.00     0.035 C 
BRANCH   7   8
ATOM      8  C   UNL d   1       9.415   3.436 -13.967  0.00  0.00     0.250 C 
BRANCH   8   9
ATOM      9  N   UNL d   1       8.817   2.846 -15.150  0.00  0.00     0.137 N 
ATOM     10  C   UNL d   1       9.723   1.818 -15.651  0.00  0.00     0.251 C 
ATOM     11  C   UNL d   1       9.168   1.269 -16.965  0.00  0.00     0.040 C 
ATOM     12  C   UNL d   1       7.765   0.642 -16.810  0.00  0.00     0.026 C 
ATOM     13  C   UNL d   1       6.880   1.674 -16.097  0.00  0.00     0.040 C 
ATOM     14  C   UNL d   1       7.528   2.232 -14.827  0.00  0.00     0.251 C 
BRANCH  12  15
ATOM     15  C   UNL d   1       7.147   0.176 -18.140  0.00  0.00    -0.024 A 
ATOM     16  C   UNL d   1       5.966  -0.601 -18.169  0.00  0.00    -0.001 A 
ATOM     17  C   UNL d   1       5.398  -1.018 -19.368  0.00  0.00     0.090 A 
ATOM     18  C   UNL d   1       5.145  -1.147 -17.039  0.00  0.00     0.061 A 
ATOM     19  C   UNL d   1       5.973  -0.690 -20.604  0.00  0.00     0.024 A 
ATOM     20  O   UNL d   1       4.267  -1.765 -19.189  0.00  0.00    -0.331 OA
ATOM     21  C   UNL d   1       7.152   0.081 -20.606  0.00  0.00     0.002 A 
ATOM     22  C   UNL d   1       7.731   0.506 -19.391  0.00  0.00    -0.004 A 
ATOM     23  C   UNL d   1       3.974  -1.805 -17.787  0.00  0.00     0.154 A 
ENDBRANCH  12  15
ENDBRANCH   8   9
ENDBRANCH   7   8
ENDBRANCH   4   7
BRANCH   1  24
ATOM     24  N   UNL d   1       9.718   7.296  -8.493  0.00  0.00    -0.236 NA
ATOM     25  C   UNL d   1       9.355   7.093  -7.234  0.00  0.00     0.275 C 
ATOM     26  O   UNL d   1       8.452   6.339  -6.879  0.00  0.00    -0.266 OA
BRANCH  25  27
ATOM     27  C   UNL d   1      10.194   7.788  -6.232  0.00  0.00     0.060 A 
ATOM     28  C   UNL d   1      10.770   7.066  -5.160  0.00  0.00     0.031 A 
ATOM     29  C   UNL d   1      11.493   7.793  -4.206  0.00  0.00     0.119 A 
ATOM     30  C   UNL d   1      11.640   9.159  -4.299  0.00  0.00     0.119 A 
ATOM     31  O   UNL d   1      12.085   7.353  -3.062  0.00  0.00    -0.300 OA
ATOM     32  C   UNL d   1      11.083   9.902  -5.360  0.00  0.00     0.026 A 
ATOM     33  O   UNL d   1      12.324   9.609  -3.227  0.00  0.00    -0.300 OA
ATOM     34  C   UNL d   1      10.356   9.191  -6.332  0.00  0.00     0.007 A 
ATOM     35  C   UNL d   1      12.621   8.492  -2.450  0.00  0.00     0.304 A 
ENDBRANCH  25  27
ENDBRANCH   1  24
TORSDOF 6
