REMARK  7 active torsions:
REMARK  status: ('A' for Active; 'I' for Inactive)
REMARK    1  A    between atoms: C_4  and  N_5 
REMARK    2  A    between atoms: N_5  and  S_6 
REMARK    3  A    between atoms: S_6  and  C_9 
REMARK    4  A    between atoms: N_19  and  C_20 
REMARK    5  A    between atoms: C_20  and  C_21 
REMARK    6  A    between atoms: C_21  and  C_22 
REMARK    7  A    between atoms: C_22  and  C_23 
ROOT
ATOM      1  C   UNL d   1       5.142   2.147 -12.842  0.00  0.00     0.035 C 
ATOM      2  C   UNL d   1       5.907   3.450 -13.117  0.00  0.00     0.221 C 
ATOM      3  C   UNL d   1       6.097   4.289 -11.851  0.00  0.00     0.060 C 
ATOM      4  C   UNL d   1       7.462   4.934 -12.000  0.00  0.00     0.151 C 
ATOM      5  C   UNL d   1       7.957   4.445 -13.340  0.00  0.00     0.275 C 
ATOM      6  N   UNL d   1       7.268   3.212 -13.569  0.00  0.00     0.137 N 
ENDROOT
BRANCH   4   7
ATOM      7  N   UNL d   1       7.398   6.400 -11.999  0.00  0.00    -0.183 NA
BRANCH   7   8
ATOM      8  S   UNL d   1       8.883   7.274 -12.042  0.00  0.00     0.303 S 
ATOM      9  O   UNL d   1       9.824   6.442 -12.806  0.00  0.00    -0.197 OA
ATOM     10  O   UNL d   1       8.591   8.665 -12.419  0.00  0.00    -0.197 OA
BRANCH   8  11
ATOM     11  C   UNL d   1       9.500   7.295 -10.376  0.00  0.00     0.204 A 
ATOM     12  O   UNL d   1      10.186   8.410  -9.961  0.00  0.00    -0.295 OA
ATOM     13  C   UNL d   1      10.481   8.198  -8.634  0.00  0.00     0.101 A 
ATOM     14  C   UNL d   1       9.978   6.946  -8.235  0.00  0.00     0.025 A 
ATOM     15  C   UNL d   1      11.157   9.044  -7.750  0.00  0.00     0.025 A 
ATOM     16  C   UNL d   1       9.342   6.371  -9.368  0.00  0.00     0.040 A 
ATOM     17  C   UNL d   1      10.196   6.567  -6.901  0.00  0.00     0.002 A 
ATOM     18  C   UNL d   1      10.907   7.385  -5.998  0.00  0.00     0.000 A 
ATOM     19  C   UNL d   1      11.399   8.634  -6.428  0.00  0.00     0.002 A 
ENDBRANCH   8  11
ENDBRANCH   7   8
ENDBRANCH   4   7
BRANCH   6  20
ATOM     20  C   UNL d   1       7.388   2.631 -14.882  0.00  0.00     0.251 C 
BRANCH  20  21
ATOM     21  C   UNL d   1       8.822   2.719 -15.450  0.00  0.00     0.042 C 
BRANCH  21  22
ATOM     22  C   UNL d   1       8.914   2.219 -16.886  0.00  0.00     0.050 C 
BRANCH  22  23
ATOM     23  C   UNL d   1      10.342   2.074 -17.337  0.00  0.00     0.088 A 
ATOM     24  C   UNL d   1      11.270   3.038 -17.788  0.00  0.00     0.041 A 
ATOM     25  C   UNL d   1      12.479   2.400 -18.075  0.00  0.00     0.129 A 
ATOM     26  C   UNL d   1      11.159   4.435 -17.975  0.00  0.00     0.006 A 
ATOM     27  O   UNL d   1      12.262   1.065 -17.772  0.00  0.00    -0.211 OA
ATOM     28  C   UNL d   1      13.602   3.079 -18.565  0.00  0.00     0.057 A 
ATOM     29  N   UNL d   1      10.940   0.885 -17.288  0.00  0.00    -0.131 NA
ATOM     30  C   UNL d   1      13.494   4.472 -18.758  0.00  0.00     0.142 A 
ATOM     31  F   UNL d   1      14.554   5.166 -19.233  0.00  0.00    -0.204 F 
ATOM     32  C   UNL d   1      12.281   5.144 -18.463  0.00  0.00     0.030 A 
ENDBRANCH  22  23
ENDBRANCH  21  22
ENDBRANCH  20  21
ENDBRANCH   6  20
TORSDOF 7
