REMARK  9 active torsions:
REMARK  status: ('A' for Active; 'I' for Inactive)
REMARK    1  A    between atoms: C_2  and  N_3 
REMARK    2  A    between atoms: N_3  and  C_4 
REMARK    3  A    between atoms: N_3  and  C_6 
REMARK    4  A    between atoms: C_6  and  C_7 
REMARK    5  A    between atoms: C_7  and  O_8 
REMARK    6  A    between atoms: O_8  and  C_9 
REMARK    7  A    between atoms: C_12  and  C_13 
REMARK    8  A    between atoms: C_13  and  C_22 
REMARK    9  A    between atoms: C_14  and  C_16 
ROOT
ATOM      1  C   UNL d   1       8.428   0.370 -16.344  0.00  0.00     0.011 C 
ATOM      2  C   UNL d   1       9.081  -0.245 -17.376  0.00  0.00     0.058 C 
ATOM      3 CL   UNL d   1       8.427  -1.648 -18.183  0.00  0.00    -0.082 Cl
ENDROOT
BRANCH   1   4
ATOM      4  C   UNL d   1       9.043   1.486 -15.581  0.00  0.00     0.001 A 
ATOM      5  C   UNL d   1       8.257   2.631 -15.361  0.00  0.00     0.002 A 
ATOM      6  C   UNL d   1       8.787   3.760 -14.710  0.00  0.00     0.024 A 
ATOM      7  C   UNL d   1      10.136   3.748 -14.255  0.00  0.00     0.094 A 
ATOM      8  C   UNL d   1      10.910   2.620 -14.477  0.00  0.00     0.024 A 
ATOM      9  C   UNL d   1      10.374   1.471 -15.104  0.00  0.00     0.002 A 
BRANCH   7  10
ATOM     10  O   UNL d   1      10.650   4.836 -13.613  0.00  0.00    -0.329 OA
BRANCH  10  11
ATOM     11  C   UNL d   1       9.763   5.647 -12.881  0.00  0.00     0.184 C 
BRANCH  11  12
ATOM     12  C   UNL d   1       9.362   4.874 -11.604  0.00  0.00     0.283 C 
BRANCH  12  13
ATOM     13  N   UNL d   1       8.948   5.719 -10.478  0.00  0.00     0.140 N 
BRANCH  13  14
ATOM     14  C   UNL d   1       8.400   4.855  -9.428  0.00  0.00     0.250 C 
ATOM     15  C   UNL d   1       9.460   3.940  -8.815  0.00  0.00     0.037 C 
ENDBRANCH  13  14
BRANCH  13  16
ATOM     16  C   UNL d   1      10.010   6.624 -10.009  0.00  0.00     0.250 C 
ATOM     17  C   UNL d   1       9.696   7.414  -8.726  0.00  0.00     0.037 C 
ENDBRANCH  13  16
ENDBRANCH  12  13
ENDBRANCH  11  12
ENDBRANCH  10  11
ENDBRANCH   7  10
ENDBRANCH   1   4
BRANCH   1  18
ATOM     18  C   UNL d   1       7.062  -0.012 -15.890  0.00  0.00     0.001 A 
ATOM     19  C   UNL d   1       6.778  -0.049 -14.508  0.00  0.00     0.000 A 
ATOM     20  C   UNL d   1       5.496  -0.394 -14.038  0.00  0.00     0.000 A 
ATOM     21  C   UNL d   1       4.488  -0.756 -14.949  0.00  0.00     0.000 A 
ATOM     22  C   UNL d   1       4.742  -0.707 -16.328  0.00  0.00     0.000 A 
ATOM     23  C   UNL d   1       6.013  -0.291 -16.804  0.00  0.00     0.000 A 
ENDBRANCH   1  18
BRANCH   2  24
ATOM     24  C   UNL d   1      10.360   0.212 -17.973  0.00  0.00     0.011 A 
ATOM     25  C   UNL d   1      10.651   1.581 -18.167  0.00  0.00     0.001 A 
ATOM     26  C   UNL d   1      11.924   1.969 -18.660  0.00  0.00     0.000 A 
ATOM     27  C   UNL d   1      12.858   0.991 -19.037  0.00  0.00     0.000 A 
ATOM     28  C   UNL d   1      12.545  -0.374 -18.903  0.00  0.00     0.000 A 
ATOM     29  C   UNL d   1      11.303  -0.755 -18.370  0.00  0.00     0.001 A 
ENDBRANCH   2  24
TORSDOF 9
