REMARK  8 active torsions:
REMARK  status: ('A' for Active; 'I' for Inactive)
REMARK    1  A    between atoms: S_2  and  N_4 
REMARK    2  A    between atoms: S_2  and  C_25 
REMARK    3  A    between atoms: N_4  and  C_5 
REMARK    4  A    between atoms: N_8  and  C_9 
REMARK    5  A    between atoms: C_9  and  C_10 
REMARK    6  A    between atoms: C_10  and  O_11 
REMARK    7  A    between atoms: O_11  and  C_12 
REMARK    8  A    between atoms: C_17  and  C_18 
ROOT
ATOM      1  C   UNL d   1      10.906   8.285  -7.946  0.00  0.00     0.151 C 
ATOM      2  C   UNL d   1      11.264   9.148  -9.157  0.00  0.00     0.063 C 
ATOM      3  C   UNL d   1      10.474   8.545 -10.312  0.00  0.00     0.253 C 
ATOM      4  N   UNL d   1      10.403   7.131  -9.960  0.00  0.00     0.142 N 
ATOM      5  C   UNL d   1      10.027   7.173  -8.544  0.00  0.00     0.275 C 
ENDROOT
BRANCH   4   6
ATOM      6  C   UNL d   1       9.388   6.422 -10.746  0.00  0.00     0.283 C 
BRANCH   6   7
ATOM      7  C   UNL d   1       9.837   6.152 -12.178  0.00  0.00     0.184 C 
BRANCH   7   8
ATOM      8  O   UNL d   1       9.083   5.166 -12.818  0.00  0.00    -0.329 OA
BRANCH   8   9
ATOM      9  C   UNL d   1       9.537   4.620 -14.004  0.00  0.00     0.094 A 
ATOM     10  C   UNL d   1       8.671   3.677 -14.591  0.00  0.00     0.022 A 
ATOM     11  C   UNL d   1       9.043   3.069 -15.806  0.00  0.00     0.002 A 
ATOM     12  C   UNL d   1      10.235   3.389 -16.473  0.00  0.00     0.000 A 
ATOM     13  C   UNL d   1      11.097   4.334 -15.900  0.00  0.00     0.002 A 
ATOM     14  C   UNL d   1      10.753   4.946 -14.681  0.00  0.00     0.024 A 
BRANCH  10  15
ATOM     15  C   UNL d   1       7.370   3.362 -13.971  0.00  0.00     0.002 A 
ATOM     16  C   UNL d   1       6.607   4.330 -13.264  0.00  0.00     0.000 A 
ATOM     17  C   UNL d   1       5.465   3.952 -12.569  0.00  0.00     0.000 A 
ATOM     18  C   UNL d   1       5.011   2.643 -12.687  0.00  0.00     0.000 A 
ATOM     19  C   UNL d   1       5.685   1.675 -13.429  0.00  0.00     0.000 A 
ATOM     20  C   UNL d   1       6.875   2.040 -14.069  0.00  0.00     0.000 A 
ENDBRANCH  10  15
ENDBRANCH   8   9
ENDBRANCH   7   8
ENDBRANCH   6   7
ENDBRANCH   4   6
BRANCH   1  21
ATOM     21  N   UNL d   1      10.228   8.983  -6.812  0.00  0.00    -0.185 NA
BRANCH  21  22
ATOM     22  S   UNL d   1      11.139   9.842  -5.637  0.00  0.00     0.281 S 
ATOM     23  O   UNL d   1      12.254  10.427  -6.374  0.00  0.00    -0.199 OA
ATOM     24  O   UNL d   1      10.258  10.662  -4.785  0.00  0.00    -0.199 OA
BRANCH  22  25
ATOM     25  C   UNL d   1      11.756   8.637  -4.532  0.00  0.00     0.105 A 
ATOM     26  C   UNL d   1      11.681   7.283  -4.875  0.00  0.00     0.015 A 
ATOM     27  C   UNL d   1      12.152   6.382  -3.943  0.00  0.00     0.030 A 
ATOM     28  C   UNL d   1      12.573   6.734  -2.657  0.00  0.00     0.140 A 
ATOM     29  C   UNL d   1      12.576   8.076  -2.289  0.00  0.00     0.030 A 
ATOM     30  F   UNL d   1      13.052   5.792  -1.817  0.00  0.00    -0.204 F 
ATOM     31  C   UNL d   1      12.180   9.040  -3.240  0.00  0.00     0.015 A 
ENDBRANCH  22  25
ENDBRANCH  21  22
ENDBRANCH   1  21
TORSDOF 8
