REMARK  6 active torsions:
REMARK  status: ('A' for Active; 'I' for Inactive)
REMARK    1  A    between atoms: C_7  and  O_8 
REMARK    2  A    between atoms: O_8  and  C_9 
REMARK    3  A    between atoms: C_9  and  C_10 
REMARK    4  A    between atoms: C_10  and  C_11 
REMARK    5  A    between atoms: C_11  and  N_12 
REMARK    6  A    between atoms: N_16  and  C_17 
ROOT
ATOM      1  N   UNL d   1       8.686   6.806 -11.650  0.00  0.00     0.139 N 
ATOM      2  C   UNL d   1       7.466   6.939 -12.451  0.00  0.00     0.252 C 
ATOM      3  C   UNL d   1       6.489   5.790 -12.177  0.00  0.00     0.059 C 
ATOM      4  C   UNL d   1       6.672   4.537 -13.052  0.00  0.00     0.104 C 
ATOM      5  N   UNL d   1       8.031   4.018 -13.082  0.00  0.00    -0.345 N 
ATOM      6  C   UNL d   1       8.970   4.350 -12.034  0.00  0.00     0.137 C 
ATOM      7  C   UNL d   1       9.556   5.765 -12.183  0.00  0.00     0.274 C 
ENDROOT
BRANCH   1   8
ATOM      8  C   UNL d   1       9.394   8.086 -11.680  0.00  0.00     0.253 C 
BRANCH   8   9
ATOM      9  C   UNL d   1      10.422   8.245 -10.537  0.00  0.00     0.068 C 
BRANCH   9  10
ATOM     10  C   UNL d   1       9.772   8.842  -9.280  0.00  0.00     0.151 C 
BRANCH  10  11
ATOM     11  O   UNL d   1      10.801   9.384  -8.438  0.00  0.00    -0.331 OA
BRANCH  11  12
ATOM     12  C   UNL d   1      11.070   8.761  -7.249  0.00  0.00     0.096 A 
ATOM     13  C   UNL d   1      10.905   7.369  -7.079  0.00  0.00     0.026 A 
ATOM     14  C   UNL d   1      11.102   6.765  -5.824  0.00  0.00     0.023 A 
ATOM     15  C   UNL d   1      11.525   7.575  -4.770  0.00  0.00     0.104 A 
ATOM     16  N   UNL d   1      11.861   7.246  -3.457  0.00  0.00    -0.189 NA
ATOM     17  C   UNL d   1      11.755   8.925  -4.921  0.00  0.00     0.106 A 
ATOM     18  C   UNL d   1      12.262   8.344  -2.800  0.00  0.00     0.369 A 
ATOM     19  O   UNL d   1      12.652   8.388  -1.637  0.00  0.00    -0.242 OA
ATOM     20  N   UNL d   1      12.205   9.378  -3.667  0.00  0.00    -0.189 NA
ATOM     21  C   UNL d   1      11.551   9.573  -6.156  0.00  0.00     0.045 A 
ENDBRANCH  11  12
ENDBRANCH  10  11
ENDBRANCH   9  10
ENDBRANCH   8   9
ENDBRANCH   1   8
BRANCH   5  22
ATOM     22  C   UNL d   1       8.491   3.300 -14.248  0.00  0.00     0.068 A 
ATOM     23  C   UNL d   1       7.733   2.238 -14.798  0.00  0.00     0.084 A 
ATOM     24  C   UNL d   1       8.202   1.584 -15.964  0.00  0.00     0.070 A 
ATOM     25 CL   UNL d   1       6.263   1.661 -14.074  0.00  0.00    -0.080 Cl
ATOM     26  C   UNL d   1       9.421   1.965 -16.561  0.00  0.00     0.012 A 
ATOM     27 CL   UNL d   1       7.298   0.314 -16.692  0.00  0.00    -0.081 Cl
ATOM     28  C   UNL d   1      10.178   3.009 -15.997  0.00  0.00     0.002 A 
ATOM     29  C   UNL d   1       9.708   3.667 -14.845  0.00  0.00     0.018 A 
ENDBRANCH   5  22
TORSDOF 6
