REMARK  7 active torsions:
REMARK  status: ('A' for Active; 'I' for Inactive)
REMARK    1  A    between atoms: C_2  and  C_3 
REMARK    2  A    between atoms: C_3  and  N_4 
REMARK    3  A    between atoms: N_4  and  C_5 
REMARK    4  A    between atoms: N_4  and  C_8 
REMARK    5  A    between atoms: C_5  and  C_6 
REMARK    6  A    between atoms: C_8  and  C_9 
REMARK    7  A    between atoms: C_9  and  C_10 
ROOT
ATOM      1  C   UNL d   1      10.094   7.533  -8.297  0.00  0.00     0.001 A 
ATOM      2  C   UNL d   1      10.338   8.630  -9.080  0.00  0.00     0.095 A 
ATOM      3  N   UNL d   1      11.067   9.544  -8.362  0.00  0.00    -0.244 NA
ATOM      4  C   UNL d   1      11.284   9.106  -7.073  0.00  0.00     0.081 A 
ATOM      5  C   UNL d   1      11.940   9.692  -5.978  0.00  0.00     0.020 A 
ATOM      6  C   UNL d   1      12.020   8.985  -4.769  0.00  0.00     0.013 A 
ATOM      7  C   UNL d   1      11.460   7.694  -4.678  0.00  0.00     0.058 A 
ATOM      8 CL   UNL d   1      11.703   6.789  -3.226  0.00  0.00    -0.082 Cl
ATOM      9  C   UNL d   1      10.793   7.123  -5.783  0.00  0.00     0.013 A 
ATOM     10  C   UNL d   1      10.684   7.814  -7.012  0.00  0.00     0.016 A 
ENDROOT
BRANCH   1  11
ATOM     11  C   UNL d   1       9.319   6.319  -8.720  0.00  0.00     0.063 C 
BRANCH  11  12
ATOM     12  C   UNL d   1       9.613   5.950 -10.184  0.00  0.00     0.256 C 
BRANCH  12  13
ATOM     13  N   UNL d   1       8.740   4.903 -10.711  0.00  0.00     0.146 N 
BRANCH  13  14
ATOM     14  C   UNL d   1       7.462   5.527 -11.078  0.00  0.00     0.277 C 
BRANCH  14  15
ATOM     15  C   UNL d   1       6.450   4.537 -11.639  0.00  0.00     0.009 C 
ATOM     16  C   UNL d   1       5.668   4.797 -12.696  0.00  0.00    -0.003 C 
ENDBRANCH  14  15
ENDBRANCH  13  14
BRANCH  13  17
ATOM     17  C   UNL d   1       9.370   4.176 -11.817  0.00  0.00     0.277 C 
BRANCH  17  18
ATOM     18  C   UNL d   1       9.788   5.052 -12.989  0.00  0.00     0.009 C 
ATOM     19  C   UNL d   1      10.889   4.835 -13.726  0.00  0.00    -0.003 C 
ENDBRANCH  17  18
ENDBRANCH  13  17
ENDBRANCH  12  13
ENDBRANCH  11  12
ENDBRANCH   1  11
TORSDOF 7
