REMARK  10 active torsions:
REMARK  status: ('A' for Active; 'I' for Inactive)
REMARK    1  A    between atoms: C_6  and  C_7 
REMARK    2  A    between atoms: C_7  and  C_8 
REMARK    3  A    between atoms: C_8  and  O_9 
REMARK    4  A    between atoms: O_9  and  C_10 
REMARK       I    between atoms: C_10  and  N_12 
REMARK    5  A    between atoms: N_15  and  C_16 
REMARK    6  A    between atoms: C_16  and  C_17 
REMARK    7  A    between atoms: C_17  and  C_18 
REMARK    8  A    between atoms: C_18  and  C_19 
REMARK    9  A    between atoms: C_19  and  C_20 
REMARK   10  A    between atoms: C_19  and  C_27 
ROOT
ATOM      1  N   UNL d   1      10.675  10.556  -4.426  0.00  0.00    -0.191 NA
ATOM      2  C   UNL d   1      10.658   9.799  -5.291  0.00  0.00     0.101 C 
ATOM      3  C   UNL d   1      10.622   8.843  -6.345  0.00  0.00     0.068 A 
ATOM      4  C   UNL d   1      11.040   9.192  -7.643  0.00  0.00     0.010 A 
ATOM      5  C   UNL d   1      10.955   8.241  -8.662  0.00  0.00    -0.004 A 
ATOM      6  C   UNL d   1      10.445   6.963  -8.360  0.00  0.00    -0.020 A 
ATOM      7  C   UNL d   1      10.062   6.614  -7.055  0.00  0.00    -0.004 A 
ATOM      8  C   UNL d   1      10.154   7.560  -6.042  0.00  0.00     0.010 A 
ENDROOT
BRANCH   6   9
ATOM      9  C   UNL d   1      10.384   5.920  -9.416  0.00  0.00     0.059 C 
BRANCH   9  10
ATOM     10  C   UNL d   1       9.013   5.689 -10.020  0.00  0.00     0.158 C 
BRANCH  10  11
ATOM     11  O   UNL d   1       9.173   4.831 -11.154  0.00  0.00    -0.285 OA
BRANCH  11  12
ATOM     12  C   UNL d   1       9.436   5.335 -12.378  0.00  0.00     0.365 C 
ATOM     13  O   UNL d   1       9.457   6.543 -12.626  0.00  0.00    -0.238 OA
ATOM     14  N   UNL d   1       9.659   4.316 -13.309  0.00  0.00    -0.293 N 
ATOM     15  C   UNL d   1       9.888   2.909 -13.001  0.00  0.00     0.142 C 
ATOM     16  C   UNL d   1       9.838   4.542 -14.741  0.00  0.00     0.142 C 
ATOM     17  C   UNL d   1       8.889   2.027 -13.761  0.00  0.00     0.274 C 
ATOM     18  N   UNL d   1       9.176   2.155 -15.178  0.00  0.00     0.141 N 
ATOM     19  C   UNL d   1       8.917   3.560 -15.495  0.00  0.00     0.274 C 
BRANCH  18  20
ATOM     20  C   UNL d   1       8.206   1.305 -15.879  0.00  0.00     0.250 C 
BRANCH  20  21
ATOM     21  C   UNL d   1       8.901   0.725 -17.111  0.00  0.00     0.036 C 
BRANCH  21  22
ATOM     22  C   UNL d   1       7.982  -0.107 -18.021  0.00  0.00     0.011 C 
BRANCH  22  23
ATOM     23  C   UNL d   1       8.705  -1.193 -18.844  0.00  0.00     0.045 C 
BRANCH  23  24
ATOM     24  C   UNL d   1       9.979  -0.706 -19.554  0.00  0.00    -0.018 A 
ATOM     25  C   UNL d   1       9.939  -0.161 -20.871  0.00  0.00    -0.002 A 
ATOM     26  C   UNL d   1      11.149   0.258 -21.491  0.00  0.00     0.029 A 
ATOM     27  C   UNL d   1      12.396   0.159 -20.816  0.00  0.00     0.140 A 
ATOM     28  C   UNL d   1      12.429  -0.369 -19.513  0.00  0.00     0.029 A 
ATOM     29  F   UNL d   1      13.535   0.570 -21.423  0.00  0.00    -0.204 F 
ATOM     30  C   UNL d   1      11.240  -0.802 -18.886  0.00  0.00    -0.002 A 
ENDBRANCH  23  24
BRANCH  23  31
ATOM     31  C   UNL d   1       7.723  -1.954 -19.741  0.00  0.00    -0.018 A 
ATOM     32  C   UNL d   1       7.124  -1.319 -20.852  0.00  0.00    -0.002 A 
ATOM     33  C   UNL d   1       6.332  -2.070 -21.760  0.00  0.00     0.029 A 
ATOM     34  C   UNL d   1       6.047  -3.433 -21.499  0.00  0.00     0.140 A 
ATOM     35  C   UNL d   1       6.571  -4.043 -20.345  0.00  0.00     0.029 A 
ATOM     36  F   UNL d   1       5.249  -4.138 -22.343  0.00  0.00    -0.204 F 
ATOM     37  C   UNL d   1       7.414  -3.315 -19.476  0.00  0.00    -0.002 A 
ENDBRANCH  23  31
ENDBRANCH  22  23
ENDBRANCH  21  22
ENDBRANCH  20  21
ENDBRANCH  18  20
ENDBRANCH  11  12
ENDBRANCH  10  11
ENDBRANCH   9  10
ENDBRANCH   6   9
TORSDOF 10
