REMARK  6 active torsions:
REMARK  status: ('A' for Active; 'I' for Inactive)
REMARK    1  A    between atoms: C_2  and  C_3 
REMARK    2  A    between atoms: C_3  and  N_4 
REMARK    3  A    between atoms: N_4  and  C_5 
REMARK    4  A    between atoms: N_4  and  C_8 
REMARK    5  A    between atoms: C_5  and  C_6 
REMARK    6  A    between atoms: C_16  and  C_17 
ROOT
ATOM      1  C   UNL d   1       9.858   3.776 -14.018  0.00  0.00     0.253 C 
ATOM      2  C   UNL d   1       9.474   2.484 -14.766  0.00  0.00     0.182 C 
ATOM      3  O   UNL d   1      10.518   2.105 -15.648  0.00  0.00    -0.329 OA
ATOM      4  C   UNL d   1      10.964   3.062 -16.544  0.00  0.00     0.090 A 
ATOM      5  C   UNL d   1      10.831   4.444 -16.268  0.00  0.00     0.002 A 
ATOM      6  C   UNL d   1      11.349   5.408 -17.160  0.00  0.00    -0.002 A 
ATOM      7  C   UNL d   1      12.017   4.987 -18.321  0.00  0.00    -0.000 A 
ATOM      8  C   UNL d   1      12.151   3.617 -18.597  0.00  0.00     0.002 A 
ATOM      9  C   UNL d   1      11.616   2.634 -17.723  0.00  0.00     0.024 A 
ATOM     10  C   UNL d   1      10.129   4.921 -15.019  0.00  0.00     0.064 C 
ENDROOT
BRANCH   1  11
ATOM     11  N   UNL d   1       8.904   4.138 -12.954  0.00  0.00     0.138 N 
BRANCH  11  12
ATOM     12  C   UNL d   1       7.583   4.502 -13.483  0.00  0.00     0.250 C 
BRANCH  12  13
ATOM     13  C   UNL d   1       6.414   4.173 -12.536  0.00  0.00     0.035 C 
ATOM     14  C   UNL d   1       5.079   4.151 -13.261  0.00  0.00     0.002 C 
ENDBRANCH  12  13
ENDBRANCH  11  12
BRANCH  11  15
ATOM     15  C   UNL d   1       9.445   5.208 -12.117  0.00  0.00     0.250 C 
BRANCH  15  16
ATOM     16  C   UNL d   1       8.873   5.163 -10.677  0.00  0.00     0.035 C 
ATOM     17  C   UNL d   1       9.385   6.301  -9.791  0.00  0.00     0.002 C 
ENDBRANCH  15  16
ENDBRANCH  11  15
ENDBRANCH   1  11
BRANCH   9  18
ATOM     18  C   UNL d   1      11.771   1.198 -18.059  0.00  0.00     0.029 A 
ATOM     19  C   UNL d   1      10.953   0.181 -17.660  0.00  0.00     0.123 A 
ATOM     20  O   UNL d   1      11.405  -1.007 -18.149  0.00  0.00    -0.303 OA
ATOM     21  C   UNL d   1      12.525  -0.731 -18.868  0.00  0.00     0.123 A 
ATOM     22  C   UNL d   1      12.790   0.614 -18.855  0.00  0.00     0.029 A 
ENDBRANCH   9  18
TORSDOF 6
