REMARK  3 active torsions:
REMARK  status: ('A' for Active; 'I' for Inactive)
REMARK    1  A    between atoms: C_6  and  N_7 
REMARK    2  A    between atoms: N_7  and  C_8 
REMARK    3  A    between atoms: C_13  and  C_14 
ROOT
ATOM      1  C   UNL d   1      11.116   8.414  -7.331  0.00  0.00     0.087 A 
ATOM      2  C   UNL d   1      12.424   8.804  -7.633  0.00  0.00     0.019 A 
ATOM      3  C   UNL d   1      13.020   8.394  -8.819  0.00  0.00     0.002 A 
ATOM      4  C   UNL d   1      12.292   7.635  -9.727  0.00  0.00     0.000 A 
ATOM      5  C   UNL d   1      11.001   7.201  -9.452  0.00  0.00     0.008 A 
ATOM      6  C   UNL d   1      10.401   7.572  -8.229  0.00  0.00     0.082 A 
ENDROOT
BRANCH   1   7
ATOM      7  N   UNL d   1      10.601   8.880  -6.132  0.00  0.00    -0.246 NA
BRANCH   7   8
ATOM      8  C   UNL d   1      11.229   8.767  -4.889  0.00  0.00     0.077 A 
ATOM      9  C   UNL d   1      11.293   9.950  -4.173  0.00  0.00     0.019 A 
ATOM     10  C   UNL d   1      11.852   9.963  -2.895  0.00  0.00     0.001 A 
ATOM     11  C   UNL d   1      12.307   8.790  -2.269  0.00  0.00    -0.004 A 
ATOM     12  C   UNL d   1      12.217   7.584  -2.968  0.00  0.00    -0.024 A 
ATOM     13  C   UNL d   1      12.656   6.338  -2.251  0.00  0.00     0.031 C 
ATOM     14  C   UNL d   1      11.681   7.561  -4.285  0.00  0.00    -0.008 A 
ATOM     15  C   UNL d   1      11.506   6.243  -4.967  0.00  0.00     0.032 C 
ENDBRANCH   7   8
ENDBRANCH   1   7
BRANCH   6  16
ATOM     16  C   UNL d   1       9.079   6.966  -7.894  0.00  0.00     0.212 C 
ATOM     17  O   UNL d   1       8.710   5.907  -8.393  0.00  0.00    -0.644 OA
ATOM     18  O   UNL d   1       8.263   7.765  -7.162  0.00  0.00    -0.644 OA
ENDBRANCH   6  16
TORSDOF 3
