REMARK  6 active torsions:
REMARK  status: ('A' for Active; 'I' for Inactive)
REMARK    1  A    between atoms: C_6  and  O_7 
REMARK    2  A    between atoms: O_7  and  C_8 
REMARK    3  A    between atoms: C_8  and  C_9 
REMARK    4  A    between atoms: C_9  and  N_10 
REMARK    5  A    between atoms: C_13  and  C_14 
REMARK    6  A    between atoms: C_14  and  C_15 
ROOT
ATOM      1  N   UNL d   1       9.953   2.474 -14.710  0.00  0.00     0.140 N 
ATOM      2  C   UNL d   1       8.677   3.029 -15.166  0.00  0.00     0.250 C 
ATOM      3  C   UNL d   1       7.867   3.591 -13.983  0.00  0.00     0.036 C 
ATOM      4  C   UNL d   1       8.656   4.662 -13.223  0.00  0.00     0.008 C 
ATOM      5  C   UNL d   1      10.041   4.097 -12.875  0.00  0.00     0.036 C 
ATOM      6  C   UNL d   1      10.759   3.531 -14.110  0.00  0.00     0.250 C 
ENDROOT
BRANCH   1   7
ATOM      7  C   UNL d   1      10.686   1.904 -15.842  0.00  0.00     0.283 C 
BRANCH   7   8
ATOM      8  C   UNL d   1      10.154   0.501 -16.195  0.00  0.00     0.184 C 
BRANCH   8   9
ATOM      9  O   UNL d   1      10.937  -0.031 -17.261  0.00  0.00    -0.329 OA
BRANCH   9  10
ATOM     10  C   UNL d   1      10.710   0.376 -18.561  0.00  0.00     0.098 A 
ATOM     11  C   UNL d   1      11.642  -0.009 -19.560  0.00  0.00     0.040 A 
ATOM     12  C   UNL d   1      12.798  -0.753 -19.224  0.00  0.00     0.005 A 
ATOM     13  C   UNL d   1      11.449   0.347 -20.927  0.00  0.00     0.085 A 
ATOM     14  C   UNL d   1      13.707  -1.110 -20.238  0.00  0.00     0.015 A 
ATOM     15  C   UNL d   1      13.423  -0.715 -21.558  0.00  0.00     0.059 A 
ATOM     16  C   UNL d   1      14.355  -1.065 -22.697  0.00  0.00     0.052 C 
ATOM     17  N   UNL d   1      12.325  -0.008 -21.892  0.00  0.00    -0.250 NA
ATOM     18  C   UNL d   1      10.305   1.092 -21.273  0.00  0.00     0.049 A 
ATOM     19  C   UNL d   1       9.380   1.484 -20.294  0.00  0.00     0.144 A 
ATOM     20  C   UNL d   1       9.579   1.138 -18.947  0.00  0.00     0.054 A 
ATOM     21  F   UNL d   1       8.283   2.195 -20.642  0.00  0.00    -0.204 F 
ENDBRANCH   9  10
ENDBRANCH   8   9
ENDBRANCH   7   8
ENDBRANCH   1   7
BRANCH   4  22
ATOM     22  C   UNL d   1       7.895   5.141 -11.969  0.00  0.00     0.029 C 
BRANCH  22  23
ATOM     23  C   UNL d   1       8.707   6.091 -11.104  0.00  0.00     0.007 A 
ATOM     24  C   UNL d   1       9.044   5.764  -9.768  0.00  0.00     0.156 A 
ATOM     25  C   UNL d   1       9.784   6.677  -8.992  0.00  0.00     0.134 A 
ATOM     26  F   UNL d   1       8.671   4.582  -9.221  0.00  0.00    -0.203 F 
ATOM     27  C   UNL d   1      10.208   7.907  -9.526  0.00  0.00     0.115 A 
ATOM     28  N   UNL d   1      10.071   6.389  -7.645  0.00  0.00    -0.205 NA
ATOM     29  C   UNL d   1       9.857   8.235 -10.845  0.00  0.00     0.026 A 
ATOM     30  O   UNL d   1      10.906   8.810  -8.758  0.00  0.00    -0.319 OA
ATOM     31  C   UNL d   1       9.119   7.330 -11.637  0.00  0.00     0.000 A 
ATOM     32  C   UNL d   1      11.642   8.277  -7.649  0.00  0.00     0.238 C 
ATOM     33  C   UNL d   1      10.896   7.150  -6.910  0.00  0.00     0.287 C 
ATOM     34  O   UNL d   1      11.088   6.948  -5.715  0.00  0.00    -0.267 OA
ENDBRANCH  22  23
ENDBRANCH   4  22
TORSDOF 6
