REMARK  2 active torsions:
REMARK  status: ('A' for Active; 'I' for Inactive)
REMARK    1  A    between atoms: O_2  and  C_3 
REMARK    2  A    between atoms: C_8  and  O_9 
ROOT
ATOM      1  C   UNL d   1       8.023  -1.081 -18.126  0.00  0.00     0.116 A 
ATOM      2  C   UNL d   1       9.422  -1.249 -18.246  0.00  0.00     0.026 A 
ATOM      3  C   UNL d   1      10.298  -0.436 -17.513  0.00  0.00    -0.002 A 
ATOM      4  C   UNL d   1       9.790   0.525 -16.622  0.00  0.00    -0.018 A 
ATOM      5  C   UNL d   1       8.397   0.688 -16.441  0.00  0.00     0.020 A 
ATOM      6  C   UNL d   1       7.518  -0.085 -17.253  0.00  0.00     0.116 A 
ATOM      7  C   UNL d   1       7.942   1.683 -15.433  0.00  0.00    -0.001 A 
ATOM      8  C   UNL d   1       6.689   1.605 -14.768  0.00  0.00     0.000 A 
ATOM      9  C   UNL d   1       6.261   2.560 -13.829  0.00  0.00     0.006 A 
ATOM     10  C   UNL d   1       7.090   3.639 -13.492  0.00  0.00     0.030 A 
ATOM     11 BR   UNL d   1       6.484   4.928 -12.232  0.00  0.00    -0.050 Br
ATOM     12  C   UNL d   1       8.364   3.750 -14.074  0.00  0.00    -0.016 A 
ATOM     13  C   UNL d   1       8.765   2.766 -15.016  0.00  0.00     0.005 A 
ATOM     14  C   UNL d   1      10.156   2.853 -15.684  0.00  0.00     0.246 C 
ATOM     15  C   UNL d   1      10.750   1.436 -15.881  0.00  0.00     0.064 C 
ATOM     16  N   UNL d   1      11.119   3.727 -14.997  0.00  0.00     0.142 N 
ATOM     17  C   UNL d   1      12.332   3.951 -15.783  0.00  0.00     0.286 C 
ATOM     18  C   UNL d   1      10.477   5.016 -14.810  0.00  0.00     0.255 C 
ATOM     19  C   UNL d   1       9.382   4.837 -13.760  0.00  0.00     0.062 C 
ENDROOT
BRANCH   1  20
ATOM     20  O   UNL d   1       7.105  -1.861 -18.802  0.00  0.00    -0.326 OA
ATOM     21  C   UNL d   1       7.566  -2.945 -19.590  0.00  0.00     0.181 C 
ENDBRANCH   1  20
BRANCH   6  22
ATOM     22  O   UNL d   1       6.161   0.104 -17.188  0.00  0.00    -0.326 OA
ATOM     23  C   UNL d   1       5.585   0.677 -18.353  0.00  0.00     0.181 C 
ENDBRANCH   6  22
TORSDOF 2
