REMARK  10 active torsions:
REMARK  status: ('A' for Active; 'I' for Inactive)
REMARK    1  A    between atoms: C_2  and  C_3 
REMARK    2  A    between atoms: C_3  and  N_4 
REMARK    3  A    between atoms: N_4  and  C_5 
REMARK    4  A    between atoms: N_4  and  C_21 
REMARK    5  A    between atoms: C_5  and  C_6 
REMARK    6  A    between atoms: C_6  and  C_7 
REMARK    7  A    between atoms: C_7  and  C_8 
REMARK    8  A    between atoms: C_8  and  O_9 
REMARK    9  A    between atoms: O_9  and  C_10 
REMARK   10  A    between atoms: C_14  and  C_15 
ROOT
ATOM      1  C   UNL d   1      10.399   6.231  -9.455  0.00  0.00     0.250 C 
ENDROOT
BRANCH   1   2
ATOM      2  N   UNL d   1      10.982   7.401  -8.768  0.00  0.00     0.135 N 
BRANCH   2   3
ATOM      3  C   UNL d   1      10.663   8.698  -9.399  0.00  0.00     0.250 C 
BRANCH   3   4
ATOM      4  C   UNL d   1      11.686   9.005 -10.463  0.00  0.00     0.035 C 
ATOM      5  C   UNL d   1      13.082   8.362 -10.358  0.00  0.00     0.002 C 
ENDBRANCH   3   4
ENDBRANCH   2   3
BRANCH   2   6
ATOM      6  C   UNL d   1      10.846   7.398  -7.313  0.00  0.00     0.224 C 
ATOM      7  C   UNL d   1      11.444   8.680  -6.708  0.00  0.00     0.059 C 
ATOM      8  C   UNL d   1      11.578   8.675  -5.215  0.00  0.00    -0.022 A 
ATOM      9  C   UNL d   1      11.607   7.491  -4.465  0.00  0.00    -0.001 A 
ATOM     10  C   UNL d   1      11.679   9.903  -4.572  0.00  0.00    -0.004 A 
ATOM     11  C   UNL d   1      11.387   6.195  -5.161  0.00  0.00     0.030 C 
ATOM     12  C   UNL d   1      11.757   7.524  -3.060  0.00  0.00     0.127 A 
ATOM     13  C   UNL d   1      11.598   6.210  -6.683  0.00  0.00     0.038 C 
ATOM     14  O   UNL d   1      11.737   6.392  -2.310  0.00  0.00    -0.191 OA
ATOM     15  C   UNL d   1      11.876   8.772  -2.423  0.00  0.00     0.027 A 
ATOM     16  C   UNL d   1      11.848   9.948  -3.174  0.00  0.00     0.002 A 
ENDBRANCH   2   6
ENDBRANCH   1   2
BRANCH   1  17
ATOM     17  C   UNL d   1       8.878   6.329  -9.547  0.00  0.00     0.038 C 
BRANCH  17  18
ATOM     18  C   UNL d   1       8.344   5.936 -10.939  0.00  0.00     0.035 C 
BRANCH  18  19
ATOM     19  C   UNL d   1       8.309   4.409 -11.082  0.00  0.00     0.149 C 
BRANCH  19  20
ATOM     20  O   UNL d   1       7.858   3.996 -12.365  0.00  0.00    -0.329 OA
BRANCH  20  21
ATOM     21  C   UNL d   1       8.787   3.882 -13.372  0.00  0.00     0.113 A 
ATOM     22  C   UNL d   1      10.056   4.428 -13.322  0.00  0.00     0.124 A 
ATOM     23  N   UNL d   1      10.899   4.252 -14.371  0.00  0.00    -0.226 N 
ATOM     24  C   UNL d   1      10.544   3.523 -15.525  0.00  0.00     0.088 A 
ATOM     25  N   UNL d   1      12.180   4.742 -14.450  0.00  0.00    -0.163 NA
ATOM     26  C   UNL d   1       9.244   2.955 -15.570  0.00  0.00     0.021 A 
ATOM     27  C   UNL d   1      11.647   3.566 -16.335  0.00  0.00     0.081 A 
ATOM     28  C   UNL d   1       8.390   3.141 -14.509  0.00  0.00     0.027 A 
ATOM     29  C   UNL d   1      12.606   4.324 -15.624  0.00  0.00     0.125 A 
BRANCH  27  30
ATOM     30  C   UNL d   1      11.741   2.936 -17.638  0.00  0.00     0.237 C 
ATOM     31  O   UNL d   1      10.800   2.493 -18.294  0.00  0.00    -0.283 OA
ENDBRANCH  27  30
ENDBRANCH  20  21
ENDBRANCH  19  20
ENDBRANCH  18  19
ENDBRANCH  17  18
ENDBRANCH   1  17
TORSDOF 10
