REMARK  6 active torsions:
REMARK  status: ('A' for Active; 'I' for Inactive)
REMARK    1  A    between atoms: N_8  and  C_9 
REMARK    2  A    between atoms: C_9  and  C_10 
REMARK    3  A    between atoms: C_10  and  C_11 
REMARK    4  A    between atoms: C_11  and  C_12 
REMARK    5  A    between atoms: C_12  and  N_13 
REMARK    6  A    between atoms: N_16  and  C_17 
ROOT
ATOM      1  C   UNL d   1       8.290   4.909 -11.436  0.00  0.00     0.037 C 
ENDROOT
BRANCH   1   2
ATOM      2  C   UNL d   1       9.261   4.267 -12.437  0.00  0.00     0.027 C 
BRANCH   2   3
ATOM      3  C   UNL d   1       9.054   4.752 -13.880  0.00  0.00     0.118 C 
BRANCH   3   4
ATOM      4  N   UNL d   1       9.858   3.988 -14.846  0.00  0.00    -0.257 N 
ATOM      5  C   UNL d   1       9.372   2.716 -15.248  0.00  0.00     0.067 A 
ATOM      6  C   UNL d   1      10.255   1.773 -15.858  0.00  0.00    -0.005 A 
ATOM      7  C   UNL d   1       8.010   2.342 -15.089  0.00  0.00     0.032 A 
ATOM      8  C   UNL d   1       9.775   0.515 -16.280  0.00  0.00    -0.002 A 
ATOM      9  C   UNL d   1      11.734   2.063 -16.072  0.00  0.00     0.047 C 
ATOM     10  C   UNL d   1       8.422   0.179 -16.123  0.00  0.00     0.014 A 
ATOM     11  C   UNL d   1       7.541   1.090 -15.521  0.00  0.00     0.071 A 
ATOM     12  N   UNL d   1       6.201   0.755 -15.354  0.00  0.00    -0.101 NA
ATOM     13  C   UNL d   1      11.989   3.482 -16.546  0.00  0.00     0.149 C 
ATOM     14  S   UNL d   1      11.429   4.632 -15.256  0.00  0.00     0.247 S 
ATOM     15  O   UNL d   1      11.232   5.946 -15.866  0.00  0.00    -0.204 OA
ATOM     16  O   UNL d   1      12.261   4.457 -14.047  0.00  0.00    -0.204 OA
ENDBRANCH   3   4
ENDBRANCH   2   3
ENDBRANCH   1   2
BRANCH   1  17
ATOM     17  C   UNL d   1       8.762   4.731  -9.970  0.00  0.00     0.251 C 
BRANCH  17  18
ATOM     18  N   UNL d   1       8.739   5.994  -9.265  0.00  0.00     0.141 N 
ATOM     19  C   UNL d   1       9.862   6.847  -9.692  0.00  0.00     0.274 C 
ATOM     20  C   UNL d   1       9.848   8.198  -8.946  0.00  0.00     0.137 C 
ATOM     21  N   UNL d   1       9.826   7.957  -7.504  0.00  0.00    -0.344 N 
ATOM     22  C   UNL d   1       8.742   7.115  -7.050  0.00  0.00     0.137 C 
ATOM     23  C   UNL d   1       8.826   5.777  -7.822  0.00  0.00     0.274 C 
BRANCH  21  24
ATOM     24  C   UNL d   1      10.765   8.531  -6.611  0.00  0.00     0.057 C 
ATOM     25  C   UNL d   1      11.201   7.907  -5.410  0.00  0.00     0.022 A 
ATOM     26  C   UNL d   1      12.150   8.600  -4.596  0.00  0.00     0.031 A 
ATOM     27  C   UNL d   1      10.910   6.652  -4.818  0.00  0.00     0.009 A 
ATOM     28  C   UNL d   1      12.706   9.766  -5.029  0.00  0.00     0.007 C 
ATOM     29  S   UNL d   1      12.549   7.795  -3.104  0.00  0.00    -0.086 SA
ATOM     30  C   UNL d   1      12.252  10.387  -6.172  0.00  0.00     0.002 C 
ATOM     31  C   UNL d   1      11.304   9.764  -6.980  0.00  0.00     0.017 C 
ATOM     32  C   UNL d   1      11.532   6.487  -3.597  0.00  0.00     0.035 A 
ENDBRANCH  21  24
ENDBRANCH  17  18
ENDBRANCH   1  17
TORSDOF 6
