REMARK  9 active torsions:
REMARK  status: ('A' for Active; 'I' for Inactive)
REMARK       I    between atoms: C_2  and  N_3 
REMARK    1  A    between atoms: C_2  and  C_28 
REMARK    2  A    between atoms: N_3  and  C_4 
REMARK    3  A    between atoms: C_4  and  C_5 
REMARK    4  A    between atoms: C_5  and  C_6 
REMARK    5  A    between atoms: C_6  and  C_7 
REMARK    6  A    between atoms: C_7  and  N_8 
REMARK    7  A    between atoms: N_11  and  C_12 
REMARK    8  A    between atoms: C_12  and  C_13 
REMARK    9  A    between atoms: C_12  and  C_19 
ROOT
ATOM      1  N   UNL d   1       9.283   4.195 -13.217  0.00  0.00     0.141 N 
ATOM      2  C   UNL d   1       9.713   5.189 -14.185  0.00  0.00     0.285 C 
ATOM      3  C   UNL d   1      10.899   4.730 -15.022  0.00  0.00     0.286 C 
ATOM      4  N   UNL d   1      10.578   3.517 -15.774  0.00  0.00     0.147 N 
ATOM      5  C   UNL d   1      10.171   2.495 -14.791  0.00  0.00     0.286 C 
ATOM      6  C   UNL d   1       8.979   2.961 -13.941  0.00  0.00     0.285 C 
ENDROOT
BRANCH   1   7
ATOM      7  C   UNL d   1       8.131   4.644 -12.430  0.00  0.00     0.251 C 
BRANCH   7   8
ATOM      8  C   UNL d   1       8.176   6.123 -11.984  0.00  0.00     0.037 C 
BRANCH   8   9
ATOM      9  C   UNL d   1       9.169   6.297 -10.846  0.00  0.00     0.029 C 
BRANCH   9  10
ATOM     10  C   UNL d   1       9.697   7.731 -10.678  0.00  0.00     0.129 C 
BRANCH  10  11
ATOM     11  N   UNL d   1      10.336   7.979  -9.391  0.00  0.00    -0.234 NA
ATOM     12  C   UNL d   1      10.284   7.221  -8.287  0.00  0.00     0.275 C 
ATOM     13  O   UNL d   1       9.926   6.045  -8.248  0.00  0.00    -0.266 OA
BRANCH  12  14
ATOM     14  C   UNL d   1      10.719   7.876  -7.015  0.00  0.00     0.058 A 
ATOM     15  C   UNL d   1      11.091   7.067  -5.923  0.00  0.00     0.005 A 
ATOM     16  C   UNL d   1      11.467   7.638  -4.700  0.00  0.00     0.000 A 
ATOM     17  C   UNL d   1      11.464   9.042  -4.543  0.00  0.00     0.000 A 
ATOM     18  C   UNL d   1      11.865   6.791  -3.645  0.00  0.00     0.000 A 
ATOM     19  C   UNL d   1      11.074   9.875  -5.615  0.00  0.00     0.000 A 
ATOM     20  C   UNL d   1      11.861   9.597  -3.314  0.00  0.00     0.000 A 
ATOM     21  C   UNL d   1      10.697   9.287  -6.842  0.00  0.00     0.005 A 
ATOM     22  C   UNL d   1      12.267   8.752  -2.260  0.00  0.00     0.000 A 
ATOM     23  C   UNL d   1      12.270   7.358  -2.427  0.00  0.00     0.000 A 
ENDBRANCH  12  14
ENDBRANCH  10  11
ENDBRANCH   9  10
ENDBRANCH   8   9
ENDBRANCH   7   8
ENDBRANCH   1   7
BRANCH   4  24
ATOM     24  C   UNL d   1      11.700   3.072 -16.615  0.00  0.00     0.264 C 
BRANCH  24  25
ATOM     25  C   UNL d   1      11.364   1.866 -17.491  0.00  0.00     0.013 A 
ATOM     26  C   UNL d   1      12.417   1.112 -18.050  0.00  0.00    -0.002 A 
ATOM     27  C   UNL d   1      12.147  -0.008 -18.858  0.00  0.00    -0.000 A 
ATOM     28  C   UNL d   1      10.815  -0.381 -19.117  0.00  0.00    -0.000 A 
ATOM     29  C   UNL d   1       9.756   0.369 -18.574  0.00  0.00    -0.000 A 
ATOM     30  C   UNL d   1      10.028   1.498 -17.784  0.00  0.00    -0.002 A 
ENDBRANCH  24  25
BRANCH  24  31
ATOM     31  C   UNL d   1      12.279   4.170 -17.510  0.00  0.00     0.013 A 
ATOM     32  C   UNL d   1      13.679   4.282 -17.653  0.00  0.00    -0.001 A 
ATOM     33  C   UNL d   1      14.233   5.279 -18.478  0.00  0.00     0.011 A 
ATOM     34  C   UNL d   1      13.390   6.177 -19.160  0.00  0.00     0.058 A 
ATOM     35  C   UNL d   1      11.992   6.073 -19.021  0.00  0.00     0.011 A 
ATOM     36 CL   UNL d   1      14.071   7.401 -20.169  0.00  0.00    -0.082 Cl
ATOM     37  C   UNL d   1      11.438   5.067 -18.207  0.00  0.00    -0.001 A 
ENDBRANCH  24  31
ENDBRANCH   4  24
TORSDOF 9
