REMARK  7 active torsions:
REMARK  status: ('A' for Active; 'I' for Inactive)
REMARK    1  A    between atoms: C_2  and  O_4 
REMARK    2  A    between atoms: O_4  and  C_5 
REMARK    3  A    between atoms: C_10  and  N_11 
REMARK    4  A    between atoms: N_14  and  C_15 
REMARK    5  A    between atoms: C_18  and  N_19 
REMARK       I    between atoms: N_19  and  C_20 
REMARK       I    between atoms: C_20  and  N_22 
REMARK    6  A    between atoms: N_22  and  C_23 
REMARK    7  A    between atoms: C_23  and  C_24 
ROOT
ATOM      1  C   UNL d   1       9.289   5.578 -11.110  0.00  0.00     0.220 C 
ATOM      2  C   UNL d   1       8.784   5.074  -9.737  0.00  0.00     0.035 C 
ATOM      3  C   UNL d   1       9.887   5.191  -8.707  0.00  0.00     0.026 C 
ATOM      4  C   UNL d   1      10.506   6.605  -8.675  0.00  0.00     0.108 C 
ATOM      5  C   UNL d   1      10.965   7.133 -10.036  0.00  0.00     0.026 C 
ATOM      6  C   UNL d   1       9.805   7.027 -11.012  0.00  0.00     0.035 C 
ENDROOT
BRANCH   1   7
ATOM      7  N   UNL d   1       8.213   5.441 -12.103  0.00  0.00     0.139 N 
ATOM      8  C   UNL d   1       8.540   6.043 -13.396  0.00  0.00     0.274 C 
ATOM      9  C   UNL d   1       9.780   5.336 -14.053  0.00  0.00     0.137 C 
ATOM     10  N   UNL d   1       9.494   3.913 -14.209  0.00  0.00    -0.343 N 
ATOM     11  C   UNL d   1       9.006   3.251 -13.008  0.00  0.00     0.137 C 
ATOM     12  C   UNL d   1       7.810   4.052 -12.393  0.00  0.00     0.274 C 
BRANCH  10  13
ATOM     13  C   UNL d   1       9.542   3.322 -15.475  0.00  0.00     0.079 A 
ATOM     14  C   UNL d   1       8.516   2.427 -15.932  0.00  0.00     0.109 A 
ATOM     15  C   UNL d   1       8.644   1.828 -17.214  0.00  0.00     0.026 A 
ATOM     16  C   UNL d   1       9.793   2.095 -17.986  0.00  0.00     0.002 A 
ATOM     17  C   UNL d   1      10.788   2.980 -17.556  0.00  0.00     0.002 A 
ATOM     18  C   UNL d   1      10.662   3.615 -16.307  0.00  0.00     0.019 A 
BRANCH  14  19
ATOM     19  O   UNL d   1       7.452   2.180 -15.106  0.00  0.00    -0.332 OA
BRANCH  19  20
ATOM     20  C   UNL d   1       6.574   1.062 -15.284  0.00  0.00     0.122 C 
ATOM     21  C   UNL d   1       5.737   0.981 -13.978  0.00  0.00     0.033 C 
ATOM     22  C   UNL d   1       7.261  -0.294 -15.527  0.00  0.00     0.033 C 
ENDBRANCH  19  20
ENDBRANCH  14  19
ENDBRANCH  10  13
ENDBRANCH   1   7
BRANCH   4  23
ATOM     23  N   UNL d   1       9.503   7.544  -8.182  0.00  0.00    -0.220 NA
ATOM     24  C   UNL d   1       9.725   8.427  -7.218  0.00  0.00     0.360 C 
ATOM     25  O   UNL d   1       8.850   8.762  -6.460  0.00  0.00    -0.243 OA
ATOM     26  N   UNL d   1      10.976   8.883  -7.165  0.00  0.00    -0.213 NA
BRANCH  26  27
ATOM     27  C   UNL d   1      11.527   9.665  -6.071  0.00  0.00     0.157 C 
BRANCH  27  28
ATOM     28  C   UNL d   1      11.734   8.888  -4.774  0.00  0.00     0.004 A 
ATOM     29  C   UNL d   1      11.882   9.566  -3.550  0.00  0.00     0.027 A 
ATOM     30  C   UNL d   1      12.208   8.867  -2.380  0.00  0.00     0.140 A 
ATOM     31  C   UNL d   1      12.234   7.471  -2.381  0.00  0.00     0.030 A 
ATOM     32  F   UNL d   1      12.500   9.525  -1.241  0.00  0.00    -0.204 F 
ATOM     33  C   UNL d   1      12.049   6.772  -3.574  0.00  0.00     0.002 A 
ATOM     34  C   UNL d   1      11.823   7.462  -4.785  0.00  0.00    -0.002 A 
ENDBRANCH  27  28
ENDBRANCH  26  27
ENDBRANCH   4  23
TORSDOF 7
