REMARK  4 active torsions:
REMARK  status: ('A' for Active; 'I' for Inactive)
REMARK    1  A    between atoms: N_7  and  C_8 
REMARK    2  A    between atoms: C_11  and  C_12 
REMARK    3  A    between atoms: C_17  and  C_18 
REMARK    4  A    between atoms: C_27  and  C_28 
ROOT
ATOM      1  C   UNL d   1       8.461   1.269 -16.866  0.00  0.00     0.086 C 
ATOM      2  C   UNL d   1       9.369   0.885 -18.082  0.00  0.00     0.023 C 
ATOM      3  C   UNL d   1       8.567   0.216 -19.189  0.00  0.00     0.006 C 
ATOM      4  C   UNL d   1       7.748  -1.009 -18.722  0.00  0.00     0.024 C 
ATOM      5  C   UNL d   1       6.865  -0.591 -17.537  0.00  0.00     0.006 C 
ATOM      6  C   UNL d   1       7.682  -0.007 -16.412  0.00  0.00     0.023 C 
ENDROOT
BRANCH   1   7
ATOM      7  N   UNL d   1       9.295   1.871 -15.796  0.00  0.00    -0.294 N 
ATOM      8  C   UNL d   1      10.395   1.221 -15.241  0.00  0.00     0.365 C 
ATOM      9  O   UNL d   1      11.067   2.130 -14.533  0.00  0.00    -0.288 OA
ATOM     10  O   UNL d   1      10.738   0.049 -15.364  0.00  0.00    -0.238 OA
ATOM     11  C   UNL d   1      10.554   3.450 -14.639  0.00  0.00     0.126 C 
ATOM     12  C   UNL d   1      10.565   4.044 -13.236  0.00  0.00     0.033 C 
ATOM     13  C   UNL d   1       9.147   3.247 -15.290  0.00  0.00     0.134 C 
ATOM     14  C   UNL d   1      11.475   4.255 -15.569  0.00  0.00     0.033 C 
BRANCH  13  15
ATOM     15  C   UNL d   1       7.917   3.450 -14.365  0.00  0.00     0.000 A 
ATOM     16  C   UNL d   1       6.984   2.425 -14.176  0.00  0.00    -0.002 A 
ATOM     17  C   UNL d   1       5.861   2.584 -13.399  0.00  0.00    -0.000 A 
ATOM     18  C   UNL d   1       5.644   3.789 -12.649  0.00  0.00    -0.000 A 
ATOM     19  C   UNL d   1       6.590   4.833 -12.801  0.00  0.00    -0.000 A 
ATOM     20  C   UNL d   1       7.688   4.711 -13.680  0.00  0.00    -0.002 A 
ENDBRANCH  13  15
ENDBRANCH   1   7
BRANCH   4  21
ATOM     21  C   UNL d   1       6.898  -1.620 -19.821  0.00  0.00    -0.003 A 
ATOM     22  C   UNL d   1       5.930  -2.604 -19.522  0.00  0.00     0.003 A 
ATOM     23  C   UNL d   1       5.125  -3.121 -20.557  0.00  0.00     0.067 A 
ATOM     24  C   UNL d   1       5.359  -2.615 -21.867  0.00  0.00     0.154 A 
ATOM     25  N   UNL d   1       6.264  -1.668 -22.155  0.00  0.00    -0.230 NA
ATOM     26  N   UNL d   1       4.736  -3.107 -23.006  0.00  0.00    -0.080 NA
ATOM     27  C   UNL d   1       7.011  -1.189 -21.160  0.00  0.00     0.096 A 
BRANCH  23  28
ATOM     28  C   UNL d   1       4.141  -4.172 -20.230  0.00  0.00     0.165 A 
ATOM     29  N   UNL d   1       3.048  -4.258 -20.997  0.00  0.00    -0.225 NA
ATOM     30  C   UNL d   1       2.152  -5.216 -20.702  0.00  0.00     0.102 A 
ATOM     31  C   UNL d   1       2.342  -6.105 -19.635  0.00  0.00     0.041 A 
ATOM     32  C   UNL d   1       3.510  -5.918 -18.873  0.00  0.00     0.102 A 
ATOM     33  N   UNL d   1       4.413  -4.968 -19.189  0.00  0.00    -0.225 NA
ENDBRANCH  23  28
ENDBRANCH   4  21
TORSDOF 4
