REMARK  8 active torsions:
REMARK  status: ('A' for Active; 'I' for Inactive)
REMARK    1  A    between atoms: O_2  and  C_3 
REMARK    2  A    between atoms: C_3  and  C_4 
REMARK    3  A    between atoms: C_4  and  C_5 
REMARK       I    between atoms: C_5  and  N_7 
REMARK    4  A    between atoms: N_7  and  C_8 
REMARK    5  A    between atoms: C_11  and  C_12 
REMARK    6  A    between atoms: C_12  and  C_13 
REMARK    7  A    between atoms: C_13  and  N_14 
REMARK    8  A    between atoms: N_17  and  C_18 
ROOT
ATOM      1  N   UNL d   1       8.009   5.328 -11.756  0.00  0.00     0.141 N 
ATOM      2  C   UNL d   1       6.711   4.643 -11.684  0.00  0.00     0.274 C 
ATOM      3  C   UNL d   1       6.214   4.268 -13.090  0.00  0.00     0.138 C 
ATOM      4  N   UNL d   1       7.230   3.486 -13.794  0.00  0.00    -0.330 N 
ATOM      5  C   UNL d   1       8.575   4.050 -13.773  0.00  0.00     0.138 C 
ATOM      6  C   UNL d   1       8.987   4.417 -12.351  0.00  0.00     0.274 C 
ENDROOT
BRANCH   1   7
ATOM      7  C   UNL d   1       8.466   5.675 -10.416  0.00  0.00     0.250 C 
BRANCH   7   8
ATOM      8  C   UNL d   1       9.520   6.798 -10.476  0.00  0.00     0.035 C 
BRANCH   8   9
ATOM      9  C   UNL d   1      10.236   7.030  -9.139  0.00  0.00     0.002 C 
ATOM     10  C   UNL d   1      11.402   8.024  -9.313  0.00  0.00     0.002 C 
ATOM     11  C   UNL d   1      12.109   8.302  -7.981  0.00  0.00     0.024 C 
ATOM     12  C   UNL d   1      11.119   8.800  -6.916  0.00  0.00     0.106 C 
ATOM     13  C   UNL d   1       9.966   7.797  -6.735  0.00  0.00     0.024 C 
ATOM     14  C   UNL d   1       9.254   7.520  -8.058  0.00  0.00     0.002 C 
BRANCH  12  15
ATOM     15  N   UNL d   1      11.823   9.002  -5.657  0.00  0.00    -0.240 NA
ATOM     16  C   UNL d   1      11.379   9.747  -4.637  0.00  0.00     0.254 C 
ATOM     17  O   UNL d   1      10.335  10.388  -4.660  0.00  0.00    -0.271 OA
BRANCH  16  18
ATOM     18  C   UNL d   1      12.269   9.803  -3.400  0.00  0.00     0.122 C 
BRANCH  18  19
ATOM     19  C   UNL d   1      12.113   8.591  -2.485  0.00  0.00     0.152 C 
BRANCH  19  20
ATOM     20  O   UNL d   1      12.711   7.471  -3.103  0.00  0.00    -0.351 OA
ATOM     21  C   UNL d   1      12.573   6.305  -2.322  0.00  0.00     0.174 C 
ENDBRANCH  19  20
ENDBRANCH  18  19
ENDBRANCH  16  18
ENDBRANCH  12  15
ENDBRANCH   8   9
ENDBRANCH   7   8
ENDBRANCH   1   7
BRANCH   4  22
ATOM     22  C   UNL d   1       6.949   2.245 -14.404  0.00  0.00     0.141 A 
ATOM     23  C   UNL d   1       7.651   1.777 -15.564  0.00  0.00     0.040 A 
ATOM     24  C   UNL d   1       7.279   0.485 -16.062  0.00  0.00     0.034 A 
ATOM     25  C   UNL d   1       8.693   2.377 -16.390  0.00  0.00     0.011 A 
ATOM     26  C   UNL d   1       6.260  -0.258 -15.448  0.00  0.00     0.027 A 
ATOM     27  S   UNL d   1       8.236   0.037 -17.468  0.00  0.00    -0.086 SA
ATOM     28  C   UNL d   1       5.628   0.300 -14.332  0.00  0.00     0.101 A 
ATOM     29  N   UNL d   1       5.966   1.500 -13.831  0.00  0.00    -0.227 NA
ATOM     30  C   UNL d   1       9.099   1.542 -17.397  0.00  0.00     0.035 A 
ENDBRANCH   4  22
TORSDOF 8
