REMARK  2 active torsions:
REMARK  status: ('A' for Active; 'I' for Inactive)
REMARK    1  A    between atoms: C_2  and  C_3 
REMARK    2  A    between atoms: C_3  and  N_4 
ROOT
ATOM      1  N   UNL d   1       6.353   0.243 -13.718  0.00  0.00     0.140 N 
ATOM      2  C   UNL d   1       5.082   0.906 -13.571  0.00  0.00     0.255 C 
ATOM      3  C   UNL d   1       5.231   2.161 -12.722  0.00  0.00     0.061 C 
ATOM      4  C   UNL d   1       6.297   3.132 -13.210  0.00  0.00    -0.022 A 
ATOM      5  C   UNL d   1       6.397   4.463 -12.803  0.00  0.00    -0.004 A 
ATOM      6  C   UNL d   1       7.506   5.220 -13.195  0.00  0.00    -0.000 A 
ATOM      7  C   UNL d   1       8.501   4.666 -14.019  0.00  0.00    -0.000 A 
ATOM      8  C   UNL d   1       8.451   3.322 -14.488  0.00  0.00    -0.001 A 
ATOM      9  C   UNL d   1       7.322   2.585 -14.039  0.00  0.00     0.005 A 
ATOM     10  C   UNL d   1       7.247   1.121 -14.517  0.00  0.00     0.245 C 
ATOM     11  C   UNL d   1       8.648   0.467 -14.621  0.00  0.00     0.064 C 
ATOM     12  C   UNL d   1       9.607   1.320 -15.413  0.00  0.00    -0.018 A 
ATOM     13  C   UNL d   1      10.592   0.671 -16.210  0.00  0.00    -0.004 A 
ATOM     14  C   UNL d   1      11.470   1.437 -16.989  0.00  0.00    -0.003 A 
ATOM     15  C   UNL d   1      11.329   2.827 -16.961  0.00  0.00     0.003 A 
ATOM     16  C   UNL d   1      10.362   3.466 -16.178  0.00  0.00     0.089 A 
ATOM     17  C   UNL d   1       9.491   2.720 -15.363  0.00  0.00     0.018 A 
ATOM     18  O   UNL d   1      10.397   4.821 -16.342  0.00  0.00    -0.336 OA
ATOM     19  C   UNL d   1      11.483   5.171 -17.212  0.00  0.00     0.103 A 
ATOM     20  C   UNL d   1      10.906   5.984 -18.381  0.00  0.00     0.031 C 
ATOM     21  C   UNL d   1      12.475   6.000 -16.382  0.00  0.00     0.031 C 
ATOM     22  C   UNL d   1      12.120   3.842 -17.700  0.00  0.00     0.056 A 
ENDROOT
BRANCH   1  23
ATOM     23  C   UNL d   1       6.072  -1.051 -14.345  0.00  0.00     0.251 C 
BRANCH  23  24
ATOM     24  C   UNL d   1       5.381  -1.018 -15.750  0.00  0.00     0.035 C 
ATOM     25  C   UNL d   1       3.826  -1.044 -15.731  0.00  0.00     0.002 C 
ENDBRANCH  23  24
ENDBRANCH   1  23
TORSDOF 2
