REMARK  6 active torsions:
REMARK  status: ('A' for Active; 'I' for Inactive)
REMARK    1  A    between atoms: C_2  and  C_3 
REMARK    2  A    between atoms: C_3  and  N_4 
REMARK    3  A    between atoms: C_8  and  C_9 
REMARK    4  A    between atoms: C_13  and  O_14 
REMARK    5  A    between atoms: O_14  and  S_15 
REMARK    6  A    between atoms: S_15  and  C_18 
ROOT
ATOM      1  C   UNL d   1       9.839   3.528 -14.632  0.00  0.00    -0.018 A 
ATOM      2  C   UNL d   1      10.556   2.320 -14.755  0.00  0.00    -0.004 A 
ATOM      3  C   UNL d   1      11.281   2.044 -15.932  0.00  0.00     0.002 A 
ATOM      4  C   UNL d   1      11.298   2.975 -16.988  0.00  0.00     0.026 A 
ATOM      5  C   UNL d   1      10.573   4.179 -16.872  0.00  0.00     0.113 A 
ATOM      6  C   UNL d   1       9.858   4.453 -15.694  0.00  0.00     0.021 A 
ENDROOT
BRANCH   1   7
ATOM      7  C   UNL d   1       9.052   3.837 -13.368  0.00  0.00     0.056 C 
ATOM      8  C   UNL d   1       7.548   3.980 -13.654  0.00  0.00     0.008 C 
ATOM      9  C   UNL d   1       6.802   4.403 -12.387  0.00  0.00     0.036 C 
ATOM     10  C   UNL d   1       7.449   5.648 -11.760  0.00  0.00     0.250 C 
ATOM     11  N   UNL d   1       8.859   5.388 -11.441  0.00  0.00     0.137 N 
ATOM     12  C   UNL d   1       9.591   5.104 -12.675  0.00  0.00     0.255 C 
BRANCH  11  13
ATOM     13  C   UNL d   1       9.448   6.555 -10.788  0.00  0.00     0.250 C 
BRANCH  13  14
ATOM     14  C   UNL d   1       9.077   6.613  -9.295  0.00  0.00     0.035 C 
ATOM     15  C   UNL d   1       9.958   5.704  -8.437  0.00  0.00     0.002 C 
ENDBRANCH  13  14
ENDBRANCH  11  13
ENDBRANCH   1   7
BRANCH   5  16
ATOM     16  O   UNL d   1      10.541   5.090 -17.889  0.00  0.00    -0.224 OA
BRANCH  16  17
ATOM     17  S   UNL d   1       9.678   4.646 -19.272  0.00  0.00     0.374 S 
ATOM     18  O   UNL d   1      10.672   4.335 -20.312  0.00  0.00    -0.189 OA
ATOM     19  O   UNL d   1       8.666   3.651 -18.882  0.00  0.00    -0.189 OA
BRANCH  17  20
ATOM     20  C   UNL d   1       8.870   6.265 -19.636  0.00  0.00     0.524 C 
ATOM     21  F   UNL d   1       7.799   6.045 -20.398  0.00  0.00    -0.155 F 
ATOM     22  F   UNL d   1       8.489   6.832 -18.494  0.00  0.00    -0.155 F 
ATOM     23  F   UNL d   1       9.732   7.046 -20.279  0.00  0.00    -0.155 F 
ENDBRANCH  17  20
ENDBRANCH  16  17
ENDBRANCH   5  16
TORSDOF 6
