REMARK  6 active torsions:
REMARK  status: ('A' for Active; 'I' for Inactive)
REMARK    1  A    between atoms: C_2  and  C_3 
REMARK    2  A    between atoms: C_2  and  C_20 
REMARK    3  A    between atoms: C_3  and  C_4 
REMARK    4  A    between atoms: C_4  and  C_5 
REMARK    5  A    between atoms: C_5  and  N_6 
REMARK    6  A    between atoms: C_9  and  C_11 
ROOT
ATOM      1  N   UNL d   1       9.827   6.601  -9.915  0.00  0.00     0.137 N 
ATOM      2  C   UNL d   1       9.529   7.298 -11.171  0.00  0.00     0.253 C 
ATOM      3  C   UNL d   1       9.313   6.275 -12.286  0.00  0.00     0.070 C 
ATOM      4  C   UNL d   1       8.181   5.281 -11.967  0.00  0.00     0.149 C 
ATOM      5  O   UNL d   1       6.977   6.029 -11.934  0.00  0.00    -0.221 OA
ATOM      6  C   UNL d   1       8.420   4.690 -10.567  0.00  0.00     0.070 C 
ATOM      7  C   UNL d   1       8.688   5.771  -9.517  0.00  0.00     0.253 C 
ENDROOT
BRANCH   1   8
ATOM      8  C   UNL d   1      10.034   7.593  -8.874  0.00  0.00     0.251 C 
BRANCH   8   9
ATOM      9  C   UNL d   1      11.457   8.191  -8.911  0.00  0.00     0.043 C 
BRANCH   9  10
ATOM     10  C   UNL d   1      12.131   8.210  -7.525  0.00  0.00     0.071 C 
BRANCH  10  11
ATOM     11  C   UNL d   1      11.276   8.821  -6.403  0.00  0.00     0.173 C 
ATOM     12  O   UNL d   1      10.365   9.583  -6.676  0.00  0.00    -0.291 OA
BRANCH  11  13
ATOM     13  C   UNL d   1      11.612   8.472  -5.007  0.00  0.00     0.035 A 
ATOM     14  C   UNL d   1      11.858   7.138  -4.617  0.00  0.00     0.003 A 
ATOM     15  C   UNL d   1      12.160   6.837  -3.275  0.00  0.00     0.000 A 
ATOM     16  C   UNL d   1      12.206   7.869  -2.320  0.00  0.00     0.000 A 
ATOM     17  C   UNL d   1      11.923   9.192  -2.700  0.00  0.00     0.000 A 
ATOM     18  C   UNL d   1      11.609   9.493  -4.036  0.00  0.00     0.003 A 
ENDBRANCH  11  13
ENDBRANCH  10  11
ENDBRANCH   9  10
ENDBRANCH   8   9
ENDBRANCH   1   8
BRANCH   4  19
ATOM     19  C   UNL d   1       8.121   4.149 -13.009  0.00  0.00     0.005 A 
ATOM     20  C   UNL d   1       6.877   3.666 -13.487  0.00  0.00    -0.001 A 
ATOM     21  C   UNL d   1       6.819   2.626 -14.441  0.00  0.00     0.011 A 
ATOM     22  C   UNL d   1       8.006   2.050 -14.941  0.00  0.00     0.058 A 
ATOM     23  C   UNL d   1       9.248   2.502 -14.460  0.00  0.00     0.011 A 
ATOM     24 CL   UNL d   1       7.931   0.805 -16.137  0.00  0.00    -0.082 Cl
ATOM     25  C   UNL d   1       9.303   3.524 -13.490  0.00  0.00    -0.001 A 
ENDBRANCH   4  19
TORSDOF 6
