REMARK  6 active torsions:
REMARK  status: ('A' for Active; 'I' for Inactive)
REMARK    1  A    between atoms: N_13  and  C_14 
REMARK    2  A    between atoms: C_14  and  C_15 
REMARK    3  A    between atoms: C_15  and  C_16 
REMARK    4  A    between atoms: C_16  and  S_17 
REMARK    5  A    between atoms: S_17  and  C_18 
REMARK    6  A    between atoms: C_21  and  C_22 
ROOT
ATOM      1  C   UNL d   1      13.765   5.683 -17.677  0.00  0.00     0.251 C 
ENDROOT
BRANCH   1   2
ATOM      2  N   UNL d   1      12.609   5.007 -18.271  0.00  0.00     0.138 N 
ATOM      3  C   UNL d   1      12.683   3.547 -18.334  0.00  0.00     0.255 C 
ATOM      4  C   UNL d   1      12.715   2.830 -16.973  0.00  0.00     0.061 C 
ATOM      5  C   UNL d   1      11.360   2.693 -16.304  0.00  0.00    -0.022 A 
ATOM      6  C   UNL d   1      10.580   3.830 -15.971  0.00  0.00    -0.022 A 
ATOM      7  C   UNL d   1      10.882   1.399 -15.999  0.00  0.00     0.022 A 
ATOM      8  C   UNL d   1       9.326   3.666 -15.333  0.00  0.00     0.017 A 
ATOM      9  C   UNL d   1      11.067   5.238 -16.277  0.00  0.00     0.061 C 
ATOM     10  C   UNL d   1       8.833   2.378 -15.033  0.00  0.00     0.106 A 
ATOM     11  N   UNL d   1       7.661   1.936 -14.448  0.00  0.00    -0.224 NA
ATOM     12  C   UNL d   1       9.634   1.271 -15.373  0.00  0.00     0.119 A 
ATOM     13  C   UNL d   1       7.809   0.603 -14.444  0.00  0.00     0.159 A 
ATOM     14  C   UNL d   1       6.831  -0.383 -13.900  0.00  0.00     0.080 C 
ATOM     15  O   UNL d   1       8.971   0.122 -14.986  0.00  0.00    -0.292 OA
ATOM     16  C   UNL d   1      11.335   5.515 -17.767  0.00  0.00     0.255 C 
ENDBRANCH   1   2
BRANCH   1  17
ATOM     17  C   UNL d   1      15.045   5.517 -18.516  0.00  0.00     0.047 C 
BRANCH  17  18
ATOM     18  C   UNL d   1      16.096   6.571 -18.154  0.00  0.00     0.067 C 
BRANCH  18  19
ATOM     19  S   UNL d   1      17.583   6.423 -19.187  0.00  0.00    -0.075 SA
BRANCH  19  20
ATOM     20  C   UNL d   1      18.364   7.959 -18.822  0.00  0.00     0.193 A 
ATOM     21  N   UNL d   1      19.698   8.138 -18.920  0.00  0.00    -0.289 N 
ATOM     22  C   UNL d   1      19.832   9.439 -18.556  0.00  0.00     0.168 A 
ATOM     23  C   UNL d   1      20.708   7.151 -19.299  0.00  0.00     0.134 C 
ATOM     24  N   UNL d   1      18.666  10.006 -18.239  0.00  0.00    -0.128 NA
ATOM     25  N   UNL d   1      17.705   9.049 -18.432  0.00  0.00    -0.122 NA
BRANCH  22  26
ATOM     26  C   UNL d   1      21.070  10.201 -18.468  0.00  0.00     0.055 A 
ATOM     27  C   UNL d   1      22.116  10.002 -19.399  0.00  0.00     0.102 A 
ATOM     28  N   UNL d   1      23.306  10.643 -19.320  0.00  0.00    -0.242 NA
ATOM     29  C   UNL d   1      23.482  11.543 -18.327  0.00  0.00     0.099 A 
ATOM     30  C   UNL d   1      22.484  11.855 -17.381  0.00  0.00     0.021 A 
ATOM     31  C   UNL d   1      21.258  11.166 -17.450  0.00  0.00     0.006 A 
ENDBRANCH  22  26
ENDBRANCH  19  20
ENDBRANCH  18  19
ENDBRANCH  17  18
ENDBRANCH   1  17
TORSDOF 6
