REMARK  6 active torsions:
REMARK  status: ('A' for Active; 'I' for Inactive)
REMARK    1  A    between atoms: O_2  and  C_3 
REMARK    2  A    between atoms: C_6  and  N_7 
REMARK    3  A    between atoms: N_10  and  C_11 
REMARK    4  A    between atoms: C_11  and  C_12 
REMARK    5  A    between atoms: C_12  and  C_13 
REMARK    6  A    between atoms: C_13  and  C_14 
ROOT
ATOM      1  N   UNL d   1      10.738   7.404  -8.594  0.00  0.00    -0.344 N 
ATOM      2  C   UNL d   1      10.428   6.003  -8.808  0.00  0.00     0.137 C 
ATOM      3  C   UNL d   1       9.120   5.844  -9.546  0.00  0.00     0.274 C 
ATOM      4  N   UNL d   1       9.259   6.502 -10.848  0.00  0.00     0.141 N 
ATOM      5  C   UNL d   1       9.521   7.933 -10.602  0.00  0.00     0.274 C 
ATOM      6  C   UNL d   1      10.823   8.171  -9.824  0.00  0.00     0.137 C 
ENDROOT
BRANCH   4   7
ATOM      7  C   UNL d   1       7.992   6.321 -11.560  0.00  0.00     0.251 C 
BRANCH   7   8
ATOM      8  C   UNL d   1       7.866   4.948 -12.215  0.00  0.00     0.040 C 
BRANCH   8   9
ATOM      9  C   UNL d   1       6.431   4.708 -12.707  0.00  0.00     0.029 C 
BRANCH   9  10
ATOM     10  C   UNL d   1       6.262   3.299 -13.218  0.00  0.00    -0.021 A 
ATOM     11  C   UNL d   1       6.963   2.877 -14.360  0.00  0.00     0.016 A 
ATOM     12  C   UNL d   1       6.766   1.573 -14.844  0.00  0.00     0.101 A 
ATOM     13  C   UNL d   1       5.930   0.641 -14.160  0.00  0.00     0.101 A 
ATOM     14  N   UNL d   1       7.219   0.862 -15.941  0.00  0.00    -0.223 NA
ATOM     15  C   UNL d   1       5.303   1.066 -12.977  0.00  0.00     0.020 A 
ATOM     16  N   UNL d   1       5.873  -0.579 -14.805  0.00  0.00    -0.223 NA
ATOM     17  C   UNL d   1       5.451   2.388 -12.522  0.00  0.00    -0.003 A 
ATOM     18  C   UNL d   1       6.657  -0.357 -15.855  0.00  0.00     0.199 A 
ENDBRANCH   9  10
ENDBRANCH   8   9
ENDBRANCH   7   8
ENDBRANCH   4   7
BRANCH   1  19
ATOM     19  C   UNL d   1      11.115   7.913  -7.319  0.00  0.00     0.056 A 
ATOM     20  C   UNL d   1      10.739   7.250  -6.146  0.00  0.00     0.019 A 
ATOM     21  C   UNL d   1      11.106   7.758  -4.884  0.00  0.00     0.026 A 
ATOM     22  C   UNL d   1      11.809   8.985  -4.782  0.00  0.00     0.094 A 
ATOM     23  C   UNL d   1      12.197   9.635  -5.969  0.00  0.00     0.026 A 
ATOM     24  C   UNL d   1      11.883   9.085  -7.231  0.00  0.00     0.019 A 
BRANCH  22  25
ATOM     25  O   UNL d   1      12.153   9.585  -3.598  0.00  0.00    -0.328 OA
ATOM     26  C   UNL d   1      12.130   8.784  -2.429  0.00  0.00     0.181 C 
ENDBRANCH  22  25
ENDBRANCH   1  19
TORSDOF 6
