REMARK  1 active torsions:
REMARK  status: ('A' for Active; 'I' for Inactive)
REMARK    1  A    between atoms: C_2  and  C_3 
ROOT
ATOM      1  C   UNL d   1      12.114   3.725 -18.132  0.00  0.00     0.064 C 
ATOM      2  C   UNL d   1      10.570   3.733 -17.983  0.00  0.00     0.011 C 
ATOM      3  C   UNL d   1      10.263   4.708 -16.823  0.00  0.00     0.035 C 
ATOM      4  C   UNL d   1      10.710   4.037 -15.496  0.00  0.00     0.237 C 
ATOM      5  C   UNL d   1       9.552   3.359 -14.717  0.00  0.00     0.099 C 
ATOM      6  N   UNL d   1       8.423   4.171 -14.270  0.00  0.00    -0.250 NA
ATOM      7  C   UNL d   1       8.618   5.191 -13.250  0.00  0.00     0.094 C 
ATOM      8  C   UNL d   1       7.442   3.197 -14.012  0.00  0.00     0.033 A 
ATOM      9  C   UNL d   1       6.300   3.333 -13.218  0.00  0.00     0.011 A 
ATOM     10  C   UNL d   1       5.476   2.202 -13.022  0.00  0.00     0.001 A 
ATOM     11  C   UNL d   1       5.776   0.959 -13.640  0.00  0.00    -0.000 A 
ATOM     12  C   UNL d   1       6.920   0.828 -14.447  0.00  0.00    -0.003 A 
ATOM     13  C   UNL d   1       7.730   1.964 -14.617  0.00  0.00    -0.009 A 
ATOM     14  C   UNL d   1       8.970   2.111 -15.423  0.00  0.00     0.066 C 
ATOM     15  C   UNL d   1      10.094   1.092 -15.376  0.00  0.00     0.041 C 
ATOM     16  C   UNL d   1      11.023   1.787 -16.390  0.00  0.00     0.225 C 
ATOM     17  C   UNL d   1      10.108   2.307 -17.562  0.00  0.00     0.062 C 
ATOM     18  C   UNL d   1       8.688   2.279 -16.940  0.00  0.00     0.159 C 
ATOM     19  O   UNL d   1       7.988   1.158 -17.454  0.00  0.00    -0.223 OA
ATOM     20  N   UNL d   1      11.704   2.957 -15.770  0.00  0.00     0.163 N 
ATOM     21  C   UNL d   1      12.736   3.385 -16.734  0.00  0.00     0.367 C 
ATOM     22  O   UNL d   1      13.444   4.464 -16.148  0.00  0.00    -0.187 OA
ENDROOT
BRANCH   1  23
ATOM     23  C   UNL d   1      12.670   2.875 -19.306  0.00  0.00     0.005 C 
ATOM     24  C   UNL d   1      12.745   1.334 -19.113  0.00  0.00     0.000 C 
ENDBRANCH   1  23
TORSDOF 1
