REMARK  6 active torsions:
REMARK  status: ('A' for Active; 'I' for Inactive)
REMARK    1  A    between atoms: C_8  and  O_9 
REMARK    2  A    between atoms: O_9  and  C_10 
REMARK    3  A    between atoms: C_10  and  C_11 
REMARK    4  A    between atoms: C_11  and  C_12 
REMARK    5  A    between atoms: C_12  and  N_13 
REMARK    6  A    between atoms: N_16  and  C_17 
ROOT
ATOM      1  N   UNL d   1       9.936   4.390 -13.497  0.00  0.00     0.141 N 
ATOM      2  C   UNL d   1      10.283   3.062 -14.018  0.00  0.00     0.274 C 
ATOM      3  C   UNL d   1      10.886   3.160 -15.436  0.00  0.00     0.137 C 
ATOM      4  N   UNL d   1       9.977   3.892 -16.308  0.00  0.00    -0.344 N 
ATOM      5  C   UNL d   1       9.509   5.161 -15.780  0.00  0.00     0.137 C 
ATOM      6  C   UNL d   1       8.930   4.984 -14.384  0.00  0.00     0.274 C 
ENDROOT
BRANCH   1   7
ATOM      7  C   UNL d   1       9.400   4.236 -12.151  0.00  0.00     0.253 C 
BRANCH   7   8
ATOM      8  C   UNL d   1       9.120   5.597 -11.499  0.00  0.00     0.068 C 
BRANCH   8   9
ATOM      9  C   UNL d   1       8.695   5.496 -10.020  0.00  0.00     0.151 C 
BRANCH   9  10
ATOM     10  O   UNL d   1       9.781   5.358  -9.104  0.00  0.00    -0.331 OA
BRANCH  10  11
ATOM     11  C   UNL d   1      10.251   6.535  -8.569  0.00  0.00     0.094 A 
ATOM     12  C   UNL d   1      10.404   7.748  -9.314  0.00  0.00     0.024 A 
ATOM     13  C   UNL d   1      10.879   8.919  -8.700  0.00  0.00    -0.000 A 
ATOM     14  C   UNL d   1      11.187   8.867  -7.338  0.00  0.00     0.007 A 
ATOM     15  C   UNL d   1      11.672   9.959  -6.430  0.00  0.00     0.155 A 
ATOM     16  C   UNL d   1      11.061   7.697  -6.612  0.00  0.00     0.057 A 
ATOM     17  N   UNL d   1      11.787   9.258  -5.139  0.00  0.00    -0.229 NA
ATOM     18  C   UNL d   1      11.456   7.952  -5.202  0.00  0.00     0.275 A 
ATOM     19  O   UNL d   1      11.470   7.127  -4.293  0.00  0.00    -0.266 OA
ATOM     20  C   UNL d   1      10.621   6.506  -7.211  0.00  0.00     0.029 A 
ENDBRANCH  10  11
ENDBRANCH   9  10
ENDBRANCH   8   9
ENDBRANCH   7   8
ENDBRANCH   1   7
BRANCH   4  21
ATOM     21  C   UNL d   1       9.572   3.423 -17.561  0.00  0.00     0.056 A 
ATOM     22  C   UNL d   1       9.610   4.231 -18.745  0.00  0.00     0.015 A 
ATOM     23  C   UNL d   1       9.133   3.705 -19.971  0.00  0.00     0.001 A 
ATOM     24  C   UNL d   1      10.143   5.549 -18.738  0.00  0.00     0.001 A 
ATOM     25  C   UNL d   1       8.638   2.387 -20.035  0.00  0.00     0.000 A 
ATOM     26  C   UNL d   1       9.161   4.494 -21.142  0.00  0.00     0.000 A 
ATOM     27  C   UNL d   1       8.603   1.585 -18.879  0.00  0.00     0.002 A 
ATOM     28  C   UNL d   1       9.067   2.095 -17.657  0.00  0.00     0.017 A 
ATOM     29  C   UNL d   1       9.657   5.811 -21.105  0.00  0.00     0.000 A 
ATOM     30  C   UNL d   1      10.142   6.336 -19.898  0.00  0.00     0.000 A 
ENDBRANCH   4  21
TORSDOF 6
