REMARK  5 active torsions:
REMARK  status: ('A' for Active; 'I' for Inactive)
REMARK    1  A    between atoms: C_2  and  C_3 
REMARK    2  A    between atoms: C_3  and  C_4 
REMARK    3  A    between atoms: C_4  and  C_5 
REMARK    4  A    between atoms: C_4  and  N_14 
REMARK    5  A    between atoms: C_5  and  C_7 
ROOT
ATOM      1  C   UNL d   1       8.120   4.810 -13.670  0.00  0.00     0.280 C 
ENDROOT
BRANCH   1   2
ATOM      2  C   UNL d   1       7.867   6.011 -12.716  0.00  0.00     0.041 C 
BRANCH   2   3
ATOM      3  C   UNL d   1       8.136   5.771 -11.200  0.00  0.00     0.003 C 
ATOM      4  C   UNL d   1       9.530   6.207 -10.693  0.00  0.00     0.000 C 
ENDBRANCH   2   3
ENDBRANCH   1   2
BRANCH   1   5
ATOM      5  C   UNL d   1       9.644   4.537 -13.932  0.00  0.00     0.204 C 
ATOM      6  O   UNL d   1      10.557   4.760 -13.136  0.00  0.00    -0.289 OA
BRANCH   5   7
ATOM      7  C   UNL d   1      10.039   4.019 -15.237  0.00  0.00     0.036 A 
ATOM      8  C   UNL d   1       9.621   4.681 -16.406  0.00  0.00    -0.001 A 
ATOM      9  C   UNL d   1      10.129   4.257 -17.651  0.00  0.00    -0.022 A 
ATOM     10  C   UNL d   1      11.052   3.187 -17.699  0.00  0.00    -0.004 A 
ATOM     11  C   UNL d   1       9.640   4.935 -18.907  0.00  0.00     0.031 C 
ATOM     12  C   UNL d   1      11.504   2.566 -16.523  0.00  0.00    -0.000 A 
ATOM     13  C   UNL d   1      10.983   2.975 -15.287  0.00  0.00     0.003 A 
ENDBRANCH   5   7
ENDBRANCH   1   5
BRANCH   1  14
ATOM     14  N   UNL d   1       7.345   3.605 -13.254  0.00  0.00     0.142 N 
ATOM     15  C   UNL d   1       5.950   3.856 -12.877  0.00  0.00     0.251 C 
ATOM     16  C   UNL d   1       5.323   2.463 -12.821  0.00  0.00     0.037 C 
ATOM     17  C   UNL d   1       6.163   1.623 -13.779  0.00  0.00     0.037 C 
ATOM     18  C   UNL d   1       7.240   2.587 -14.291  0.00  0.00     0.251 C 
ENDBRANCH   1  14
TORSDOF 5
