REMARK  6 active torsions:
REMARK  status: ('A' for Active; 'I' for Inactive)
REMARK    1  A    between atoms: C_2  and  C_3 
REMARK    2  A    between atoms: C_3  and  C_4 
REMARK    3  A    between atoms: C_4  and  C_5 
REMARK    4  A    between atoms: C_4  and  N_17 
REMARK    5  A    between atoms: C_5  and  C_7 
REMARK    6  A    between atoms: C_10  and  C_11 
ROOT
ATOM      1  C   UNL d   1       9.720   3.594 -14.459  0.00  0.00     0.204 C 
ATOM      2  O   UNL d   1       9.976   2.468 -14.027  0.00  0.00    -0.289 OA
ENDROOT
BRANCH   1   3
ATOM      3  C   UNL d   1       8.474   4.395 -13.966  0.00  0.00     0.280 C 
BRANCH   3   4
ATOM      4  C   UNL d   1       8.925   5.577 -13.065  0.00  0.00     0.041 C 
BRANCH   4   5
ATOM      5  C   UNL d   1       9.339   5.221 -11.627  0.00  0.00     0.003 C 
ATOM      6  C   UNL d   1       8.170   4.957 -10.667  0.00  0.00     0.000 C 
ENDBRANCH   4   5
ENDBRANCH   3   4
BRANCH   3   7
ATOM      7  N   UNL d   1       7.392   3.615 -13.319  0.00  0.00     0.142 N 
ATOM      8  C   UNL d   1       6.138   4.332 -13.161  0.00  0.00     0.251 C 
ATOM      9  C   UNL d   1       5.150   3.237 -12.757  0.00  0.00     0.037 C 
ATOM     10  C   UNL d   1       5.715   1.958 -13.370  0.00  0.00     0.037 C 
ATOM     11  C   UNL d   1       6.999   2.400 -14.079  0.00  0.00     0.251 C 
ENDBRANCH   3   7
ENDBRANCH   1   3
BRANCH   1  12
ATOM     12  C   UNL d   1      10.623   4.230 -15.452  0.00  0.00     0.037 A 
ATOM     13  C   UNL d   1      11.983   3.830 -15.475  0.00  0.00     0.003 A 
ATOM     14  C   UNL d   1      12.882   4.397 -16.390  0.00  0.00     0.004 A 
ATOM     15  C   UNL d   1      12.438   5.373 -17.311  0.00  0.00     0.071 A 
ATOM     16  C   UNL d   1      11.083   5.763 -17.307  0.00  0.00     0.004 A 
ATOM     17  C   UNL d   1      10.180   5.191 -16.390  0.00  0.00     0.003 A 
BRANCH  15  18
ATOM     18  C   UNL d   1      13.423   5.985 -18.289  0.00  0.00     0.419 C 
ATOM     19  F   UNL d   1      12.793   6.580 -19.303  0.00  0.00    -0.166 F 
ATOM     20  F   UNL d   1      14.164   6.890 -17.650  0.00  0.00    -0.166 F 
ATOM     21  F   UNL d   1      14.222   5.041 -18.782  0.00  0.00    -0.166 F 
ENDBRANCH  15  18
ENDBRANCH   1  12
TORSDOF 6
