REMARK  2 active torsions:
REMARK  status: ('A' for Active; 'I' for Inactive)
REMARK    1  A    between atoms: N_2  and  C_4 
REMARK    2  A    between atoms: C_4  and  C_5 
ROOT
ATOM      1  C   UNL d   1      10.034   3.941 -13.034  0.00  0.00     0.180 C 
ATOM      2  C   UNL d   1       9.741   2.751 -13.941  0.00  0.00     0.064 C 
ATOM      3  C   UNL d   1       9.641   3.402 -15.308  0.00  0.00     0.134 C 
ATOM      4  C   UNL d   1       9.696   2.411 -16.474  0.00  0.00    -0.003 A 
ATOM      5  C   UNL d   1       8.478   1.996 -17.059  0.00  0.00    -0.003 A 
ATOM      6  C   UNL d   1       8.467   1.075 -18.122  0.00  0.00    -0.000 A 
ATOM      7  C   UNL d   1       9.675   0.537 -18.599  0.00  0.00    -0.000 A 
ATOM      8  C   UNL d   1      10.892   0.926 -18.012  0.00  0.00    -0.004 A 
ATOM      9  C   UNL d   1      10.908   1.861 -16.954  0.00  0.00    -0.020 A 
ATOM     10  C   UNL d   1      12.232   2.281 -16.361  0.00  0.00     0.054 C 
ATOM     11  C   UNL d   1      12.501   3.749 -16.597  0.00  0.00     0.003 A 
ATOM     12  C   UNL d   1      13.607   4.126 -17.385  0.00  0.00     0.018 A 
ATOM     13  C   UNL d   1      13.875   5.494 -17.566  0.00  0.00     0.099 A 
ATOM     14  N   UNL d   1      13.123   6.470 -17.020  0.00  0.00    -0.241 NA
ATOM     15  C   UNL d   1      12.061   6.103 -16.276  0.00  0.00     0.118 A 
ATOM     16  C   UNL d   1      11.686   4.761 -16.033  0.00  0.00     0.098 A 
ATOM     17  N   UNL d   1      10.553   4.542 -15.231  0.00  0.00    -0.236 N 
ATOM     18  O   UNL d   1      10.807   4.822 -13.847  0.00  0.00    -0.258 OA
ENDROOT
BRANCH   1  19
ATOM     19  C   UNL d   1       8.747   4.639 -12.552  0.00  0.00     0.282 C 
BRANCH  19  20
ATOM     20  N   UNL d   1       9.055   5.614 -11.503  0.00  0.00     0.144 N 
ATOM     21  C   UNL d   1       9.060   6.968 -12.051  0.00  0.00     0.286 C 
ATOM     22  C   UNL d   1       8.041   5.574 -10.455  0.00  0.00     0.286 C 
ENDBRANCH  19  20
ENDBRANCH   1  19
TORSDOF 2
