REMARK  9 active torsions:
REMARK  status: ('A' for Active; 'I' for Inactive)
REMARK    1  A    between atoms: N_12  and  C_13 
REMARK    2  A    between atoms: C_13  and  C_14 
REMARK    3  A    between atoms: C_14  and  C_15 
REMARK    4  A    between atoms: C_15  and  C_16 
REMARK    5  A    between atoms: C_16  and  C_17 
REMARK    6  A    between atoms: C_17  and  C_18 
REMARK    7  A    between atoms: C_18  and  N_19 
REMARK    8  A    between atoms: N_22  and  C_23 
REMARK    9  A    between atoms: C_28  and  C_29 
ROOT
ATOM      1  C   UNL d   1       8.939   5.310 -11.574  0.00  0.00     0.035 C 
ENDROOT
BRANCH   1   2
ATOM      2  C   UNL d   1       8.662   4.099 -12.475  0.00  0.00     0.002 C 
BRANCH   2   3
ATOM      3  C   UNL d   1       8.492   4.450 -13.960  0.00  0.00     0.002 C 
BRANCH   3   4
ATOM      4  C   UNL d   1       9.826   4.671 -14.676  0.00  0.00     0.025 C 
BRANCH   4   5
ATOM      5  C   UNL d   1       9.673   5.005 -16.174  0.00  0.00     0.122 C 
BRANCH   5   6
ATOM      6  N   UNL d   1      10.979   5.082 -16.843  0.00  0.00    -0.221 N 
ATOM      7  C   UNL d   1      11.995   5.987 -16.493  0.00  0.00     0.271 A 
ATOM      8  O   UNL d   1      11.907   6.897 -15.676  0.00  0.00    -0.266 OA
ATOM      9  C   UNL d   1      13.237   5.642 -17.236  0.00  0.00     0.069 A 
ATOM     10  C   UNL d   1      13.114   4.522 -18.058  0.00  0.00     0.108 A 
ATOM     11  C   UNL d   1      14.455   6.340 -17.150  0.00  0.00     0.005 A 
ATOM     12  C   UNL d   1      14.171   4.054 -18.848  0.00  0.00     0.013 A 
ATOM     13  S   UNL d   1      11.480   3.861 -17.945  0.00  0.00     0.270 S 
ATOM     14  C   UNL d   1      15.387   4.769 -18.787  0.00  0.00     0.001 A 
ATOM     15  C   UNL d   1      15.538   5.889 -17.933  0.00  0.00     0.000 A 
ATOM     16  O   UNL d   1      10.763   4.042 -19.210  0.00  0.00    -0.200 OA
ATOM     17  O   UNL d   1      11.504   2.568 -17.231  0.00  0.00    -0.200 OA
ENDBRANCH   5   6
ENDBRANCH   4   5
ENDBRANCH   3   4
ENDBRANCH   2   3
ENDBRANCH   1   2
BRANCH   1  18
ATOM     18  C   UNL d   1       8.910   4.926 -10.088  0.00  0.00     0.250 C 
BRANCH  18  19
ATOM     19  N   UNL d   1       9.136   6.118  -9.288  0.00  0.00     0.141 N 
ATOM     20  C   UNL d   1      10.573   6.256  -9.095  0.00  0.00     0.274 C 
ATOM     21  C   UNL d   1      10.901   7.448  -8.238  0.00  0.00     0.137 C 
ATOM     22  N   UNL d   1      10.252   7.397  -6.938  0.00  0.00    -0.344 N 
ATOM     23  C   UNL d   1       8.808   7.171  -7.032  0.00  0.00     0.137 C 
ATOM     24  C   UNL d   1       8.539   5.963  -7.960  0.00  0.00     0.274 C 
BRANCH  22  25
ATOM     25  C   UNL d   1      10.945   7.612  -5.736  0.00  0.00     0.060 A 
ATOM     26  C   UNL d   1      11.727   8.754  -5.412  0.00  0.00     0.087 A 
ATOM     27  C   UNL d   1      12.389   8.879  -4.178  0.00  0.00     0.005 A 
ATOM     28  C   UNL d   1      12.294   7.878  -3.203  0.00  0.00     0.000 A 
ATOM     29  C   UNL d   1      11.527   6.748  -3.500  0.00  0.00     0.002 A 
ATOM     30  C   UNL d   1      10.892   6.629  -4.739  0.00  0.00     0.017 A 
BRANCH  26  31
ATOM     31  C   UNL d   1      11.870   9.835  -6.419  0.00  0.00     0.420 C 
ATOM     32  F   UNL d   1      12.450   9.329  -7.477  0.00  0.00    -0.166 F 
ATOM     33  F   UNL d   1      10.691  10.369  -6.632  0.00  0.00    -0.166 F 
ATOM     34  F   UNL d   1      12.654  10.794  -6.039  0.00  0.00    -0.166 F 
ENDBRANCH  26  31
ENDBRANCH  22  25
ENDBRANCH  18  19
ENDBRANCH   1  18
TORSDOF 9
