REMARK  5 active torsions:
REMARK  status: ('A' for Active; 'I' for Inactive)
REMARK       I    between atoms: C_2  and  N_4 
REMARK    1  A    between atoms: N_4  and  C_5 
REMARK    2  A    between atoms: C_11  and  C_12 
REMARK    3  A    between atoms: C_13  and  C_14 
REMARK       I    between atoms: C_14  and  N_16 
REMARK    4  A    between atoms: N_19  and  C_20 
REMARK    5  A    between atoms: C_20  and  C_21 
ROOT
ATOM      1  C   UNL d   1       9.310   7.125 -11.524  0.00  0.00     0.257 C 
ATOM      2  O   UNL d   1       9.416   7.992 -12.393  0.00  0.00    -0.267 OA
ATOM      3  N   UNL d   1       9.913   7.252 -10.322  0.00  0.00    -0.314 N 
ATOM      4  C   UNL d   1       9.750   6.341  -9.168  0.00  0.00     0.140 C 
ATOM      5  C   UNL d   1       9.321   7.123  -7.927  0.00  0.00     0.275 C 
ATOM      6  N   UNL d   1      10.276   8.189  -7.634  0.00  0.00     0.145 N 
ATOM      7  C   UNL d   1      10.308   9.127  -8.756  0.00  0.00     0.273 C 
ATOM      8  C   UNL d   1      10.815   8.408 -10.000  0.00  0.00     0.118 C 
ATOM      9  C   UNL d   1      12.293   7.986  -9.775  0.00  0.00     0.026 C 
ENDROOT
BRANCH   1  10
ATOM     10  C   UNL d   1       8.619   5.854 -11.784  0.00  0.00     0.060 C 
ATOM     11  C   UNL d   1       8.298   5.502 -13.040  0.00  0.00     0.006 C 
BRANCH  11  12
ATOM     12  C   UNL d   1       7.681   4.225 -13.384  0.00  0.00     0.018 A 
ATOM     13  C   UNL d   1       8.273   3.379 -14.350  0.00  0.00     0.085 A 
ATOM     14  C   UNL d   1       7.628   2.166 -14.703  0.00  0.00     0.031 A 
ATOM     15  C   UNL d   1       6.426   1.795 -14.064  0.00  0.00     0.059 A 
ATOM     16 CL   UNL d   1       5.664   0.300 -14.470  0.00  0.00    -0.082 Cl
ATOM     17  C   UNL d   1       5.857   2.628 -13.088  0.00  0.00     0.011 A 
ATOM     18  C   UNL d   1       6.486   3.839 -12.737  0.00  0.00     0.002 A 
BRANCH  13  19
ATOM     19  N   UNL d   1       9.466   3.727 -15.051  0.00  0.00    -0.212 NA
ATOM     20  C   UNL d   1      10.659   4.057 -14.504  0.00  0.00     0.256 C 
ATOM     21  C   UNL d   1      11.778   4.402 -15.475  0.00  0.00     0.100 C 
ATOM     22  O   UNL d   1      10.886   4.087 -13.302  0.00  0.00    -0.270 OA
ENDBRANCH  13  19
ENDBRANCH  11  12
ENDBRANCH   1  10
BRANCH   6  23
ATOM     23  C   UNL d   1       9.872   8.890  -6.433  0.00  0.00     0.277 C 
BRANCH  23  24
ATOM     24  C   UNL d   1      10.744   8.583  -5.244  0.00  0.00     0.011 A 
ATOM     25  C   UNL d   1      11.159   9.659  -4.431  0.00  0.00    -0.000 A 
ATOM     26  C   UNL d   1      11.907   9.411  -3.275  0.00  0.00     0.029 A 
ATOM     27  C   UNL d   1      12.253   8.099  -2.938  0.00  0.00     0.140 A 
ATOM     28  C   UNL d   1      11.861   7.016  -3.750  0.00  0.00     0.029 A 
ATOM     29  F   UNL d   1      12.952   7.907  -1.800  0.00  0.00    -0.204 F 
ATOM     30  C   UNL d   1      11.088   7.256  -4.904  0.00  0.00    -0.000 A 
ENDBRANCH  23  24
ENDBRANCH   6  23
TORSDOF 5
