REMARK  6 active torsions:
REMARK  status: ('A' for Active; 'I' for Inactive)
REMARK    1  A    between atoms: N_12  and  C_13 
REMARK    2  A    between atoms: C_13  and  C_14 
REMARK    3  A    between atoms: C_14  and  C_15 
REMARK    4  A    between atoms: C_15  and  C_16 
REMARK    5  A    between atoms: C_16  and  N_17 
REMARK    6  A    between atoms: N_20  and  C_21 
ROOT
ATOM      1  C   UNL d   1       7.776   4.177 -13.225  0.00  0.00     0.251 C 
ENDROOT
BRANCH   1   2
ATOM      2  C   UNL d   1       6.442   3.423 -13.012  0.00  0.00     0.037 C 
BRANCH   2   3
ATOM      3  C   UNL d   1       6.194   2.429 -14.138  0.00  0.00     0.027 C 
BRANCH   3   4
ATOM      4  C   UNL d   1       7.110   1.200 -14.175  0.00  0.00     0.112 C 
BRANCH   4   5
ATOM      5  N   UNL d   1       6.726   0.295 -15.274  0.00  0.00    -0.271 N 
ATOM      6  C   UNL d   1       5.721  -0.589 -15.193  0.00  0.00     0.240 A 
ATOM      7  O   UNL d   1       4.961  -0.739 -14.233  0.00  0.00    -0.272 OA
ATOM      8  C   UNL d   1       5.630  -1.438 -16.460  0.00  0.00     0.093 A 
ATOM      9  C   UNL d   1       6.765  -0.854 -17.344  0.00  0.00     0.093 A 
ATOM     10  C   UNL d   1       4.370  -1.212 -17.335  0.00  0.00     0.031 C 
ATOM     11  C   UNL d   1       6.011  -0.369 -18.607  0.00  0.00     0.031 C 
ATOM     12  C   UNL d   1       7.350   0.246 -16.461  0.00  0.00     0.240 A 
ATOM     13  C   UNL d   1       5.489  -1.605 -19.307  0.00  0.00    -0.030 C 
ATOM     14  C   UNL d   1       4.697   0.129 -18.004  0.00  0.00     0.010 C 
ATOM     15  C   UNL d   1       4.510  -2.110 -18.548  0.00  0.00    -0.030 C 
ATOM     16  O   UNL d   1       8.282   0.967 -16.823  0.00  0.00    -0.272 OA
ENDBRANCH   4   5
ENDBRANCH   3   4
ENDBRANCH   2   3
ENDBRANCH   1   2
BRANCH   1  17
ATOM     17  N   UNL d   1       7.864   5.267 -12.270  0.00  0.00     0.141 N 
ATOM     18  C   UNL d   1       8.259   4.679 -10.984  0.00  0.00     0.274 C 
ATOM     19  C   UNL d   1       8.467   5.726  -9.890  0.00  0.00     0.137 C 
ATOM     20  N   UNL d   1       9.365   6.791 -10.348  0.00  0.00    -0.344 N 
ATOM     21  C   UNL d   1       9.012   7.362 -11.673  0.00  0.00     0.137 C 
ATOM     22  C   UNL d   1       8.888   6.224 -12.698  0.00  0.00     0.274 C 
BRANCH  20  23
ATOM     23  C   UNL d   1      10.296   7.385  -9.445  0.00  0.00     0.057 C 
ATOM     24  C   UNL d   1      10.253   7.302  -8.019  0.00  0.00     0.022 C 
ATOM     25  C   UNL d   1      11.417   7.795  -7.291  0.00  0.00     0.031 C 
ATOM     26  C   UNL d   1       9.231   6.821  -7.099  0.00  0.00     0.009 C 
ATOM     27  C   UNL d   1      12.536   8.361  -7.957  0.00  0.00     0.007 C 
ATOM     28  S   UNL d   1      11.263   7.558  -5.567  0.00  0.00    -0.086 SA
ATOM     29  C   UNL d   1      12.537   8.396  -9.330  0.00  0.00     0.002 C 
ATOM     30  C   UNL d   1      11.396   8.051 -10.039  0.00  0.00     0.017 C 
ATOM     31  C   UNL d   1       9.723   6.798  -5.819  0.00  0.00     0.035 C 
ENDBRANCH  20  23
ENDBRANCH   1  17
TORSDOF 6
