REMARK  4 active torsions:
REMARK  status: ('A' for Active; 'I' for Inactive)
REMARK    1  A    between atoms: N_2  and  C_4 
REMARK    2  A    between atoms: C_4  and  C_5 
REMARK    3  A    between atoms: C_5  and  S_6 
REMARK    4  A    between atoms: S_6  and  C_7 
ROOT
ATOM      1  C   UNL d   1      12.056   8.246  -7.781  0.00  0.00     0.093 C 
ENDROOT
BRANCH   1   2
ATOM      2  C   UNL d   1      10.628   8.073  -8.336  0.00  0.00     0.262 C 
BRANCH   2   3
ATOM      3  N   UNL d   1      10.439   6.787  -8.984  0.00  0.00     0.142 N 
ATOM      4  C   UNL d   1      10.449   5.666  -8.050  0.00  0.00     0.285 C 
ATOM      5  C   UNL d   1       9.128   6.774  -9.611  0.00  0.00     0.285 C 
ENDBRANCH   2   3
ENDBRANCH   1   2
BRANCH   1   6
ATOM      6  S   UNL d   1      12.151   9.589  -6.534  0.00  0.00    -0.140 SA
BRANCH   6   7
ATOM      7  C   UNL d   1      11.673   8.839  -4.923  0.00  0.00     0.039 C 
ATOM      8  C   UNL d   1      10.707   9.853  -4.308  0.00  0.00     0.011 C 
ATOM      9  C   UNL d   1      12.900   8.732  -4.003  0.00  0.00     0.011 C 
ATOM     10  C   UNL d   1      10.999   7.443  -5.022  0.00  0.00     0.011 C 
ENDBRANCH   6   7
ENDBRANCH   1   6
TORSDOF 4
