REMARK  6 active torsions:
REMARK  status: ('A' for Active; 'I' for Inactive)
REMARK    1  A    between atoms: C_2  and  C_3 
REMARK       I    between atoms: C_2  and  N_18 
REMARK    2  A    between atoms: C_3  and  C_4 
REMARK    3  A    between atoms: C_4  and  N_5 
REMARK    4  A    between atoms: N_8  and  C_9 
REMARK    5  A    between atoms: C_9  and  C_10 
REMARK    6  A    between atoms: N_18  and  C_19 
ROOT
ATOM      1  N   UNL d   1       9.272   6.259 -10.834  0.00  0.00     0.142 N 
ATOM      2  C   UNL d   1       8.773   5.654  -9.595  0.00  0.00     0.285 C 
ATOM      3  C   UNL d   1       9.875   5.556  -8.530  0.00  0.00     0.286 C 
ATOM      4  N   UNL d   1      10.442   6.863  -8.198  0.00  0.00     0.146 N 
ATOM      5  C   UNL d   1      10.940   7.463  -9.447  0.00  0.00     0.286 C 
ATOM      6  C   UNL d   1       9.829   7.572 -10.496  0.00  0.00     0.285 C 
ENDROOT
BRANCH   1   7
ATOM      7  C   UNL d   1       8.213   6.386 -11.830  0.00  0.00     0.260 C 
BRANCH   7   8
ATOM      8  C   UNL d   1       7.863   5.087 -12.581  0.00  0.00     0.125 C 
BRANCH   8   9
ATOM      9  C   UNL d   1       9.011   4.477 -13.403  0.00  0.00     0.260 C 
ATOM     10  O   UNL d   1      10.072   5.085 -13.565  0.00  0.00    -0.270 OA
ATOM     11  N   UNL d   1       8.741   3.268 -13.930  0.00  0.00    -0.186 NA
BRANCH  11  12
ATOM     12  C   UNL d   1       9.570   2.446 -14.734  0.00  0.00     0.197 A 
ATOM     13  S   UNL d   1       9.117   0.803 -15.173  0.00  0.00    -0.046 SA
ATOM     14  C   UNL d   1      10.595   0.684 -16.090  0.00  0.00     0.059 A 
ATOM     15  C   UNL d   1      11.335   1.838 -16.021  0.00  0.00     0.108 A 
ATOM     16  N   UNL d   1      10.745   2.834 -15.245  0.00  0.00    -0.219 NA
ENDBRANCH  11  12
ENDBRANCH   8   9
ENDBRANCH   7   8
ENDBRANCH   1   7
BRANCH   4  17
ATOM     17  C   UNL d   1      11.455   6.778  -7.153  0.00  0.00     0.277 C 
BRANCH  17  18
ATOM     18  C   UNL d   1      11.412   7.905  -6.143  0.00  0.00     0.011 A 
ATOM     19  C   UNL d   1      11.462   7.595  -4.766  0.00  0.00    -0.002 A 
ATOM     20  C   UNL d   1      11.502   8.633  -3.810  0.00  0.00    -0.000 A 
ATOM     21  C   UNL d   1      11.447   9.971  -4.225  0.00  0.00    -0.000 A 
ATOM     22  C   UNL d   1      11.448  10.280  -5.600  0.00  0.00    -0.000 A 
ATOM     23  C   UNL d   1      11.448   9.257  -6.552  0.00  0.00    -0.002 A 
ENDBRANCH  17  18
ENDBRANCH   4  17
TORSDOF 6
