REMARK  4 active torsions:
REMARK  status: ('A' for Active; 'I' for Inactive)
REMARK    1  A    between atoms: O_2  and  C_3 
REMARK       I    between atoms: C_3  and  N_5 
REMARK    2  A    between atoms: N_5  and  C_6 
REMARK    3  A    between atoms: C_10  and  S_11 
REMARK    4  A    between atoms: S_11  and  C_13 
ROOT
ATOM      1  C   UNL d   1       9.547   6.631 -10.791  0.00  0.00     0.755 A 
ATOM      2  N   UNL d   1      10.196   7.778 -10.577  0.00  0.00    -0.058 NA
ATOM      3  C   UNL d   1      10.081   7.914  -9.201  0.00  0.00     0.119 A 
ATOM      4  C   UNL d   1      10.541   8.925  -8.321  0.00  0.00     0.030 A 
ATOM      5  C   UNL d   1      10.279   8.835  -6.936  0.00  0.00     0.062 A 
ATOM      6  C   UNL d   1       9.481   7.778  -6.437  0.00  0.00     0.011 A 
ATOM      7  C   UNL d   1       9.069   6.741  -7.269  0.00  0.00     0.022 A 
ATOM      8  C   UNL d   1       9.356   6.822  -8.636  0.00  0.00     0.118 A 
ATOM      9  N   UNL d   1       9.087   5.989  -9.707  0.00  0.00    -0.058 NA
ENDROOT
BRANCH   5  10
ATOM     10  S   UNL d   1      11.004  10.055  -5.772  0.00  0.00     0.088 S 
ATOM     11  O   UNL d   1      12.256  10.589  -6.430  0.00  0.00    -0.247 OA
BRANCH  10  12
ATOM     12  C   UNL d   1      11.567   8.901  -4.485  0.00  0.00     0.060 A 
ATOM     13  C   UNL d   1      11.879   9.426  -3.209  0.00  0.00     0.009 A 
ATOM     14  C   UNL d   1      12.261   8.552  -2.158  0.00  0.00     0.001 A 
ATOM     15  C   UNL d   1      12.256   7.162  -2.381  0.00  0.00     0.000 A 
ATOM     16  C   UNL d   1      11.929   6.668  -3.663  0.00  0.00     0.001 A 
ATOM     17  C   UNL d   1      11.626   7.513  -4.713  0.00  0.00     0.009 A 
ENDBRANCH  10  12
ENDBRANCH   5  10
BRANCH   1  18
ATOM     18  N   UNL d   1       9.360   6.101 -12.081  0.00  0.00     0.005 NA
ATOM     19  C   UNL d   1       8.589   5.000 -12.397  0.00  0.00     0.403 C 
ATOM     20  O   UNL d   1       7.793   4.447 -11.641  0.00  0.00    -0.235 OA
BRANCH  19  21
ATOM     21  O   UNL d   1       8.840   4.642 -13.665  0.00  0.00    -0.280 OA
ATOM     22  C   UNL d   1       8.262   3.455 -14.181  0.00  0.00     0.186 C 
ENDBRANCH  19  21
ENDBRANCH   1  18
TORSDOF 4
