REMARK  5 active torsions:
REMARK  status: ('A' for Active; 'I' for Inactive)
REMARK    1  A    between atoms: N_2  and  C_3 
REMARK    2  A    between atoms: N_11  and  S_12 
REMARK    3  A    between atoms: S_12  and  C_15 
REMARK    4  A    between atoms: C_22  and  C_23 
REMARK    5  A    between atoms: C_23  and  C_24 
ROOT
ATOM      1  C   UNL d   1       8.256   5.385  -9.576  0.00  0.00     0.124 A 
ATOM      2  C   UNL d   1       8.678   6.299  -8.494  0.00  0.00    -0.004 A 
ATOM      3  C   UNL d   1       8.346   6.732  -7.218  0.00  0.00    -0.001 A 
ATOM      4  C   UNL d   1       9.178   7.755  -6.739  0.00  0.00     0.018 A 
ATOM      5  C   UNL d   1      10.316   8.149  -7.483  0.00  0.00     0.075 A 
ATOM      6  C   UNL d   1      10.662   7.619  -8.705  0.00  0.00     0.014 A 
ATOM      7  C   UNL d   1      11.878   8.078  -9.209  0.00  0.00     0.021 C 
ATOM      8  C   UNL d   1      12.311   8.854  -8.175  0.00  0.00     0.092 C 
ATOM      9  N   UNL d   1      11.335   8.984  -7.184  0.00  0.00    -0.231 N 
ATOM     10  C   UNL d   1       9.813   6.709  -9.234  0.00  0.00    -0.021 A 
ATOM     11  C   UNL d   1       9.532   5.834 -10.414  0.00  0.00     0.051 A 
ENDROOT
BRANCH   9  12
ATOM     12  S   UNL d   1      11.517   9.861  -5.728  0.00  0.00     0.271 S 
ATOM     13  O   UNL d   1      12.592  10.804  -6.051  0.00  0.00    -0.200 OA
ATOM     14  O   UNL d   1      10.278  10.352  -5.216  0.00  0.00    -0.200 OA
BRANCH  12  15
ATOM     15  C   UNL d   1      12.009   8.710  -4.490  0.00  0.00     0.104 A 
ATOM     16  C   UNL d   1      12.364   9.141  -3.196  0.00  0.00     0.013 A 
ATOM     17  C   UNL d   1      12.646   8.182  -2.201  0.00  0.00     0.001 A 
ATOM     18  C   UNL d   1      12.527   6.811  -2.482  0.00  0.00     0.000 A 
ATOM     19  C   UNL d   1      12.129   6.420  -3.758  0.00  0.00     0.001 A 
ATOM     20  C   UNL d   1      11.854   7.345  -4.752  0.00  0.00     0.013 A 
ENDBRANCH  12  15
ENDBRANCH   9  12
BRANCH  11  21
ATOM     21  C   UNL d   1       9.471   6.553 -11.751  0.00  0.00     0.042 C 
BRANCH  21  22
ATOM     22  C   UNL d   1       8.108   6.461 -12.461  0.00  0.00     0.183 C 
ATOM     23  O   UNL d   1       7.497   7.735 -12.459  0.00  0.00    -0.221 OA
ENDBRANCH  21  22
ENDBRANCH  11  21
BRANCH   1  24
ATOM     24  N   UNL d   1       8.102   4.037  -9.102  0.00  0.00    -0.291 NA
ATOM     25  C   UNL d   1       9.221   3.465  -8.447  0.00  0.00     0.146 C 
ENDBRANCH   1  24
TORSDOF 5
