REMARK  6 active torsions:
REMARK  status: ('A' for Active; 'I' for Inactive)
REMARK    1  A    between atoms: N_2  and  C_4 
REMARK    2  A    between atoms: C_4  and  C_5 
REMARK    3  A    between atoms: C_5  and  N_6 
REMARK    4  A    between atoms: N_6  and  C_7 
REMARK    5  A    between atoms: N_6  and  C_13 
REMARK    6  A    between atoms: C_7  and  C_8 
ROOT
ATOM      1  N   UNL d   1       9.317   4.989 -11.396  0.00  0.00    -0.327 N 
ENDROOT
BRANCH   1   2
ATOM      2  C   UNL d   1       9.537   3.862 -12.291  0.00  0.00     0.139 C 
BRANCH   2   3
ATOM      3  C   UNL d   1      10.115   4.324 -13.633  0.00  0.00     0.274 C 
BRANCH   3   4
ATOM      4  N   UNL d   1      10.065   3.265 -14.637  0.00  0.00     0.143 N 
ATOM      5  C   UNL d   1      10.170   3.863 -15.957  0.00  0.00     0.286 C 
ATOM      6  C   UNL d   1      11.159   2.321 -14.460  0.00  0.00     0.286 C 
ENDBRANCH   3   4
ENDBRANCH   2   3
ENDBRANCH   1   2
BRANCH   1   7
ATOM      7  C   UNL d   1       9.420   4.794  -9.943  0.00  0.00     0.136 C 
BRANCH   7   8
ATOM      8  C   UNL d   1       9.778   6.035  -9.172  0.00  0.00     0.030 A 
ATOM      9  S   UNL d   1       9.063   6.393  -7.622  0.00  0.00    -0.089 SA
ATOM     10  C   UNL d   1       9.930   7.899  -7.508  0.00  0.00     0.035 A 
ATOM     11  C   UNL d   1      10.746   8.089  -8.593  0.00  0.00     0.007 A 
ATOM     12  C   UNL d   1      10.679   7.009  -9.519  0.00  0.00     0.005 A 
ENDBRANCH   7   8
ENDBRANCH   1   7
BRANCH   1  13
ATOM     13  C   UNL d   1       8.326   5.872 -11.817  0.00  0.00     0.140 A 
ATOM     14  N   UNL d   1       7.078   5.391 -12.023  0.00  0.00    -0.227 NA
ATOM     15  C   UNL d   1       6.136   6.262 -12.428  0.00  0.00     0.101 A 
ATOM     16  C   UNL d   1       6.383   7.621 -12.683  0.00  0.00     0.021 A 
ATOM     17  C   UNL d   1       7.681   8.110 -12.443  0.00  0.00     0.005 A 
ATOM     18  C   UNL d   1       8.681   7.213 -12.057  0.00  0.00     0.037 A 
ENDBRANCH   1  13
TORSDOF 6
