REMARK  2 active torsions:
REMARK  status: ('A' for Active; 'I' for Inactive)
REMARK    1  A    between atoms: N_2  and  C_3 
REMARK    2  A    between atoms: C_11  and  O_12 
ROOT
ATOM      1  C   UNL d   1      10.657   7.878  -8.088  0.00  0.00     0.261 C 
ATOM      2  C   UNL d   1      10.427   6.557  -7.356  0.00  0.00     0.041 C 
ATOM      3  C   UNL d   1      11.331   6.454  -6.120  0.00  0.00     0.030 C 
ATOM      4  C   UNL d   1      11.380   7.703  -5.264  0.00  0.00    -0.004 A 
ATOM      5  C   UNL d   1      10.918   8.939  -5.775  0.00  0.00    -0.022 A 
ATOM      6  C   UNL d   1      10.966  10.084  -4.965  0.00  0.00    -0.004 A 
ATOM      7  C   UNL d   1      11.456   9.984  -3.657  0.00  0.00     0.002 A 
ATOM      8  C   UNL d   1      11.912   8.781  -3.144  0.00  0.00     0.024 A 
ATOM      9  C   UNL d   1      11.862   7.614  -3.936  0.00  0.00     0.090 A 
ATOM     10  C   UNL d   1      10.324   9.063  -7.164  0.00  0.00     0.062 C 
ENDROOT
BRANCH   1  11
ATOM     11  N   UNL d   1       9.862   7.915  -9.311  0.00  0.00     0.340 N 
ATOM     12  C   UNL d   1      10.240   9.055 -10.127  0.00  0.00     0.328 C 
ENDBRANCH   1  11
BRANCH   9  13
ATOM     13  O   UNL d   1      12.262   6.393  -3.459  0.00  0.00    -0.328 OA
ATOM     14  C   UNL d   1      12.367   6.253  -2.057  0.00  0.00     0.181 C 
ENDBRANCH   9  13
TORSDOF 2
