REMARK  6 active torsions:
REMARK  status: ('A' for Active; 'I' for Inactive)
REMARK    1  A    between atoms: C_2  and  C_3 
REMARK    2  A    between atoms: C_2  and  C_16 
REMARK    3  A    between atoms: C_3  and  C_4 
REMARK    4  A    between atoms: C_4  and  C_5 
REMARK    5  A    between atoms: C_5  and  C_6 
REMARK    6  A    between atoms: C_6  and  N_7 
ROOT
ATOM      1  C   UNL d   1       8.011   5.695 -11.174  0.00  0.00     0.071 C 
ENDROOT
BRANCH   1   2
ATOM      2  C   UNL d   1       8.834   5.691 -12.452  0.00  0.00     0.197 C 
ATOM      3  O   UNL d   1       9.458   6.690 -12.799  0.00  0.00    -0.289 OA
BRANCH   2   4
ATOM      4  C   UNL d   1       8.907   4.440 -13.241  0.00  0.00     0.145 A 
ATOM      5  S   UNL d   1       7.395   3.612 -13.636  0.00  0.00    -0.064 SA
ATOM      6  C   UNL d   1       8.349   2.392 -14.469  0.00  0.00     0.049 A 
ATOM      7  C   UNL d   1       9.738   2.709 -14.376  0.00  0.00     0.088 A 
ATOM      8  C   UNL d   1       7.901   1.250 -15.146  0.00  0.00     0.008 A 
ATOM      9  N   UNL d   1      10.040   3.882 -13.693  0.00  0.00    -0.236 NA
ATOM     10  C   UNL d   1      10.656   1.822 -14.983  0.00  0.00     0.020 A 
ATOM     11  C   UNL d   1      10.210   0.674 -15.665  0.00  0.00     0.002 A 
ATOM     12  C   UNL d   1       8.833   0.390 -15.752  0.00  0.00     0.001 A 
ENDBRANCH   2   4
ENDBRANCH   1   2
BRANCH   1  13
ATOM     13  C   UNL d   1       8.730   4.942 -10.044  0.00  0.00     0.010 C 
BRANCH  13  14
ATOM     14  C   UNL d   1       9.855   5.738  -9.364  0.00  0.00     0.036 C 
BRANCH  14  15
ATOM     15  C   UNL d   1       9.324   6.956  -8.583  0.00  0.00     0.251 C 
BRANCH  15  16
ATOM     16  N   UNL d   1      10.309   7.462  -7.635  0.00  0.00     0.146 N 
ATOM     17  C   UNL d   1       9.897   8.722  -7.002  0.00  0.00     0.277 C 
ATOM     18  C   UNL d   1      10.709   8.736  -5.733  0.00  0.00     0.009 A 
ATOM     19  C   UNL d   1      11.099   7.443  -5.452  0.00  0.00     0.009 A 
ATOM     20  C   UNL d   1      11.059   9.808  -4.894  0.00  0.00    -0.003 A 
ATOM     21  C   UNL d   1      10.571   6.539  -6.523  0.00  0.00     0.277 C 
ATOM     22  C   UNL d   1      11.856   7.123  -4.311  0.00  0.00    -0.003 A 
ATOM     23  C   UNL d   1      12.225   8.184  -3.453  0.00  0.00    -0.000 A 
ATOM     24  C   UNL d   1      11.820   9.513  -3.738  0.00  0.00    -0.000 A 
ENDBRANCH  15  16
ENDBRANCH  14  15
ENDBRANCH  13  14
ENDBRANCH   1  13
TORSDOF 6
