REMARK  6 active torsions:
REMARK  status: ('A' for Active; 'I' for Inactive)
REMARK    1  A    between atoms: O_2  and  C_3 
REMARK    2  A    between atoms: C_8  and  O_9 
REMARK    3  A    between atoms: N_12  and  C_13 
REMARK    4  A    between atoms: N_14  and  C_15 
REMARK    5  A    between atoms: C_21  and  O_22 
REMARK    6  A    between atoms: O_22  and  C_23 
ROOT
ATOM      1  C   UNL d   1       9.153   5.326 -12.397  0.00  0.00     0.175 C 
ATOM      2  N   UNL d   1       9.193   4.046 -12.603  0.00  0.00    -0.226 NA
ENDROOT
BRANCH   1   3
ATOM      3  N   UNL d   1       8.883   5.951 -11.189  0.00  0.00    -0.327 N 
ATOM      4  C   UNL d   1       9.461   7.244 -10.839  0.00  0.00     0.130 C 
ATOM      5  C   UNL d   1      10.002   7.331  -9.418  0.00  0.00    -0.002 A 
ATOM      6  C   UNL d   1       9.709   6.301  -8.504  0.00  0.00    -0.020 A 
ATOM      7  C   UNL d   1      10.778   8.432  -8.976  0.00  0.00     0.024 A 
ATOM      8  C   UNL d   1      10.171   6.393  -7.197  0.00  0.00     0.022 A 
ATOM      9  C   UNL d   1       8.890   5.080  -8.898  0.00  0.00     0.050 C 
ATOM     10  C   UNL d   1      10.947   7.469  -6.729  0.00  0.00     0.116 A 
ATOM     11  C   UNL d   1      11.231   8.518  -7.632  0.00  0.00     0.116 A 
ATOM     12  C   UNL d   1       8.079   5.311 -10.168  0.00  0.00     0.108 C 
BRANCH  10  13
ATOM     13  O   UNL d   1      11.457   7.550  -5.446  0.00  0.00    -0.326 OA
ATOM     14  C   UNL d   1      11.391   6.415  -4.606  0.00  0.00     0.181 C 
ENDBRANCH  10  13
BRANCH  11  15
ATOM     15  O   UNL d   1      12.037   9.555  -7.242  0.00  0.00    -0.326 OA
ATOM     16  C   UNL d   1      11.559  10.377  -6.186  0.00  0.00     0.181 C 
ENDBRANCH  11  15
ENDBRANCH   1   3
BRANCH   2  17
ATOM     17  C   UNL d   1       9.598   3.652 -13.881  0.00  0.00     0.083 A 
ATOM     18  C   UNL d   1      10.699   4.238 -14.553  0.00  0.00     0.017 A 
ATOM     19  C   UNL d   1      11.030   3.868 -15.873  0.00  0.00     0.003 A 
ATOM     20  C   UNL d   1      10.309   2.829 -16.511  0.00  0.00    -0.024 A 
ATOM     21  C   UNL d   1      12.184   4.593 -16.544  0.00  0.00     0.146 C 
ATOM     22  C   UNL d   1       9.252   2.198 -15.819  0.00  0.00    -0.003 A 
ATOM     23  C   UNL d   1      10.632   2.409 -17.931  0.00  0.00     0.026 C 
ATOM     24  C   UNL d   1       8.908   2.600 -14.511  0.00  0.00     0.019 A 
ATOM     25  C   UNL d   1      12.004   2.896 -18.414  0.00  0.00     0.007 C 
ATOM     26  C   UNL d   1      12.225   4.368 -18.064  0.00  0.00     0.035 C 
BRANCH  21  27
ATOM     27  O   UNL d   1      12.123   6.002 -16.301  0.00  0.00    -0.300 OA
BRANCH  27  28
ATOM     28  C   UNL d   1      13.239   6.743 -16.266  0.00  0.00     0.273 C 
ATOM     29  C   UNL d   1      12.947   8.205 -15.974  0.00  0.00     0.106 C 
ATOM     30  O   UNL d   1      14.389   6.340 -16.439  0.00  0.00    -0.264 OA
ENDBRANCH  27  28
ENDBRANCH  21  27
ENDBRANCH   2  17
TORSDOF 6
