REMARK  2 active torsions:
REMARK  status: ('A' for Active; 'I' for Inactive)
REMARK    1  A    between atoms: O_2  and  C_3 
REMARK    2  A    between atoms: C_18  and  O_19 
ROOT
ATOM      1  C   UNL d   1      11.542   7.217  -3.320  0.00  0.00     0.119 C 
ATOM      2  C   UNL d   1      10.846   6.970  -4.525  0.00  0.00     0.024 C 
ATOM      3  C   UNL d   1      11.004   7.838  -5.633  0.00  0.00     0.007 C 
ATOM      4  C   UNL d   1      11.998   8.827  -5.598  0.00  0.00    -0.020 C 
ATOM      5  C   UNL d   1      12.758   9.018  -4.427  0.00  0.00     0.025 C 
ATOM      6  C   UNL d   1      12.469   8.267  -3.275  0.00  0.00     0.153 C 
ATOM      7  O   UNL d   1      12.999   8.560  -2.047  0.00  0.00    -0.188 OA
ATOM      8  C   UNL d   1      12.313   9.603  -6.859  0.00  0.00     0.061 C 
ATOM      9  C   UNL d   1      11.637   9.082  -8.135  0.00  0.00     0.256 C 
ATOM     10  N   UNL d   1      10.264   8.819  -7.786  0.00  0.00     0.144 N 
ATOM     11  C   UNL d   1       9.430   8.652  -8.966  0.00  0.00     0.279 C 
ATOM     12  C   UNL d   1       9.540   7.300  -9.683  0.00  0.00     0.034 A 
ATOM     13  C   UNL d   1       9.893   6.178  -8.931  0.00  0.00    -0.020 A 
ATOM     14  C   UNL d   1       9.822   4.910  -9.528  0.00  0.00    -0.002 A 
ATOM     15  C   UNL d   1       9.423   4.756 -10.842  0.00  0.00     0.026 A 
ATOM     16  C   UNL d   1       9.075   5.872 -11.636  0.00  0.00     0.119 A 
ATOM     17  C   UNL d   1       9.166   7.159 -11.046  0.00  0.00     0.151 A 
ATOM     18  O   UNL d   1       8.679   8.233 -11.723  0.00  0.00    -0.188 OA
ATOM     19  C   UNL d   1      10.531   6.369  -7.571  0.00  0.00     0.064 C 
ATOM     20  C   UNL d   1      10.150   7.677  -6.879  0.00  0.00     0.246 C 
ENDROOT
BRANCH   1  21
ATOM     21  O   UNL d   1      11.276   6.625  -2.097  0.00  0.00    -0.326 OA
ATOM     22  C   UNL d   1       9.928   6.348  -1.708  0.00  0.00     0.181 C 
ENDBRANCH   1  21
BRANCH  16  23
ATOM     23  O   UNL d   1       8.703   5.779 -12.958  0.00  0.00    -0.326 OA
ATOM     24  C   UNL d   1       8.285   4.495 -13.416  0.00  0.00     0.181 C 
ENDBRANCH  16  23
TORSDOF 2
