REMARK  4 active torsions:
REMARK  status: ('A' for Active; 'I' for Inactive)
REMARK    1  A    between atoms: N_13  and  C_14 
REMARK    2  A    between atoms: C_14  and  C_15 
REMARK    3  A    between atoms: C_15  and  C_16 
REMARK    4  A    between atoms: C_16  and  C_17 
ROOT
ATOM      1  O   UNL d   1       8.733   5.868  -8.322  0.00  0.00    -0.192 OA
ATOM      2  C   UNL d   1       9.722   6.867  -8.214  0.00  0.00     0.314 C 
ATOM      3  C   UNL d   1      10.745   6.644  -7.084  0.00  0.00     0.061 C 
ATOM      4  C   UNL d   1      10.230   7.444  -5.861  0.00  0.00     0.004 C 
ATOM      5  C   UNL d   1      11.515   8.017  -5.261  0.00  0.00     0.000 C 
ATOM      6  C   UNL d   1      11.949   8.697  -6.569  0.00  0.00     0.002 C 
ATOM      7  C   UNL d   1      10.743   9.492  -7.027  0.00  0.00     0.002 A 
ATOM      8  C   UNL d   1       9.570   8.645  -6.542  0.00  0.00     0.005 A 
ATOM      9  C   UNL d   1       9.258   8.283  -7.968  0.00  0.00     0.061 A 
ATOM     10  C   UNL d   1      10.422   9.106  -8.471  0.00  0.00     0.036 A 
ATOM     11  C   UNL d   1      11.408   8.046  -8.929  0.00  0.00     0.222 C 
ATOM     12  C   UNL d   1      11.936   7.517  -7.579  0.00  0.00     0.036 C 
ATOM     13  N   UNL d   1      10.585   6.921  -9.399  0.00  0.00     0.159 N 
ENDROOT
BRANCH  13  14
ATOM     14  C   UNL d   1       9.902   7.247 -10.650  0.00  0.00     0.253 C 
BRANCH  14  15
ATOM     15  C   UNL d   1       9.436   5.976 -11.393  0.00  0.00     0.040 C 
BRANCH  15  16
ATOM     16  C   UNL d   1       8.268   6.255 -12.342  0.00  0.00     0.028 C 
BRANCH  16  17
ATOM     17  C   UNL d   1       7.702   4.979 -12.936  0.00  0.00    -0.022 A 
ATOM     18  C   UNL d   1       8.471   4.211 -13.840  0.00  0.00    -0.004 A 
ATOM     19  C   UNL d   1       7.944   3.027 -14.387  0.00  0.00    -0.000 A 
ATOM     20  C   UNL d   1       6.644   2.610 -14.042  0.00  0.00    -0.000 A 
ATOM     21  C   UNL d   1       5.872   3.374 -13.138  0.00  0.00    -0.000 A 
ATOM     22  C   UNL d   1       6.405   4.552 -12.583  0.00  0.00    -0.004 A 
ENDBRANCH  16  17
ENDBRANCH  15  16
ENDBRANCH  14  15
ENDBRANCH  13  14
TORSDOF 4
