REMARK  12 active torsions:
REMARK  status: ('A' for Active; 'I' for Inactive)
REMARK    1  A    between atoms: O_2  and  C_3 
REMARK    2  A    between atoms: C_7  and  C_8 
REMARK    3  A    between atoms: C_8  and  C_9 
REMARK    4  A    between atoms: C_9  and  C_10 
REMARK    5  A    between atoms: C_15  and  O_16 
REMARK    6  A    between atoms: O_16  and  C_17 
REMARK    7  A    between atoms: C_17  and  C_18 
REMARK    8  A    between atoms: C_18  and  C_19 
REMARK    9  A    between atoms: C_19  and  C_20 
REMARK   10  A    between atoms: C_20  and  C_21 
REMARK   11  A    between atoms: C_21  and  N_22 
REMARK   12  A    between atoms: N_25  and  C_26 
ROOT
ATOM      1  O   UNL d   1      10.386   4.435 -14.119  0.00  0.00    -0.331 OA
ENDROOT
BRANCH   1   2
ATOM      2  C   UNL d   1       9.638   3.798 -15.070  0.00  0.00     0.090 A 
ATOM      3  C   UNL d   1       9.965   3.970 -16.445  0.00  0.00     0.001 A 
ATOM      4  C   UNL d   1       9.212   3.262 -17.420  0.00  0.00    -0.002 A 
ATOM      5  C   UNL d   1       8.190   2.380 -17.030  0.00  0.00    -0.000 A 
ATOM      6  C   UNL d   1       7.882   2.211 -15.667  0.00  0.00     0.002 A 
ATOM      7  C   UNL d   1       8.607   2.912 -14.697  0.00  0.00     0.024 A 
BRANCH   3   8
ATOM      8  C   UNL d   1      11.139   4.849 -16.913  0.00  0.00     0.033 C 
BRANCH   8   9
ATOM      9  C   UNL d   1      12.513   4.131 -17.064  0.00  0.00     0.031 C 
BRANCH   9  10
ATOM     10  C   UNL d   1      12.480   2.865 -17.918  0.00  0.00    -0.020 A 
ATOM     11  C   UNL d   1      12.973   2.840 -19.232  0.00  0.00    -0.004 A 
ATOM     12  C   UNL d   1      12.852   1.646 -19.995  0.00  0.00     0.002 A 
ATOM     13  C   UNL d   1      12.221   0.507 -19.429  0.00  0.00     0.024 A 
ATOM     14  C   UNL d   1      11.719   0.534 -18.117  0.00  0.00     0.094 A 
ATOM     15  C   UNL d   1      11.900   1.720 -17.349  0.00  0.00     0.020 A 
BRANCH  14  16
ATOM     16  O   UNL d   1      11.047  -0.576 -17.649  0.00  0.00    -0.328 OA
ATOM     17  C   UNL d   1      10.418  -0.506 -16.375  0.00  0.00     0.181 C 
ENDBRANCH  14  16
ENDBRANCH   9  10
ENDBRANCH   8   9
ENDBRANCH   3   8
ENDBRANCH   1   2
BRANCH   1  18
ATOM     18  C   UNL d   1       9.798   4.726 -12.857  0.00  0.00     0.149 C 
BRANCH  18  19
ATOM     19  C   UNL d   1       8.976   6.002 -12.992  0.00  0.00     0.033 C 
BRANCH  19  20
ATOM     20  C   UNL d   1       8.515   6.648 -11.682  0.00  0.00     0.005 C 
BRANCH  20  21
ATOM     21  C   UNL d   1       9.702   7.191 -10.842  0.00  0.00     0.035 C 
BRANCH  21  22
ATOM     22  C   UNL d   1       9.286   7.862  -9.529  0.00  0.00     0.250 C 
BRANCH  22  23
ATOM     23  N   UNL d   1      10.360   8.190  -8.634  0.00  0.00     0.141 N 
ATOM     24  C   UNL d   1       9.819   9.085  -7.602  0.00  0.00     0.275 C 
ATOM     25  C   UNL d   1      10.953   9.491  -6.661  0.00  0.00     0.155 C 
ATOM     26  N   UNL d   1      11.476   8.274  -6.072  0.00  0.00    -0.179 N 
ATOM     27  C   UNL d   1      11.890   7.289  -7.064  0.00  0.00     0.155 C 
ATOM     28  C   UNL d   1      10.745   6.943  -7.968  0.00  0.00     0.275 C 
BRANCH  26  29
ATOM     29  C   UNL d   1      11.733   8.120  -4.726  0.00  0.00     0.727 A 
ATOM     30  N   UNL d   1      11.858   9.232  -3.986  0.00  0.00    -0.060 NA
ATOM     31  C   UNL d   1      12.138   9.068  -2.686  0.00  0.00     0.120 A 
ATOM     32  C   UNL d   1      12.270   7.794  -2.108  0.00  0.00     0.043 A 
ATOM     33  C   UNL d   1      12.074   6.698  -2.975  0.00  0.00     0.120 A 
ATOM     34  N   UNL d   1      11.828   6.870  -4.279  0.00  0.00    -0.060 NA
ENDBRANCH  26  29
ENDBRANCH  22  23
ENDBRANCH  21  22
ENDBRANCH  20  21
ENDBRANCH  19  20
ENDBRANCH  18  19
ENDBRANCH   1  18
TORSDOF 12
