REMARK  0 active torsions:
REMARK  status: ('A' for Active; 'I' for Inactive)
ROOT
ATOM      1  O   UNL d   1      10.812  10.163  -4.647  0.00  0.00    -0.269 OA
ATOM      2  C   UNL d   1      10.945   9.326  -5.540  0.00  0.00     0.271 C 
ATOM      3  N   UNL d   1      10.642   9.616  -6.810  0.00  0.00    -0.211 NA
ATOM      4  C   UNL d   1      10.593   8.728  -7.910  0.00  0.00     0.080 A 
ATOM      5  C   UNL d   1      11.054   9.212  -9.144  0.00  0.00     0.019 A 
ATOM      6  C   UNL d   1      11.020   8.397 -10.274  0.00  0.00     0.002 A 
ATOM      7  C   UNL d   1      10.511   7.088 -10.190  0.00  0.00    -0.000 A 
ATOM      8  C   UNL d   1      10.010   6.603  -8.970  0.00  0.00    -0.003 A 
ATOM      9  C   UNL d   1      10.043   7.425  -7.827  0.00  0.00    -0.004 A 
ATOM     10  C   UNL d   1       9.413   6.930  -6.544  0.00  0.00     0.030 C 
ATOM     11  C   UNL d   1      10.418   6.786  -5.385  0.00  0.00     0.031 C 
ATOM     12  C   UNL d   1      11.457   7.909  -5.242  0.00  0.00     0.161 C 
ATOM     13 CL   UNL d   1      12.262   7.767  -3.656  0.00  0.00    -0.105 Cl
ENDROOT
TORSDOF 0
