REMARK  0 active torsions:
REMARK  status: ('A' for Active; 'I' for Inactive)
ROOT
ATOM      1  N   UNL d   1      12.974   8.788  -1.699  0.00  0.00    -0.120 N 
ATOM      2  C   UNL d   1      12.514   8.446  -2.933  0.00  0.00     0.215 C 
ATOM      3  N   UNL d   1      12.596   9.274  -3.995  0.00  0.00    -0.219 NA
ATOM      4  C   UNL d   1      11.880   8.754  -5.053  0.00  0.00     0.089 C 
ATOM      5  C   UNL d   1      11.690   9.292  -6.359  0.00  0.00     0.015 C 
ATOM      6  C   UNL d   1      10.862   8.620  -7.307  0.00  0.00    -0.022 C 
ATOM      7  C   UNL d   1      10.161   7.467  -6.951  0.00  0.00    -0.023 C 
ATOM      8  C   UNL d   1      10.350   6.944  -5.669  0.00  0.00     0.004 C 
ATOM      9  C   UNL d   1      11.270   7.502  -4.792  0.00  0.00     0.050 C 
ATOM     10  S   UNL d   1      11.796   6.888  -3.221  0.00  0.00    -0.045 SA
ATOM     11  C   UNL d   1       9.199   6.754  -7.903  0.00  0.00     0.064 C 
ATOM     12  C   UNL d   1       9.871   6.271  -9.196  0.00  0.00     0.295 C 
ATOM     13  N   UNL d   1      10.042   7.320 -10.186  0.00  0.00     0.340 N 
ATOM     14  C   UNL d   1      11.113   8.244  -9.834  0.00  0.00     0.295 C 
ATOM     15  C   UNL d   1      10.695   9.168  -8.709  0.00  0.00     0.064 C 
ENDROOT
TORSDOF 0
