REMARK  6 active torsions:
REMARK  status: ('A' for Active; 'I' for Inactive)
REMARK    1  A    between atoms: O_2  and  C_3 
REMARK    2  A    between atoms: C_8  and  N_9 
REMARK    3  A    between atoms: N_12  and  C_13 
REMARK    4  A    between atoms: C_13  and  C_14 
REMARK    5  A    between atoms: C_14  and  C_15 
REMARK    6  A    between atoms: C_15  and  C_16 
ROOT
ATOM      1  N   UNL d   1       8.073   2.314 -15.358  0.00  0.00    -0.343 N 
ATOM      2  C   UNL d   1       6.692   2.386 -15.810  0.00  0.00     0.137 C 
ATOM      3  C   UNL d   1       6.020   1.015 -15.643  0.00  0.00     0.274 C 
ATOM      4  N   UNL d   1       6.720   0.032 -16.431  0.00  0.00     0.141 N 
ATOM      5  C   UNL d   1       8.085  -0.053 -15.889  0.00  0.00     0.274 C 
ATOM      6  C   UNL d   1       8.847   1.274 -16.006  0.00  0.00     0.137 C 
ENDROOT
BRANCH   4   7
ATOM      7  C   UNL d   1       5.959  -1.208 -16.298  0.00  0.00     0.251 C 
BRANCH   7   8
ATOM      8  C   UNL d   1       6.252  -2.103 -17.509  0.00  0.00     0.040 C 
BRANCH   8   9
ATOM      9  C   UNL d   1       5.622  -3.504 -17.410  0.00  0.00     0.029 C 
BRANCH   9  10
ATOM     10  C   UNL d   1       6.163  -4.503 -18.430  0.00  0.00    -0.021 A 
ATOM     11  C   UNL d   1       6.666  -4.056 -19.681  0.00  0.00     0.017 A 
ATOM     12  C   UNL d   1       7.167  -5.019 -20.556  0.00  0.00     0.101 A 
ATOM     13  C   UNL d   1       7.169  -6.360 -20.251  0.00  0.00     0.102 A 
ATOM     14  N   UNL d   1       7.729  -4.890 -21.826  0.00  0.00    -0.216 NA
ATOM     15  C   UNL d   1       6.662  -6.849 -19.037  0.00  0.00     0.020 A 
ATOM     16  N   UNL d   1       7.735  -7.003 -21.357  0.00  0.00    -0.216 NA
ATOM     17  C   UNL d   1       6.163  -5.894 -18.117  0.00  0.00    -0.003 A 
ATOM     18  C   UNL d   1       8.069  -6.105 -22.321  0.00  0.00     0.221 A 
ATOM     19  S   UNL d   1       8.756  -6.424 -23.795  0.00  0.00    -0.037 SA
ENDBRANCH   9  10
ENDBRANCH   8   9
ENDBRANCH   7   8
ENDBRANCH   4   7
BRANCH   1  20
ATOM     20  C   UNL d   1       8.623   3.209 -14.418  0.00  0.00     0.079 A 
ATOM     21  C   UNL d   1       7.875   3.725 -13.316  0.00  0.00     0.110 A 
ATOM     22  C   UNL d   1       8.509   4.596 -12.404  0.00  0.00     0.026 A 
ATOM     23  C   UNL d   1       9.851   4.957 -12.570  0.00  0.00     0.002 A 
ATOM     24  C   UNL d   1      10.596   4.437 -13.641  0.00  0.00     0.002 A 
ATOM     25  C   UNL d   1       9.978   3.589 -14.569  0.00  0.00     0.019 A 
BRANCH  21  26
ATOM     26  O   UNL d   1       6.572   3.306 -13.117  0.00  0.00    -0.327 OA
ATOM     27  C   UNL d   1       5.829   3.824 -12.031  0.00  0.00     0.181 C 
ENDBRANCH  21  26
ENDBRANCH   1  20
TORSDOF 6
