REMARK  3 active torsions:
REMARK  status: ('A' for Active; 'I' for Inactive)
REMARK    1  A    between atoms: N_12  and  C_13 
REMARK    2  A    between atoms: C_13  and  C_14 
REMARK    3  A    between atoms: C_14  and  C_15 
ROOT
ATOM      1  O   UNL d   1       8.263   5.987 -13.611  0.00  0.00    -0.190 OA
ATOM      2  C   UNL d   1       8.492   5.875 -12.280  0.00  0.00     0.131 A 
ATOM      3  C   UNL d   1       7.762   4.924 -11.570  0.00  0.00     0.027 A 
ATOM      4  C   UNL d   1       8.046   4.721 -10.217  0.00  0.00    -0.002 A 
ATOM      5  C   UNL d   1       9.045   5.459  -9.567  0.00  0.00    -0.024 A 
ATOM      6  C   UNL d   1       9.779   6.433 -10.259  0.00  0.00     0.005 A 
ATOM      7  C   UNL d   1       9.461   6.664 -11.617  0.00  0.00     0.025 A 
ATOM      8  C   UNL d   1      10.935   7.163  -9.582  0.00  0.00     0.169 C 
ATOM      9  O   UNL d   1      11.081   8.470 -10.047  0.00  0.00    -0.348 OA
ATOM     10  C   UNL d   1      10.062   9.318  -9.603  0.00  0.00     0.178 C 
ATOM     11  C   UNL d   1       9.972   9.339  -8.097  0.00  0.00     0.282 C 
ATOM     12  N   UNL d   1       9.861   8.045  -7.505  0.00  0.00     0.141 N 
ATOM     13  C   UNL d   1      10.890   7.152  -8.024  0.00  0.00     0.251 C 
ATOM     14  C   UNL d   1      10.612   5.731  -7.566  0.00  0.00     0.041 C 
ATOM     15  C   UNL d   1       9.287   5.163  -8.118  0.00  0.00     0.028 C 
ENDROOT
BRANCH  12  16
ATOM     16  C   UNL d   1       9.750   8.164  -6.062  0.00  0.00     0.256 C 
BRANCH  16  17
ATOM     17  C   UNL d   1      10.880   8.979  -5.354  0.00  0.00     0.068 C 
BRANCH  17  18
ATOM     18  C   UNL d   1      11.464   8.286  -4.183  0.00  0.00     0.009 A 
ATOM     19  S   UNL d   1      12.104   9.209  -2.839  0.00  0.00    -0.091 SA
ATOM     20  C   UNL d   1      12.582   7.747  -2.026  0.00  0.00     0.035 A 
ATOM     21  C   UNL d   1      12.282   6.635  -2.761  0.00  0.00     0.007 A 
ATOM     22  C   UNL d   1      11.668   6.945  -3.995  0.00  0.00     0.003 A 
ENDBRANCH  17  18
ENDBRANCH  16  17
ENDBRANCH  12  16
TORSDOF 3
