REMARK  4 active torsions:
REMARK  status: ('A' for Active; 'I' for Inactive)
REMARK    1  A    between atoms: C_5  and  C_6 
REMARK    2  A    between atoms: C_8  and  C_9 
REMARK    3  A    between atoms: N_13  and  C_14 
REMARK    4  A    between atoms: C_14  and  C_15 
ROOT
ATOM      1  C   UNL d   1       9.997   6.750 -10.351  0.00  0.00     0.075 C 
ATOM      2  C   UNL d   1      10.021   8.248 -10.690  0.00  0.00     0.010 C 
ATOM      3  C   UNL d   1      10.783   9.010  -9.610  0.00  0.00     0.036 C 
ATOM      4  C   UNL d   1      10.226   8.710  -8.232  0.00  0.00     0.251 C 
ATOM      5  N   UNL d   1      10.334   7.281  -7.951  0.00  0.00     0.142 N 
ATOM      6  C   UNL d   1       9.516   6.511  -8.908  0.00  0.00     0.257 C 
ENDROOT
BRANCH   1   7
ATOM      7  C   UNL d   1       9.189   5.980 -11.360  0.00  0.00     0.084 A 
ATOM      8  C   UNL d   1       9.489   4.919 -12.177  0.00  0.00     0.037 A 
ATOM      9  C   UNL d   1       8.292   4.673 -12.899  0.00  0.00     0.104 A 
ATOM     10  N   UNL d   1       7.317   5.507 -12.552  0.00  0.00    -0.148 NA
ATOM     11  N   UNL d   1       7.882   6.301 -11.630  0.00  0.00    -0.152 NA
BRANCH   9  12
ATOM     12  C   UNL d   1       8.085   3.632 -13.907  0.00  0.00     0.019 A 
ATOM     13  C   UNL d   1       9.107   3.311 -14.827  0.00  0.00     0.002 A 
ATOM     14  C   UNL d   1       8.913   2.312 -15.803  0.00  0.00     0.011 A 
ATOM     15  C   UNL d   1       7.695   1.599 -15.841  0.00  0.00     0.058 A 
ATOM     16 CL   UNL d   1       7.420   0.403 -17.049  0.00  0.00    -0.082 Cl
ATOM     17  C   UNL d   1       6.695   1.891 -14.900  0.00  0.00     0.011 A 
ATOM     18  C   UNL d   1       6.875   2.915 -13.952  0.00  0.00     0.002 A 
ENDBRANCH   9  12
ENDBRANCH   1   7
BRANCH   5  19
ATOM     19  C   UNL d   1       9.854   7.010  -6.596  0.00  0.00     0.277 C 
BRANCH  19  20
ATOM     20  C   UNL d   1      10.681   7.621  -5.470  0.00  0.00     0.011 A 
ATOM     21  C   UNL d   1      11.462   6.805  -4.625  0.00  0.00    -0.002 A 
ATOM     22  C   UNL d   1      12.240   7.378  -3.591  0.00  0.00    -0.000 A 
ATOM     23  C   UNL d   1      12.253   8.772  -3.405  0.00  0.00    -0.000 A 
ATOM     24  C   UNL d   1      11.455   9.589  -4.239  0.00  0.00    -0.000 A 
ATOM     25  C   UNL d   1      10.669   9.012  -5.239  0.00  0.00    -0.002 A 
ENDBRANCH  19  20
ENDBRANCH   5  19
TORSDOF 4
