REMARK  6 active torsions:
REMARK  status: ('A' for Active; 'I' for Inactive)
REMARK    1  A    between atoms: C_2  and  N_3 
REMARK    2  A    between atoms: C_7  and  C_8 
REMARK    3  A    between atoms: C_11  and  N_12 
REMARK    4  A    between atoms: N_12  and  S_13 
REMARK    5  A    between atoms: S_13  and  C_16 
REMARK    6  A    between atoms: C_19  and  C_20 
ROOT
ATOM      1  C   UNL d   1      10.714   7.319  -8.292  0.00  0.00    -0.021 A 
ATOM      2  C   UNL d   1       9.912   6.243  -7.858  0.00  0.00    -0.003 A 
ATOM      3  C   UNL d   1       9.085   5.538  -8.757  0.00  0.00     0.020 A 
ATOM      4  C   UNL d   1       9.060   5.894 -10.118  0.00  0.00     0.094 A 
ATOM      5  C   UNL d   1       9.835   6.983 -10.559  0.00  0.00     0.020 A 
ATOM      6  C   UNL d   1      10.643   7.687  -9.660  0.00  0.00    -0.003 A 
ENDROOT
BRANCH   4   7
ATOM      7  N   UNL d   1       8.267   5.154 -10.996  0.00  0.00    -0.158 NA
BRANCH   7   8
ATOM      8  S   UNL d   1       8.018   5.431 -12.681  0.00  0.00     0.285 S 
ATOM      9  O   UNL d   1       7.020   6.507 -12.771  0.00  0.00    -0.198 OA
ATOM     10  O   UNL d   1       9.352   5.566 -13.282  0.00  0.00    -0.198 OA
BRANCH   8  11
ATOM     11  C   UNL d   1       7.287   3.901 -13.224  0.00  0.00     0.105 A 
ATOM     12  C   UNL d   1       5.999   3.537 -12.782  0.00  0.00     0.013 A 
ATOM     13  C   UNL d   1       5.466   2.293 -13.178  0.00  0.00    -0.004 A 
ATOM     14  C   UNL d   1       6.195   1.433 -14.030  0.00  0.00    -0.022 A 
ATOM     15  C   UNL d   1       7.490   1.810 -14.452  0.00  0.00    -0.004 A 
ATOM     16  C   UNL d   1       8.035   3.042 -14.050  0.00  0.00     0.013 A 
BRANCH  14  17
ATOM     17  C   UNL d   1       5.593   0.106 -14.473  0.00  0.00     0.022 C 
ATOM     18  C   UNL d   1       6.303  -1.075 -13.806  0.00  0.00     0.005 C 
ATOM     19  C   UNL d   1       5.594  -0.042 -16.003  0.00  0.00     0.005 C 
ENDBRANCH  14  17
ENDBRANCH   8  11
ENDBRANCH   7   8
ENDBRANCH   4   7
BRANCH   1  20
ATOM     20  C   UNL d   1      11.615   8.095  -7.362  0.00  0.00     0.052 A 
ATOM     21  C   UNL d   1      11.668   9.562  -7.456  0.00  0.00     0.039 A 
ATOM     22  C   UNL d   1      11.550  10.131  -6.063  0.00  0.00     0.251 C 
ATOM     23  C   UNL d   1      12.873   8.765  -7.908  0.00  0.00     0.008 A 
ATOM     24  N   UNL d   1      11.918   9.016  -5.189  0.00  0.00     0.137 N 
ATOM     25  C   UNL d   1      11.444   7.803  -5.874  0.00  0.00     0.254 C 
BRANCH  24  26
ATOM     26  C   UNL d   1      11.379   9.177  -3.845  0.00  0.00     0.250 C 
ATOM     27  C   UNL d   1      11.828   8.024  -2.925  0.00  0.00     0.037 C 
ENDBRANCH  24  26
ENDBRANCH   1  20
TORSDOF 6
