REMARK  5 active torsions:
REMARK  status: ('A' for Active; 'I' for Inactive)
REMARK    1  A    between atoms: N_2  and  C_3 
REMARK    2  A    between atoms: N_11  and  S_12 
REMARK    3  A    between atoms: S_12  and  C_15 
REMARK    4  A    between atoms: C_22  and  C_23 
REMARK    5  A    between atoms: C_23  and  C_24 
ROOT
ATOM      1  C   UNL d   1      11.746   8.473  -7.451  0.00  0.00     0.283 A 
ATOM      2  C   UNL d   1      11.139   8.259  -8.803  0.00  0.00     0.008 A 
ATOM      3  C   UNL d   1      11.036   8.790 -10.091  0.00  0.00    -0.001 A 
ATOM      4  C   UNL d   1      10.243   8.003 -10.970  0.00  0.00     0.018 A 
ATOM      5  C   UNL d   1       9.643   6.768 -10.549  0.00  0.00     0.075 A 
ATOM      6  C   UNL d   1       9.801   6.298  -9.267  0.00  0.00     0.014 A 
ATOM      7  C   UNL d   1       9.172   5.067  -9.042  0.00  0.00     0.021 A 
ATOM      8  C   UNL d   1       8.578   4.799 -10.240  0.00  0.00     0.092 A 
ATOM      9  N   UNL d   1       8.852   5.792 -11.154  0.00  0.00    -0.231 N 
ATOM     10  C   UNL d   1      10.542   7.042  -8.392  0.00  0.00    -0.021 A 
ATOM     11  C   UNL d   1      11.007   7.125  -6.968  0.00  0.00     0.063 A 
ENDROOT
BRANCH   9  12
ATOM     12  S   UNL d   1       8.331   5.806 -12.783  0.00  0.00     0.271 S 
ATOM     13  O   UNL d   1       7.516   7.016 -12.868  0.00  0.00    -0.200 OA
ATOM     14  O   UNL d   1       9.572   5.615 -13.574  0.00  0.00    -0.200 OA
BRANCH  12  15
ATOM     15  C   UNL d   1       7.259   4.371 -13.037  0.00  0.00     0.104 A 
ATOM     16  C   UNL d   1       6.175   4.176 -12.165  0.00  0.00     0.013 A 
ATOM     17  C   UNL d   1       5.440   2.977 -12.260  0.00  0.00     0.001 A 
ATOM     18  C   UNL d   1       5.699   2.023 -13.252  0.00  0.00     0.000 A 
ATOM     19  C   UNL d   1       6.751   2.248 -14.156  0.00  0.00     0.001 A 
ATOM     20  C   UNL d   1       7.536   3.418 -14.043  0.00  0.00     0.013 A 
ENDBRANCH  12  15
ENDBRANCH   9  12
BRANCH  11  21
ATOM     21  C   UNL d   1       9.876   7.230  -5.935  0.00  0.00     0.042 C 
BRANCH  21  22
ATOM     22  C   UNL d   1       8.515   7.585  -6.511  0.00  0.00     0.183 C 
ATOM     23  O   UNL d   1       7.859   6.396  -6.841  0.00  0.00    -0.221 OA
ENDBRANCH  21  22
ENDBRANCH  11  21
BRANCH   1  24
ATOM     24  N   UNL d   1      11.461   9.791  -6.915  0.00  0.00     0.344 N 
ATOM     25  C   UNL d   1      12.023   9.962  -5.591  0.00  0.00     0.329 C 
ENDBRANCH   1  24
TORSDOF 5
