REMARK  11 active torsions:
REMARK  status: ('A' for Active; 'I' for Inactive)
REMARK    1  A    between atoms: C_2  and  N_3 
REMARK    2  A    between atoms: N_3  and  C_4 
REMARK    3  A    between atoms: N_3  and  C_21 
REMARK    4  A    between atoms: C_4  and  C_5 
REMARK    5  A    between atoms: C_5  and  C_6 
REMARK    6  A    between atoms: C_6  and  C_7 
REMARK    7  A    between atoms: C_7  and  N_8 
REMARK       I    between atoms: N_8  and  C_9 
REMARK    8  A    between atoms: C_9  and  C_11 
REMARK    9  A    between atoms: C_21  and  C_22 
REMARK   10  A    between atoms: C_24  and  C_25 
REMARK   11  A    between atoms: C_31  and  O_32 
ROOT
ATOM      1  C   UNL d   1       8.029   4.822 -12.309  0.00  0.00     0.250 C 
ENDROOT
BRANCH   1   2
ATOM      2  N   UNL d   1       7.747   4.383 -13.681  0.00  0.00     0.137 N 
BRANCH   2   3
ATOM      3  C   UNL d   1       6.745   3.324 -13.803  0.00  0.00     0.250 C 
ATOM      4  C   UNL d   1       5.441   3.651 -13.072  0.00  0.00     0.037 C 
ENDBRANCH   2   3
BRANCH   2   5
ATOM      5  C   UNL d   1       8.970   3.965 -14.383  0.00  0.00     0.251 C 
BRANCH   5   6
ATOM      6  C   UNL d   1       9.572   2.687 -13.800  0.00  0.00     0.038 A 
ATOM      7  C   UNL d   1      10.844   2.105 -14.398  0.00  0.00     0.026 A 
ATOM      8  C   UNL d   1       9.512   1.405 -14.591  0.00  0.00     0.007 A 
BRANCH   7   9
ATOM      9  C   UNL d   1      11.498   2.810 -15.561  0.00  0.00     0.002 A 
ATOM     10  C   UNL d   1      11.679   2.127 -16.783  0.00  0.00     0.090 A 
ATOM     11  C   UNL d   1      12.259   2.820 -17.877  0.00  0.00     0.026 A 
ATOM     12  C   UNL d   1      12.645   4.168 -17.744  0.00  0.00     0.032 A 
ATOM     13  C   UNL d   1      12.478   4.832 -16.513  0.00  0.00     0.140 A 
ATOM     14  C   UNL d   1      11.928   4.141 -15.417  0.00  0.00     0.027 A 
ATOM     15  F   UNL d   1      12.812   6.140 -16.391  0.00  0.00    -0.204 F 
BRANCH  10  16
ATOM     16  O   UNL d   1      11.259   0.815 -16.841  0.00  0.00    -0.328 OA
ATOM     17  C   UNL d   1      11.468   0.088 -18.038  0.00  0.00     0.181 C 
ENDBRANCH  10  16
ENDBRANCH   7   9
ENDBRANCH   5   6
ENDBRANCH   2   5
ENDBRANCH   1   2
BRANCH   1  18
ATOM     18  C   UNL d   1       8.813   6.145 -12.281  0.00  0.00     0.037 C 
BRANCH  18  19
ATOM     19  C   UNL d   1       9.145   6.464 -10.828  0.00  0.00     0.029 C 
BRANCH  19  20
ATOM     20  C   UNL d   1       9.753   7.848 -10.634  0.00  0.00     0.129 C 
BRANCH  20  21
ATOM     21  N   UNL d   1      10.032   8.155  -9.237  0.00  0.00    -0.234 NA
ATOM     22  C   UNL d   1      10.290   7.292  -8.242  0.00  0.00     0.275 C 
ATOM     23  O   UNL d   1      10.272   6.058  -8.381  0.00  0.00    -0.266 OA
BRANCH  22  24
ATOM     24  C   UNL d   1      10.667   7.910  -6.921  0.00  0.00     0.058 A 
ATOM     25  C   UNL d   1      11.058   7.089  -5.853  0.00  0.00     0.005 A 
ATOM     26  C   UNL d   1      11.464   7.641  -4.626  0.00  0.00     0.000 A 
ATOM     27  C   UNL d   1      11.462   9.044  -4.447  0.00  0.00     0.000 A 
ATOM     28  C   UNL d   1      11.864   6.787  -3.574  0.00  0.00     0.000 A 
ATOM     29  C   UNL d   1      11.065   9.888  -5.502  0.00  0.00     0.000 A 
ATOM     30  C   UNL d   1      11.857   9.591  -3.212  0.00  0.00     0.000 A 
ATOM     31  C   UNL d   1      10.674   9.312  -6.731  0.00  0.00     0.005 A 
ATOM     32  C   UNL d   1      12.261   8.740  -2.164  0.00  0.00     0.000 A 
ATOM     33  C   UNL d   1      12.264   7.346  -2.346  0.00  0.00     0.000 A 
ENDBRANCH  22  24
ENDBRANCH  20  21
ENDBRANCH  19  20
ENDBRANCH  18  19
ENDBRANCH   1  18
TORSDOF 11
