REMARK  4 active torsions:
REMARK  status: ('A' for Active; 'I' for Inactive)
REMARK    1  A    between atoms: C_7  and  O_8 
REMARK    2  A    between atoms: O_8  and  C_9 
REMARK    3  A    between atoms: C_9  and  C_10 
REMARK    4  A    between atoms: C_20  and  C_21 
ROOT
ATOM      1  O   UNL d   1       9.106   8.818  -6.224  0.00  0.00    -0.291 OA
ATOM      2  C   UNL d   1       9.934   8.587  -7.068  0.00  0.00     0.177 C 
ATOM      3  C   UNL d   1       9.577   8.767  -8.546  0.00  0.00     0.097 C 
ATOM      4  C   UNL d   1       9.898   7.430  -9.223  0.00  0.00     0.106 C 
ATOM      5  C   UNL d   1       9.045   6.214  -8.736  0.00  0.00     0.031 C 
ATOM      6  C   UNL d   1       9.118   4.954  -9.613  0.00  0.00     0.032 C 
ATOM      7  C   UNL d   1       8.763   5.262 -11.086  0.00  0.00     0.116 C 
ATOM      8  C   UNL d   1       9.659   6.386 -11.590  0.00  0.00     0.032 C 
ATOM      9  C   UNL d   1       9.709   7.644 -10.739  0.00  0.00     0.031 C 
ATOM     10  O   UNL d   1      11.276   7.165  -8.983  0.00  0.00    -0.333 OA
ATOM     11  C   UNL d   1      11.726   7.242  -7.682  0.00  0.00     0.119 C 
ATOM     12  C   UNL d   1      11.163   7.935  -6.699  0.00  0.00     0.059 C 
ENDROOT
BRANCH  12  13
ATOM     13  C   UNL d   1      11.596   7.934  -5.284  0.00  0.00     0.005 A 
ATOM     14  C   UNL d   1      11.817   9.167  -4.640  0.00  0.00     0.000 A 
ATOM     15  C   UNL d   1      12.254   9.199  -3.299  0.00  0.00     0.000 A 
ATOM     16  C   UNL d   1      12.461   8.001  -2.592  0.00  0.00     0.000 A 
ATOM     17  C   UNL d   1      12.232   6.768  -3.230  0.00  0.00     0.000 A 
ATOM     18  C   UNL d   1      11.789   6.739  -4.568  0.00  0.00     0.000 A 
ENDBRANCH  12  13
BRANCH   7  19
ATOM     19  O   UNL d   1       9.096   4.125 -11.868  0.00  0.00    -0.352 OA
BRANCH  19  20
ATOM     20  C   UNL d   1       8.475   4.059 -13.146  0.00  0.00     0.169 C 
BRANCH  20  21
ATOM     21  C   UNL d   1       9.065   2.964 -14.008  0.00  0.00     0.007 A 
ATOM     22  C   UNL d   1      10.431   3.011 -14.357  0.00  0.00    -0.002 A 
ATOM     23  C   UNL d   1      10.987   1.995 -15.159  0.00  0.00    -0.000 A 
ATOM     24  C   UNL d   1      10.178   0.929 -15.601  0.00  0.00    -0.000 A 
ATOM     25  C   UNL d   1       8.812   0.885 -15.255  0.00  0.00    -0.000 A 
ATOM     26  C   UNL d   1       8.255   1.905 -14.463  0.00  0.00    -0.002 A 
ENDBRANCH  20  21
ENDBRANCH  19  20
ENDBRANCH   7  19
TORSDOF 4
