REMARK  9 active torsions:
REMARK  status: ('A' for Active; 'I' for Inactive)
REMARK    1  A    between atoms: N_2  and  C_4 
REMARK    2  A    between atoms: C_9  and  S_10 
REMARK    3  A    between atoms: S_10  and  N_13 
REMARK    4  A    between atoms: N_13  and  C_14 
REMARK    5  A    between atoms: C_14  and  C_15 
REMARK    6  A    between atoms: C_18  and  C_19 
REMARK    7  A    between atoms: C_19  and  N_20 
REMARK    8  A    between atoms: N_20  and  C_21 
REMARK    9  A    between atoms: C_21  and  C_22 
ROOT
ATOM      1  C   UNL d   1       9.196   4.705 -12.770  0.00  0.00     0.025 C 
ATOM      2  C   UNL d   1       8.107   5.808 -12.871  0.00  0.00     0.002 C 
ATOM      3  C   UNL d   1       8.585   7.074 -12.189  0.00  0.00     0.002 C 
ATOM      4  C   UNL d   1       8.943   6.807 -10.715  0.00  0.00     0.036 C 
ATOM      5  C   UNL d   1       9.925   5.682 -10.579  0.00  0.00     0.002 C 
ATOM      6  C   UNL d   1       9.485   4.413 -11.287  0.00  0.00     0.002 C 
ENDROOT
BRANCH   1   7
ATOM      7  C   UNL d   1       8.662   3.434 -13.357  0.00  0.00     0.139 C 
BRANCH   7   8
ATOM      8  N   UNL d   1       8.635   3.447 -14.818  0.00  0.00    -0.185 NA
BRANCH   8   9
ATOM      9  S   UNL d   1       8.776   1.987 -15.751  0.00  0.00     0.283 S 
ATOM     10  O   UNL d   1       9.959   1.268 -15.249  0.00  0.00    -0.199 OA
ATOM     11  O   UNL d   1       8.712   2.423 -17.162  0.00  0.00    -0.199 OA
BRANCH   9  12
ATOM     12  C   UNL d   1       7.276   1.007 -15.371  0.00  0.00     0.127 A 
ATOM     13  C   UNL d   1       6.821  -0.027 -16.245  0.00  0.00     0.139 A 
ATOM     14  C   UNL d   1       5.623  -0.722 -15.902  0.00  0.00     0.024 A 
ATOM     15  C   UNL d   1       4.894  -0.408 -14.725  0.00  0.00     0.002 A 
ATOM     16  C   UNL d   1       5.380   0.615 -13.887  0.00  0.00     0.001 A 
ATOM     17  C   UNL d   1       6.540   1.296 -14.209  0.00  0.00     0.015 A 
BRANCH  13  18
ATOM     18  N   UNL d   1       7.547  -0.444 -17.478  0.00  0.00    -0.113 N 
ATOM     19  O   UNL d   1       6.854  -0.768 -18.443  0.00  0.00    -0.532 OA
ATOM     20  O   UNL d   1       8.781  -0.468 -17.467  0.00  0.00    -0.532 OA
ENDBRANCH  13  18
ENDBRANCH   9  12
ENDBRANCH   8   9
ENDBRANCH   7   8
ENDBRANCH   1   7
BRANCH   4  21
ATOM     21  C   UNL d   1       9.512   8.100 -10.088  0.00  0.00     0.290 C 
BRANCH  21  22
ATOM     22  N   UNL d   1       9.575   7.945  -8.645  0.00  0.00     0.339 N 
BRANCH  22  23
ATOM     23  C   UNL d   1      10.126   9.151  -8.061  0.00  0.00     0.290 C 
BRANCH  23  24
ATOM     24  C   UNL d   1      10.288   8.980  -6.548  0.00  0.00     0.041 C 
ATOM     25  C   UNL d   1      11.173   7.777  -6.192  0.00  0.00     0.028 C 
ATOM     26  C   UNL d   1      11.555   7.726  -4.726  0.00  0.00    -0.026 A 
ATOM     27  C   UNL d   1      11.458   8.859  -3.891  0.00  0.00    -0.026 A 
ATOM     28  C   UNL d   1      12.042   6.525  -4.190  0.00  0.00    -0.005 A 
ATOM     29  C   UNL d   1      10.873  10.146  -4.399  0.00  0.00     0.026 C 
ATOM     30  C   UNL d   1      11.866   8.781  -2.549  0.00  0.00    -0.005 A 
ATOM     31  C   UNL d   1      10.869  10.252  -5.917  0.00  0.00     0.007 C 
ATOM     32  C   UNL d   1      12.362   7.579  -2.033  0.00  0.00    -0.000 A 
ATOM     33  C   UNL d   1      12.458   6.450  -2.853  0.00  0.00    -0.000 A 
ENDBRANCH  23  24
ENDBRANCH  22  23
ENDBRANCH  21  22
ENDBRANCH   4  21
TORSDOF 9
