REMARK  2 active torsions:
REMARK  status: ('A' for Active; 'I' for Inactive)
REMARK    1  A    between atoms: N_2  and  C_4 
REMARK    2  A    between atoms: C_4  and  C_5 
ROOT
ATOM      1  C   UNL d   1       7.142   0.200 -15.456  0.00  0.00     0.149 C 
ATOM      2  C   UNL d   1       6.698   1.234 -14.412  0.00  0.00     0.039 C 
ATOM      3  C   UNL d   1       7.942   2.073 -14.254  0.00  0.00     0.058 C 
ATOM      4  C   UNL d   1       7.790   3.446 -13.634  0.00  0.00     0.003 A 
ATOM      5  C   UNL d   1       6.544   4.005 -13.266  0.00  0.00    -0.002 A 
ATOM      6  C   UNL d   1       6.496   5.277 -12.666  0.00  0.00    -0.000 A 
ATOM      7  C   UNL d   1       7.687   5.992 -12.434  0.00  0.00     0.002 A 
ATOM      8  C   UNL d   1       8.931   5.421 -12.768  0.00  0.00     0.024 A 
ATOM      9  C   UNL d   1       8.979   4.149 -13.367  0.00  0.00     0.096 A 
ATOM     10  O   UNL d   1      10.185   3.547 -13.613  0.00  0.00    -0.308 OA
ATOM     11  C   UNL d   1      10.588   3.377 -14.912  0.00  0.00     0.098 A 
ATOM     12  C   UNL d   1      11.861   3.887 -15.233  0.00  0.00     0.025 A 
ATOM     13  C   UNL d   1      12.379   3.750 -16.533  0.00  0.00     0.013 A 
ATOM     14  C   UNL d   1      11.628   3.089 -17.520  0.00  0.00     0.058 A 
ATOM     15 CL   UNL d   1      12.258   2.914 -19.116  0.00  0.00    -0.082 Cl
ATOM     16  C   UNL d   1      10.361   2.567 -17.207  0.00  0.00     0.011 A 
ATOM     17  C   UNL d   1       9.829   2.692 -15.909  0.00  0.00     0.029 A 
ATOM     18  C   UNL d   1       8.422   2.142 -15.691  0.00  0.00     0.143 C 
ATOM     19  O   UNL d   1       8.222   0.811 -16.171  0.00  0.00    -0.352 OA
ENDROOT
BRANCH   1  20
ATOM     20  C   UNL d   1       6.035  -0.228 -16.444  0.00  0.00     0.280 C 
BRANCH  20  21
ATOM     21  N   UNL d   1       5.035  -1.175 -15.938  0.00  0.00     0.144 N 
ATOM     22  C   UNL d   1       4.225  -0.651 -14.846  0.00  0.00     0.286 C 
ATOM     23  C   UNL d   1       4.170  -1.644 -17.015  0.00  0.00     0.286 C 
ENDBRANCH  20  21
ENDBRANCH   1  20
TORSDOF 2
