REMARK  6 active torsions:
REMARK  status: ('A' for Active; 'I' for Inactive)
REMARK    1  A    between atoms: N_11  and  C_12 
REMARK    2  A    between atoms: C_12  and  C_13 
REMARK    3  A    between atoms: C_13  and  C_14 
REMARK    4  A    between atoms: C_14  and  C_15 
REMARK    5  A    between atoms: C_15  and  N_16 
REMARK    6  A    between atoms: N_19  and  C_20 
ROOT
ATOM      1  N   UNL d   1       7.870   5.353 -12.093  0.00  0.00     0.141 N 
ATOM      2  C   UNL d   1       8.252   4.772 -10.803  0.00  0.00     0.274 C 
ATOM      3  C   UNL d   1       8.481   5.835  -9.735  0.00  0.00     0.137 C 
ATOM      4  N   UNL d   1       9.440   6.816 -10.230  0.00  0.00    -0.344 N 
ATOM      5  C   UNL d   1       9.142   7.402 -11.550  0.00  0.00     0.137 C 
ATOM      6  C   UNL d   1       8.926   6.263 -12.550  0.00  0.00     0.274 C 
ENDROOT
BRANCH   1   7
ATOM      7  C   UNL d   1       7.737   4.279 -13.061  0.00  0.00     0.251 C 
BRANCH   7   8
ATOM      8  C   UNL d   1       6.427   3.507 -12.823  0.00  0.00     0.037 C 
BRANCH   8   9
ATOM      9  C   UNL d   1       6.072   2.680 -14.041  0.00  0.00     0.027 C 
BRANCH   9  10
ATOM     10  C   UNL d   1       7.106   1.631 -14.487  0.00  0.00     0.112 C 
BRANCH  10  11
ATOM     11  N   UNL d   1       6.582   0.782 -15.564  0.00  0.00    -0.264 N 
ATOM     12  C   UNL d   1       6.783   0.998 -16.884  0.00  0.00     0.263 A 
ATOM     13  O   UNL d   1       7.413   1.916 -17.429  0.00  0.00    -0.267 OA
ATOM     14  C   UNL d   1       6.073  -0.081 -17.604  0.00  0.00     0.061 A 
ATOM     15  C   UNL d   1       5.477  -0.879 -16.653  0.00  0.00     0.061 A 
ATOM     16  C   UNL d   1       5.955  -0.339 -18.977  0.00  0.00     0.005 A 
ATOM     17  C   UNL d   1       4.716  -2.007 -16.998  0.00  0.00     0.005 A 
ATOM     18  C   UNL d   1       5.808  -0.316 -15.323  0.00  0.00     0.263 A 
ATOM     19  C   UNL d   1       4.576  -2.293 -18.376  0.00  0.00     0.000 A 
ATOM     20  C   UNL d   1       5.189  -1.467 -19.358  0.00  0.00     0.000 A 
ATOM     21  O   UNL d   1       5.428  -0.756 -14.240  0.00  0.00    -0.267 OA
ENDBRANCH  10  11
ENDBRANCH   9  10
ENDBRANCH   8   9
ENDBRANCH   7   8
ENDBRANCH   1   7
BRANCH   4  22
ATOM     22  C   UNL d   1      10.406   7.382  -9.349  0.00  0.00     0.057 C 
ATOM     23  C   UNL d   1      10.366   7.295  -7.926  0.00  0.00     0.022 C 
ATOM     24  C   UNL d   1      11.518   7.806  -7.209  0.00  0.00     0.031 C 
ATOM     25  C   UNL d   1       9.356   6.835  -6.980  0.00  0.00     0.009 C 
ATOM     26  C   UNL d   1      12.594   8.411  -7.879  0.00  0.00     0.007 C 
ATOM     27  S   UNL d   1      11.397   7.514  -5.496  0.00  0.00    -0.086 SA
ATOM     28  C   UNL d   1      12.607   8.389  -9.264  0.00  0.00     0.002 C 
ATOM     29  C   UNL d   1      11.461   8.042  -9.956  0.00  0.00     0.017 C 
ATOM     30  C   UNL d   1       9.857   6.787  -5.712  0.00  0.00     0.035 C 
ENDBRANCH   4  22
TORSDOF 6
