REMARK  5 active torsions:
REMARK  status: ('A' for Active; 'I' for Inactive)
REMARK    1  A    between atoms: N_7  and  C_8 
REMARK    2  A    between atoms: C_8  and  C_9 
REMARK    3  A    between atoms: C_9  and  C_11 
REMARK    4  A    between atoms: C_11  and  N_12 
REMARK    5  A    between atoms: N_15  and  C_16 
ROOT
ATOM      1  C   UNL d   1       9.713   3.061 -14.758  0.00  0.00     0.066 A 
ATOM      2  C   UNL d   1       8.953   1.874 -14.741  0.00  0.00     0.018 A 
ATOM      3  C   UNL d   1       9.308   0.779 -15.544  0.00  0.00     0.002 A 
ATOM      4  C   UNL d   1      10.434   0.861 -16.383  0.00  0.00     0.001 A 
ATOM      5  C   UNL d   1      11.198   2.042 -16.410  0.00  0.00     0.012 A 
ATOM      6  C   UNL d   1      10.851   3.144 -15.613  0.00  0.00     0.084 A 
ATOM      7  C   UNL d   1      11.686   4.341 -15.733  0.00  0.00     0.102 C 
ATOM      8  N   UNL d   1      12.345   5.287 -15.822  0.00  0.00    -0.191 NA
ENDROOT
BRANCH   1   9
ATOM      9  N   UNL d   1       9.313   4.114 -13.915  0.00  0.00    -0.344 N 
ATOM     10  C   UNL d   1      10.258   4.885 -13.137  0.00  0.00     0.137 C 
ATOM     11  C   UNL d   1       9.816   4.923 -11.689  0.00  0.00     0.274 C 
ATOM     12  N   UNL d   1       8.483   5.452 -11.536  0.00  0.00     0.144 N 
ATOM     13  C   UNL d   1       7.548   4.609 -12.277  0.00  0.00     0.274 C 
ATOM     14  C   UNL d   1       7.924   4.521 -13.768  0.00  0.00     0.137 C 
BRANCH  12  15
ATOM     15  C   UNL d   1       8.101   5.517 -10.135  0.00  0.00     0.285 C 
BRANCH  15  16
ATOM     16  C   UNL d   1       9.140   6.066  -9.109  0.00  0.00     0.208 C 
ATOM     17  O   UNL d   1       8.454   6.051  -7.890  0.00  0.00    -0.219 OA
BRANCH  16  18
ATOM     18  C   UNL d   1       9.779   7.452  -9.468  0.00  0.00     0.148 C 
BRANCH  18  19
ATOM     19  N   UNL d   1      10.595   8.003  -8.394  0.00  0.00    -0.247 N 
ATOM     20  C   UNL d   1      11.904   8.271  -8.489  0.00  0.00     0.348 A 
ATOM     21  N   UNL d   1      12.310   8.793  -7.332  0.00  0.00    -0.213 NA
ATOM     22  O   UNL d   1      12.617   8.053  -9.467  0.00  0.00    -0.245 OA
ATOM     23  C   UNL d   1      11.244   8.874  -6.351  0.00  0.00     0.160 A 
ATOM     24  C   UNL d   1      11.530   7.939  -5.165  0.00  0.00     0.034 C 
ATOM     25  C   UNL d   1      10.100   8.374  -7.213  0.00  0.00     0.261 A 
ATOM     26  C   UNL d   1      11.005  10.323  -5.920  0.00  0.00     0.034 C 
ATOM     27  O   UNL d   1       8.918   8.365  -6.859  0.00  0.00    -0.270 OA
ENDBRANCH  18  19
ENDBRANCH  16  18
ENDBRANCH  15  16
ENDBRANCH  12  15
ENDBRANCH   1   9
TORSDOF 5
