REMARK  12 active torsions:
REMARK  status: ('A' for Active; 'I' for Inactive)
REMARK    1  A    between atoms: C_2  and  C_3 
REMARK    2  A    between atoms: C_3  and  N_4 
REMARK    3  A    between atoms: N_4  and  C_5 
REMARK    4  A    between atoms: N_4  and  C_24 
REMARK    5  A    between atoms: C_5  and  C_6 
REMARK    6  A    between atoms: C_6  and  C_7 
REMARK    7  A    between atoms: C_7  and  C_8 
REMARK    8  A    between atoms: C_8  and  N_9 
REMARK       I    between atoms: N_9  and  C_10 
REMARK    9  A    between atoms: C_10  and  C_12 
REMARK   10  A    between atoms: C_15  and  C_16 
REMARK   11  A    between atoms: C_27  and  C_28 
REMARK   12  A    between atoms: C_29  and  C_30 
ROOT
ATOM      1  C   UNL d   1      10.728   3.764 -14.844  0.00  0.00     0.250 C 
ENDROOT
BRANCH   1   2
ATOM      2  N   UNL d   1      10.573   3.451 -16.263  0.00  0.00     0.135 N 
BRANCH   2   3
ATOM      3  C   UNL d   1      11.851   3.181 -16.930  0.00  0.00     0.250 C 
BRANCH   3   4
ATOM      4  C   UNL d   1      12.786   4.397 -16.986  0.00  0.00     0.035 C 
ATOM      5  C   UNL d   1      12.231   5.509 -17.884  0.00  0.00     0.002 C 
ENDBRANCH   3   4
ENDBRANCH   2   3
BRANCH   2   6
ATOM      6  C   UNL d   1       9.565   2.394 -16.464  0.00  0.00     0.224 C 
ATOM      7  C   UNL d   1      10.070   1.002 -16.030  0.00  0.00     0.039 C 
ATOM      8  C   UNL d   1       8.970  -0.050 -16.128  0.00  0.00     0.036 C 
ATOM      9  C   UNL d   1       8.161   0.062 -17.411  0.00  0.00     0.015 C 
ATOM     10  C   UNL d   1       8.183   1.153 -18.200  0.00  0.00    -0.020 C 
ATOM     11  C   UNL d   1       9.015   2.390 -17.912  0.00  0.00     0.059 C 
BRANCH   9  12
ATOM     12  C   UNL d   1       7.365  -1.050 -17.780  0.00  0.00    -0.064 C 
ATOM     13  C   UNL d   1       6.632  -1.988 -18.055  0.00  0.00    -0.060 C 
BRANCH  13  14
ATOM     14  C   UNL d   1       5.736  -3.083 -18.370  0.00  0.00     0.042 A 
ATOM     15  C   UNL d   1       6.168  -4.417 -18.222  0.00  0.00     0.008 A 
ATOM     16  C   UNL d   1       5.295  -5.476 -18.535  0.00  0.00     0.001 A 
ATOM     17  C   UNL d   1       3.990  -5.198 -18.996  0.00  0.00     0.000 A 
ATOM     18  C   UNL d   1       3.559  -3.863 -19.143  0.00  0.00     0.001 A 
ATOM     19  C   UNL d   1       4.431  -2.806 -18.827  0.00  0.00     0.008 A 
ENDBRANCH  13  14
ENDBRANCH   9  12
ENDBRANCH   2   6
ENDBRANCH   1   2
BRANCH   1  20
ATOM     20  C   UNL d   1       9.600   4.679 -14.360  0.00  0.00     0.037 C 
BRANCH  20  21
ATOM     21  C   UNL d   1       9.840   5.071 -12.911  0.00  0.00     0.029 C 
BRANCH  21  22
ATOM     22  C   UNL d   1       9.328   6.482 -12.564  0.00  0.00     0.129 C 
BRANCH  22  23
ATOM     23  N   UNL d   1       9.627   6.845 -11.183  0.00  0.00    -0.234 NA
ATOM     24  C   UNL d   1       9.265   6.156 -10.094  0.00  0.00     0.275 C 
ATOM     25  O   UNL d   1       8.527   5.168 -10.111  0.00  0.00    -0.266 OA
BRANCH  24  26
ATOM     26  C   UNL d   1       9.809   6.667  -8.792  0.00  0.00     0.058 A 
ATOM     27  C   UNL d   1      11.038   7.364  -8.717  0.00  0.00     0.005 A 
ATOM     28  C   UNL d   1      11.542   7.790  -7.473  0.00  0.00     0.000 A 
ATOM     29  C   UNL d   1      10.845   7.502  -6.278  0.00  0.00     0.000 A 
ATOM     30  C   UNL d   1       9.626   6.797  -6.361  0.00  0.00     0.000 A 
ATOM     31  C   UNL d   1       9.109   6.393  -7.602  0.00  0.00     0.005 A 
BRANCH  29  32
ATOM     32  C   UNL d   1      11.374   7.934  -4.977  0.00  0.00     0.000 A 
ATOM     33  C   UNL d   1      11.384   9.300  -4.630  0.00  0.00     0.000 A 
ATOM     34  C   UNL d   1      11.858   9.711  -3.369  0.00  0.00     0.000 A 
ATOM     35  C   UNL d   1      12.347   8.770  -2.448  0.00  0.00     0.000 A 
ATOM     36  C   UNL d   1      12.342   7.405  -2.784  0.00  0.00     0.000 A 
ATOM     37  C   UNL d   1      11.861   6.994  -4.042  0.00  0.00     0.000 A 
ENDBRANCH  29  32
ENDBRANCH  24  26
ENDBRANCH  22  23
ENDBRANCH  21  22
ENDBRANCH  20  21
ENDBRANCH   1  20
TORSDOF 12
