REMARK  6 active torsions:
REMARK  status: ('A' for Active; 'I' for Inactive)
REMARK    1  A    between atoms: C_11  and  C_12 
REMARK    2  A    between atoms: C_12  and  C_13 
REMARK    3  A    between atoms: C_13  and  C_14 
REMARK    4  A    between atoms: C_14  and  C_15 
REMARK    5  A    between atoms: C_15  and  N_16 
REMARK    6  A    between atoms: N_19  and  C_20 
ROOT
ATOM      1  C   UNL d   1       9.056   7.030 -11.053  0.00  0.00     0.035 C 
ENDROOT
BRANCH   1   2
ATOM      2  C   UNL d   1       9.182   6.488 -12.484  0.00  0.00     0.003 C 
BRANCH   2   3
ATOM      3  C   UNL d   1       9.220   4.954 -12.557  0.00  0.00     0.014 C 
BRANCH   3   4
ATOM      4  C   UNL d   1       9.482   4.407 -13.978  0.00  0.00     0.105 A 
ATOM      5  C   UNL d   1      10.953   4.005 -14.222  0.00  0.00     0.259 A 
ATOM      6  O   UNL d   1      11.897   4.784 -14.095  0.00  0.00    -0.270 OA
ATOM      7  N   UNL d   1      11.056   2.716 -14.562  0.00  0.00    -0.212 NA
ATOM      8  C   UNL d   1       9.796   2.116 -14.570  0.00  0.00     0.081 A 
ATOM      9  C   UNL d   1       8.839   3.066 -14.237  0.00  0.00     0.006 A 
ATOM     10  C   UNL d   1       9.456   0.782 -14.846  0.00  0.00     0.021 A 
ATOM     11  C   UNL d   1       7.475   2.735 -14.173  0.00  0.00     0.027 A 
ATOM     12  C   UNL d   1       7.107   1.399 -14.442  0.00  0.00     0.140 A 
ATOM     13  C   UNL d   1       8.088   0.433 -14.775  0.00  0.00     0.031 A 
ATOM     14  F   UNL d   1       5.808   1.033 -14.365  0.00  0.00    -0.204 F 
ENDBRANCH   3   4
ENDBRANCH   2   3
ENDBRANCH   1   2
BRANCH   1  15
ATOM     15  C   UNL d   1      10.364   7.013 -10.231  0.00  0.00     0.250 C 
BRANCH  15  16
ATOM     16  N   UNL d   1      10.237   7.781  -8.994  0.00  0.00     0.141 N 
ATOM     17  C   UNL d   1      11.554   8.273  -8.554  0.00  0.00     0.274 C 
ATOM     18  C   UNL d   1      11.415   9.095  -7.258  0.00  0.00     0.137 C 
ATOM     19  N   UNL d   1      10.749   8.303  -6.245  0.00  0.00    -0.344 N 
ATOM     20  C   UNL d   1       9.480   7.707  -6.635  0.00  0.00     0.137 C 
ATOM     21  C   UNL d   1       9.649   6.930  -7.952  0.00  0.00     0.274 C 
BRANCH  19  22
ATOM     22  C   UNL d   1      11.306   8.145  -4.973  0.00  0.00     0.056 A 
ATOM     23  C   UNL d   1      11.712   9.277  -4.239  0.00  0.00     0.017 A 
ATOM     24  C   UNL d   1      12.255   9.126  -2.952  0.00  0.00     0.002 A 
ATOM     25  C   UNL d   1      12.413   7.848  -2.392  0.00  0.00     0.000 A 
ATOM     26  C   UNL d   1      12.016   6.718  -3.125  0.00  0.00     0.002 A 
ATOM     27  C   UNL d   1      11.459   6.861  -4.411  0.00  0.00     0.017 A 
ENDBRANCH  19  22
ENDBRANCH  15  16
ENDBRANCH   1  15
TORSDOF 6
