REMARK  9 active torsions:
REMARK  status: ('A' for Active; 'I' for Inactive)
REMARK    1  A    between atoms: C_3  and  S_4 
REMARK    2  A    between atoms: S_4  and  C_5 
REMARK    3  A    between atoms: C_5  and  C_6 
REMARK    4  A    between atoms: C_6  and  C_7 
REMARK    5  A    between atoms: C_7  and  N_8 
REMARK    6  A    between atoms: C_12  and  C_13 
REMARK    7  A    between atoms: C_16  and  C_17 
REMARK    8  A    between atoms: C_26  and  C_27 
REMARK    9  A    between atoms: C_31  and  C_32 
ROOT
ATOM      1  C   UNL d   1       9.941   3.647 -15.665  0.00  0.00     0.047 C 
ENDROOT
BRANCH   1   2
ATOM      2  C   UNL d   1      11.029   2.812 -16.364  0.00  0.00     0.067 C 
BRANCH   2   3
ATOM      3  S   UNL d   1      10.848   2.800 -18.181  0.00  0.00    -0.075 SA
BRANCH   3   4
ATOM      4  C   UNL d   1       9.271   2.053 -18.381  0.00  0.00     0.193 A 
ATOM      5  N   UNL d   1       9.046   1.050 -19.280  0.00  0.00    -0.289 N 
ATOM      6  C   UNL d   1      10.000   0.453 -20.220  0.00  0.00     0.134 C 
ATOM      7  C   UNL d   1       7.746   0.771 -19.054  0.00  0.00     0.168 A 
ATOM      8  N   UNL d   1       7.196   1.556 -18.113  0.00  0.00    -0.128 NA
ATOM      9  N   UNL d   1       8.186   2.386 -17.704  0.00  0.00    -0.122 NA
BRANCH   7  10
ATOM     10  C   UNL d   1       6.938  -0.246 -19.730  0.00  0.00     0.055 A 
ATOM     11  C   UNL d   1       6.005  -1.011 -18.995  0.00  0.00     0.011 A 
ATOM     12  C   UNL d   1       5.234  -1.986 -19.669  0.00  0.00     0.079 A 
ATOM     13  C   UNL d   1       5.441  -2.146 -21.058  0.00  0.00     0.104 A 
ATOM     14  N   UNL d   1       6.313  -1.397 -21.775  0.00  0.00    -0.242 NA
ATOM     15  C   UNL d   1       7.029  -0.458 -21.125  0.00  0.00     0.102 A 
BRANCH  12  16
ATOM     16  C   UNL d   1       4.202  -2.820 -18.962  0.00  0.00     0.298 C 
ATOM     17  N   UNL d   1       4.260  -2.829 -17.635  0.00  0.00    -0.102 N 
ATOM     18  O   UNL d   1       3.403  -3.506 -19.598  0.00  0.00    -0.264 OA
ENDBRANCH  12  16
ENDBRANCH   7  10
ENDBRANCH   3   4
ENDBRANCH   2   3
ENDBRANCH   1   2
BRANCH   1  19
ATOM     19  C   UNL d   1      10.197   3.863 -14.173  0.00  0.00     0.251 C 
BRANCH  19  20
ATOM     20  N   UNL d   1       9.207   4.751 -13.562  0.00  0.00     0.143 N 
ATOM     21  C   UNL d   1       9.716   5.283 -12.319  0.00  0.00     0.284 C 
ATOM     22  C   UNL d   1       8.736   6.237 -11.623  0.00  0.00     0.171 C 
ATOM     23  O   UNL d   1       7.517   5.537 -11.385  0.00  0.00    -0.348 OA
ATOM     24  C   UNL d   1       6.926   5.022 -12.577  0.00  0.00     0.178 C 
ATOM     25  C   UNL d   1       7.925   4.088 -13.297  0.00  0.00     0.282 C 
BRANCH  22  26
ATOM     26  C   UNL d   1       9.346   6.736 -10.325  0.00  0.00     0.007 A 
ATOM     27  C   UNL d   1       9.104   6.043  -9.115  0.00  0.00    -0.002 A 
ATOM     28  C   UNL d   1       9.636   6.522  -7.905  0.00  0.00     0.004 A 
ATOM     29  C   UNL d   1      10.432   7.689  -7.891  0.00  0.00     0.071 A 
ATOM     30  C   UNL d   1      10.678   8.378  -9.099  0.00  0.00     0.004 A 
ATOM     31  C   UNL d   1      10.141   7.900 -10.308  0.00  0.00    -0.002 A 
BRANCH  29  32
ATOM     32  C   UNL d   1      11.023   8.208  -6.591  0.00  0.00     0.419 C 
ATOM     33  F   UNL d   1      11.235   7.211  -5.728  0.00  0.00    -0.166 F 
ATOM     34  F   UNL d   1      12.184   8.818  -6.831  0.00  0.00    -0.166 F 
ATOM     35  F   UNL d   1      10.194   9.090  -6.037  0.00  0.00    -0.166 F 
ENDBRANCH  29  32
ENDBRANCH  22  26
ENDBRANCH  19  20
ENDBRANCH   1  19
TORSDOF 9
