REMARK  7 active torsions:
REMARK  status: ('A' for Active; 'I' for Inactive)
REMARK    1  A    between atoms: C_2  and  C_3 
REMARK    2  A    between atoms: N_15  and  C_16 
REMARK    3  A    between atoms: C_16  and  C_17 
REMARK    4  A    between atoms: C_17  and  C_18 
REMARK    5  A    between atoms: C_18  and  S_19 
REMARK    6  A    between atoms: S_19  and  C_20 
REMARK    7  A    between atoms: C_23  and  C_24 
ROOT
ATOM      1  C   UNL d   1      11.935   2.037 -19.387  0.00  0.00     0.047 C 
ENDROOT
BRANCH   1   2
ATOM      2  C   UNL d   1      13.208   2.448 -18.613  0.00  0.00     0.251 C 
BRANCH   2   3
ATOM      3  N   UNL d   1      13.256   3.880 -18.300  0.00  0.00     0.138 N 
ATOM      4  C   UNL d   1      12.426   4.675 -19.207  0.00  0.00     0.255 C 
ATOM      5  C   UNL d   1      12.200   6.110 -18.740  0.00  0.00     0.062 C 
ATOM      6  C   UNL d   1      13.318   7.037 -19.157  0.00  0.00    -0.016 A 
ATOM      7  C   UNL d   1      14.620   6.840 -18.631  0.00  0.00    -0.022 A 
ATOM      8  C   UNL d   1      13.076   8.081 -20.084  0.00  0.00     0.055 A 
ATOM      9  C   UNL d   1      15.683   7.696 -19.011  0.00  0.00     0.017 A 
ATOM     10  C   UNL d   1      14.904   5.691 -17.672  0.00  0.00     0.061 C 
ATOM     11  C   UNL d   1      15.450   8.756 -19.913  0.00  0.00     0.106 A 
ATOM     12  N   UNL d   1      16.282   9.727 -20.437  0.00  0.00    -0.224 NA
ATOM     13  C   UNL d   1      14.147   8.922 -20.429  0.00  0.00     0.125 A 
ATOM     14  C   UNL d   1      15.464  10.429 -21.234  0.00  0.00     0.159 A 
ATOM     15  O   UNL d   1      14.161  10.014 -21.280  0.00  0.00    -0.291 OA
ATOM     16  C   UNL d   1      14.661   4.293 -18.275  0.00  0.00     0.255 C 
ATOM     17 BR   UNL d   1      11.376   8.374 -20.911  0.00  0.00    -0.047 Br
BRANCH  14  18
ATOM     18  C   UNL d   1      15.853  11.628 -22.028  0.00  0.00     0.072 C 
ATOM     19  C   UNL d   1      15.308  11.593 -23.463  0.00  0.00     0.009 C 
ENDBRANCH  14  18
ENDBRANCH   2   3
ENDBRANCH   1   2
BRANCH   1  20
ATOM     20  C   UNL d   1      11.664   0.531 -19.450  0.00  0.00     0.067 C 
BRANCH  20  21
ATOM     21  S   UNL d   1      11.275  -0.201 -17.835  0.00  0.00    -0.075 SA
BRANCH  21  22
ATOM     22  C   UNL d   1       9.806   0.661 -17.372  0.00  0.00     0.193 A 
ATOM     23  N   UNL d   1       9.334   0.607 -16.108  0.00  0.00    -0.289 N 
ATOM     24  C   UNL d   1       8.234   1.380 -16.185  0.00  0.00     0.167 A 
ATOM     25  C   UNL d   1       9.859  -0.143 -14.979  0.00  0.00     0.134 C 
ATOM     26  N   UNL d   1       8.028   1.892 -17.403  0.00  0.00    -0.128 NA
ATOM     27  N   UNL d   1       9.055   1.407 -18.189  0.00  0.00    -0.122 NA
BRANCH  24  28
ATOM     28  C   UNL d   1       7.305   1.588 -15.096  0.00  0.00     0.037 A 
ATOM     29  C   UNL d   1       7.362   2.741 -14.276  0.00  0.00     0.021 A 
ATOM     30  C   UNL d   1       6.389   2.937 -13.257  0.00  0.00     0.081 A 
ATOM     31  C   UNL d   1       8.376   3.712 -14.438  0.00  0.00     0.003 A 
ATOM     32  C   UNL d   1       5.425   1.934 -13.054  0.00  0.00     0.019 A 
ATOM     33  N   UNL d   1       6.395   4.026 -12.454  0.00  0.00    -0.250 NA
ATOM     34  C   UNL d   1       5.368   0.788 -13.866  0.00  0.00     0.002 A 
ATOM     35  C   UNL d   1       6.305   0.619 -14.896  0.00  0.00     0.003 A 
ATOM     36  C   UNL d   1       7.384   4.930 -12.602  0.00  0.00     0.059 A 
ATOM     37  C   UNL d   1       7.357   6.098 -11.636  0.00  0.00     0.052 C 
ATOM     38  C   UNL d   1       8.390   4.825 -13.577  0.00  0.00     0.015 A 
ENDBRANCH  24  28
ENDBRANCH  21  22
ENDBRANCH  20  21
ENDBRANCH   1  20
TORSDOF 7
