REMARK  6 active torsions:
REMARK  status: ('A' for Active; 'I' for Inactive)
REMARK    1  A    between atoms: C_5  and  C_6 
REMARK    2  A    between atoms: C_6  and  C_7 
REMARK    3  A    between atoms: C_7  and  C_8 
REMARK    4  A    between atoms: C_8  and  C_9 
REMARK    5  A    between atoms: C_9  and  N_10 
REMARK    6  A    between atoms: N_13  and  C_14 
ROOT
ATOM      1  N   UNL d   1       8.069   5.424 -11.869  0.00  0.00     0.141 N 
ATOM      2  C   UNL d   1       6.749   4.828 -11.654  0.00  0.00     0.274 C 
ATOM      3  C   UNL d   1       6.143   4.338 -12.977  0.00  0.00     0.138 C 
ATOM      4  N   UNL d   1       7.073   3.429 -13.641  0.00  0.00    -0.330 N 
ATOM      5  C   UNL d   1       8.435   3.936 -13.788  0.00  0.00     0.138 C 
ATOM      6  C   UNL d   1       8.969   4.420 -12.434  0.00  0.00     0.274 C 
ENDROOT
BRANCH   1   7
ATOM      7  C   UNL d   1       8.591   5.874 -10.585  0.00  0.00     0.250 C 
BRANCH   7   8
ATOM      8  C   UNL d   1       9.727   6.881 -10.775  0.00  0.00     0.036 C 
BRANCH   8   9
ATOM      9  C   UNL d   1      10.024   7.657  -9.490  0.00  0.00     0.007 C 
BRANCH   9  10
ATOM     10  C   UNL d   1      10.286   6.775  -8.251  0.00  0.00     0.026 C 
BRANCH  10  11
ATOM     11  C   UNL d   1      10.704   7.542  -7.006  0.00  0.00    -0.022 A 
ATOM     12  C   UNL d   1      11.085   6.821  -5.858  0.00  0.00    -0.003 A 
ATOM     13  C   UNL d   1      11.466   7.495  -4.681  0.00  0.00     0.014 A 
ATOM     14  C   UNL d   1      11.464   8.906  -4.650  0.00  0.00     0.070 A 
ATOM     15  N   UNL d   1      11.845   9.587  -3.497  0.00  0.00    -0.101 NA
ATOM     16  C   UNL d   1      11.090   9.631  -5.799  0.00  0.00     0.014 A 
ATOM     17  C   UNL d   1      10.701   8.961  -6.969  0.00  0.00    -0.003 A 
ENDBRANCH  10  11
ENDBRANCH   9  10
ENDBRANCH   8   9
ENDBRANCH   7   8
ENDBRANCH   1   7
BRANCH   4  18
ATOM     18  C   UNL d   1       6.686   2.147 -14.070  0.00  0.00     0.140 A 
ATOM     19  N   UNL d   1       5.623   1.578 -13.449  0.00  0.00    -0.227 NA
ATOM     20  C   UNL d   1       5.223   0.354 -13.849  0.00  0.00     0.101 A 
ATOM     21  C   UNL d   1       5.860  -0.377 -14.864  0.00  0.00     0.021 A 
ATOM     22  C   UNL d   1       6.969   0.201 -15.501  0.00  0.00     0.005 A 
ATOM     23  C   UNL d   1       7.388   1.486 -15.107  0.00  0.00     0.037 A 
ENDBRANCH   4  18
TORSDOF 6
