REMARK  3 active torsions:
REMARK  status: ('A' for Active; 'I' for Inactive)
REMARK    1  A    between atoms: C_9  and  C_10 
REMARK    2  A    between atoms: C_10  and  C_11 
REMARK    3  A    between atoms: C_11  and  N_12 
ROOT
ATOM      1  C   UNL d   1       8.082   5.146 -12.130  0.00  0.00     0.036 C 
ENDROOT
BRANCH   1   2
ATOM      2  C   UNL d   1       8.149   4.537 -13.536  0.00  0.00     0.011 C 
ATOM      3  C   UNL d   1       9.445   3.715 -13.788  0.00  0.00     0.026 C 
ATOM      4  C   UNL d   1       8.975   2.481 -14.489  0.00  0.00    -0.024 A 
ATOM      5  C   UNL d   1       7.590   2.401 -14.505  0.00  0.00    -0.026 A 
ATOM      6  C   UNL d   1       9.780   1.485 -15.068  0.00  0.00     0.025 A 
ATOM      7  C   UNL d   1       6.933   1.317 -15.108  0.00  0.00    -0.002 A 
ATOM      8  C   UNL d   1       6.955   3.582 -13.824  0.00  0.00     0.026 C 
ATOM      9  C   UNL d   1       7.725   0.315 -15.710  0.00  0.00     0.029 A 
ATOM     10  C   UNL d   1       9.136   0.394 -15.687  0.00  0.00     0.140 A 
ATOM     11  F   UNL d   1       9.877  -0.577 -16.265  0.00  0.00    -0.204 F 
ENDBRANCH   1   2
BRANCH   1  12
ATOM     12  C   UNL d   1       9.375   5.889 -11.731  0.00  0.00     0.251 C 
BRANCH  12  13
ATOM     13  N   UNL d   1       9.339   6.395 -10.367  0.00  0.00     0.142 N 
ATOM     14  C   UNL d   1      10.562   7.161 -10.111  0.00  0.00     0.276 C 
ATOM     15  C   UNL d   1      10.669   7.695  -8.694  0.00  0.00     0.007 A 
ATOM     16  C   UNL d   1       9.912   7.100  -7.664  0.00  0.00    -0.022 A 
ATOM     17  C   UNL d   1      11.562   8.740  -8.389  0.00  0.00    -0.003 A 
ATOM     18  C   UNL d   1       8.952   5.983  -8.001  0.00  0.00     0.061 C 
ATOM     19  C   UNL d   1      10.030   7.556  -6.338  0.00  0.00    -0.004 A 
ATOM     20  C   UNL d   1       9.224   5.338  -9.363  0.00  0.00     0.255 C 
ATOM     21  C   UNL d   1      10.913   8.609  -6.035  0.00  0.00    -0.000 A 
ATOM     22  C   UNL d   1      11.682   9.193  -7.060  0.00  0.00    -0.000 A 
ENDBRANCH  12  13
ENDBRANCH   1  12
TORSDOF 3
