REMARK  7 active torsions:
REMARK  status: ('A' for Active; 'I' for Inactive)
REMARK       I    between atoms: C_2  and  N_3 
REMARK    1  A    between atoms: C_2  and  C_24 
REMARK    2  A    between atoms: N_3  and  C_4 
REMARK    3  A    between atoms: N_7  and  C_8 
REMARK    4  A    between atoms: C_8  and  C_9 
REMARK    5  A    between atoms: C_9  and  O_10 
REMARK    6  A    between atoms: O_10  and  C_11 
REMARK    7  A    between atoms: C_16  and  C_17 
ROOT
ATOM      1  C   UNL d   1      11.591   8.575  -8.827  0.00  0.00     0.142 C 
ATOM      2  C   UNL d   1      10.407   9.492  -9.063  0.00  0.00     0.062 C 
ATOM      3  C   UNL d   1       9.434   8.634  -9.840  0.00  0.00     0.253 C 
ATOM      4  N   UNL d   1      10.276   7.677 -10.538  0.00  0.00     0.142 N 
ATOM      5  C   UNL d   1      11.242   7.264  -9.556  0.00  0.00     0.275 C 
ENDROOT
BRANCH   4   6
ATOM      6  C   UNL d   1       9.517   6.532 -11.056  0.00  0.00     0.283 C 
BRANCH   6   7
ATOM      7  C   UNL d   1       8.720   6.934 -12.299  0.00  0.00     0.184 C 
BRANCH   7   8
ATOM      8  O   UNL d   1       8.742   5.859 -13.229  0.00  0.00    -0.329 OA
BRANCH   8   9
ATOM      9  C   UNL d   1       7.803   4.851 -13.208  0.00  0.00     0.094 A 
ATOM     10  C   UNL d   1       8.059   3.679 -13.982  0.00  0.00     0.022 A 
ATOM     11  C   UNL d   1       7.071   2.668 -14.039  0.00  0.00     0.002 A 
ATOM     12  C   UNL d   1       5.856   2.794 -13.340  0.00  0.00     0.000 A 
ATOM     13  C   UNL d   1       5.606   3.949 -12.591  0.00  0.00     0.002 A 
ATOM     14  C   UNL d   1       6.571   4.971 -12.520  0.00  0.00     0.024 A 
BRANCH  10  15
ATOM     15  C   UNL d   1       9.333   3.483 -14.725  0.00  0.00     0.002 A 
ATOM     16  C   UNL d   1       9.336   2.979 -16.049  0.00  0.00     0.000 A 
ATOM     17  C   UNL d   1      10.543   2.780 -16.752  0.00  0.00     0.000 A 
ATOM     18  C   UNL d   1      11.773   3.084 -16.140  0.00  0.00     0.000 A 
ATOM     19  C   UNL d   1      11.788   3.589 -14.827  0.00  0.00     0.000 A 
ATOM     20  C   UNL d   1      10.579   3.773 -14.126  0.00  0.00     0.000 A 
ENDBRANCH  10  15
ENDBRANCH   8   9
ENDBRANCH   7   8
ENDBRANCH   6   7
ENDBRANCH   4   6
BRANCH   1  21
ATOM     21  N   UNL d   1      11.866   8.422  -7.408  0.00  0.00    -0.234 NA
ATOM     22  C   UNL d   1      11.038   7.915  -6.477  0.00  0.00     0.277 C 
ATOM     23  O   UNL d   1       9.969   7.349  -6.704  0.00  0.00    -0.266 OA
BRANCH  22  24
ATOM     24  C   UNL d   1      11.466   8.131  -5.068  0.00  0.00     0.087 A 
ATOM     25  C   UNL d   1      11.856   7.036  -4.271  0.00  0.00     0.172 A 
ATOM     26  C   UNL d   1      12.255   7.231  -2.938  0.00  0.00     0.168 A 
ATOM     27  F   UNL d   1      11.880   5.796  -4.809  0.00  0.00    -0.202 F 
ATOM     28  C   UNL d   1      12.261   8.532  -2.405  0.00  0.00     0.032 A 
ATOM     29  F   UNL d   1      12.640   6.181  -2.175  0.00  0.00    -0.202 F 
ATOM     30  C   UNL d   1      11.864   9.625  -3.203  0.00  0.00     0.003 A 
ATOM     31  C   UNL d   1      11.475   9.428  -4.538  0.00  0.00     0.007 A 
ENDBRANCH  22  24
ENDBRANCH   1  21
TORSDOF 7
