REMARK  0 active torsions:
REMARK  status: ('A' for Active; 'I' for Inactive)
ROOT
ATOM      1  O   UNL d   1      12.651   8.155  -1.577  0.00  0.00    -0.190 OA
ATOM      2  C   UNL d   1      12.251   7.961  -2.863  0.00  0.00     0.131 A 
ATOM      3  C   UNL d   1      11.497   6.841  -3.212  0.00  0.00     0.027 A 
ATOM      4  C   UNL d   1      10.959   6.750  -4.501  0.00  0.00    -0.001 A 
ATOM      5  C   UNL d   1      11.149   7.743  -5.453  0.00  0.00     0.005 A 
ATOM      6  C   UNL d   1      11.934   8.840  -5.084  0.00  0.00    -0.020 A 
ATOM      7  C   UNL d   1      12.541   8.948  -3.823  0.00  0.00     0.023 A 
ATOM      8  C   UNL d   1      12.181   9.904  -6.109  0.00  0.00     0.061 C 
ATOM      9  C   UNL d   1      11.112   9.895  -7.170  0.00  0.00     0.256 C 
ATOM     10  N   UNL d   1      11.030   8.606  -7.800  0.00  0.00     0.144 N 
ATOM     11  C   UNL d   1      10.180   8.707  -8.989  0.00  0.00     0.277 C 
ATOM     12  C   UNL d   1       9.900   7.372  -9.636  0.00  0.00     0.007 A 
ATOM     13  C   UNL d   1       9.462   7.297 -10.976  0.00  0.00    -0.003 A 
ATOM     14  C   UNL d   1       9.166   6.045 -11.546  0.00  0.00    -0.000 A 
ATOM     15  C   UNL d   1       9.314   4.876 -10.779  0.00  0.00    -0.000 A 
ATOM     16  C   UNL d   1       9.732   4.950  -9.438  0.00  0.00    -0.004 A 
ATOM     17  C   UNL d   1      10.034   6.198  -8.868  0.00  0.00    -0.022 A 
ATOM     18  C   UNL d   1      10.544   6.284  -7.444  0.00  0.00     0.064 C 
ATOM     19  C   UNL d   1      10.447   7.682  -6.818  0.00  0.00     0.246 C 
ENDROOT
TORSDOF 0
