REMARK  9 active torsions:
REMARK  status: ('A' for Active; 'I' for Inactive)
REMARK    1  A    between atoms: O_2  and  C_3 
REMARK    2  A    between atoms: C_9  and  N_10 
REMARK    3  A    between atoms: N_13  and  C_14 
REMARK    4  A    between atoms: C_14  and  C_15 
REMARK    5  A    between atoms: C_15  and  C_16 
REMARK    6  A    between atoms: C_16  and  C_17 
REMARK    7  A    between atoms: C_17  and  N_18 
REMARK       I    between atoms: N_18  and  C_19 
REMARK    8  A    between atoms: C_19  and  C_21 
REMARK    9  A    between atoms: C_24  and  N_25 
ROOT
ATOM      1  C   UNL d   1       6.778   1.467 -14.036  0.00  0.00     0.251 C 
ENDROOT
BRANCH   1   2
ATOM      2  N   UNL d   1       6.047   0.852 -15.134  0.00  0.00     0.141 N 
ATOM      3  C   UNL d   1       6.005  -0.591 -14.939  0.00  0.00     0.274 C 
ATOM      4  C   UNL d   1       5.189  -1.271 -16.051  0.00  0.00     0.138 C 
ATOM      5  N   UNL d   1       5.771  -0.938 -17.352  0.00  0.00    -0.328 N 
ATOM      6  C   UNL d   1       5.949   0.491 -17.605  0.00  0.00     0.138 C 
ATOM      7  C   UNL d   1       6.709   1.133 -16.415  0.00  0.00     0.274 C 
BRANCH   5   8
ATOM      8  C   UNL d   1       6.151  -1.927 -18.296  0.00  0.00     0.169 A 
ATOM      9  N   UNL d   1       6.718  -1.613 -19.455  0.00  0.00    -0.109 NA
ATOM     10  O   UNL d   1       6.979  -2.828 -20.147  0.00  0.00    -0.210 OA
ATOM     11  C   UNL d   1       6.564  -3.906 -19.379  0.00  0.00     0.128 A 
ATOM     12  C   UNL d   1       6.617  -5.283 -19.627  0.00  0.00     0.029 A 
ATOM     13  C   UNL d   1       6.023  -3.347 -18.202  0.00  0.00     0.063 A 
ATOM     14  C   UNL d   1       6.120  -6.166 -18.642  0.00  0.00     0.026 A 
ATOM     15  C   UNL d   1       5.585  -5.638 -17.432  0.00  0.00     0.094 A 
ATOM     16  C   UNL d   1       5.495  -4.245 -17.218  0.00  0.00     0.029 A 
BRANCH  15  17
ATOM     17  O   UNL d   1       5.107  -6.448 -16.433  0.00  0.00    -0.328 OA
ATOM     18  C   UNL d   1       5.853  -7.608 -16.130  0.00  0.00     0.181 C 
ENDBRANCH  15  17
ENDBRANCH   5   8
ENDBRANCH   1   2
BRANCH   1  19
ATOM     19  C   UNL d   1       6.264   2.900 -13.796  0.00  0.00     0.037 C 
BRANCH  19  20
ATOM     20  C   UNL d   1       7.014   3.631 -12.668  0.00  0.00     0.029 C 
BRANCH  20  21
ATOM     21  C   UNL d   1       6.859   5.133 -12.685  0.00  0.00     0.129 C 
BRANCH  21  22
ATOM     22  N   UNL d   1       7.566   5.752 -11.567  0.00  0.00    -0.234 NA
ATOM     23  C   UNL d   1       8.895   5.886 -11.465  0.00  0.00     0.275 C 
ATOM     24  O   UNL d   1       9.684   5.584 -12.366  0.00  0.00    -0.266 OA
BRANCH  23  25
ATOM     25  C   UNL d   1       9.391   6.479 -10.181  0.00  0.00     0.058 A 
ATOM     26  C   UNL d   1      10.261   7.584 -10.206  0.00  0.00     0.006 A 
ATOM     27  C   UNL d   1      10.730   8.158  -9.009  0.00  0.00     0.018 A 
ATOM     28  C   UNL d   1      10.327   7.629  -7.761  0.00  0.00     0.066 A 
ATOM     29  C   UNL d   1       9.461   6.517  -7.733  0.00  0.00     0.018 A 
ATOM     30  C   UNL d   1       8.995   5.941  -8.933  0.00  0.00     0.006 A 
BRANCH  28  31
ATOM     31  N   UNL d   1      10.801   8.179  -6.542  0.00  0.00    -0.287 N 
ATOM     32  C   UNL d   1      11.072   9.486  -6.427  0.00  0.00     0.183 A 
ATOM     33  N   UNL d   1      11.472   9.833  -5.212  0.00  0.00    -0.222 NA
ATOM     34  C   UNL d   1      11.481   8.635  -4.497  0.00  0.00     0.120 A 
ATOM     35  C   UNL d   1      11.056   7.602  -5.305  0.00  0.00     0.102 A 
ENDBRANCH  28  31
ENDBRANCH  23  25
ENDBRANCH  21  22
ENDBRANCH  20  21
ENDBRANCH  19  20
ENDBRANCH   1  19
TORSDOF 9
