REMARK  3 active torsions:
REMARK  status: ('A' for Active; 'I' for Inactive)
REMARK    1  A    between atoms: C_6  and  C_7 
REMARK    2  A    between atoms: C_7  and  C_8 
REMARK    3  A    between atoms: C_8  and  N_9 
ROOT
ATOM      1  F   UNL d   1      12.659   6.102  -2.585  0.00  0.00    -0.204 F 
ATOM      2  C   UNL d   1      12.209   7.198  -3.235  0.00  0.00     0.140 A 
ATOM      3  C   UNL d   1      12.351   8.462  -2.642  0.00  0.00     0.030 A 
ATOM      4  C   UNL d   1      11.857   9.597  -3.302  0.00  0.00     0.002 A 
ATOM      5  C   UNL d   1      11.233   9.480  -4.565  0.00  0.00    -0.004 A 
ATOM      6  C   UNL d   1      11.086   8.209  -5.170  0.00  0.00    -0.018 A 
ATOM      7  C   UNL d   1      11.580   7.066  -4.493  0.00  0.00     0.025 A 
ENDROOT
BRANCH   6   8
ATOM      8  C   UNL d   1      10.376   8.109  -6.521  0.00  0.00     0.062 C 
BRANCH   8   9
ATOM      9  C   UNL d   1      10.399   6.692  -7.115  0.00  0.00     0.255 C 
BRANCH   9  10
ATOM     10  N   UNL d   1       9.636   6.591  -8.351  0.00  0.00     0.137 N 
ATOM     11  C   UNL d   1       9.443   5.198  -8.719  0.00  0.00     0.250 C 
ATOM     12  C   UNL d   1       8.978   5.273 -10.167  0.00  0.00     0.037 C 
ATOM     13  C   UNL d   1       9.560   6.593 -10.680  0.00  0.00     0.037 C 
ATOM     14  C   UNL d   1      10.317   7.178  -9.490  0.00  0.00     0.250 C 
ENDBRANCH   9  10
ENDBRANCH   8   9
ENDBRANCH   6   8
TORSDOF 3
