REMARK  5 active torsions:
REMARK  status: ('A' for Active; 'I' for Inactive)
REMARK    1  A    between atoms: S_2  and  C_4 
REMARK    2  A    between atoms: S_2  and  C_11 
REMARK    3  A    between atoms: N_15  and  C_16 
REMARK    4  A    between atoms: C_16  and  C_17 
REMARK    5  A    between atoms: C_17  and  C_18 
ROOT
ATOM      1  C   UNL d   1       9.270   3.602 -14.736  0.00  0.00     0.234 C 
ATOM      2  F   UNL d   1       8.003   3.174 -14.604  0.00  0.00    -0.223 F 
ATOM      3  C   UNL d   1       9.275   5.144 -14.608  0.00  0.00     0.084 C 
ATOM      4  C   UNL d   1       8.870   5.626 -13.216  0.00  0.00     0.254 C 
ATOM      5  N   UNL d   1       9.773   5.036 -12.237  0.00  0.00     0.138 N 
ATOM      6  C   UNL d   1       9.638   3.587 -12.249  0.00  0.00     0.254 C 
ATOM      7  C   UNL d   1      10.086   2.994 -13.597  0.00  0.00     0.084 C 
ENDROOT
BRANCH   1   8
ATOM      8  S   UNL d   1       9.903   3.029 -16.404  0.00  0.00     0.219 S 
ATOM      9  O   UNL d   1       8.751   2.821 -17.299  0.00  0.00    -0.219 OA
ATOM     10  O   UNL d   1      10.851   1.918 -16.212  0.00  0.00    -0.219 OA
BRANCH   8  11
ATOM     11  C   UNL d   1      10.836   4.438 -17.030  0.00  0.00     0.114 A 
ATOM     12  C   UNL d   1      12.106   4.765 -16.504  0.00  0.00     0.151 A 
ATOM     13  C   UNL d   1      12.780   5.912 -16.966  0.00  0.00     0.030 A 
ATOM     14  F   UNL d   1      12.665   4.019 -15.521  0.00  0.00    -0.203 F 
ATOM     15  C   UNL d   1      12.185   6.740 -17.941  0.00  0.00     0.002 A 
ATOM     16  C   UNL d   1      10.907   6.426 -18.444  0.00  0.00     0.001 A 
ATOM     17  C   UNL d   1      10.225   5.285 -17.976  0.00  0.00     0.013 A 
ENDBRANCH   8  11
ENDBRANCH   1   8
BRANCH   5  18
ATOM     18  C   UNL d   1       9.447   5.511 -10.891  0.00  0.00     0.255 C 
BRANCH  18  19
ATOM     19  C   UNL d   1       9.714   7.019 -10.722  0.00  0.00     0.064 C 
BRANCH  19  20
ATOM     20  C   UNL d   1       9.985   7.429  -9.289  0.00  0.00     0.007 A 
ATOM     21  C   UNL d   1      11.052   8.307  -8.995  0.00  0.00     0.138 A 
ATOM     22  C   UNL d   1      11.303   8.687  -7.665  0.00  0.00     0.059 A 
ATOM     23  F   UNL d   1      11.844   8.792  -9.981  0.00  0.00    -0.204 F 
ATOM     24  C   UNL d   1      10.491   8.190  -6.628  0.00  0.00     0.142 A 
ATOM     25  C   UNL d   1       9.432   7.310  -6.920  0.00  0.00     0.029 A 
ATOM     26  F   UNL d   1      10.732   8.562  -5.349  0.00  0.00    -0.204 F 
ATOM     27  C   UNL d   1       9.178   6.928  -8.249  0.00  0.00     0.000 A 
ENDBRANCH  19  20
ENDBRANCH  18  19
ENDBRANCH   5  18
TORSDOF 5
