REMARK  5 active torsions:
REMARK  status: ('A' for Active; 'I' for Inactive)
REMARK    1  A    between atoms: C_2  and  C_3 
REMARK       I    between atoms: C_2  and  N_12 
REMARK    2  A    between atoms: N_15  and  C_16 
REMARK    3  A    between atoms: C_16  and  C_17 
REMARK    4  A    between atoms: C_17  and  O_18 
REMARK    5  A    between atoms: O_18  and  C_19 
ROOT
ATOM      1  O   UNL d   1      11.481   9.228  -9.511  0.00  0.00    -0.266 OA
ATOM      2  C   UNL d   1      10.898   8.284  -8.977  0.00  0.00     0.275 C 
ATOM      3  N   UNL d   1       9.937   7.555  -9.619  0.00  0.00    -0.311 N 
ATOM      4  C   UNL d   1       9.651   7.826 -11.027  0.00  0.00     0.140 C 
ATOM      5  C   UNL d   1       9.654   6.524 -11.831  0.00  0.00     0.274 C 
ATOM      6  N   UNL d   1       8.729   5.535 -11.291  0.00  0.00     0.144 N 
ATOM      7  C   UNL d   1       9.139   5.235  -9.910  0.00  0.00     0.274 C 
ATOM      8  C   UNL d   1       9.081   6.491  -9.021  0.00  0.00     0.140 C 
ENDROOT
BRANCH   2   9
ATOM      9  C   UNL d   1      11.149   8.037  -7.550  0.00  0.00     0.137 A 
ATOM     10  N   UNL d   1      11.356   9.128  -6.711  0.00  0.00    -0.241 NA
ATOM     11  C   UNL d   1      11.537   8.713  -5.399  0.00  0.00     0.082 A 
ATOM     12  C   UNL d   1      11.458   7.307  -5.453  0.00  0.00     0.019 A 
ATOM     13  C   UNL d   1      11.787   9.367  -4.180  0.00  0.00     0.019 A 
ATOM     14  C   UNL d   1      11.300   6.883  -6.818  0.00  0.00     0.025 A 
ATOM     15  C   UNL d   1      11.623   6.614  -4.255  0.00  0.00     0.002 A 
ATOM     16  C   UNL d   1      11.866   7.230  -3.024  0.00  0.00     0.000 A 
ATOM     17  C   UNL d   1      11.958   8.634  -2.981  0.00  0.00     0.002 A 
ENDBRANCH   2   9
BRANCH   6  18
ATOM     18  C   UNL d   1       8.791   4.303 -12.074  0.00  0.00     0.283 C 
BRANCH  18  19
ATOM     19  C   UNL d   1       8.464   4.505 -13.580  0.00  0.00     0.184 C 
BRANCH  19  20
ATOM     20  O   UNL d   1       8.606   3.272 -14.282  0.00  0.00    -0.329 OA
BRANCH  20  21
ATOM     21  C   UNL d   1       7.599   2.337 -14.248  0.00  0.00     0.097 A 
ATOM     22  C   UNL d   1       7.848   1.097 -14.861  0.00  0.00     0.045 A 
ATOM     23  C   UNL d   1       6.844   0.115 -14.845  0.00  0.00     0.101 A 
ATOM     24  N   UNL d   1       5.658   0.289 -14.222  0.00  0.00    -0.242 NA
ATOM     25  C   UNL d   1       5.443   1.469 -13.620  0.00  0.00     0.101 A 
ATOM     26  C   UNL d   1       6.336   2.539 -13.630  0.00  0.00     0.045 A 
ENDBRANCH  20  21
ENDBRANCH  19  20
ENDBRANCH  18  19
ENDBRANCH   6  18
TORSDOF 5
