REMARK  8 active torsions:
REMARK  status: ('A' for Active; 'I' for Inactive)
REMARK    1  A    between atoms: C_6  and  C_7 
REMARK    2  A    between atoms: C_10  and  S_11 
REMARK    3  A    between atoms: S_11  and  C_12 
REMARK    4  A    between atoms: C_12  and  C_13 
REMARK    5  A    between atoms: C_13  and  C_14 
REMARK    6  A    between atoms: C_14  and  N_15 
REMARK    7  A    between atoms: C_19  and  C_20 
REMARK    8  A    between atoms: C_23  and  C_24 
ROOT
ATOM      1  N   UNL d   1       9.937   4.884 -13.078  0.00  0.00     0.137 N 
ATOM      2  C   UNL d   1       8.875   4.002 -12.577  0.00  0.00     0.251 C 
ATOM      3  C   UNL d   1       8.392   4.693 -11.345  0.00  0.00     0.039 A 
ATOM      4  C   UNL d   1       7.314   5.741 -11.374  0.00  0.00     0.008 A 
ATOM      5  C   UNL d   1       8.773   6.131 -11.472  0.00  0.00     0.052 A 
ATOM      6  C   UNL d   1       9.431   6.230 -12.835  0.00  0.00     0.254 C 
ENDROOT
BRANCH   1   7
ATOM      7  C   UNL d   1      10.242   4.677 -14.486  0.00  0.00     0.251 C 
BRANCH   7   8
ATOM      8  C   UNL d   1      10.738   3.233 -14.723  0.00  0.00     0.047 C 
BRANCH   8   9
ATOM      9  C   UNL d   1      10.739   2.864 -16.220  0.00  0.00     0.067 C 
BRANCH   9  10
ATOM     10  S   UNL d   1      10.682   1.060 -16.469  0.00  0.00    -0.075 SA
BRANCH  10  11
ATOM     11  C   UNL d   1       9.020   0.707 -16.010  0.00  0.00     0.193 A 
ATOM     12  N   UNL d   1       8.476   1.059 -14.836  0.00  0.00    -0.122 NA
ATOM     13  N   UNL d   1       7.166   0.657 -14.927  0.00  0.00    -0.126 NA
ATOM     14  C   UNL d   1       7.016   0.083 -16.120  0.00  0.00     0.191 A 
ATOM     15  N   UNL d   1       8.167   0.070 -16.843  0.00  0.00    -0.287 N 
ATOM     16  C   UNL d   1       8.427  -0.469 -18.184  0.00  0.00     0.134 C 
BRANCH  14  17
ATOM     17  C   UNL d   1       5.728  -0.484 -16.497  0.00  0.00     0.151 A 
ATOM     18  C   UNL d   1       5.016  -0.586 -17.681  0.00  0.00     0.087 A 
ATOM     19  C   UNL d   1       5.340  -0.096 -19.058  0.00  0.00     0.054 C 
ATOM     20  N   UNL d   1       3.847  -1.274 -17.410  0.00  0.00    -0.221 NA
ATOM     21  C   UNL d   1       3.878  -1.521 -16.097  0.00  0.00     0.225 A 
ATOM     22  O   UNL d   1       5.003  -1.063 -15.496  0.00  0.00    -0.282 OA
ENDBRANCH  14  17
ENDBRANCH  10  11
ENDBRANCH   9  10
ENDBRANCH   8   9
ENDBRANCH   7   8
ENDBRANCH   1   7
BRANCH   5  23
ATOM     23  C   UNL d   1       9.477   6.823 -10.313  0.00  0.00    -0.019 A 
ATOM     24  C   UNL d   1       9.303   6.341  -9.001  0.00  0.00     0.025 A 
ATOM     25  C   UNL d   1       9.902   6.963  -7.891  0.00  0.00     0.144 A 
ATOM     26  C   UNL d   1      10.708   8.105  -8.076  0.00  0.00     0.099 A 
ATOM     27  F   UNL d   1       9.676   6.439  -6.672  0.00  0.00    -0.204 F 
ATOM     28  C   UNL d   1      10.875   8.627  -9.373  0.00  0.00     0.006 A 
ATOM     29  C   UNL d   1      10.259   7.998 -10.479  0.00  0.00    -0.004 A 
BRANCH  26  30
ATOM     30  C   UNL d   1      11.374   8.780  -6.884  0.00  0.00     0.421 C 
ATOM     31  F   UNL d   1      12.606   9.156  -7.253  0.00  0.00    -0.166 F 
ATOM     32  F   UNL d   1      10.667   9.845  -6.528  0.00  0.00    -0.166 F 
ATOM     33  F   UNL d   1      11.482   7.971  -5.830  0.00  0.00    -0.166 F 
ENDBRANCH  26  30
ENDBRANCH   5  23
TORSDOF 8
