REMARK  8 active torsions:
REMARK  status: ('A' for Active; 'I' for Inactive)
REMARK    1  A    between atoms: C_6  and  C_7 
REMARK    2  A    between atoms: N_10  and  C_11 
REMARK    3  A    between atoms: C_11  and  C_12 
REMARK    4  A    between atoms: C_12  and  C_13 
REMARK    5  A    between atoms: C_13  and  O_14 
REMARK    6  A    between atoms: O_14  and  C_15 
REMARK    7  A    between atoms: C_18  and  C_19 
REMARK    8  A    between atoms: C_19  and  N_20 
ROOT
ATOM      1  C   UNL d   1      13.050   3.382 -19.859  0.00  0.00     0.253 C 
ENDROOT
BRANCH   1   2
ATOM      2  N   UNL d   1      14.236   4.142 -19.460  0.00  0.00     0.137 N 
ATOM      3  C   UNL d   1      13.909   5.124 -18.413  0.00  0.00     0.251 C 
ATOM      4  C   UNL d   1      15.170   5.836 -17.939  0.00  0.00     0.041 C 
ATOM      5  C   UNL d   1      15.901   6.537 -19.098  0.00  0.00     0.047 C 
ATOM      6  C   UNL d   1      16.092   5.551 -20.261  0.00  0.00     0.041 C 
ATOM      7  C   UNL d   1      14.777   4.844 -20.625  0.00  0.00     0.251 C 
BRANCH   5   8
ATOM      8  C   UNL d   1      17.208   7.132 -18.644  0.00  0.00     0.087 A 
ATOM      9  C   UNL d   1      17.950   8.220 -19.157  0.00  0.00     0.041 A 
ATOM     10  C   UNL d   1      17.704   9.086 -20.247  0.00  0.00     0.006 A 
ATOM     11  C   UNL d   1      19.130   8.366 -18.421  0.00  0.00     0.129 A 
ATOM     12  C   UNL d   1      18.665  10.076 -20.555  0.00  0.00     0.030 A 
ATOM     13  C   UNL d   1      19.844  10.215 -19.777  0.00  0.00     0.142 A 
ATOM     14  F   UNL d   1      20.738  11.190 -20.071  0.00  0.00    -0.204 F 
ATOM     15  C   UNL d   1      20.086   9.349 -18.692  0.00  0.00     0.057 A 
ATOM     16  O   UNL d   1      19.095   7.356 -17.474  0.00  0.00    -0.211 OA
ATOM     17  N   UNL d   1      17.914   6.583 -17.646  0.00  0.00    -0.131 NA
ENDBRANCH   5   8
ENDBRANCH   1   2
BRANCH   1  18
ATOM     18  C   UNL d   1      12.634   2.362 -18.773  0.00  0.00     0.068 C 
BRANCH  18  19
ATOM     19  C   UNL d   1      11.367   1.562 -19.162  0.00  0.00     0.151 C 
BRANCH  19  20
ATOM     20  O   UNL d   1      10.897   0.777 -18.061  0.00  0.00    -0.331 OA
BRANCH  20  21
ATOM     21  C   UNL d   1      10.335   1.448 -16.991  0.00  0.00     0.094 A 
ATOM     22  C   UNL d   1       9.891   0.702 -15.871  0.00  0.00     0.024 A 
ATOM     23  C   UNL d   1       9.376   1.371 -14.737  0.00  0.00    -0.000 A 
ATOM     24  C   UNL d   1       9.346   2.785 -14.723  0.00  0.00     0.011 A 
ATOM     25  C   UNL d   1       9.776   3.516 -15.839  0.00  0.00    -0.000 A 
ATOM     26  C   UNL d   1      10.236   2.859 -16.975  0.00  0.00     0.024 A 
BRANCH  24  27
ATOM     27  C   UNL d   1       8.867   3.548 -13.519  0.00  0.00     0.277 C 
BRANCH  27  28
ATOM     28  N   UNL d   1       7.835   4.537 -13.831  0.00  0.00     0.141 N 
ATOM     29  C   UNL d   1       7.726   5.522 -12.759  0.00  0.00     0.251 C 
ATOM     30  C   UNL d   1       7.249   4.831 -11.476  0.00  0.00     0.035 C 
ATOM     31  C   UNL d   1       5.901   4.132 -11.723  0.00  0.00     0.004 C 
ATOM     32  C   UNL d   1       5.916   3.206 -12.963  0.00  0.00     0.035 C 
ATOM     33  C   UNL d   1       6.511   3.963 -14.140  0.00  0.00     0.251 C 
ENDBRANCH  27  28
ENDBRANCH  24  27
ENDBRANCH  20  21
ENDBRANCH  19  20
ENDBRANCH  18  19
ENDBRANCH   1  18
TORSDOF 8
