REMARK  11 active torsions:
REMARK  status: ('A' for Active; 'I' for Inactive)
REMARK    1  A    between atoms: C_2  and  C_3 
REMARK    2  A    between atoms: C_3  and  N_4 
REMARK    3  A    between atoms: N_4  and  C_5 
REMARK    4  A    between atoms: N_4  and  C_21 
REMARK    5  A    between atoms: C_5  and  C_6 
REMARK    6  A    between atoms: C_6  and  C_7 
REMARK    7  A    between atoms: C_7  and  C_8 
REMARK    8  A    between atoms: C_8  and  N_9 
REMARK       I    between atoms: N_9  and  C_10 
REMARK    9  A    between atoms: C_10  and  C_12 
REMARK   10  A    between atoms: C_21  and  C_22 
REMARK   11  A    between atoms: C_24  and  C_25 
ROOT
ATOM      1  C   UNL d   1       9.602   6.080 -12.037  0.00  0.00     0.250 C 
ENDROOT
BRANCH   1   2
ATOM      2  N   UNL d   1       8.877   4.812 -12.079  0.00  0.00     0.137 N 
BRANCH   2   3
ATOM      3  C   UNL d   1       9.133   4.199 -13.380  0.00  0.00     0.250 C 
BRANCH   3   4
ATOM      4  C   UNL d   1      10.524   3.562 -13.547  0.00  0.00     0.035 C 
ATOM      5  C   UNL d   1      10.736   2.845 -14.902  0.00  0.00     0.002 C 
ENDBRANCH   3   4
ENDBRANCH   2   3
BRANCH   2   6
ATOM      6  C   UNL d   1       7.448   5.087 -11.854  0.00  0.00     0.251 C 
BRANCH   6   7
ATOM      7  C   UNL d   1       6.508   3.950 -12.150  0.00  0.00     0.038 A 
ATOM      8  C   UNL d   1       6.227   3.490 -13.577  0.00  0.00     0.024 A 
ATOM      9  C   UNL d   1       5.172   4.258 -12.797  0.00  0.00     0.007 A 
BRANCH   8  10
ATOM     10  C   UNL d   1       6.210   2.012 -13.842  0.00  0.00    -0.022 A 
ATOM     11  C   UNL d   1       5.053   1.255 -13.550  0.00  0.00     0.007 A 
ATOM     12  C   UNL d   1       4.925  -0.089 -13.943  0.00  0.00     0.057 A 
ATOM     13  C   UNL d   1       6.022  -0.766 -14.497  0.00  0.00     0.011 A 
ATOM     14 CL   UNL d   1       3.366  -0.816 -13.784  0.00  0.00    -0.082 Cl
ATOM     15  C   UNL d   1       7.205  -0.034 -14.742  0.00  0.00     0.001 A 
ATOM     16  C   UNL d   1       7.280   1.361 -14.439  0.00  0.00    -0.004 A 
ENDBRANCH   8  10
ENDBRANCH   6   7
ENDBRANCH   2   6
ENDBRANCH   1   2
BRANCH   1  17
ATOM     17  C   UNL d   1       9.467   6.779 -10.686  0.00  0.00     0.037 C 
BRANCH  17  18
ATOM     18  C   UNL d   1      10.170   8.146 -10.632  0.00  0.00     0.029 C 
BRANCH  18  19
ATOM     19  C   UNL d   1       9.763   8.940  -9.375  0.00  0.00     0.129 C 
BRANCH  19  20
ATOM     20  N   UNL d   1      10.537   8.639  -8.205  0.00  0.00    -0.233 NA
ATOM     21  C   UNL d   1      10.425   7.556  -7.461  0.00  0.00     0.293 C 
ATOM     22  O   UNL d   1       9.845   6.517  -7.803  0.00  0.00    -0.264 OA
BRANCH  21  23
ATOM     23  C   UNL d   1      11.005   7.641  -6.126  0.00  0.00     0.139 A 
ATOM     24  N   UNL d   1      11.101   8.887  -5.511  0.00  0.00    -0.241 NA
ATOM     25  C   UNL d   1      11.589   8.725  -4.224  0.00  0.00     0.082 A 
ATOM     26  C   UNL d   1      11.836   7.332  -4.065  0.00  0.00     0.019 A 
ATOM     27  C   UNL d   1      11.793   9.635  -3.198  0.00  0.00     0.019 A 
ATOM     28  C   UNL d   1      11.460   6.686  -5.275  0.00  0.00     0.025 A 
ATOM     29  C   UNL d   1      12.364   6.889  -2.829  0.00  0.00     0.002 A 
ATOM     30  C   UNL d   1      12.608   7.813  -1.807  0.00  0.00     0.000 A 
ATOM     31  C   UNL d   1      12.297   9.171  -1.974  0.00  0.00     0.002 A 
ENDBRANCH  21  23
ENDBRANCH  19  20
ENDBRANCH  18  19
ENDBRANCH  17  18
ENDBRANCH   1  17
TORSDOF 11
