REMARK  9 active torsions:
REMARK  status: ('A' for Active; 'I' for Inactive)
REMARK    1  A    between atoms: C_2  and  C_3 
REMARK    2  A    between atoms: C_3  and  N_4 
REMARK    3  A    between atoms: N_4  and  C_5 
REMARK    4  A    between atoms: N_4  and  C_23 
REMARK    5  A    between atoms: C_5  and  C_6 
REMARK    6  A    between atoms: C_6  and  N_7 
REMARK    7  A    between atoms: N_10  and  C_11 
REMARK    8  A    between atoms: C_11  and  C_12 
REMARK    9  A    between atoms: C_23  and  C_24 
ROOT
ATOM      1  N   UNL d   1       9.973   3.597 -15.004  0.00  0.00     0.143 N 
ATOM      2  C   UNL d   1      10.782   4.209 -13.960  0.00  0.00     0.286 C 
ATOM      3  C   UNL d   1       9.948   5.131 -13.075  0.00  0.00     0.286 C 
ATOM      4  N   UNL d   1       8.869   4.411 -12.408  0.00  0.00     0.147 N 
ATOM      5  C   UNL d   1       8.037   3.783 -13.438  0.00  0.00     0.286 C 
ATOM      6  C   UNL d   1       8.873   2.868 -14.363  0.00  0.00     0.286 C 
ENDROOT
BRANCH   1   7
ATOM      7  C   UNL d   1      10.770   2.732 -15.878  0.00  0.00     0.286 C 
BRANCH   7   8
ATOM      8  C   UNL d   1      10.589   3.052 -17.375  0.00  0.00     0.286 C 
BRANCH   8   9
ATOM      9  N   UNL d   1      11.134   4.342 -17.845  0.00  0.00     0.143 N 
BRANCH   9  10
ATOM     10  C   UNL d   1      10.159   5.433 -17.803  0.00  0.00     0.251 C 
BRANCH  10  11
ATOM     11  C   UNL d   1       9.014   5.324 -18.820  0.00  0.00     0.035 C 
ATOM     12  C   UNL d   1       8.279   6.661 -18.989  0.00  0.00     0.002 C 
ENDBRANCH  10  11
ENDBRANCH   9  10
BRANCH   9  13
ATOM     13  C   UNL d   1      12.397   4.663 -17.157  0.00  0.00     0.277 C 
BRANCH  13  14
ATOM     14  C   UNL d   1      13.068   5.957 -17.567  0.00  0.00     0.011 A 
ATOM     15  C   UNL d   1      12.871   7.117 -16.786  0.00  0.00    -0.002 A 
ATOM     16  C   UNL d   1      13.473   8.330 -17.156  0.00  0.00     0.006 A 
ATOM     17  C   UNL d   1      14.284   8.373 -18.309  0.00  0.00     0.035 A 
ATOM     18  C   UNL d   1      14.489   7.212 -19.084  0.00  0.00     0.006 A 
ATOM     19 BR   UNL d   1      15.103  10.009 -18.831  0.00  0.00    -0.049 Br
ATOM     20  C   UNL d   1      13.874   6.004 -18.715  0.00  0.00    -0.002 A 
ENDBRANCH  13  14
ENDBRANCH   9  13
ENDBRANCH   8   9
ENDBRANCH   7   8
ENDBRANCH   1   7
BRANCH   4  21
ATOM     21  C   UNL d   1       8.081   5.285 -11.523  0.00  0.00     0.296 C 
BRANCH  21  22
ATOM     22  C   UNL d   1       8.870   5.905 -10.412  0.00  0.00     0.092 A 
ATOM     23  N   UNL d   1       9.823   6.887 -10.647  0.00  0.00    -0.248 NA
ATOM     24  C   UNL d   1      10.414   7.289  -9.470  0.00  0.00     0.081 A 
ATOM     25  C   UNL d   1       9.768   6.549  -8.440  0.00  0.00     0.019 A 
ATOM     26  C   UNL d   1      11.449   8.210  -9.207  0.00  0.00     0.019 A 
ATOM     27  C   UNL d   1       8.803   5.678  -9.059  0.00  0.00     0.018 A 
ATOM     28  C   UNL d   1      10.192   6.795  -7.112  0.00  0.00     0.002 A 
ATOM     29  C   UNL d   1      11.224   7.719  -6.834  0.00  0.00     0.000 A 
ATOM     30  C   UNL d   1      11.855   8.418  -7.877  0.00  0.00     0.002 A 
ENDBRANCH  21  22
ENDBRANCH   4  21
TORSDOF 9
