REMARK  3 active torsions:
REMARK  status: ('A' for Active; 'I' for Inactive)
REMARK    1  A    between atoms: C_2  and  C_3 
REMARK    2  A    between atoms: C_3  and  N_4 
REMARK    3  A    between atoms: C_11  and  C_12 
REMARK       I    between atoms: C_12  and  N_14 
ROOT
ATOM      1  N   UNL d   1       8.820   6.236 -10.499  0.00  0.00     0.140 N 
ATOM      2  C   UNL d   1       8.372   5.005  -9.854  0.00  0.00     0.282 C 
ATOM      3  C   UNL d   1       9.439   4.361  -8.962  0.00  0.00     0.178 C 
ATOM      4  O   UNL d   1       9.876   5.311  -8.013  0.00  0.00    -0.348 OA
ATOM      5  C   UNL d   1      10.378   6.509  -8.572  0.00  0.00     0.169 C 
ATOM      6  C   UNL d   1      10.869   7.466  -7.515  0.00  0.00     0.003 C 
ATOM      7  C   UNL d   1      11.121   7.069  -6.178  0.00  0.00     0.003 C 
ATOM      8  C   UNL d   1      11.632   8.015  -5.242  0.00  0.00     0.056 C 
ATOM      9  C   UNL d   1      11.932   9.310  -5.731  0.00  0.00     0.004 C 
ATOM     10  C   UNL d   1      11.600   9.710  -6.999  0.00  0.00    -0.004 C 
ATOM     11  C   UNL d   1      11.105   8.789  -7.924  0.00  0.00    -0.024 C 
ATOM     12  C   UNL d   1      10.868   9.207  -9.354  0.00  0.00     0.028 C 
ATOM     13  C   UNL d   1       9.557   8.618  -9.881  0.00  0.00     0.041 C 
ATOM     14  C   UNL d   1       9.279   7.151  -9.445  0.00  0.00     0.251 C 
ENDROOT
BRANCH   8  15
ATOM     15  C   UNL d   1      11.929   7.584  -3.821  0.00  0.00     0.257 C 
ATOM     16  O   UNL d   1      12.067   6.397  -3.564  0.00  0.00    -0.267 OA
ATOM     17  N   UNL d   1      11.999   8.503  -2.826  0.00  0.00    -0.313 N 
ATOM     18  C   UNL d   1      11.924   9.932  -3.017  0.00  0.00     0.129 C 
ATOM     19  C   UNL d   1      12.259   8.146  -1.435  0.00  0.00     0.129 C 
ENDBRANCH   8  15
BRANCH   1  20
ATOM     20  C   UNL d   1       9.788   6.043 -11.576  0.00  0.00     0.250 C 
BRANCH  20  21
ATOM     21  C   UNL d   1       9.561   4.816 -12.481  0.00  0.00     0.035 C 
ATOM     22  C   UNL d   1       8.288   4.964 -13.318  0.00  0.00     0.002 C 
ENDBRANCH  20  21
ENDBRANCH   1  20
TORSDOF 3
