REMARK  8 active torsions:
REMARK  status: ('A' for Active; 'I' for Inactive)
REMARK    1  A    between atoms: O_2  and  C_3 
REMARK    2  A    between atoms: C_9  and  N_10 
REMARK    3  A    between atoms: N_13  and  C_14 
REMARK    4  A    between atoms: C_14  and  C_15 
REMARK    5  A    between atoms: C_15  and  C_16 
REMARK    6  A    between atoms: C_16  and  C_17 
REMARK    7  A    between atoms: C_17  and  N_18 
REMARK       I    between atoms: N_18  and  C_19 
REMARK    8  A    between atoms: C_19  and  C_21 
ROOT
ATOM      1  C   UNL d   1      10.020   5.141 -13.975  0.00  0.00     0.251 C 
ENDROOT
BRANCH   1   2
ATOM      2  N   UNL d   1       9.970   3.682 -14.031  0.00  0.00     0.141 N 
ATOM      3  C   UNL d   1      11.087   3.176 -14.844  0.00  0.00     0.274 C 
ATOM      4  C   UNL d   1      11.039   1.627 -14.932  0.00  0.00     0.138 C 
ATOM      5  N   UNL d   1       9.737   1.194 -15.436  0.00  0.00    -0.328 N 
ATOM      6  C   UNL d   1       8.601   1.774 -14.731  0.00  0.00     0.138 C 
ATOM      7  C   UNL d   1       8.737   3.281 -14.694  0.00  0.00     0.274 C 
BRANCH   5   8
ATOM      8  C   UNL d   1       9.607   0.327 -16.535  0.00  0.00     0.169 A 
ATOM      9  N   UNL d   1      10.651  -0.116 -17.234  0.00  0.00    -0.109 NA
ATOM     10  O   UNL d   1      10.148  -0.975 -18.250  0.00  0.00    -0.210 OA
ATOM     11  C   UNL d   1       8.765  -1.044 -18.168  0.00  0.00     0.128 A 
ATOM     12  C   UNL d   1       7.820  -1.764 -18.924  0.00  0.00     0.029 A 
ATOM     13  C   UNL d   1       8.414  -0.236 -17.078  0.00  0.00     0.063 A 
ATOM     14  C   UNL d   1       6.451  -1.653 -18.561  0.00  0.00     0.026 A 
ATOM     15  C   UNL d   1       6.060  -0.871 -17.443  0.00  0.00     0.094 A 
ATOM     16  C   UNL d   1       7.046  -0.176 -16.692  0.00  0.00     0.029 A 
BRANCH  15  17
ATOM     17  O   UNL d   1       4.721  -0.827 -17.118  0.00  0.00    -0.328 OA
ATOM     18  C   UNL d   1       4.373  -0.548 -15.759  0.00  0.00     0.181 C 
ENDBRANCH  15  17
ENDBRANCH   5   8
ENDBRANCH   1   2
BRANCH   1  19
ATOM     19  C   UNL d   1       8.993   5.727 -12.969  0.00  0.00     0.037 C 
BRANCH  19  20
ATOM     20  C   UNL d   1       9.510   5.697 -11.532  0.00  0.00     0.029 C 
BRANCH  20  21
ATOM     21  C   UNL d   1       8.795   6.723 -10.658  0.00  0.00     0.129 C 
BRANCH  21  22
ATOM     22  N   UNL d   1       9.483   6.904  -9.385  0.00  0.00    -0.234 NA
ATOM     23  C   UNL d   1       9.860   8.065  -8.808  0.00  0.00     0.280 C 
ATOM     24  O   UNL d   1       9.688   9.159  -9.349  0.00  0.00    -0.265 OA
BRANCH  23  25
ATOM     25  C   UNL d   1      10.450   7.909  -7.471  0.00  0.00     0.121 A 
ATOM     26  C   UNL d   1      11.007   6.616  -6.951  0.00  0.00     0.305 A 
ATOM     27  O   UNL d   1      11.497   6.606  -5.684  0.00  0.00    -0.273 OA
ATOM     28  O   UNL d   1      11.022   5.603  -7.633  0.00  0.00    -0.259 OA
ATOM     29  C   UNL d   1      11.559   7.705  -4.878  0.00  0.00     0.103 A 
ATOM     30  C   UNL d   1      11.049   8.937  -5.322  0.00  0.00     0.023 A 
ATOM     31  C   UNL d   1      12.164   7.596  -3.608  0.00  0.00     0.025 A 
ATOM     32  C   UNL d   1      10.487   8.991  -6.670  0.00  0.00     0.012 A 
ATOM     33  C   UNL d   1      11.084  10.055  -4.475  0.00  0.00     0.002 A 
ATOM     34  C   UNL d   1      11.690   9.937  -3.209  0.00  0.00     0.000 A 
ATOM     35  C   UNL d   1      12.231   8.719  -2.767  0.00  0.00     0.002 A 
ENDBRANCH  23  25
ENDBRANCH  21  22
ENDBRANCH  20  21
ENDBRANCH  19  20
ENDBRANCH   1  19
TORSDOF 8
