REMARK  6 active torsions:
REMARK  status: ('A' for Active; 'I' for Inactive)
REMARK    1  A    between atoms: C_2  and  N_3 
REMARK    2  A    between atoms: C_7  and  C_8 
REMARK    3  A    between atoms: C_8  and  N_9 
REMARK       I    between atoms: N_9  and  C_10 
REMARK    4  A    between atoms: C_10  and  C_12 
REMARK    5  A    between atoms: C_15  and  O_16 
REMARK    6  A    between atoms: C_21  and  O_22 
ROOT
ATOM      1  C   UNL d   1       7.628   2.794 -14.039  0.00  0.00     0.094 A 
ATOM      2  C   UNL d   1       6.340   2.249 -13.745  0.00  0.00     0.087 A 
ATOM      3 CL   UNL d   1       5.138   3.127 -12.840  0.00  0.00    -0.080 Cl
ATOM      4  C   UNL d   1       5.996   0.948 -14.168  0.00  0.00     0.107 A 
ATOM      5  C   UNL d   1       6.924   0.208 -14.935  0.00  0.00     0.054 A 
ATOM      6  C   UNL d   1       8.179   0.744 -15.256  0.00  0.00     0.155 A 
ATOM      7  O   UNL d   1       9.058  -0.005 -15.974  0.00  0.00    -0.188 OA
ATOM      8  C   UNL d   1       8.543   2.033 -14.815  0.00  0.00     0.125 A 
ENDROOT
BRANCH   1   9
ATOM      9  C   UNL d   1       8.029   4.154 -13.557  0.00  0.00     0.278 C 
ATOM     10  N   UNL d   1       7.743   4.425 -12.279  0.00  0.00    -0.232 NA
ATOM     11  O   UNL d   1       8.606   4.947 -14.306  0.00  0.00    -0.265 OA
BRANCH  10  12
ATOM     12  C   UNL d   1       7.891   5.735 -11.684  0.00  0.00     0.162 C 
BRANCH  12  13
ATOM     13  C   UNL d   1       9.200   5.844 -10.898  0.00  0.00     0.243 C 
ATOM     14  N   UNL d   1       9.465   7.195 -10.418  0.00  0.00     0.137 N 
ATOM     15  C   UNL d   1      10.528   7.005  -9.437  0.00  0.00     0.250 C 
ATOM     16  C   UNL d   1      10.085   5.776  -8.639  0.00  0.00     0.037 C 
ATOM     17  C   UNL d   1       9.213   4.996  -9.617  0.00  0.00     0.037 C 
BRANCH  14  18
ATOM     18  C   UNL d   1       9.829   8.129 -11.482  0.00  0.00     0.250 C 
ATOM     19  C   UNL d   1       8.661   8.999 -11.967  0.00  0.00     0.037 C 
ENDBRANCH  14  18
ENDBRANCH  12  13
ENDBRANCH  10  12
ENDBRANCH   1   9
BRANCH   8  20
ATOM     20  O   UNL d   1       9.780   2.528 -15.153  0.00  0.00    -0.326 OA
ATOM     21  C   UNL d   1      10.790   2.246 -14.197  0.00  0.00     0.181 C 
ENDBRANCH   8  20
BRANCH   4  22
ATOM     22  O   UNL d   1       4.765   0.460 -13.785  0.00  0.00    -0.327 OA
ATOM     23  C   UNL d   1       4.297  -0.739 -14.377  0.00  0.00     0.181 C 
ENDBRANCH   4  22
TORSDOF 6
