REMARK  6 active torsions:
REMARK  status: ('A' for Active; 'I' for Inactive)
REMARK    1  A    between atoms: C_4  and  C_5 
REMARK    2  A    between atoms: C_16  and  O_17 
REMARK    3  A    between atoms: O_17  and  C_18 
REMARK    4  A    between atoms: C_18  and  C_19 
REMARK    5  A    between atoms: C_19  and  C_20 
REMARK    6  A    between atoms: C_20  and  N_21 
ROOT
ATOM      1  N   UNL d   1      10.313   0.666 -16.679  0.00  0.00     0.062 N 
ATOM      2  C   UNL d   1       9.279   1.152 -15.934  0.00  0.00     0.768 A 
ATOM      3  N   UNL d   1       8.156   0.423 -15.931  0.00  0.00    -0.058 NA
ATOM      4  C   UNL d   1       7.095   0.849 -15.202  0.00  0.00     0.104 A 
ATOM      5  C   UNL d   1       7.229   2.068 -14.500  0.00  0.00     0.075 A 
ATOM      6  C   UNL d   1       8.464   2.731 -14.568  0.00  0.00     0.104 A 
ATOM      7  N   UNL d   1       9.515   2.292 -15.290  0.00  0.00    -0.058 NA
ATOM      8  C   UNL d   1       8.400   3.945 -13.762  0.00  0.00     0.024 A 
ATOM      9  C   UNL d   1       9.334   4.956 -13.476  0.00  0.00     0.026 A 
ATOM     10  C   UNL d   1       8.920   6.004 -12.582  0.00  0.00     0.094 A 
ATOM     11  C   UNL d   1       7.635   6.015 -11.989  0.00  0.00     0.024 A 
ATOM     12  C   UNL d   1       6.722   5.010 -12.304  0.00  0.00     0.005 A 
ATOM     13  C   UNL d   1       7.115   4.006 -13.207  0.00  0.00     0.041 A 
ATOM     14  C   UNL d   1       6.318   2.863 -13.640  0.00  0.00     0.199 A 
ATOM     15  O   UNL d   1       5.178   2.615 -13.249  0.00  0.00    -0.286 OA
ENDROOT
BRANCH  10  16
ATOM     16  O   UNL d   1       9.782   7.030 -12.347  0.00  0.00    -0.331 OA
BRANCH  16  17
ATOM     17  C   UNL d   1       9.505   8.003 -11.349  0.00  0.00     0.151 C 
BRANCH  17  18
ATOM     18  C   UNL d   1      10.111   7.551 -10.001  0.00  0.00     0.068 C 
BRANCH  18  19
ATOM     19  C   UNL d   1      10.007   8.652  -8.928  0.00  0.00     0.253 C 
BRANCH  19  20
ATOM     20  N   UNL d   1      10.899   8.389  -7.792  0.00  0.00     0.137 N 
ATOM     21  C   UNL d   1      11.065   9.623  -7.012  0.00  0.00     0.250 C 
ATOM     22  C   UNL d   1      12.068   9.418  -5.868  0.00  0.00     0.035 C 
ATOM     23  C   UNL d   1      11.592   8.296  -4.946  0.00  0.00     0.004 C 
ATOM     24  C   UNL d   1      11.297   7.037  -5.774  0.00  0.00     0.035 C 
ATOM     25  C   UNL d   1      10.333   7.349  -6.930  0.00  0.00     0.250 C 
ENDBRANCH  19  20
ENDBRANCH  18  19
ENDBRANCH  17  18
ENDBRANCH  16  17
ENDBRANCH  10  16
BRANCH   4  26
ATOM     26  C   UNL d   1       5.889  -0.004 -15.232  0.00  0.00     0.018 A 
ATOM     27  C   UNL d   1       5.021  -0.087 -14.114  0.00  0.00     0.002 A 
ATOM     28  C   UNL d   1       3.819  -0.810 -14.206  0.00  0.00     0.000 A 
ATOM     29  C   UNL d   1       3.527  -1.548 -15.369  0.00  0.00     0.000 A 
ATOM     30  C   UNL d   1       4.418  -1.550 -16.457  0.00  0.00     0.000 A 
ATOM     31  C   UNL d   1       5.579  -0.753 -16.401  0.00  0.00     0.002 A 
ENDBRANCH   4  26
TORSDOF 6
