REMARK  9 active torsions:
REMARK  status: ('A' for Active; 'I' for Inactive)
REMARK    1  A    between atoms: O_2  and  C_3 
REMARK    2  A    between atoms: C_6  and  C_7 
REMARK    3  A    between atoms: C_7  and  C_8 
REMARK    4  A    between atoms: C_8  and  N_10 
REMARK    5  A    between atoms: N_10  and  C_11 
REMARK    6  A    between atoms: C_11  and  C_12 
REMARK    7  A    between atoms: C_12  and  C_14 
REMARK    8  A    between atoms: C_19  and  N_20 
REMARK    9  A    between atoms: N_20  and  C_21 
ROOT
ATOM      1  C   UNL d   1       7.644   5.427 -11.168  0.00  0.00     0.327 C 
ENDROOT
BRANCH   1   2
ATOM      2  N   UNL d   1       8.981   5.995 -10.916  0.00  0.00     0.340 N 
BRANCH   2   3
ATOM      3  C   UNL d   1       9.252   6.235  -9.491  0.00  0.00     0.261 C 
ATOM      4  C   UNL d   1       9.305   4.903  -8.699  0.00  0.00     0.038 C 
BRANCH   3   5
ATOM      5  C   UNL d   1      10.517   7.157  -9.341  0.00  0.00     0.062 C 
BRANCH   5   6
ATOM      6  C   UNL d   1      10.838   7.651  -7.925  0.00  0.00    -0.020 C 
ATOM      7  C   UNL d   1      10.977   6.727  -6.874  0.00  0.00    -0.002 C 
ATOM      8  C   UNL d   1      11.151   7.190  -5.569  0.00  0.00     0.024 C 
ATOM      9  C   UNL d   1      11.356   8.550  -5.253  0.00  0.00     0.094 C 
ATOM     10  C   UNL d   1      11.312   9.495  -6.330  0.00  0.00     0.024 C 
ATOM     11  C   UNL d   1      11.029   9.040  -7.663  0.00  0.00    -0.002 C 
BRANCH   9  12
ATOM     12  O   UNL d   1      11.664   8.990  -3.973  0.00  0.00    -0.328 OA
ATOM     13  C   UNL d   1      11.945   7.965  -3.015  0.00  0.00     0.181 C 
ENDBRANCH   9  12
ENDBRANCH   5   6
ENDBRANCH   3   5
ENDBRANCH   2   3
ENDBRANCH   1   2
BRANCH   1  14
ATOM     14  C   UNL d   1       7.274   5.445 -12.658  0.00  0.00     0.210 C 
ATOM     15  O   UNL d   1       5.880   5.226 -12.765  0.00  0.00    -0.216 OA
BRANCH  14  16
ATOM     16  C   UNL d   1       8.102   4.455 -13.465  0.00  0.00     0.011 A 
ATOM     17  C   UNL d   1       7.571   3.189 -13.789  0.00  0.00     0.020 A 
ATOM     18  C   UNL d   1       8.319   2.247 -14.525  0.00  0.00     0.110 A 
ATOM     19  C   UNL d   1       9.632   2.585 -14.934  0.00  0.00     0.149 A 
ATOM     20  C   UNL d   1      10.168   3.853 -14.617  0.00  0.00     0.029 A 
ATOM     21  O   UNL d   1      10.386   1.698 -15.649  0.00  0.00    -0.189 OA
ATOM     22  C   UNL d   1       9.404   4.785 -13.889  0.00  0.00     0.000 A 
BRANCH  18  23
ATOM     23  N   UNL d   1       7.807   0.967 -14.893  0.00  0.00    -0.202 NA
BRANCH  23  24
ATOM     24  C   UNL d   1       6.710   0.311 -14.463  0.00  0.00     0.337 C 
ATOM     25  O   UNL d   1       5.908   0.695 -13.612  0.00  0.00    -0.260 OA
ENDBRANCH  23  24
ENDBRANCH  18  23
ENDBRANCH  14  16
ENDBRANCH   1  14
TORSDOF 9
