REMARK  6 active torsions:
REMARK  status: ('A' for Active; 'I' for Inactive)
REMARK    1  A    between atoms: N_4  and  C_5 
REMARK    2  A    between atoms: C_5  and  C_6 
REMARK    3  A    between atoms: C_6  and  C_7 
REMARK    4  A    between atoms: C_7  and  N_8 
REMARK       I    between atoms: N_8  and  C_9 
REMARK    5  A    between atoms: C_9  and  C_11 
REMARK    6  A    between atoms: C_11  and  N_12 
ROOT
ATOM      1  N   UNL d   1       8.806   5.994  -9.337  0.00  0.00    -0.236 NA
ATOM      2  C   UNL d   1       9.782   6.872  -9.030  0.00  0.00     0.285 C 
ATOM      3  O   UNL d   1      10.928   6.808  -9.457  0.00  0.00    -0.268 OA
ENDROOT
BRANCH   2   4
ATOM      4  C   UNL d   1       9.420   8.036  -8.111  0.00  0.00     0.339 C 
BRANCH   4   5
ATOM      5  N   UNL d   1      10.456   8.258  -7.075  0.00  0.00     0.151 N 
ATOM      6  C   UNL d   1      10.421   7.258  -6.024  0.00  0.00     0.277 C 
ATOM      7  C   UNL d   1      11.310   7.587  -4.837  0.00  0.00     0.007 A 
ATOM      8  C   UNL d   1      11.708   8.918  -4.571  0.00  0.00    -0.022 A 
ATOM      9  C   UNL d   1      11.634   6.584  -3.938  0.00  0.00    -0.003 A 
ATOM     10  C   UNL d   1      11.361  10.009  -5.538  0.00  0.00     0.061 C 
ATOM     11  C   UNL d   1      12.434   9.219  -3.407  0.00  0.00    -0.004 A 
ATOM     12  C   UNL d   1      10.231   9.529  -6.421  0.00  0.00     0.256 C 
ATOM     13  C   UNL d   1      12.755   8.204  -2.499  0.00  0.00    -0.000 A 
ATOM     14  C   UNL d   1      12.378   6.871  -2.775  0.00  0.00    -0.000 A 
ENDBRANCH   4   5
ENDBRANCH   2   4
BRANCH   1  15
ATOM     15  C   UNL d   1       8.957   4.793 -10.148  0.00  0.00     0.131 C 
BRANCH  15  16
ATOM     16  C   UNL d   1       9.090   5.096 -11.651  0.00  0.00     0.062 C 
BRANCH  16  17
ATOM     17  C   UNL d   1       9.039   3.825 -12.518  0.00  0.00     0.253 C 
BRANCH  17  18
ATOM     18  N   UNL d   1       9.366   4.032 -13.925  0.00  0.00     0.142 N 
ATOM     19  C   UNL d   1       8.775   2.990 -14.765  0.00  0.00     0.280 C 
ATOM     20  C   UNL d   1       9.152   3.149 -16.256  0.00  0.00     0.149 C 
ATOM     21  C   UNL d   1       8.559   2.034 -17.132  0.00  0.00     0.034 C 
ATOM     22  O   UNL d   1      10.569   3.163 -16.380  0.00  0.00    -0.355 OA
ATOM     23  C   UNL d   1      11.171   4.212 -15.621  0.00  0.00     0.149 C 
ATOM     24  C   UNL d   1      10.807   4.018 -14.138  0.00  0.00     0.280 C 
ATOM     25  C   UNL d   1      12.681   4.128 -15.835  0.00  0.00     0.034 C 
ENDBRANCH  17  18
ENDBRANCH  16  17
ENDBRANCH  15  16
ENDBRANCH   1  15
TORSDOF 6
