REMARK  4 active torsions:
REMARK  status: ('A' for Active; 'I' for Inactive)
REMARK    1  A    between atoms: C_2  and  C_3 
REMARK    2  A    between atoms: C_3  and  N_4 
REMARK    3  A    between atoms: N_4  and  C_5 
REMARK    4  A    between atoms: C_9  and  O_10 
ROOT
ATOM      1  C   UNL d   1       9.752   6.516  -8.280  0.00  0.00     0.102 C 
ATOM      2  C   UNL d   1       8.885   6.437  -7.045  0.00  0.00     0.029 C 
ATOM      3  C   UNL d   1       9.844   6.468  -5.798  0.00  0.00     0.030 C 
ATOM      4  C   UNL d   1      10.784   7.624  -5.791  0.00  0.00    -0.004 C 
ATOM      5  C   UNL d   1      11.527   7.987  -4.616  0.00  0.00     0.090 C 
ATOM      6  C   UNL d   1      12.297   9.192  -4.660  0.00  0.00     0.024 C 
ATOM      7  C   UNL d   1      12.380   9.881  -5.882  0.00  0.00     0.002 C 
ATOM      8  C   UNL d   1      11.805   9.383  -7.044  0.00  0.00    -0.004 C 
ATOM      9  C   UNL d   1      11.009   8.293  -7.008  0.00  0.00    -0.023 C 
ATOM     10  C   UNL d   1      10.333   7.923  -8.341  0.00  0.00     0.044 C 
ATOM     11  C   UNL d   1       9.326   9.022  -8.697  0.00  0.00     0.007 C 
ENDROOT
BRANCH   1  12
ATOM     12  N   UNL d   1       8.934   6.246  -9.462  0.00  0.00    -0.297 NA
BRANCH  12  13
ATOM     13  C   UNL d   1       9.628   5.926 -10.669  0.00  0.00     0.120 C 
BRANCH  13  14
ATOM     14  C   UNL d   1       9.454   4.426 -10.902  0.00  0.00     0.026 C 
ATOM     15  C   UNL d   1       9.689   4.017 -12.351  0.00  0.00     0.002 C 
ENDBRANCH  13  14
ENDBRANCH  12  13
ENDBRANCH   1  12
BRANCH   5  16
ATOM     16  O   UNL d   1      11.494   7.172  -3.520  0.00  0.00    -0.328 OA
ATOM     17  C   UNL d   1      11.971   7.747  -2.314  0.00  0.00     0.181 C 
ENDBRANCH   5  16
TORSDOF 4
