REMARK  5 active torsions:
REMARK  status: ('A' for Active; 'I' for Inactive)
REMARK    1  A    between atoms: O_2  and  C_3 
REMARK    2  A    between atoms: C_7  and  N_8 
REMARK    3  A    between atoms: N_8  and  C_9 
REMARK    4  A    between atoms: C_11  and  C_12 
REMARK    5  A    between atoms: C_12  and  C_13 
ROOT
ATOM      1  C   UNL d   1       7.187  -0.160 -17.563  0.00  0.00     0.161 A 
ATOM      2  N   UNL d   1       7.174   0.204 -16.296  0.00  0.00    -0.212 NA
ATOM      3  C   UNL d   1       6.049   0.055 -15.608  0.00  0.00     0.145 A 
ATOM      4  N   UNL d   1       4.926  -0.499 -16.090  0.00  0.00    -0.235 NA
ATOM      5  C   UNL d   1       4.907  -0.918 -17.367  0.00  0.00     0.061 A 
ATOM      6  C   UNL d   1       6.059  -0.743 -18.188  0.00  0.00     0.029 A 
ATOM      7  C   UNL d   1       6.130  -1.133 -19.654  0.00  0.00     0.069 C 
ATOM      8  C   UNL d   1       5.717  -2.583 -19.931  0.00  0.00     0.295 C 
ATOM      9  N   UNL d   1       4.272  -2.756 -19.923  0.00  0.00     0.340 N 
ATOM     10  C   UNL d   1       3.757  -2.883 -18.568  0.00  0.00     0.296 C 
ATOM     11  C   UNL d   1       3.612  -1.530 -17.858  0.00  0.00     0.084 C 
ENDROOT
BRANCH   1  12
ATOM     12  N   UNL d   1       8.355   0.035 -18.342  0.00  0.00    -0.227 NA
BRANCH  12  13
ATOM     13  C   UNL d   1       9.583   0.635 -17.990  0.00  0.00     0.085 A 
ATOM     14  C   UNL d   1       9.673   1.696 -17.053  0.00  0.00     0.019 A 
ATOM     15  C   UNL d   1      10.962   2.217 -16.741  0.00  0.00     0.004 A 
ATOM     16  C   UNL d   1      12.135   1.734 -17.381  0.00  0.00     0.024 A 
ATOM     17  C   UNL d   1      12.046   0.728 -18.373  0.00  0.00     0.096 A 
ATOM     18  C   UNL d   1      10.755   0.167 -18.657  0.00  0.00     0.043 A 
BRANCH  17  19
ATOM     19  O   UNL d   1      13.216   0.391 -19.011  0.00  0.00    -0.328 OA
ATOM     20  C   UNL d   1      13.169  -0.715 -19.885  0.00  0.00     0.181 C 
ENDBRANCH  17  19
ENDBRANCH  12  13
ENDBRANCH   1  12
BRANCH   3  21
ATOM     21  C   UNL d   1       6.007   0.600 -14.170  0.00  0.00     0.092 C 
BRANCH  21  22
ATOM     22  C   UNL d   1       6.729   1.941 -13.996  0.00  0.00    -0.015 A 
ATOM     23  C   UNL d   1       8.094   2.097 -14.394  0.00  0.00    -0.004 A 
ATOM     24  C   UNL d   1       8.740   3.344 -14.271  0.00  0.00    -0.000 A 
ATOM     25  C   UNL d   1       8.058   4.426 -13.690  0.00  0.00    -0.000 A 
ATOM     26  C   UNL d   1       6.733   4.273 -13.202  0.00  0.00    -0.000 A 
ATOM     27  C   UNL d   1       6.072   3.032 -13.382  0.00  0.00    -0.004 A 
ENDBRANCH  21  22
ENDBRANCH   3  21
TORSDOF 5
