REMARK  6 active torsions:
REMARK  status: ('A' for Active; 'I' for Inactive)
REMARK    1  A    between atoms: N_5  and  C_6 
REMARK    2  A    between atoms: C_10  and  N_11 
REMARK    3  A    between atoms: N_11  and  C_12 
REMARK    4  A    between atoms: N_11  and  S_19 
REMARK    5  A    between atoms: C_12  and  C_13 
REMARK    6  A    between atoms: S_19  and  C_22 
ROOT
ATOM      1  N   UNL d   1       8.355   4.211 -13.414  0.00  0.00    -0.249 N 
ENDROOT
BRANCH   1   2
ATOM      2  C   UNL d   1       8.131   3.051 -14.214  0.00  0.00     0.072 C 
ATOM      3  C   UNL d   1       6.802   2.619 -14.442  0.00  0.00     0.018 C 
ATOM      4  C   UNL d   1       6.595   1.485 -15.265  0.00  0.00     0.003 C 
ATOM      5  C   UNL d   1       7.646   0.833 -15.916  0.00  0.00     0.017 C 
ATOM      6  C   UNL d   1       8.987   1.231 -15.682  0.00  0.00     0.058 C 
ATOM      7  C   UNL d   1       9.183   2.299 -14.759  0.00  0.00     0.035 C 
BRANCH   6   8
ATOM      8  N   UNL d   1      10.077   0.607 -16.293  0.00  0.00    -0.344 N 
ATOM      9  C   UNL d   1      11.394   1.219 -16.435  0.00  0.00     0.137 C 
ATOM     10  C   UNL d   1      11.871   1.242 -17.902  0.00  0.00     0.274 C 
ATOM     11  N   UNL d   1      11.905  -0.127 -18.395  0.00  0.00     0.143 N 
ATOM     12  C   UNL d   1      12.365  -0.135 -19.777  0.00  0.00     0.286 C 
ATOM     13  C   UNL d   1      10.546  -0.671 -18.328  0.00  0.00     0.274 C 
ATOM     14  C   UNL d   1      10.008  -0.697 -16.884  0.00  0.00     0.137 C 
ENDBRANCH   6   8
ENDBRANCH   1   2
BRANCH   1  15
ATOM     15  C   UNL d   1       9.644   4.921 -13.582  0.00  0.00     0.145 C 
BRANCH  15  16
ATOM     16  C   UNL d   1      10.454   4.811 -14.863  0.00  0.00     0.001 A 
ATOM     17  C   UNL d   1       9.883   5.176 -16.101  0.00  0.00    -0.002 A 
ATOM     18  C   UNL d   1      10.572   4.916 -17.304  0.00  0.00    -0.000 A 
ATOM     19  C   UNL d   1      11.830   4.331 -17.274  0.00  0.00    -0.000 A 
ATOM     20  C   UNL d   1      12.458   4.019 -16.040  0.00  0.00    -0.000 A 
ATOM     21  C   UNL d   1      11.743   4.237 -14.841  0.00  0.00    -0.002 A 
ENDBRANCH  15  16
ENDBRANCH   1  15
BRANCH   1  22
ATOM     22  S   UNL d   1       7.230   4.836 -12.200  0.00  0.00     0.268 S 
ATOM     23  O   UNL d   1       6.547   5.984 -12.840  0.00  0.00    -0.200 OA
ATOM     24  O   UNL d   1       6.443   3.704 -11.704  0.00  0.00    -0.200 OA
BRANCH  22  25
ATOM     25  C   UNL d   1       8.271   5.456 -10.875  0.00  0.00     0.104 A 
ATOM     26  C   UNL d   1       9.061   6.599 -11.071  0.00  0.00     0.013 A 
ATOM     27  C   UNL d   1       9.866   7.077 -10.046  0.00  0.00     0.001 A 
ATOM     28  C   UNL d   1       9.900   6.425  -8.784  0.00  0.00     0.000 A 
ATOM     29  C   UNL d   1      10.667   8.237 -10.249  0.00  0.00     0.000 A 
ATOM     30  C   UNL d   1       9.098   5.276  -8.597  0.00  0.00     0.001 A 
ATOM     31  C   UNL d   1      10.700   6.915  -7.760  0.00  0.00     0.000 A 
ATOM     32  C   UNL d   1       8.299   4.788  -9.638  0.00  0.00     0.013 A 
ATOM     33  C   UNL d   1      11.500   8.064  -7.970  0.00  0.00     0.000 A 
ATOM     34  C   UNL d   1      11.469   8.710  -9.224  0.00  0.00     0.000 A 
ENDBRANCH  22  25
ENDBRANCH   1  22
TORSDOF 6
