REMARK  4 active torsions:
REMARK  status: ('A' for Active; 'I' for Inactive)
REMARK    1  A    between atoms: C_2  and  C_3 
REMARK    2  A    between atoms: C_3  and  C_4 
REMARK    3  A    between atoms: C_3  and  C_8 
REMARK    4  A    between atoms: C_4  and  C_5 
ROOT
ATOM      1  C   UNL d   1      10.908   8.181  -5.893  0.00  0.00    -0.020 A 
ATOM      2  C   UNL d   1      10.918   9.443  -5.243  0.00  0.00    -0.003 A 
ATOM      3  C   UNL d   1      11.454   9.584  -3.949  0.00  0.00     0.011 A 
ATOM      4  C   UNL d   1      11.992   8.462  -3.289  0.00  0.00     0.058 A 
ATOM      5 CL   UNL d   1      12.651   8.613  -1.690  0.00  0.00    -0.082 Cl
ATOM      6  C   UNL d   1      11.973   7.201  -3.906  0.00  0.00     0.011 A 
ATOM      7  C   UNL d   1      11.444   7.062  -5.194  0.00  0.00    -0.003 A 
ENDROOT
BRANCH   1   8
ATOM      8  C   UNL d   1      10.371   8.066  -7.338  0.00  0.00     0.072 C 
BRANCH   8   9
ATOM      9  C   UNL d   1      11.251   8.913  -8.301  0.00  0.00     0.343 C 
ATOM     10  N   UNL d   1      12.614   8.418  -8.294  0.00  0.00     0.618 N 
ENDBRANCH   8   9
BRANCH   8  11
ATOM     11  C   UNL d   1      10.170   6.586  -7.761  0.00  0.00     0.104 C 
BRANCH  11  12
ATOM     12  C   UNL d   1       9.415   6.307  -9.066  0.00  0.00     0.186 C 
ATOM     13  O   UNL d   1       8.781   5.280  -9.279  0.00  0.00    -0.647 OA
ATOM     14  O   UNL d   1       9.471   7.324  -9.940  0.00  0.00    -0.647 OA
ENDBRANCH  11  12
ENDBRANCH   8  11
ENDBRANCH   1   8
TORSDOF 4
