REMARK  2 active torsions:
REMARK  status: ('A' for Active; 'I' for Inactive)
REMARK    1  A    between atoms: C_2  and  C_3 
REMARK    2  A    between atoms: C_3  and  N_4 
ROOT
ATOM      1  N   UNL d   1      11.238   8.505  -5.173  0.00  0.00     0.140 N 
ATOM      2  C   UNL d   1      12.097   9.473  -5.805  0.00  0.00     0.251 C 
ATOM      3  C   UNL d   1      11.683   9.545  -7.270  0.00  0.00     0.042 C 
ATOM      4  C   UNL d   1      10.454   8.671  -7.320  0.00  0.00     0.055 C 
ATOM      5  C   UNL d   1      10.088   8.026  -8.649  0.00  0.00    -0.022 A 
ATOM      6  C   UNL d   1      10.297   8.696  -9.868  0.00  0.00    -0.004 A 
ATOM      7  C   UNL d   1       9.860   8.110 -11.066  0.00  0.00     0.002 A 
ATOM      8  C   UNL d   1       9.284   6.827 -11.080  0.00  0.00     0.027 A 
ATOM      9  C   UNL d   1       9.060   6.161  -9.870  0.00  0.00     0.127 A 
ATOM     10  O   UNL d   1       8.398   4.967  -9.908  0.00  0.00    -0.191 OA
ATOM     11  C   UNL d   1       9.450   6.766  -8.649  0.00  0.00    -0.001 A 
ATOM     12  C   UNL d   1       9.181   6.051  -7.339  0.00  0.00     0.030 C 
ATOM     13  C   UNL d   1       9.566   6.796  -6.041  0.00  0.00     0.038 C 
ATOM     14  C   UNL d   1      10.809   7.658  -6.255  0.00  0.00     0.224 C 
ENDROOT
BRANCH   1  15
ATOM     15  C   UNL d   1      11.891   7.794  -4.067  0.00  0.00     0.276 C 
BRANCH  15  16
ATOM     16  C   UNL d   1      12.572   8.703  -3.048  0.00  0.00     0.009 C 
ATOM     17  C   UNL d   1      12.635   8.470  -1.732  0.00  0.00    -0.003 C 
ENDBRANCH  15  16
ENDBRANCH   1  15
TORSDOF 2
