REMARK  3 active torsions:
REMARK  status: ('A' for Active; 'I' for Inactive)
REMARK    1  A    between atoms: C_5  and  N_6 
REMARK    2  A    between atoms: N_9  and  C_10 
REMARK    3  A    between atoms: C_10  and  C_11 
ROOT
ATOM      1  N   UNL d   1      10.283   8.161  -6.466  0.00  0.00    -0.344 N 
ATOM      2  C   UNL d   1       9.428   7.036  -6.834  0.00  0.00     0.137 C 
ATOM      3  C   UNL d   1       9.877   6.448  -8.181  0.00  0.00     0.275 C 
ATOM      4  N   UNL d   1       9.872   7.500  -9.204  0.00  0.00     0.147 N 
ATOM      5  C   UNL d   1      10.833   8.544  -8.827  0.00  0.00     0.275 C 
ATOM      6  C   UNL d   1      10.415   9.183  -7.493  0.00  0.00     0.137 C 
ENDROOT
BRANCH   4   7
ATOM      7  C   UNL d   1      10.244   6.931 -10.494  0.00  0.00     0.297 C 
BRANCH   7   8
ATOM      8  C   UNL d   1       9.327   5.990 -11.224  0.00  0.00     0.112 A 
ATOM      9  N   UNL d   1       9.697   5.378 -12.421  0.00  0.00    -0.227 NA
ATOM     10  C   UNL d   1       8.641   4.652 -12.798  0.00  0.00     0.167 A 
ATOM     11  N   UNL d   1       7.580   4.816 -11.876  0.00  0.00    -0.285 N 
ATOM     12  C   UNL d   1       8.394   3.790 -13.905  0.00  0.00     0.136 A 
ATOM     13  C   UNL d   1       8.051   5.648 -10.888  0.00  0.00     0.098 A 
ATOM     14  C   UNL d   1       6.379   4.202 -12.051  0.00  0.00     0.102 A 
ATOM     15  C   UNL d   1       6.250   3.401 -13.153  0.00  0.00     0.118 A 
ATOM     16  N   UNL d   1       7.247   3.187 -14.070  0.00  0.00    -0.238 NA
ENDBRANCH   7   8
ENDBRANCH   4   7
BRANCH   1  17
ATOM     17  C   UNL d   1      10.997   8.218  -5.258  0.00  0.00     0.056 A 
ATOM     18  C   UNL d   1      11.201   9.461  -4.611  0.00  0.00     0.019 A 
ATOM     19  C   UNL d   1      11.859   9.514  -3.371  0.00  0.00     0.031 A 
ATOM     20  C   UNL d   1      12.341   8.338  -2.774  0.00  0.00     0.140 A 
ATOM     21  F   UNL d   1      12.987   8.402  -1.590  0.00  0.00    -0.204 F 
ATOM     22  C   UNL d   1      12.151   7.104  -3.409  0.00  0.00     0.031 A 
ATOM     23  C   UNL d   1      11.480   7.039  -4.646  0.00  0.00     0.019 A 
ENDBRANCH   1  17
TORSDOF 3
