REMARK  10 active torsions:
REMARK  status: ('A' for Active; 'I' for Inactive)
REMARK    1  A    between atoms: S_2  and  C_3 
REMARK    2  A    between atoms: C_8  and  C_9 
REMARK    3  A    between atoms: C_11  and  C_12 
REMARK    4  A    between atoms: C_12  and  N_13 
REMARK    5  A    between atoms: N_13  and  C_14 
REMARK    6  A    between atoms: C_14  and  C_15 
REMARK    7  A    between atoms: C_15  and  C_16 
REMARK    8  A    between atoms: C_16  and  C_17 
REMARK    9  A    between atoms: C_17  and  O_18 
REMARK   10  A    between atoms: O_18  and  C_19 
ROOT
ATOM      1  C   UNL d   1       8.979   5.369 -11.894  0.00  0.00     0.041 C 
ENDROOT
BRANCH   1   2
ATOM      2  C   UNL d   1       8.891   4.111 -12.746  0.00  0.00     0.290 C 
BRANCH   2   3
ATOM      3  N   UNL d   1       8.878   4.467 -14.151  0.00  0.00     0.339 N 
BRANCH   3   4
ATOM      4  C   UNL d   1       8.866   3.261 -14.960  0.00  0.00     0.290 C 
BRANCH   4   5
ATOM      5  C   UNL d   1      10.212   2.546 -14.923  0.00  0.00     0.041 A 
ATOM      6  C   UNL d   1      10.630   1.605 -16.038  0.00  0.00     0.025 A 
ATOM      7  C   UNL d   1      10.271   1.055 -14.677  0.00  0.00     0.007 A 
BRANCH   6   8
ATOM      8  C   UNL d   1       9.747   1.365 -17.227  0.00  0.00    -0.017 A 
ATOM      9  C   UNL d   1       9.518   2.365 -18.206  0.00  0.00     0.021 A 
ATOM     10  C   UNL d   1       8.623   2.111 -19.268  0.00  0.00     0.006 A 
ATOM     11  C   UNL d   1       7.973   0.866 -19.368  0.00  0.00     0.001 A 
ATOM     12  C   UNL d   1       8.226  -0.140 -18.418  0.00  0.00    -0.000 A 
ATOM     13  C   UNL d   1       9.107   0.114 -17.352  0.00  0.00    -0.004 A 
BRANCH   9  14
ATOM     14  S   UNL d   1      10.355   3.929 -18.109  0.00  0.00    -0.113 SA
ATOM     15  C   UNL d   1       9.460   5.135 -19.131  0.00  0.00     0.074 C 
ENDBRANCH   9  14
ENDBRANCH   6   8
ENDBRANCH   4   5
ENDBRANCH   3   4
ENDBRANCH   2   3
ENDBRANCH   1   2
BRANCH   1  16
ATOM     16  C   UNL d   1       9.303   5.018 -10.435  0.00  0.00     0.035 C 
BRANCH  16  17
ATOM     17  C   UNL d   1       9.504   6.272  -9.587  0.00  0.00     0.149 C 
BRANCH  17  18
ATOM     18  O   UNL d   1      10.072   5.935  -8.329  0.00  0.00    -0.331 OA
BRANCH  18  19
ATOM     19  C   UNL d   1      10.354   6.971  -7.473  0.00  0.00     0.096 A 
ATOM     20  C   UNL d   1      10.912   6.646  -6.218  0.00  0.00     0.043 A 
ATOM     21  C   UNL d   1      11.207   7.640  -5.273  0.00  0.00     0.082 A 
ATOM     22  C   UNL d   1      10.958   8.987  -5.598  0.00  0.00    -0.004 A 
ATOM     23  N   UNL d   1      11.746   7.300  -4.003  0.00  0.00    -0.212 NA
ATOM     24  C   UNL d   1      10.451   9.327  -6.852  0.00  0.00    -0.001 A 
ATOM     25  C   UNL d   1      11.215  10.056  -4.575  0.00  0.00     0.038 C 
ATOM     26  C   UNL d   1      10.126   8.336  -7.790  0.00  0.00     0.024 A 
ATOM     27  C   UNL d   1      12.361   9.653  -3.643  0.00  0.00     0.095 C 
ATOM     28  C   UNL d   1      12.259   8.206  -3.151  0.00  0.00     0.256 C 
ATOM     29  O   UNL d   1      12.647   7.906  -2.024  0.00  0.00    -0.270 OA
ENDBRANCH  18  19
ENDBRANCH  17  18
ENDBRANCH  16  17
ENDBRANCH   1  16
TORSDOF 10
