REMARK  5 active torsions:
REMARK  status: ('A' for Active; 'I' for Inactive)
REMARK    1  A    between atoms: C_3  and  C_4 
REMARK    2  A    between atoms: C_3  and  C_18 
REMARK    3  A    between atoms: C_4  and  C_5 
REMARK    4  A    between atoms: C_5  and  N_6 
REMARK    5  A    between atoms: N_9  and  C_10 
ROOT
ATOM      1  N   UNL d   1       8.985   6.186  -9.489  0.00  0.00     0.141 N 
ATOM      2  C   UNL d   1       8.816   5.641  -8.141  0.00  0.00     0.274 C 
ATOM      3  C   UNL d   1       8.771   6.768  -7.092  0.00  0.00     0.138 C 
ATOM      4  N   UNL d   1       9.956   7.603  -7.213  0.00  0.00    -0.330 N 
ATOM      5  C   UNL d   1      10.198   8.129  -8.551  0.00  0.00     0.138 C 
ATOM      6  C   UNL d   1      10.217   6.976  -9.576  0.00  0.00     0.274 C 
ENDROOT
BRANCH   1   7
ATOM      7  C   UNL d   1       8.918   5.116 -10.481  0.00  0.00     0.257 C 
BRANCH   7   8
ATOM      8  C   UNL d   1       8.466   5.657 -11.852  0.00  0.00     0.084 C 
BRANCH   8   9
ATOM      9  C   UNL d   1       8.143   4.516 -12.835  0.00  0.00     0.090 C 
ATOM     10  N   UNL d   1       6.982   3.993 -12.941  0.00  0.00    -0.101 NA
ATOM     11  O   UNL d   1       6.034   4.577 -12.038  0.00  0.00    -0.061 OA
BRANCH   9  12
ATOM     12  C   UNL d   1       9.262   3.974 -13.675  0.00  0.00     0.018 A 
ATOM     13  C   UNL d   1       9.296   2.600 -14.039  0.00  0.00     0.031 A 
ATOM     14  C   UNL d   1      10.357   2.067 -14.806  0.00  0.00     0.140 A 
ATOM     15  C   UNL d   1      11.395   2.909 -15.242  0.00  0.00     0.030 A 
ATOM     16  F   UNL d   1      10.375   0.748 -15.129  0.00  0.00    -0.204 F 
ATOM     17  C   UNL d   1      11.368   4.275 -14.910  0.00  0.00     0.002 A 
ATOM     18  C   UNL d   1      10.306   4.800 -14.147  0.00  0.00     0.001 A 
ENDBRANCH   9  12
ENDBRANCH   8   9
ENDBRANCH   7   8
ENDBRANCH   1   7
BRANCH   4  19
ATOM     19  C   UNL d   1      10.801   7.896  -6.130  0.00  0.00     0.140 A 
ATOM     20  N   UNL d   1      11.410   9.101  -6.151  0.00  0.00    -0.227 NA
ATOM     21  C   UNL d   1      12.229   9.432  -5.137  0.00  0.00     0.101 A 
ATOM     22  C   UNL d   1      12.467   8.592  -4.029  0.00  0.00     0.021 A 
ATOM     23  C   UNL d   1      11.856   7.326  -4.012  0.00  0.00     0.005 A 
ATOM     24  C   UNL d   1      11.017   6.970  -5.083  0.00  0.00     0.037 A 
ENDBRANCH   4  19
TORSDOF 5
