REMARK  3 active torsions:
REMARK  status: ('A' for Active; 'I' for Inactive)
REMARK    1  A    between atoms: C_2  and  C_5 
REMARK    2  A    between atoms: C_8  and  S_9 
REMARK    3  A    between atoms: S_9  and  C_12 
ROOT
ATOM      1  C   UNL d   1      12.327   8.397 -10.384  0.00  0.00     0.110 C 
ATOM      2  C   UNL d   1      13.466   7.991  -9.791  0.00  0.00     0.090 C 
ATOM      3  C   UNL d   1      14.761   8.181 -10.397  0.00  0.00     0.102 C 
ATOM      4  N   UNL d   1      15.838   8.400 -10.755  0.00  0.00    -0.191 NA
ENDROOT
BRANCH   1   5
ATOM      5  S   UNL d   1      10.711   8.099  -9.641  0.00  0.00     0.211 S 
ATOM      6  O   UNL d   1      10.286   6.761 -10.030  0.00  0.00    -0.217 OA
ATOM      7  O   UNL d   1       9.841   9.272  -9.922  0.00  0.00    -0.217 OA
BRANCH   5   8
ATOM      8  C   UNL d   1      11.061   8.115  -7.902  0.00  0.00     0.088 A 
ATOM      9  C   UNL d   1      11.005   6.906  -7.184  0.00  0.00     0.011 A 
ATOM     10  C   UNL d   1      11.270   6.912  -5.799  0.00  0.00    -0.004 A 
ATOM     11  C   UNL d   1      11.569   8.126  -5.129  0.00  0.00    -0.023 A 
ATOM     12  C   UNL d   1      11.643   9.331  -5.886  0.00  0.00    -0.004 A 
ATOM     13  C   UNL d   1      11.375   9.326  -7.263  0.00  0.00     0.011 A 
BRANCH  11  14
ATOM     14  C   UNL d   1      11.829   8.145  -3.610  0.00  0.00     0.019 C 
ATOM     15  C   UNL d   1      11.248   9.405  -2.941  0.00  0.00     0.004 C 
ATOM     16  C   UNL d   1      13.230   8.350  -3.394  0.00  0.00     0.004 C 
ATOM     17  C   UNL d   1      11.548   6.772  -2.911  0.00  0.00     0.004 C 
ENDBRANCH  11  14
ENDBRANCH   5   8
ENDBRANCH   1   5
TORSDOF 3
