REMARK  7 active torsions:
REMARK  status: ('A' for Active; 'I' for Inactive)
REMARK    1  A    between atoms: C_6  and  C_7 
REMARK    2  A    between atoms: C_10  and  S_11 
REMARK    3  A    between atoms: S_11  and  C_12 
REMARK    4  A    between atoms: C_12  and  C_13 
REMARK    5  A    between atoms: C_13  and  C_14 
REMARK    6  A    between atoms: C_14  and  N_15 
REMARK    7  A    between atoms: C_19  and  C_20 
ROOT
ATOM      1  C   UNL d   1       8.735   5.750 -11.957  0.00  0.00     0.047 C 
ENDROOT
BRANCH   1   2
ATOM      2  C   UNL d   1       8.350   4.311 -12.269  0.00  0.00     0.067 C 
BRANCH   2   3
ATOM      3  S   UNL d   1       8.374   3.998 -14.058  0.00  0.00    -0.075 SA
BRANCH   3   4
ATOM      4  C   UNL d   1      10.089   4.275 -14.416  0.00  0.00     0.193 A 
ATOM      5  N   UNL d   1      11.076   3.966 -13.577  0.00  0.00    -0.122 NA
ATOM      6  N   UNL d   1      12.235   4.364 -14.189  0.00  0.00    -0.126 NA
ATOM      7  C   UNL d   1      11.862   4.850 -15.375  0.00  0.00     0.191 A 
ATOM      8  N   UNL d   1      10.529   4.834 -15.560  0.00  0.00    -0.287 N 
ATOM      9  C   UNL d   1       9.797   5.333 -16.707  0.00  0.00     0.134 C 
BRANCH   7  10
ATOM     10  C   UNL d   1      12.838   5.307 -16.322  0.00  0.00     0.151 A 
ATOM     11  C   UNL d   1      13.393   6.537 -16.572  0.00  0.00     0.087 A 
ATOM     12  C   UNL d   1      13.083   7.864 -15.958  0.00  0.00     0.054 C 
ATOM     13  N   UNL d   1      14.381   6.376 -17.529  0.00  0.00    -0.221 NA
ATOM     14  C   UNL d   1      14.374   5.072 -17.791  0.00  0.00     0.225 A 
ATOM     15  O   UNL d   1      13.468   4.363 -17.077  0.00  0.00    -0.282 OA
ENDBRANCH   7  10
ENDBRANCH   3   4
ENDBRANCH   2   3
ENDBRANCH   1   2
BRANCH   1  16
ATOM     16  C   UNL d   1       8.925   5.965 -10.453  0.00  0.00     0.251 C 
BRANCH  16  17
ATOM     17  N   UNL d   1      10.090   6.792 -10.123  0.00  0.00     0.143 N 
ATOM     18  C   UNL d   1      10.224   6.855  -8.687  0.00  0.00     0.284 C 
ATOM     19  C   UNL d   1      11.421   7.716  -8.225  0.00  0.00     0.171 C 
ATOM     20  O   UNL d   1      11.378   8.989  -8.824  0.00  0.00    -0.348 OA
ATOM     21  C   UNL d   1      11.339   8.927 -10.235  0.00  0.00     0.178 C 
ATOM     22  C   UNL d   1      10.062   8.152 -10.663  0.00  0.00     0.282 C 
BRANCH  19  23
ATOM     23  C   UNL d   1      11.484   7.863  -6.720  0.00  0.00     0.007 A 
ATOM     24  C   UNL d   1      11.402   6.711  -5.921  0.00  0.00    -0.001 A 
ATOM     25  C   UNL d   1      11.534   6.807  -4.524  0.00  0.00     0.006 A 
ATOM     26  C   UNL d   1      11.844   8.031  -3.931  0.00  0.00     0.035 A 
ATOM     27  C   UNL d   1      11.912   9.196  -4.714  0.00  0.00     0.006 A 
ATOM     28 BR   UNL d   1      12.228   8.068  -2.059  0.00  0.00    -0.049 Br
ATOM     29  C   UNL d   1      11.760   9.121  -6.120  0.00  0.00    -0.001 A 
ENDBRANCH  19  23
ENDBRANCH  16  17
ENDBRANCH   1  16
TORSDOF 7
