REMARK  4 active torsions:
REMARK  status: ('A' for Active; 'I' for Inactive)
REMARK    1  A    between atoms: N_10  and  C_11 
REMARK    2  A    between atoms: N_14  and  C_15 
REMARK    3  A    between atoms: N_18  and  C_19 
REMARK    4  A    between atoms: C_19  and  C_20 
ROOT
ATOM      1  C   UNL d   1      11.366   7.716  -7.020  0.00  0.00     0.094 C 
ATOM      2  C   UNL d   1      11.350   8.592  -8.309  0.00  0.00     0.058 C 
ATOM      3  C   UNL d   1      11.215   7.771  -9.584  0.00  0.00     0.252 C 
ATOM      4  N   UNL d   1       9.985   6.966  -9.491  0.00  0.00     0.135 N 
ATOM      5  C   UNL d   1      10.087   6.053  -8.339  0.00  0.00     0.252 C 
ATOM      6  C   UNL d   1      10.149   6.803  -7.025  0.00  0.00     0.058 C 
ENDROOT
BRANCH   4   7
ATOM      7  C   UNL d   1       9.809   6.263 -10.769  0.00  0.00     0.223 C 
ATOM      8  C   UNL d   1       9.242   4.825 -10.669  0.00  0.00     0.069 C 
ATOM      9  C   UNL d   1       9.151   4.180 -12.045  0.00  0.00     0.253 C 
ATOM     10  N   UNL d   1       8.157   4.903 -12.781  0.00  0.00     0.141 N 
ATOM     11  C   UNL d   1       8.690   6.237 -13.047  0.00  0.00     0.253 C 
ATOM     12  C   UNL d   1       8.921   7.034 -11.754  0.00  0.00     0.069 C 
BRANCH  10  13
ATOM     13  C   UNL d   1       7.913   4.230 -14.049  0.00  0.00     0.278 C 
BRANCH  13  14
ATOM     14  C   UNL d   1       7.340   2.825 -13.986  0.00  0.00     0.021 A 
ATOM     15  C   UNL d   1       6.056   2.594 -13.439  0.00  0.00     0.056 A 
ATOM     16  C   UNL d   1       5.604   1.269 -13.271  0.00  0.00     0.011 A 
ATOM     17 CL   UNL d   1       5.070   3.901 -12.881  0.00  0.00    -0.083 Cl
ATOM     18  C   UNL d   1       6.402   0.176 -13.669  0.00  0.00     0.001 A 
ATOM     19  C   UNL d   1       7.654   0.413 -14.258  0.00  0.00    -0.000 A 
ATOM     20  C   UNL d   1       8.120   1.734 -14.420  0.00  0.00    -0.002 A 
ENDBRANCH  13  14
ENDBRANCH  10  13
ENDBRANCH   4   7
BRANCH   1  21
ATOM     21  N   UNL d   1      11.411   8.468  -5.759  0.00  0.00    -0.281 N 
ATOM     22  C   UNL d   1      11.088   9.754  -5.505  0.00  0.00     0.350 A 
ATOM     23  O   UNL d   1      10.787  10.583  -6.377  0.00  0.00    -0.244 OA
ATOM     24  N   UNL d   1      11.178  10.024  -4.218  0.00  0.00    -0.191 NA
ATOM     25  C   UNL d   1      11.688   8.908  -3.569  0.00  0.00     0.102 A 
ATOM     26  C   UNL d   1      11.783   7.919  -4.514  0.00  0.00     0.082 A 
ATOM     27  C   UNL d   1      12.034   8.757  -2.241  0.00  0.00     0.021 A 
ATOM     28  C   UNL d   1      12.165   6.614  -4.170  0.00  0.00     0.019 A 
ATOM     29  C   UNL d   1      12.577   6.431  -2.819  0.00  0.00     0.002 A 
ATOM     30  C   UNL d   1      12.511   7.477  -1.883  0.00  0.00     0.002 A 
ENDBRANCH   1  21
TORSDOF 4
