REMARK  4 active torsions:
REMARK  status: ('A' for Active; 'I' for Inactive)
REMARK    1  A    between atoms: C_4  and  O_5 
REMARK    2  A    between atoms: O_5  and  C_6 
REMARK    3  A    between atoms: C_6  and  C_7 
REMARK    4  A    between atoms: N_12  and  C_13 
ROOT
ATOM      1  C   UNL d   1       8.789   5.882 -11.319  0.00  0.00     0.064 C 
ATOM      2  C   UNL d   1       8.047   5.350 -10.103  0.00  0.00     0.007 C 
ATOM      3  C   UNL d   1       9.033   5.166  -8.959  0.00  0.00     0.035 C 
ATOM      4  C   UNL d   1       9.748   6.502  -8.656  0.00  0.00     0.241 C 
ATOM      5  C   UNL d   1      10.733   6.317  -7.470  0.00  0.00     0.135 C 
ATOM      6  N   UNL d   1      11.464   7.545  -7.237  0.00  0.00    -0.344 N 
ATOM      7  C   UNL d   1      12.138   8.126  -8.384  0.00  0.00     0.137 C 
ATOM      8  C   UNL d   1      11.153   8.256  -9.569  0.00  0.00     0.274 C 
ATOM      9  N   UNL d   1      10.460   6.989  -9.855  0.00  0.00     0.139 N 
ATOM     10  C   UNL d   1       9.514   7.198 -10.960  0.00  0.00     0.253 C 
ENDROOT
BRANCH   1  11
ATOM     11  C   UNL d   1       7.808   6.075 -12.503  0.00  0.00     0.151 C 
BRANCH  11  12
ATOM     12  O   UNL d   1       7.318   4.842 -13.023  0.00  0.00    -0.331 OA
BRANCH  12  13
ATOM     13  C   UNL d   1       8.200   3.996 -13.667  0.00  0.00     0.094 A 
ATOM     14  C   UNL d   1       7.678   2.792 -14.179  0.00  0.00     0.024 A 
ATOM     15  C   UNL d   1       8.520   1.851 -14.810  0.00  0.00     0.002 A 
ATOM     16  C   UNL d   1       9.900   2.103 -14.912  0.00  0.00     0.000 A 
ATOM     17  C   UNL d   1      10.430   3.309 -14.410  0.00  0.00     0.002 A 
ATOM     18  C   UNL d   1       9.582   4.267 -13.828  0.00  0.00     0.024 A 
ENDBRANCH  12  13
ENDBRANCH  11  12
ENDBRANCH   1  11
BRANCH   6  19
ATOM     19  C   UNL d   1      11.428   8.165  -5.978  0.00  0.00     0.056 A 
ATOM     20  C   UNL d   1      11.799   7.441  -4.827  0.00  0.00     0.017 A 
ATOM     21  C   UNL d   1      11.841   8.078  -3.572  0.00  0.00     0.002 A 
ATOM     22  C   UNL d   1      11.454   9.418  -3.454  0.00  0.00     0.000 A 
ATOM     23  C   UNL d   1      11.031  10.131  -4.604  0.00  0.00     0.002 A 
ATOM     24  C   UNL d   1      11.044   9.518  -5.860  0.00  0.00     0.017 A 
ENDBRANCH   6  19
TORSDOF 4
