REMARK  4 active torsions:
REMARK  status: ('A' for Active; 'I' for Inactive)
REMARK    1  A    between atoms: N_3  and  C_4 
REMARK    2  A    between atoms: C_4  and  C_5 
REMARK    3  A    between atoms: C_5  and  N_6 
REMARK    4  A    between atoms: N_17  and  C_18 
ROOT
ATOM      1  O   UNL d   1       9.117   4.182 -13.428  0.00  0.00    -0.247 OA
ATOM      2  C   UNL d   1       7.960   4.556 -13.182  0.00  0.00     0.328 A 
ATOM      3  N   UNL d   1       7.652   5.724 -12.623  0.00  0.00    -0.298 N 
ATOM      4  C   UNL d   1       6.219   5.913 -12.451  0.00  0.00     0.131 A 
ATOM      5  C   UNL d   1       5.645   4.622 -13.029  0.00  0.00     0.135 A 
ATOM      6  N   UNL d   1       6.828   3.881 -13.474  0.00  0.00    -0.278 N 
ENDROOT
BRANCH   3   7
ATOM      7  C   UNL d   1       8.624   6.747 -12.247  0.00  0.00     0.141 C 
BRANCH   7   8
ATOM      8  C   UNL d   1       8.784   6.767 -10.725  0.00  0.00     0.275 C 
BRANCH   8   9
ATOM      9  N   UNL d   1      10.028   6.152 -10.288  0.00  0.00     0.148 N 
ATOM     10  C   UNL d   1       9.863   5.616  -8.917  0.00  0.00     0.277 C 
ATOM     11  C   UNL d   1      10.224   6.743  -7.989  0.00  0.00     0.009 A 
ATOM     12  C   UNL d   1      10.928   7.687  -8.700  0.00  0.00     0.009 A 
ATOM     13  C   UNL d   1       9.970   6.897  -6.619  0.00  0.00    -0.003 A 
ATOM     14  C   UNL d   1      11.046   7.223 -10.125  0.00  0.00     0.277 C 
ATOM     15  C   UNL d   1      11.429   8.844  -8.097  0.00  0.00    -0.003 A 
ATOM     16  C   UNL d   1      11.190   9.028  -6.718  0.00  0.00    -0.000 A 
ATOM     17  C   UNL d   1      10.467   8.058  -5.988  0.00  0.00    -0.000 A 
ENDBRANCH   8   9
ENDBRANCH   7   8
ENDBRANCH   3   7
BRANCH   6  18
ATOM     18  C   UNL d   1       6.770   2.600 -14.121  0.00  0.00     0.092 A 
ATOM     19  C   UNL d   1       5.885   1.587 -13.678  0.00  0.00     0.156 A 
ATOM     20  C   UNL d   1       5.889   0.324 -14.303  0.00  0.00     0.032 A 
ATOM     21  F   UNL d   1       5.078   1.779 -12.606  0.00  0.00    -0.203 F 
ATOM     22  C   UNL d   1       6.748   0.071 -15.388  0.00  0.00     0.014 A 
ATOM     23  C   UNL d   1       7.616   1.073 -15.847  0.00  0.00     0.059 A 
ATOM     24  C   UNL d   1       7.627   2.325 -15.219  0.00  0.00     0.031 A 
ATOM     25 CL   UNL d   1       8.670   0.790 -17.181  0.00  0.00    -0.082 Cl
ENDBRANCH   6  18
TORSDOF 4
