REMARK  6 active torsions:
REMARK  status: ('A' for Active; 'I' for Inactive)
REMARK    1  A    between atoms: C_5  and  N_6 
REMARK    2  A    between atoms: N_6  and  C_7 
REMARK    3  A    between atoms: C_7  and  C_8 
REMARK    4  A    between atoms: C_8  and  N_9 
REMARK    5  A    between atoms: N_12  and  C_13 
REMARK    6  A    between atoms: C_13  and  C_14 
ROOT
ATOM      1  N   UNL d   1       9.847   6.340 -10.642  0.00  0.00     0.143 N 
ATOM      2  C   UNL d   1       9.037   7.061 -11.602  0.00  0.00     0.286 C 
ATOM      3  C   UNL d   1       9.066   6.359 -12.960  0.00  0.00     0.286 C 
ATOM      4  N   UNL d   1       8.585   4.986 -12.896  0.00  0.00     0.147 N 
ATOM      5  C   UNL d   1       9.399   4.265 -11.927  0.00  0.00     0.286 C 
ATOM      6  C   UNL d   1       9.356   4.964 -10.558  0.00  0.00     0.286 C 
ENDROOT
BRANCH   1   7
ATOM      7  C   UNL d   1       9.801   6.956  -9.343  0.00  0.00     0.277 C 
BRANCH   7   8
ATOM      8  C   UNL d   1      10.545   8.302  -9.193  0.00  0.00     0.161 C 
BRANCH   8   9
ATOM      9  N   UNL d   1      10.265   8.975  -7.929  0.00  0.00    -0.269 NA
BRANCH   9  10
ATOM     10  C   UNL d   1      10.773   8.560  -6.682  0.00  0.00     0.076 A 
ATOM     11  C   UNL d   1      11.018   9.546  -5.692  0.00  0.00     0.019 A 
ATOM     12  C   UNL d   1      11.482   9.166  -4.404  0.00  0.00     0.008 A 
ATOM     13  C   UNL d   1      11.696   7.794  -4.112  0.00  0.00     0.035 A 
ATOM     14 BR   UNL d   1      12.261   7.226  -2.392  0.00  0.00    -0.049 Br
ATOM     15  C   UNL d   1      11.451   6.828  -5.095  0.00  0.00     0.008 A 
ATOM     16  C   UNL d   1      11.009   7.195  -6.363  0.00  0.00     0.019 A 
ENDBRANCH   9  10
ENDBRANCH   8   9
ENDBRANCH   7   8
ENDBRANCH   1   7
BRANCH   4  17
ATOM     17  C   UNL d   1       8.614   4.361 -14.204  0.00  0.00     0.296 C 
BRANCH  17  18
ATOM     18  C   UNL d   1       7.739   3.151 -14.301  0.00  0.00     0.092 A 
ATOM     19  N   UNL d   1       7.953   2.169 -15.252  0.00  0.00    -0.248 NA
ATOM     20  C   UNL d   1       7.002   1.174 -15.152  0.00  0.00     0.081 A 
ATOM     21  C   UNL d   1       6.168   1.546 -14.062  0.00  0.00     0.019 A 
ATOM     22  C   UNL d   1       6.777  -0.004 -15.884  0.00  0.00     0.019 A 
ATOM     23  C   UNL d   1       6.620   2.821 -13.585  0.00  0.00     0.018 A 
ATOM     24  C   UNL d   1       5.117   0.670 -13.716  0.00  0.00     0.002 A 
ATOM     25  C   UNL d   1       4.873  -0.511 -14.447  0.00  0.00     0.000 A 
ATOM     26  C   UNL d   1       5.705  -0.842 -15.531  0.00  0.00     0.002 A 
ENDBRANCH  17  18
ENDBRANCH   4  17
TORSDOF 6
