REMARK  8 active torsions:
REMARK  status: ('A' for Active; 'I' for Inactive)
REMARK    1  A    between atoms: O_2  and  C_3 
REMARK    2  A    between atoms: C_6  and  C_7 
REMARK    3  A    between atoms: N_11  and  C_12 
REMARK    4  A    between atoms: C_12  and  C_13 
REMARK    5  A    between atoms: C_13  and  C_14 
REMARK    6  A    between atoms: C_14  and  S_15 
REMARK    7  A    between atoms: S_15  and  C_16 
REMARK    8  A    between atoms: C_19  and  C_20 
ROOT
ATOM      1  C   UNL d   1      10.724   4.621 -14.236  0.00  0.00     0.251 C 
ENDROOT
BRANCH   1   2
ATOM      2  N   UNL d   1       9.352   4.179 -14.440  0.00  0.00     0.137 N 
ATOM      3  C   UNL d   1       8.399   5.152 -13.907  0.00  0.00     0.251 C 
ATOM      4  C   UNL d   1       7.154   4.337 -13.739  0.00  0.00     0.039 A 
ATOM      5  C   UNL d   1       7.582   2.910 -13.647  0.00  0.00     0.052 A 
ATOM      6  C   UNL d   1       6.863   3.586 -12.476  0.00  0.00     0.008 A 
ATOM      7  C   UNL d   1       9.088   2.919 -13.748  0.00  0.00     0.254 C 
BRANCH   5   8
ATOM      8  C   UNL d   1       6.896   1.872 -14.493  0.00  0.00    -0.020 A 
ATOM      9  C   UNL d   1       7.256   1.665 -15.848  0.00  0.00    -0.002 A 
ATOM     10  C   UNL d   1       6.573   0.728 -16.640  0.00  0.00     0.025 A 
ATOM     11  C   UNL d   1       5.497  -0.024 -16.099  0.00  0.00     0.105 A 
ATOM     12  C   UNL d   1       5.151   0.173 -14.746  0.00  0.00     0.080 A 
ATOM     13  C   UNL d   1       5.851   1.090 -13.953  0.00  0.00     0.009 A 
ATOM     14 CL   UNL d   1       3.794  -0.649 -14.061  0.00  0.00    -0.080 Cl
BRANCH  11  15
ATOM     15  O   UNL d   1       4.747  -0.933 -16.816  0.00  0.00    -0.327 OA
ATOM     16  C   UNL d   1       5.069  -1.145 -18.180  0.00  0.00     0.181 C 
ENDBRANCH  11  15
ENDBRANCH   5   8
ENDBRANCH   1   2
BRANCH   1  17
ATOM     17  C   UNL d   1      11.489   4.628 -15.553  0.00  0.00     0.047 C 
BRANCH  17  18
ATOM     18  C   UNL d   1      11.170   5.853 -16.436  0.00  0.00     0.067 C 
BRANCH  18  19
ATOM     19  S   UNL d   1      11.964   5.761 -18.063  0.00  0.00    -0.075 SA
BRANCH  19  20
ATOM     20  C   UNL d   1      13.655   6.008 -17.638  0.00  0.00     0.193 A 
ATOM     21  N   UNL d   1      14.517   6.611 -18.491  0.00  0.00    -0.287 N 
ATOM     22  C   UNL d   1      15.670   6.596 -17.783  0.00  0.00     0.191 A 
ATOM     23  C   UNL d   1      14.257   7.158 -19.815  0.00  0.00     0.134 C 
ATOM     24  N   UNL d   1      15.539   5.986 -16.595  0.00  0.00    -0.126 NA
ATOM     25  N   UNL d   1      14.212   5.629 -16.491  0.00  0.00    -0.122 NA
BRANCH  22  26
ATOM     26  C   UNL d   1      16.952   7.155 -18.185  0.00  0.00     0.151 A 
ATOM     27  C   UNL d   1      17.340   8.308 -18.823  0.00  0.00     0.087 A 
ATOM     28  N   UNL d   1      18.728   8.321 -18.905  0.00  0.00    -0.221 NA
ATOM     29  C   UNL d   1      16.517   9.441 -19.367  0.00  0.00     0.054 C 
ATOM     30  C   UNL d   1      19.108   7.189 -18.323  0.00  0.00     0.225 A 
ATOM     31  O   UNL d   1      18.074   6.438 -17.862  0.00  0.00    -0.282 OA
ENDBRANCH  22  26
ENDBRANCH  19  20
ENDBRANCH  18  19
ENDBRANCH  17  18
ENDBRANCH   1  17
TORSDOF 8
