REMARK  4 active torsions:
REMARK  status: ('A' for Active; 'I' for Inactive)
REMARK       I    between atoms: C_2  and  N_4 
REMARK    1  A    between atoms: N_4  and  C_5 
REMARK    2  A    between atoms: N_4  and  C_26 
REMARK    3  A    between atoms: C_5  and  C_6 
REMARK    4  A    between atoms: C_9  and  C_10 
ROOT
ATOM      1  C   UNL d   1       9.430   6.786 -10.425  0.00  0.00     0.000 C 
ATOM      2  C   UNL d   1       8.936   7.038 -11.735  0.00  0.00    -0.003 C 
ATOM      3  C   UNL d   1       8.741   5.987 -12.659  0.00  0.00    -0.004 C 
ATOM      4  C   UNL d   1       9.115   4.683 -12.321  0.00  0.00    -0.017 C 
ATOM      5  C   UNL d   1       9.501   4.418 -10.984  0.00  0.00    -0.004 C 
ATOM      6  C   UNL d   1       9.716   5.457 -10.082  0.00  0.00    -0.003 C 
ENDROOT
BRANCH   4   7
ATOM      7  C   UNL d   1       9.106   3.513 -13.315  0.00  0.00     0.078 C 
ATOM      8  C   UNL d   1      10.034   3.688 -14.531  0.00  0.00    -0.018 A 
ATOM      9  C   UNL d   1      10.172   2.642 -15.488  0.00  0.00    -0.023 A 
ATOM     10  C   UNL d   1      10.780   4.867 -14.745  0.00  0.00     0.024 A 
ATOM     11  C   UNL d   1       9.437   1.322 -15.331  0.00  0.00     0.061 C 
ATOM     12  C   UNL d   1      11.000   2.816 -16.624  0.00  0.00     0.009 A 
ATOM     13  C   UNL d   1       7.911   1.473 -15.370  0.00  0.00     0.255 C 
ATOM     14  N   UNL d   1       7.364   1.846 -14.070  0.00  0.00     0.140 N 
ATOM     15  C   UNL d   1       7.641   3.225 -13.665  0.00  0.00     0.259 C 
ATOM     16  C   UNL d   1       5.926   1.643 -14.068  0.00  0.00     0.285 C 
ATOM     17  C   UNL d   1      11.697   4.021 -16.833  0.00  0.00     0.083 A 
ATOM     18 CL   UNL d   1      12.693   4.227 -18.229  0.00  0.00    -0.080 Cl
ATOM     19  C   UNL d   1      11.581   5.053 -15.886  0.00  0.00     0.141 A 
ATOM     20  O   UNL d   1      12.224   6.246 -16.058  0.00  0.00    -0.189 OA
ENDBRANCH   4   7
BRANCH   1  21
ATOM     21  C   UNL d   1       9.483   7.926  -9.421  0.00  0.00     0.131 C 
BRANCH  21  22
ATOM     22  N   UNL d   1      10.716   7.995  -8.607  0.00  0.00    -0.318 N 
ATOM     23  C   UNL d   1      11.845   8.512  -9.200  0.00  0.00     0.234 C 
ATOM     24  C   UNL d   1      13.157   8.585  -8.442  0.00  0.00     0.098 C 
ATOM     25  O   UNL d   1      11.844   8.850 -10.378  0.00  0.00    -0.272 OA
BRANCH  22  26
ATOM     26  C   UNL d   1      10.408   7.947  -7.159  0.00  0.00     0.084 C 
ATOM     27  C   UNL d   1       9.621   6.704  -6.643  0.00  0.00     0.022 C 
ATOM     28  C   UNL d   1      10.559   6.628  -5.432  0.00  0.00     0.004 C 
ATOM     29  C   UNL d   1      11.530   7.447  -6.242  0.00  0.00     0.022 C 
ENDBRANCH  22  26
ENDBRANCH  21  22
ENDBRANCH   1  21
TORSDOF 4
