REMARK  4 active torsions:
REMARK  status: ('A' for Active; 'I' for Inactive)
REMARK    1  A    between atoms: O_2  and  C_3 
REMARK    2  A    between atoms: C_13  and  O_14 
REMARK    3  A    between atoms: N_17  and  C_18 
REMARK    4  A    between atoms: C_18  and  C_19 
ROOT
ATOM      1  C   UNL d   1       7.330   0.745 -15.640  0.00  0.00     0.118 A 
ATOM      2  C   UNL d   1       6.256   1.241 -14.861  0.00  0.00     0.026 A 
ATOM      3  C   UNL d   1       6.409   2.406 -14.092  0.00  0.00     0.004 A 
ATOM      4  C   UNL d   1       7.641   3.090 -14.093  0.00  0.00     0.021 A 
ATOM      5  C   UNL d   1       7.865   4.332 -13.355  0.00  0.00    -0.015 A 
ATOM      6  C   UNL d   1       9.078   4.917 -13.368  0.00  0.00     0.071 A 
ATOM      7  C   UNL d   1      10.215   4.347 -14.139  0.00  0.00     0.298 A 
ATOM      8  O   UNL d   1      11.353   4.814 -14.106  0.00  0.00    -0.259 OA
ATOM      9  O   UNL d   1       9.934   3.248 -14.891  0.00  0.00    -0.271 OA
ATOM     10  C   UNL d   1       8.722   2.589 -14.845  0.00  0.00     0.127 A 
ATOM     11  C   UNL d   1       8.576   1.401 -15.591  0.00  0.00     0.139 A 
ATOM     12  C   UNL d   1       9.389   6.147 -12.538  0.00  0.00     0.282 C 
ATOM     13  N   UNL d   1       8.431   6.382 -11.467  0.00  0.00     0.146 N 
ATOM     14  C   UNL d   1       7.070   6.318 -12.003  0.00  0.00     0.256 C 
ATOM     15  C   UNL d   1       6.723   4.922 -12.539  0.00  0.00     0.062 C 
ENDROOT
BRANCH  13  16
ATOM     16  C   UNL d   1       8.662   5.530 -10.297  0.00  0.00     0.277 C 
BRANCH  16  17
ATOM     17  C   UNL d   1       9.387   6.241  -9.158  0.00  0.00     0.011 A 
ATOM     18  C   UNL d   1      10.581   6.970  -9.368  0.00  0.00    -0.002 A 
ATOM     19  C   UNL d   1      11.239   7.592  -8.289  0.00  0.00    -0.000 A 
ATOM     20  C   UNL d   1      10.706   7.503  -6.988  0.00  0.00    -0.000 A 
ATOM     21  C   UNL d   1       9.505   6.800  -6.779  0.00  0.00    -0.000 A 
ATOM     22  C   UNL d   1       8.850   6.174  -7.857  0.00  0.00    -0.002 A 
ENDBRANCH  16  17
ENDBRANCH  13  16
BRANCH  11  23
ATOM     23  O   UNL d   1       9.636   0.901 -16.300  0.00  0.00    -0.324 OA
ATOM     24  C   UNL d   1      10.665   0.365 -15.482  0.00  0.00     0.182 C 
ENDBRANCH  11  23
BRANCH   1  25
ATOM     25  O   UNL d   1       7.223  -0.356 -16.470  0.00  0.00    -0.326 OA
ATOM     26  C   UNL d   1       6.012  -1.099 -16.453  0.00  0.00     0.181 C 
ENDBRANCH   1  25
TORSDOF 4
