REMARK  8 active torsions:
REMARK  status: ('A' for Active; 'I' for Inactive)
REMARK    1  A    between atoms: C_2  and  C_3 
REMARK    2  A    between atoms: C_2  and  N_11 
REMARK    3  A    between atoms: C_3  and  C_4 
REMARK    4  A    between atoms: C_4  and  C_5 
REMARK    5  A    between atoms: N_11  and  C_12 
REMARK    6  A    between atoms: C_12  and  C_13 
REMARK    7  A    between atoms: C_13  and  C_15 
REMARK    8  A    between atoms: C_20  and  C_21 
ROOT
ATOM      1  C   UNL d   1       8.368   4.815 -11.365  0.00  0.00     0.327 C 
ENDROOT
BRANCH   1   2
ATOM      2  N   UNL d   1       9.006   6.012 -10.813  0.00  0.00     0.340 N 
BRANCH   2   3
ATOM      3  C   UNL d   1       8.972   6.106  -9.355  0.00  0.00     0.257 C 
ATOM      4  C   UNL d   1       9.513   4.829  -8.701  0.00  0.00     0.038 C 
BRANCH   3   5
ATOM      5  C   UNL d   1       9.775   7.337  -8.866  0.00  0.00     0.041 C 
BRANCH   5   6
ATOM      6  C   UNL d   1       9.207   8.006  -7.590  0.00  0.00     0.028 C 
BRANCH   6   7
ATOM      7  C   UNL d   1      10.274   8.253  -6.535  0.00  0.00    -0.022 A 
ATOM      8  C   UNL d   1      10.495   7.296  -5.525  0.00  0.00    -0.004 A 
ATOM      9  C   UNL d   1      11.464   7.526  -4.525  0.00  0.00    -0.000 A 
ATOM     10  C   UNL d   1      12.238   8.704  -4.544  0.00  0.00    -0.000 A 
ATOM     11  C   UNL d   1      12.055   9.631  -5.588  0.00  0.00    -0.000 A 
ATOM     12  C   UNL d   1      11.071   9.417  -6.569  0.00  0.00    -0.004 A 
ENDBRANCH   6   7
ENDBRANCH   5   6
ENDBRANCH   3   5
ENDBRANCH   2   3
ENDBRANCH   1   2
BRANCH   1  13
ATOM     13  C   UNL d   1       7.942   5.027 -12.820  0.00  0.00     0.210 C 
ATOM     14  O   UNL d   1       6.787   5.836 -12.764  0.00  0.00    -0.216 OA
BRANCH  13  15
ATOM     15  C   UNL d   1       7.709   3.701 -13.541  0.00  0.00     0.010 A 
ATOM     16  C   UNL d   1       8.803   3.056 -14.153  0.00  0.00     0.005 A 
ATOM     17  C   UNL d   1       8.665   1.785 -14.777  0.00  0.00     0.085 A 
ATOM     18  C   UNL d   1       7.372   1.193 -14.796  0.00  0.00     0.136 A 
ATOM     19  C   UNL d   1       6.281   1.839 -14.183  0.00  0.00     0.027 A 
ATOM     20  O   UNL d   1       7.111  -0.016 -15.370  0.00  0.00    -0.190 OA
ATOM     21  C   UNL d   1       6.438   3.091 -13.565  0.00  0.00     0.000 A 
BRANCH  17  22
ATOM     22  C   UNL d   1       9.855   1.124 -15.432  0.00  0.00     0.299 C 
ATOM     23  N   UNL d   1      11.054   1.460 -14.947  0.00  0.00    -0.102 N 
ATOM     24  O   UNL d   1       9.736   0.284 -16.325  0.00  0.00    -0.264 OA
ENDBRANCH  17  22
ENDBRANCH  13  15
ENDBRANCH   1  13
TORSDOF 8
