REMARK  8 active torsions:
REMARK  status: ('A' for Active; 'I' for Inactive)
REMARK    1  A    between atoms: C_6  and  C_7 
REMARK    2  A    between atoms: C_10  and  S_11 
REMARK    3  A    between atoms: S_11  and  C_12 
REMARK    4  A    between atoms: C_12  and  C_13 
REMARK    5  A    between atoms: C_13  and  C_14 
REMARK    6  A    between atoms: C_14  and  N_15 
REMARK    7  A    between atoms: C_20  and  C_21 
REMARK    8  A    between atoms: C_24  and  C_25 
ROOT
ATOM      1  N   UNL d   1       8.661   2.744 -18.879  0.00  0.00     0.137 N 
ATOM      2  C   UNL d   1       8.832   2.265 -20.244  0.00  0.00     0.250 C 
ATOM      3  C   UNL d   1       8.868   3.441 -21.239  0.00  0.00     0.036 C 
ATOM      4  C   UNL d   1       9.789   4.566 -20.806  0.00  0.00     0.008 A 
ATOM      5  C   UNL d   1       9.293   5.608 -19.821  0.00  0.00     0.006 A 
ATOM      6  C   UNL d   1      10.303   4.576 -19.383  0.00  0.00     0.051 A 
ATOM      7  C   UNL d   1       9.898   3.436 -18.454  0.00  0.00     0.254 C 
ENDROOT
BRANCH   1   8
ATOM      8  C   UNL d   1       8.326   1.625 -17.999  0.00  0.00     0.251 C 
BRANCH   8   9
ATOM      9  C   UNL d   1       7.623   2.215 -16.752  0.00  0.00     0.047 C 
BRANCH   9  10
ATOM     10  C   UNL d   1       7.411   1.177 -15.634  0.00  0.00     0.067 C 
BRANCH  10  11
ATOM     11  S   UNL d   1       6.642   1.933 -14.171  0.00  0.00    -0.075 SA
BRANCH  11  12
ATOM     12  C   UNL d   1       7.787   3.178 -13.729  0.00  0.00     0.193 A 
ATOM     13  N   UNL d   1       8.939   3.428 -14.338  0.00  0.00    -0.122 NA
ATOM     14  N   UNL d   1       9.445   4.557 -13.770  0.00  0.00    -0.126 NA
ATOM     15  C   UNL d   1       8.611   4.837 -12.755  0.00  0.00     0.191 A 
ATOM     16  N   UNL d   1       7.552   4.012 -12.679  0.00  0.00    -0.287 N 
ATOM     17  C   UNL d   1       6.475   3.997 -11.682  0.00  0.00     0.134 C 
BRANCH  15  18
ATOM     18  C   UNL d   1       8.914   5.918 -11.821  0.00  0.00     0.151 A 
ATOM     19  C   UNL d   1       9.218   5.927 -10.474  0.00  0.00     0.087 A 
ATOM     20  C   UNL d   1       9.219   4.802  -9.476  0.00  0.00     0.054 C 
ATOM     21  N   UNL d   1       9.643   7.207 -10.118  0.00  0.00    -0.221 NA
ATOM     22  C   UNL d   1       9.454   7.913 -11.235  0.00  0.00     0.225 A 
ATOM     23  O   UNL d   1       9.075   7.172 -12.315  0.00  0.00    -0.282 OA
ENDBRANCH  15  18
ENDBRANCH  11  12
ENDBRANCH  10  11
ENDBRANCH   9  10
ENDBRANCH   8   9
ENDBRANCH   1   8
BRANCH   6  24
ATOM     24  C   UNL d   1      11.710   5.011 -19.087  0.00  0.00    -0.021 A 
ATOM     25  C   UNL d   1      12.801   4.322 -19.657  0.00  0.00    -0.004 A 
ATOM     26  C   UNL d   1      14.123   4.722 -19.383  0.00  0.00     0.004 A 
ATOM     27  C   UNL d   1      14.376   5.824 -18.537  0.00  0.00     0.071 A 
ATOM     28  C   UNL d   1      13.286   6.510 -17.960  0.00  0.00     0.004 A 
ATOM     29  C   UNL d   1      11.964   6.105 -18.232  0.00  0.00    -0.004 A 
BRANCH  27  30
ATOM     30  C   UNL d   1      15.799   6.278 -18.243  0.00  0.00     0.419 C 
ATOM     31  F   UNL d   1      16.683   5.678 -19.042  0.00  0.00    -0.166 F 
ATOM     32  F   UNL d   1      15.906   7.595 -18.422  0.00  0.00    -0.166 F 
ATOM     33  F   UNL d   1      16.103   5.988 -16.977  0.00  0.00    -0.166 F 
ENDBRANCH  27  30
ENDBRANCH   6  24
TORSDOF 8
