REMARK  7 active torsions:
REMARK  status: ('A' for Active; 'I' for Inactive)
REMARK    1  A    between atoms: S_2  and  N_4 
REMARK    2  A    between atoms: S_2  and  C_23 
REMARK    3  A    between atoms: N_4  and  C_5 
REMARK    4  A    between atoms: C_5  and  C_6 
REMARK    5  A    between atoms: C_6  and  C_7 
REMARK    6  A    between atoms: C_7  and  N_8 
REMARK    7  A    between atoms: N_11  and  C_12 
ROOT
ATOM      1  C   UNL d   1       7.439   5.852 -11.315  0.00  0.00     0.253 C 
ENDROOT
BRANCH   1   2
ATOM      2  C   UNL d   1       8.923   6.253 -11.079  0.00  0.00     0.062 C 
BRANCH   2   3
ATOM      3  C   UNL d   1       9.229   6.694  -9.647  0.00  0.00     0.141 C 
BRANCH   3   4
ATOM      4  N   UNL d   1      10.660   6.853  -9.583  0.00  0.00    -0.184 NA
BRANCH   4   5
ATOM      5  S   UNL d   1      11.407   8.314  -9.107  0.00  0.00     0.287 S 
ATOM      6  O   UNL d   1      12.806   8.260  -9.550  0.00  0.00    -0.198 OA
ATOM      7  O   UNL d   1      10.522   9.439  -9.460  0.00  0.00    -0.198 OA
BRANCH   5   8
ATOM      8  C   UNL d   1      11.447   8.201  -7.345  0.00  0.00     0.134 A 
ATOM      9  S   UNL d   1      11.383   6.637  -6.601  0.00  0.00    -0.074 SA
ATOM     10  C   UNL d   1      11.560   7.346  -5.005  0.00  0.00     0.030 A 
ATOM     11  C   UNL d   1      11.642   8.770  -5.097  0.00  0.00     0.007 A 
ATOM     12  C   UNL d   1      11.677   6.678  -3.778  0.00  0.00     0.006 A 
ATOM     13  C   UNL d   1      11.568   9.244  -6.463  0.00  0.00     0.020 A 
ATOM     14  C   UNL d   1      11.772   9.450  -3.868  0.00  0.00     0.001 A 
ATOM     15  C   UNL d   1      11.894   8.798  -2.636  0.00  0.00     0.000 A 
ATOM     16  C   UNL d   1      11.844   7.399  -2.589  0.00  0.00     0.001 A 
ENDBRANCH   5   8
ENDBRANCH   4   5
ENDBRANCH   3   4
ENDBRANCH   2   3
ENDBRANCH   1   2
BRANCH   1  17
ATOM     17  N   UNL d   1       7.185   5.171 -12.586  0.00  0.00     0.141 N 
ATOM     18  C   UNL d   1       5.778   4.724 -12.518  0.00  0.00     0.274 C 
ATOM     19  C   UNL d   1       5.396   3.895 -13.731  0.00  0.00     0.138 C 
ATOM     20  N   UNL d   1       6.329   2.816 -13.968  0.00  0.00    -0.328 N 
ATOM     21  C   UNL d   1       7.729   3.113 -13.898  0.00  0.00     0.138 C 
ATOM     22  C   UNL d   1       8.001   3.956 -12.647  0.00  0.00     0.274 C 
BRANCH  20  23
ATOM     23  C   UNL d   1       5.919   1.472 -14.145  0.00  0.00     0.169 A 
ATOM     24  C   UNL d   1       6.104   0.718 -15.323  0.00  0.00     0.061 A 
ATOM     25  C   UNL d   1       5.442  -0.519 -15.152  0.00  0.00     0.128 A 
ATOM     26  C   UNL d   1       6.698   1.010 -16.570  0.00  0.00     0.005 A 
ATOM     27  O   UNL d   1       4.900  -0.453 -13.879  0.00  0.00    -0.210 OA
ATOM     28  C   UNL d   1       5.390  -1.488 -16.160  0.00  0.00     0.027 A 
ATOM     29  N   UNL d   1       5.204   0.802 -13.258  0.00  0.00    -0.109 NA
ATOM     30  C   UNL d   1       6.009  -1.198 -17.396  0.00  0.00     0.002 A 
ATOM     31  C   UNL d   1       6.652   0.049 -17.599  0.00  0.00     0.000 A 
ENDBRANCH  20  23
ENDBRANCH   1  17
TORSDOF 7
