REMARK  3 active torsions:
REMARK  status: ('A' for Active; 'I' for Inactive)
REMARK    1  A    between atoms: O_2  and  C_3 
REMARK    2  A    between atoms: C_15  and  O_16 
REMARK    3  A    between atoms: C_18  and  O_19 
ROOT
ATOM      1  C   UNL d   1      13.189   3.548 -18.471  0.00  0.00     0.119 A 
ATOM      2  C   UNL d   1      13.072   3.784 -17.079  0.00  0.00     0.022 A 
ATOM      3  C   UNL d   1      11.866   3.525 -16.407  0.00  0.00    -0.020 A 
ATOM      4  C   UNL d   1      10.753   3.010 -17.111  0.00  0.00     0.007 A 
ATOM      5  C   UNL d   1      10.855   2.807 -18.504  0.00  0.00     0.027 A 
ATOM      6  C   UNL d   1      12.065   3.062 -19.174  0.00  0.00     0.153 A 
ATOM      7  O   UNL d   1      12.142   2.843 -20.520  0.00  0.00    -0.188 OA
ATOM      8  C   UNL d   1       9.439   2.739 -16.379  0.00  0.00     0.246 C 
ATOM      9  C   UNL d   1       8.819   1.372 -16.769  0.00  0.00     0.064 C 
ATOM     10  C   UNL d   1       7.573   1.023 -15.971  0.00  0.00    -0.020 A 
ATOM     11  C   UNL d   1       6.719  -0.009 -16.406  0.00  0.00    -0.002 A 
ATOM     12  C   UNL d   1       5.591  -0.359 -15.641  0.00  0.00     0.026 A 
ATOM     13  C   UNL d   1       5.297   0.329 -14.437  0.00  0.00     0.116 A 
ATOM     14  C   UNL d   1       6.125   1.399 -14.028  0.00  0.00     0.114 A 
ATOM     15  C   UNL d   1       7.294   1.714 -14.767  0.00  0.00     0.031 A 
ATOM     16  C   UNL d   1       8.234   2.819 -14.324  0.00  0.00     0.279 C 
ATOM     17  N   UNL d   1       9.572   2.753 -14.916  0.00  0.00     0.144 N 
ATOM     18  C   UNL d   1      10.310   3.932 -14.470  0.00  0.00     0.256 C 
ATOM     19  C   UNL d   1      11.765   3.785 -14.916  0.00  0.00     0.061 C 
ENDROOT
BRANCH   1  20
ATOM     20  O   UNL d   1      14.348   3.765 -19.185  0.00  0.00    -0.326 OA
ATOM     21  C   UNL d   1      15.383   4.513 -18.568  0.00  0.00     0.181 C 
ENDBRANCH   1  20
BRANCH  14  22
ATOM     22  O   UNL d   1       5.780   2.081 -12.881  0.00  0.00    -0.326 OA
ATOM     23  C   UNL d   1       5.467   3.463 -13.029  0.00  0.00     0.181 C 
ENDBRANCH  14  22
BRANCH  13  24
ATOM     24  O   UNL d   1       4.208   0.025 -13.641  0.00  0.00    -0.326 OA
ATOM     25  C   UNL d   1       3.156  -0.750 -14.204  0.00  0.00     0.181 C 
ENDBRANCH  13  24
TORSDOF 3
