REMARK  11 active torsions:
REMARK  status: ('A' for Active; 'I' for Inactive)
REMARK    1  A    between atoms: C_2  and  C_3 
REMARK    2  A    between atoms: C_3  and  N_5 
REMARK    3  A    between atoms: N_8  and  C_9 
REMARK    4  A    between atoms: C_12  and  N_13 
REMARK    5  A    between atoms: N_16  and  C_17 
REMARK    6  A    between atoms: C_20  and  O_21 
REMARK    7  A    between atoms: O_21  and  C_22 
REMARK    8  A    between atoms: C_22  and  C_23 
REMARK    9  A    between atoms: C_26  and  C_27 
REMARK   10  A    between atoms: C_26  and  C_33 
REMARK   11  A    between atoms: C_27  and  N_28 
ROOT
ATOM      1  C   UNL d   1       8.222   1.635 -15.842  0.00  0.00     0.056 A 
ATOM      2  C   UNL d   1       8.228   2.406 -17.014  0.00  0.00     0.019 A 
ATOM      3  C   UNL d   1       8.055   1.794 -18.267  0.00  0.00     0.026 A 
ATOM      4  C   UNL d   1       7.934   0.397 -18.367  0.00  0.00     0.094 A 
ATOM      5  C   UNL d   1       8.018  -0.380 -17.201  0.00  0.00     0.026 A 
ATOM      6  C   UNL d   1       8.150   0.229 -15.928  0.00  0.00     0.019 A 
ENDROOT
BRANCH   1   7
ATOM      7  N   UNL d   1       8.307   2.293 -14.600  0.00  0.00    -0.344 N 
ATOM      8  C   UNL d   1       9.561   2.268 -13.877  0.00  0.00     0.126 C 
ATOM      9  C   UNL d   1      10.058   3.685 -13.527  0.00  0.00     0.126 C 
ATOM     10  N   UNL d   1       8.932   4.445 -12.933  0.00  0.00    -0.344 N 
ATOM     11  C   UNL d   1       7.716   4.501 -13.713  0.00  0.00     0.126 C 
ATOM     12  C   UNL d   1       7.207   3.086 -14.046  0.00  0.00     0.126 C 
BRANCH  10  13
ATOM     13  C   UNL d   1       8.950   5.106 -11.674  0.00  0.00     0.056 A 
ATOM     14  C   UNL d   1       8.037   4.909 -10.644  0.00  0.00     0.018 A 
ATOM     15  C   UNL d   1       8.255   5.575  -9.389  0.00  0.00     0.019 A 
ATOM     16  C   UNL d   1       9.384   6.414  -9.129  0.00  0.00     0.070 A 
ATOM     17  C   UNL d   1      10.245   6.633 -10.197  0.00  0.00     0.019 A 
ATOM     18  C   UNL d   1       9.971   5.999 -11.439  0.00  0.00     0.018 A 
BRANCH  16  19
ATOM     19  N   UNL d   1       9.652   7.026  -7.875  0.00  0.00    -0.240 N 
ATOM     20  C   UNL d   1       8.727   7.686  -7.114  0.00  0.00     0.207 A 
ATOM     21  N   UNL d   1       9.230   8.199  -6.054  0.00  0.00    -0.144 NA
ATOM     22  N   UNL d   1      10.486   7.812  -6.088  0.00  0.00    -0.203 N 
ATOM     23  C   UNL d   1      10.807   7.163  -7.210  0.00  0.00     0.352 A 
ATOM     24  O   UNL d   1      11.937   6.812  -7.548  0.00  0.00    -0.244 OA
BRANCH  22  25
ATOM     25  C   UNL d   1      11.268   8.194  -4.937  0.00  0.00     0.110 C 
ATOM     26  C   UNL d   1      12.167   9.345  -5.355  0.00  0.00     0.026 C 
BRANCH  25  27
ATOM     27  C   UNL d   1      11.848   6.902  -4.326  0.00  0.00     0.025 C 
ATOM     28  C   UNL d   1      12.669   7.181  -3.090  0.00  0.00     0.002 C 
ENDBRANCH  25  27
ENDBRANCH  22  25
ENDBRANCH  16  19
ENDBRANCH  10  13
ENDBRANCH   1   7
BRANCH   4  29
ATOM     29  O   UNL d   1       7.730  -0.158 -19.608  0.00  0.00    -0.328 OA
BRANCH  29  30
ATOM     30  C   UNL d   1       8.068  -1.526 -19.869  0.00  0.00     0.181 C 
BRANCH  30  31
ATOM     31  C   UNL d   1       9.455  -1.614 -20.536  0.00  0.00     0.178 C 
ATOM     32  O   UNL d   1       9.840  -0.367 -21.079  0.00  0.00    -0.327 OA
ATOM     33  C   UNL d   1      10.676  -0.643 -22.155  0.00  0.00     0.232 C 
ATOM     34  O   UNL d   1      10.555  -1.996 -22.501  0.00  0.00    -0.327 OA
ATOM     35  C   UNL d   1       9.453  -2.522 -21.795  0.00  0.00     0.177 C 
BRANCH  33  36
ATOM     36  C   UNL d   1      10.255   0.238 -23.368  0.00  0.00     0.190 C 
BRANCH  36  37
ATOM     37  N   UNL d   1       8.825   0.345 -23.581  0.00  0.00    -0.225 N 
ATOM     38  N   UNL d   1       8.068  -0.717 -23.933  0.00  0.00    -0.145 NA
ATOM     39  C   UNL d   1       6.841  -0.242 -23.907  0.00  0.00     0.221 A 
ATOM     40  N   UNL d   1       6.743   1.089 -23.638  0.00  0.00    -0.201 NA
ATOM     41  C   UNL d   1       8.018   1.397 -23.476  0.00  0.00     0.198 A 
ENDBRANCH  36  37
ENDBRANCH  33  36
BRANCH  33  42
ATOM     42  C   UNL d   1      12.144  -0.346 -21.757  0.00  0.00     0.041 A 
ATOM     43  C   UNL d   1      13.255  -0.787 -22.533  0.00  0.00     0.059 A 
ATOM     44  C   UNL d   1      14.573  -0.427 -22.178  0.00  0.00     0.023 A 
ATOM     45 CL   UNL d   1      13.058  -1.732 -23.970  0.00  0.00    -0.083 Cl
ATOM     46  C   UNL d   1      14.812   0.380 -21.051  0.00  0.00     0.059 A 
ATOM     47  C   UNL d   1      13.730   0.841 -20.278  0.00  0.00     0.011 A 
ATOM     48 CL   UNL d   1      16.433   0.787 -20.621  0.00  0.00    -0.082 Cl
ATOM     49  C   UNL d   1      12.413   0.483 -20.634  0.00  0.00     0.002 A 
ENDBRANCH  33  42
ENDBRANCH  30  31
ENDBRANCH  29  30
ENDBRANCH   4  29
TORSDOF 11
