REMARK  2 active torsions:
REMARK  status: ('A' for Active; 'I' for Inactive)
REMARK    1  A    between atoms: C_2  and  C_3 
REMARK    2  A    between atoms: C_3  and  N_4 
ROOT
ATOM      1  N   UNL d   1       7.747   1.720 -15.041  0.00  0.00     0.140 N 
ATOM      2  C   UNL d   1       7.556   0.457 -15.783  0.00  0.00     0.282 C 
ATOM      3  C   UNL d   1       8.688   0.184 -16.785  0.00  0.00     0.178 C 
ATOM      4  O   UNL d   1       9.922   0.118 -16.085  0.00  0.00    -0.348 OA
ATOM      5  C   UNL d   1      10.220   1.304 -15.347  0.00  0.00     0.169 C 
ATOM      6  C   UNL d   1      10.669   2.473 -16.226  0.00  0.00     0.004 A 
ATOM      7  C   UNL d   1      11.416   2.202 -17.403  0.00  0.00     0.022 A 
ATOM      8  C   UNL d   1      11.860   3.279 -18.182  0.00  0.00     0.090 A 
ATOM      9  C   UNL d   1      11.584   4.582 -17.818  0.00  0.00     0.002 A 
ATOM     10  C   UNL d   1      10.859   4.893 -16.654  0.00  0.00    -0.007 A 
ATOM     11  C   UNL d   1      10.410   3.819 -15.844  0.00  0.00    -0.024 A 
ATOM     12  C   UNL d   1       9.645   4.138 -14.572  0.00  0.00     0.028 C 
ATOM     13  C   UNL d   1       9.536   2.933 -13.617  0.00  0.00     0.041 C 
ATOM     14  C   UNL d   1       9.066   1.658 -14.370  0.00  0.00     0.251 C 
ATOM     15  C   UNL d   1      12.163   5.517 -18.820  0.00  0.00     0.061 A 
ATOM     16  C   UNL d   1      12.859   4.532 -19.792  0.00  0.00     0.154 A 
ATOM     17  O   UNL d   1      12.584   3.194 -19.344  0.00  0.00    -0.331 OA
ENDROOT
BRANCH   1  18
ATOM     18  C   UNL d   1       6.596   1.909 -14.140  0.00  0.00     0.250 C 
BRANCH  18  19
ATOM     19  C   UNL d   1       6.314   3.361 -13.644  0.00  0.00     0.035 C 
ATOM     20  C   UNL d   1       5.288   3.382 -12.505  0.00  0.00     0.002 C 
ENDBRANCH  18  19
ENDBRANCH   1  18
TORSDOF 2
