REMARK  4 active torsions:
REMARK  status: ('A' for Active; 'I' for Inactive)
REMARK    1  A    between atoms: O_2  and  C_3 
REMARK    2  A    between atoms: C_6  and  C_7 
REMARK    3  A    between atoms: C_7  and  C_8 
REMARK    4  A    between atoms: C_8  and  N_9 
ROOT
ATOM      1  N   UNL d   1       8.298   1.367 -15.344  0.00  0.00     0.142 N 
ATOM      2  C   UNL d   1       6.894   0.955 -15.289  0.00  0.00     0.251 C 
ATOM      3  C   UNL d   1       6.149   1.374 -14.016  0.00  0.00     0.040 C 
ATOM      4  C   UNL d   1       5.975   2.902 -13.857  0.00  0.00     0.028 C 
ATOM      5  C   UNL d   1       7.207   3.630 -13.386  0.00  0.00    -0.024 A 
ATOM      6  C   UNL d   1       7.146   4.387 -12.193  0.00  0.00    -0.004 A 
ATOM      7  C   UNL d   1       8.289   5.068 -11.729  0.00  0.00    -0.000 A 
ATOM      8  C   UNL d   1       9.486   5.002 -12.468  0.00  0.00    -0.000 A 
ATOM      9  C   UNL d   1       9.542   4.271 -13.665  0.00  0.00    -0.003 A 
ATOM     10  C   UNL d   1       8.404   3.586 -14.138  0.00  0.00     0.007 A 
ATOM     11  C   UNL d   1       8.524   2.799 -15.435  0.00  0.00     0.276 C 
ENDROOT
BRANCH   1  12
ATOM     12  C   UNL d   1       9.158   0.678 -14.388  0.00  0.00     0.255 C 
BRANCH  12  13
ATOM     13  C   UNL d   1      10.655   0.981 -14.594  0.00  0.00     0.062 C 
BRANCH  13  14
ATOM     14  C   UNL d   1      11.064   0.964 -16.059  0.00  0.00    -0.019 A 
ATOM     15  C   UNL d   1      10.660  -0.083 -16.905  0.00  0.00    -0.002 A 
ATOM     16  C   UNL d   1      11.032  -0.089 -18.259  0.00  0.00     0.025 A 
ATOM     17  C   UNL d   1      11.804   0.963 -18.799  0.00  0.00     0.105 A 
ATOM     18  C   UNL d   1      12.196   2.027 -17.955  0.00  0.00     0.080 A 
ATOM     19  C   UNL d   1      11.833   2.024 -16.595  0.00  0.00     0.009 A 
ATOM     20 CL   UNL d   1      13.091   3.367 -18.579  0.00  0.00    -0.080 Cl
BRANCH  17  21
ATOM     21  O   UNL d   1      12.166   1.039 -20.130  0.00  0.00    -0.327 OA
ATOM     22  C   UNL d   1      11.965  -0.115 -20.927  0.00  0.00     0.181 C 
ENDBRANCH  17  21
ENDBRANCH  13  14
ENDBRANCH  12  13
ENDBRANCH   1  12
TORSDOF 4
