REMARK  8 active torsions:
REMARK  status: ('A' for Active; 'I' for Inactive)
REMARK    1  A    between atoms: O_2  and  C_3 
REMARK    2  A    between atoms: N_12  and  C_13 
REMARK    3  A    between atoms: C_13  and  C_14 
REMARK    4  A    between atoms: C_14  and  C_15 
REMARK    5  A    between atoms: C_15  and  C_16 
REMARK    6  A    between atoms: C_16  and  N_17 
REMARK    7  A    between atoms: N_20  and  C_21 
REMARK    8  A    between atoms: C_26  and  O_27 
ROOT
ATOM      1  C   UNL d   1      10.157   4.431 -13.201  0.00  0.00     0.026 C 
ENDROOT
BRANCH   1   2
ATOM      2  C   UNL d   1       8.924   4.569 -12.281  0.00  0.00     0.104 C 
BRANCH   2   3
ATOM      3  N   UNL d   1       9.240   5.310 -11.059  0.00  0.00    -0.317 N 
ATOM      4  C   UNL d   1       9.647   4.477  -9.913  0.00  0.00     0.105 C 
ATOM      5  C   UNL d   1       8.633   4.378  -8.794  0.00  0.00     0.029 C 
ATOM      6  C   UNL d   1       8.152   5.751  -8.382  0.00  0.00     0.029 C 
ATOM      7  C   UNL d   1       9.174   6.873  -8.446  0.00  0.00    -0.016 A 
ATOM      8  C   UNL d   1       9.696   7.276  -9.711  0.00  0.00     0.052 A 
ATOM      9  C   UNL d   1       9.468   7.617  -7.285  0.00  0.00     0.020 A 
ATOM     10  C   UNL d   1      10.528   8.396  -9.775  0.00  0.00     0.006 A 
ATOM     11  C   UNL d   1       9.294   6.660 -11.023  0.00  0.00     0.257 C 
ATOM     12  C   UNL d   1      10.842   9.107  -8.614  0.00  0.00     0.024 A 
ATOM     13  C   UNL d   1      10.328   8.725  -7.343  0.00  0.00     0.094 A 
ATOM     14  O   UNL d   1       9.086   7.385 -11.996  0.00  0.00    -0.267 OA
BRANCH  13  15
ATOM     15  O   UNL d   1      10.603   9.372  -6.167  0.00  0.00    -0.328 OA
ATOM     16  C   UNL d   1      11.660  10.316  -6.185  0.00  0.00     0.181 C 
ENDBRANCH  13  15
ENDBRANCH   2   3
ENDBRANCH   1   2
BRANCH   1  17
ATOM     17  C   UNL d   1      10.063   3.292 -14.206  0.00  0.00     0.037 C 
BRANCH  17  18
ATOM     18  C   UNL d   1       8.748   3.330 -14.982  0.00  0.00     0.251 C 
BRANCH  18  19
ATOM     19  N   UNL d   1       8.597   2.103 -15.732  0.00  0.00     0.141 N 
ATOM     20  C   UNL d   1       7.827   1.161 -14.908  0.00  0.00     0.274 C 
ATOM     21  C   UNL d   1       7.692  -0.163 -15.657  0.00  0.00     0.137 C 
ATOM     22  N   UNL d   1       7.064   0.034 -16.966  0.00  0.00    -0.343 N 
ATOM     23  C   UNL d   1       7.716   1.046 -17.793  0.00  0.00     0.137 C 
ATOM     24  C   UNL d   1       7.858   2.346 -16.982  0.00  0.00     0.274 C 
BRANCH  22  25
ATOM     25  C   UNL d   1       5.914  -0.649 -17.375  0.00  0.00     0.079 A 
ATOM     26  C   UNL d   1       4.809  -0.870 -16.494  0.00  0.00     0.110 A 
ATOM     27  C   UNL d   1       3.687  -1.602 -16.966  0.00  0.00     0.026 A 
ATOM     28  C   UNL d   1       3.627  -2.067 -18.290  0.00  0.00     0.002 A 
ATOM     29  C   UNL d   1       4.700  -1.832 -19.167  0.00  0.00     0.002 A 
ATOM     30  C   UNL d   1       5.832  -1.129 -18.700  0.00  0.00     0.019 A 
BRANCH  26  31
ATOM     31  O   UNL d   1       4.851  -0.316 -15.231  0.00  0.00    -0.327 OA
ATOM     32  C   UNL d   1       3.778  -0.530 -14.334  0.00  0.00     0.181 C 
ENDBRANCH  26  31
ENDBRANCH  22  25
ENDBRANCH  18  19
ENDBRANCH  17  18
ENDBRANCH   1  17
TORSDOF 8
