REMARK  7 active torsions:
REMARK  status: ('A' for Active; 'I' for Inactive)
REMARK    1  A    between atoms: C_2  and  C_3 
REMARK       I    between atoms: C_2  and  N_11 
REMARK    2  A    between atoms: C_14  and  C_16 
REMARK    3  A    between atoms: C_16  and  N_17 
REMARK    4  A    between atoms: N_17  and  C_18 
REMARK    5  A    between atoms: C_18  and  C_19 
REMARK    6  A    between atoms: C_19  and  O_20 
REMARK    7  A    between atoms: O_20  and  C_21 
ROOT
ATOM      1  O   UNL d   1       5.897   2.220 -13.682  0.00  0.00    -0.267 OA
ATOM      2  C   UNL d   1       6.958   2.714 -14.056  0.00  0.00     0.257 C 
ATOM      3  N   UNL d   1       7.365   3.964 -13.665  0.00  0.00    -0.317 N 
ATOM      4  C   UNL d   1       6.560   4.769 -12.721  0.00  0.00     0.107 C 
ATOM      5  C   UNL d   1       7.436   5.278 -11.566  0.00  0.00     0.059 C 
ATOM      6  C   UNL d   1       8.676   6.018 -12.069  0.00  0.00     0.172 C 
ATOM      7  F   UNL d   1       8.245   7.094 -12.753  0.00  0.00    -0.238 F 
ATOM      8  C   UNL d   1       9.428   5.168 -13.092  0.00  0.00     0.059 C 
ATOM      9  C   UNL d   1       8.506   4.712 -14.228  0.00  0.00     0.107 C 
ENDROOT
BRANCH   6  10
ATOM     10  C   UNL d   1       9.604   6.424 -10.909  0.00  0.00     0.323 C 
BRANCH  10  11
ATOM     11  N   UNL d   1       9.483   7.826 -10.570  0.00  0.00     0.345 N 
BRANCH  11  12
ATOM     12  C   UNL d   1      10.392   8.217  -9.523  0.00  0.00     0.323 C 
BRANCH  12  13
ATOM     13  C   UNL d   1       9.624   8.198  -8.176  0.00  0.00     0.187 C 
BRANCH  13  14
ATOM     14  O   UNL d   1      10.236   9.121  -7.257  0.00  0.00    -0.329 OA
BRANCH  14  15
ATOM     15  C   UNL d   1      10.830   8.632  -6.115  0.00  0.00     0.096 A 
ATOM     16  C   UNL d   1      11.191   9.553  -5.095  0.00  0.00     0.054 A 
ATOM     17  C   UNL d   1      11.740   9.078  -3.876  0.00  0.00     0.142 A 
ATOM     18  C   UNL d   1      11.934   7.689  -3.674  0.00  0.00     0.030 A 
ATOM     19  F   UNL d   1      12.050   9.953  -2.888  0.00  0.00    -0.204 F 
ATOM     20  C   UNL d   1      11.582   6.791  -4.705  0.00  0.00     0.004 A 
ATOM     21  C   UNL d   1      11.065   7.244  -5.935  0.00  0.00     0.024 A 
ENDBRANCH  14  15
ENDBRANCH  13  14
ENDBRANCH  12  13
ENDBRANCH  11  12
ENDBRANCH  10  11
ENDBRANCH   6  10
BRANCH   2  22
ATOM     22  C   UNL d   1       7.865   1.890 -14.927  0.00  0.00     0.057 A 
ATOM     23  C   UNL d   1       7.315   1.242 -16.052  0.00  0.00     0.017 A 
ATOM     24  C   UNL d   1       8.138   0.469 -16.898  0.00  0.00     0.069 A 
ATOM     25  C   UNL d   1       9.516   0.329 -16.615  0.00  0.00     0.068 A 
ATOM     26 CL   UNL d   1       7.433  -0.301 -18.277  0.00  0.00    -0.082 Cl
ATOM     27  C   UNL d   1      10.057   0.950 -15.472  0.00  0.00     0.012 A 
ATOM     28 CL   UNL d   1      10.543  -0.587 -17.651  0.00  0.00    -0.082 Cl
ATOM     29  C   UNL d   1       9.228   1.708 -14.621  0.00  0.00     0.006 A 
ENDBRANCH   2  22
TORSDOF 7
