REMARK  11 active torsions:
REMARK  status: ('A' for Active; 'I' for Inactive)
REMARK    1  A    between atoms: O_2  and  C_3 
REMARK    2  A    between atoms: C_6  and  C_7 
REMARK    3  A    between atoms: C_7  and  N_8 
REMARK    4  A    between atoms: C_11  and  C_12 
REMARK       I    between atoms: C_12  and  N_14 
REMARK    5  A    between atoms: N_14  and  C_15 
REMARK    6  A    between atoms: C_15  and  C_16 
REMARK    7  A    between atoms: C_16  and  C_17 
REMARK    8  A    between atoms: C_17  and  C_18 
REMARK    9  A    between atoms: C_18  and  N_19 
REMARK   10  A    between atoms: N_22  and  C_23 
REMARK   11  A    between atoms: C_28  and  O_29 
ROOT
ATOM      1  C   UNL d   1       9.778   7.495 -10.911  0.00  0.00     0.296 C 
ATOM      2  O   UNL d   1       9.512   8.068 -11.974  0.00  0.00    -0.264 OA
ATOM      3  N   UNL d   1       9.188   6.342 -10.553  0.00  0.00    -0.233 NA
ENDROOT
BRANCH   3   4
ATOM      4  C   UNL d   1       8.214   5.634 -11.387  0.00  0.00     0.129 C 
BRANCH   4   5
ATOM      5  C   UNL d   1       8.880   4.463 -12.128  0.00  0.00     0.029 C 
BRANCH   5   6
ATOM      6  C   UNL d   1       7.977   3.826 -13.214  0.00  0.00     0.037 C 
BRANCH   6   7
ATOM      7  C   UNL d   1       8.722   2.824 -14.134  0.00  0.00     0.251 C 
BRANCH   7   8
ATOM      8  N   UNL d   1       9.954   3.389 -14.688  0.00  0.00     0.141 N 
ATOM      9  C   UNL d   1      10.718   2.347 -15.383  0.00  0.00     0.274 C 
ATOM     10  C   UNL d   1      12.066   2.906 -15.903  0.00  0.00     0.137 C 
ATOM     11  N   UNL d   1      11.841   4.098 -16.712  0.00  0.00    -0.343 N 
ATOM     12  C   UNL d   1      11.008   5.121 -16.090  0.00  0.00     0.137 C 
ATOM     13  C   UNL d   1       9.687   4.486 -15.624  0.00  0.00     0.274 C 
BRANCH  11  14
ATOM     14  C   UNL d   1      12.270   4.169 -18.050  0.00  0.00     0.079 A 
ATOM     15  C   UNL d   1      11.407   4.579 -19.114  0.00  0.00     0.110 A 
ATOM     16  C   UNL d   1      11.931   4.703 -20.424  0.00  0.00     0.026 A 
ATOM     17  C   UNL d   1      13.279   4.399 -20.692  0.00  0.00     0.002 A 
ATOM     18  C   UNL d   1      14.122   3.966 -19.658  0.00  0.00     0.002 A 
ATOM     19  C   UNL d   1      13.621   3.852 -18.346  0.00  0.00     0.019 A 
BRANCH  15  20
ATOM     20  O   UNL d   1      10.079   4.806 -18.814  0.00  0.00    -0.327 OA
ATOM     21  C   UNL d   1       9.213   5.264 -19.829  0.00  0.00     0.181 C 
ENDBRANCH  15  20
ENDBRANCH  11  14
ENDBRANCH   7   8
ENDBRANCH   6   7
ENDBRANCH   5   6
ENDBRANCH   4   5
ENDBRANCH   3   4
BRANCH   1  22
ATOM     22  C   UNL d   1      10.694   8.071  -9.877  0.00  0.00     0.175 A 
ATOM     23  N   UNL d   1      12.086   7.969  -9.835  0.00  0.00    -0.124 NA
ATOM     24  N   UNL d   1      12.529   8.502  -8.744  0.00  0.00    -0.064 NA
ATOM     25  N   UNL d   1      11.462   9.073  -8.117  0.00  0.00    -0.231 N 
ATOM     26  C   UNL d   1      10.301   8.788  -8.799  0.00  0.00     0.082 A 
ATOM     27  C   UNL d   1       8.945   9.203  -8.381  0.00  0.00     0.054 C 
BRANCH  25  28
ATOM     28  C   UNL d   1      11.646   9.797  -6.845  0.00  0.00     0.155 C 
BRANCH  28  29
ATOM     29  C   UNL d   1      11.670   8.863  -5.679  0.00  0.00     0.002 A 
ATOM     30  C   UNL d   1      10.937   7.668  -5.708  0.00  0.00    -0.000 A 
ATOM     31  C   UNL d   1      11.060   6.786  -4.640  0.00  0.00     0.024 A 
ATOM     32  C   UNL d   1      11.852   7.090  -3.523  0.00  0.00     0.094 A 
ATOM     33  C   UNL d   1      12.604   8.266  -3.490  0.00  0.00     0.024 A 
ATOM     34  C   UNL d   1      12.513   9.151  -4.578  0.00  0.00    -0.000 A 
BRANCH  32  35
ATOM     35  O   UNL d   1      11.728   6.253  -2.454  0.00  0.00    -0.328 OA
ATOM     36  C   UNL d   1      12.864   6.047  -1.677  0.00  0.00     0.181 C 
ENDBRANCH  32  35
ENDBRANCH  28  29
ENDBRANCH  25  28
ENDBRANCH   1  22
TORSDOF 11
