REMARK  12 active torsions:
REMARK  status: ('A' for Active; 'I' for Inactive)
REMARK    1  A    between atoms: O_2  and  C_3 
REMARK    2  A    between atoms: C_7  and  C_8 
REMARK    3  A    between atoms: C_8  and  C_30 
REMARK    4  A    between atoms: C_9  and  C_10 
REMARK    5  A    between atoms: C_10  and  N_11 
REMARK    6  A    between atoms: N_11  and  C_12 
REMARK    7  A    between atoms: C_12  and  C_13 
REMARK    8  A    between atoms: C_13  and  C_14 
REMARK    9  A    between atoms: C_14  and  C_15 
REMARK   10  A    between atoms: C_15  and  N_16 
REMARK   11  A    between atoms: N_19  and  C_20 
REMARK   12  A    between atoms: C_34  and  O_35 
ROOT
ATOM      1  C   UNL d   1      10.712   3.524 -17.942  0.00  0.00     0.317 C 
ENDROOT
BRANCH   1   2
ATOM      2  C   UNL d   1      11.899   2.771 -18.505  0.00  0.00     0.012 C 
ATOM      3  C   UNL d   1      11.857   1.715 -19.357  0.00  0.00    -0.002 C 
BRANCH   3   4
ATOM      4  C   UNL d   1      10.557   1.215 -19.873  0.00  0.00     0.002 A 
ATOM      5  C   UNL d   1       9.887   1.926 -20.894  0.00  0.00     0.000 A 
ATOM      6  C   UNL d   1       8.675   1.444 -21.419  0.00  0.00     0.002 A 
ATOM      7  C   UNL d   1       8.115   0.250 -20.939  0.00  0.00     0.024 A 
ATOM      8  C   UNL d   1       8.750  -0.457 -19.890  0.00  0.00     0.094 A 
ATOM      9  C   UNL d   1       9.977   0.019 -19.380  0.00  0.00     0.024 A 
BRANCH   8  10
ATOM     10  O   UNL d   1       8.256  -1.627 -19.367  0.00  0.00    -0.328 OA
ATOM     11  C   UNL d   1       6.841  -1.733 -19.236  0.00  0.00     0.181 C 
ENDBRANCH   8  10
ENDBRANCH   3   4
BRANCH   3  12
ATOM     12  C   UNL d   1      13.119   1.066 -19.808  0.00  0.00     0.002 A 
ATOM     13  C   UNL d   1      14.293   1.812 -20.116  0.00  0.00     0.024 A 
ATOM     14  C   UNL d   1      15.481   1.166 -20.535  0.00  0.00     0.094 A 
ATOM     15  C   UNL d   1      15.499  -0.246 -20.625  0.00  0.00     0.024 A 
ATOM     16  C   UNL d   1      14.341  -0.985 -20.332  0.00  0.00     0.002 A 
ATOM     17  C   UNL d   1      13.167  -0.343 -19.925  0.00  0.00     0.000 A 
BRANCH  14  18
ATOM     18  O   UNL d   1      16.572   1.960 -20.831  0.00  0.00    -0.328 OA
ATOM     19  C   UNL d   1      17.785   1.286 -21.156  0.00  0.00     0.181 C 
ENDBRANCH  14  18
ENDBRANCH   3  12
ENDBRANCH   1   2
BRANCH   1  20
ATOM     20  N   UNL d   1      10.734   3.442 -16.490  0.00  0.00     0.344 N 
BRANCH  20  21
ATOM     21  C   UNL d   1       9.514   4.035 -15.966  0.00  0.00     0.291 C 
BRANCH  21  22
ATOM     22  C   UNL d   1       9.452   3.890 -14.434  0.00  0.00     0.040 C 
BRANCH  22  23
ATOM     23  C   UNL d   1       8.154   4.479 -13.842  0.00  0.00     0.037 C 
BRANCH  23  24
ATOM     24  C   UNL d   1       8.130   4.417 -12.310  0.00  0.00     0.251 C 
BRANCH  24  25
ATOM     25  N   UNL d   1       9.042   5.387 -11.705  0.00  0.00     0.141 N 
ATOM     26  C   UNL d   1       9.576   4.862 -10.450  0.00  0.00     0.274 C 
ATOM     27  C   UNL d   1      10.526   5.908  -9.850  0.00  0.00     0.137 C 
ATOM     28  N   UNL d   1       9.869   7.123  -9.667  0.00  0.00    -0.344 N 
ATOM     29  C   UNL d   1       9.255   7.692 -10.834  0.00  0.00     0.137 C 
ATOM     30  C   UNL d   1       8.305   6.629 -11.432  0.00  0.00     0.274 C 
BRANCH  28  31
ATOM     31  C   UNL d   1      10.043   7.783  -8.467  0.00  0.00     0.068 C 
ATOM     32  C   UNL d   1      11.246   8.355  -7.987  0.00  0.00     0.084 C 
ATOM     33  C   UNL d   1      11.269   8.914  -6.685  0.00  0.00     0.070 C 
ATOM     34 CL   UNL d   1      12.701   8.323  -8.903  0.00  0.00    -0.080 Cl
ATOM     35  C   UNL d   1      10.098   8.937  -5.958  0.00  0.00     0.012 C 
ATOM     36 CL   UNL d   1      12.622   9.564  -5.861  0.00  0.00    -0.081 Cl
ATOM     37  C   UNL d   1       8.893   8.375  -6.470  0.00  0.00     0.002 C 
ATOM     38  C   UNL d   1       8.900   7.735  -7.662  0.00  0.00     0.018 C 
ENDBRANCH  28  31
ENDBRANCH  24  25
ENDBRANCH  23  24
ENDBRANCH  22  23
ENDBRANCH  21  22
ENDBRANCH  20  21
ENDBRANCH   1  20
TORSDOF 12
