REMARK  8 active torsions:
REMARK  status: ('A' for Active; 'I' for Inactive)
REMARK    1  A    between atoms: N_2  and  C_4 
REMARK    2  A    between atoms: C_7  and  C_8 
REMARK       I    between atoms: C_8  and  N_10 
REMARK    3  A    between atoms: N_10  and  C_11 
REMARK    4  A    between atoms: C_11  and  C_12 
REMARK    5  A    between atoms: C_12  and  C_13 
REMARK    6  A    between atoms: C_13  and  C_14 
REMARK    7  A    between atoms: C_14  and  N_15 
REMARK    8  A    between atoms: C_18  and  C_19 
ROOT
ATOM      1  C   UNL d   1       8.963   5.850 -11.017  0.00  0.00     0.029 C 
ENDROOT
BRANCH   1   2
ATOM      2  C   UNL d   1       9.457   7.293 -10.835  0.00  0.00     0.129 C 
BRANCH   2   3
ATOM      3  N   UNL d   1       9.747   7.541  -9.427  0.00  0.00    -0.234 NA
ATOM      4  C   UNL d   1      10.676   8.380  -8.956  0.00  0.00     0.275 C 
ATOM      5  O   UNL d   1      11.298   9.181  -9.650  0.00  0.00    -0.266 OA
BRANCH   4   6
ATOM      6  C   UNL d   1      10.915   8.301  -7.477  0.00  0.00     0.058 A 
ATOM      7  C   UNL d   1      11.316   9.439  -6.751  0.00  0.00     0.006 A 
ATOM      8  C   UNL d   1      11.611   9.345  -5.378  0.00  0.00     0.017 A 
ATOM      9  C   UNL d   1      11.530   8.105  -4.699  0.00  0.00     0.056 A 
ATOM     10  C   UNL d   1      11.123   6.967  -5.439  0.00  0.00     0.017 A 
ATOM     11  C   UNL d   1      10.828   7.060  -6.809  0.00  0.00     0.006 A 
BRANCH   9  12
ATOM     12  N   UNL d   1      11.863   7.998  -3.327  0.00  0.00    -0.344 N 
ATOM     13  C   UNL d   1      12.180   9.191  -2.554  0.00  0.00     0.126 C 
ATOM     14  C   UNL d   1      11.764   6.710  -2.652  0.00  0.00     0.126 C 
ENDBRANCH   9  12
ENDBRANCH   4   6
ENDBRANCH   2   3
ENDBRANCH   1   2
BRANCH   1  15
ATOM     15  C   UNL d   1       8.841   5.445 -12.493  0.00  0.00     0.037 C 
BRANCH  15  16
ATOM     16  C   UNL d   1       7.772   4.361 -12.709  0.00  0.00     0.250 C 
BRANCH  16  17
ATOM     17  N   UNL d   1       7.882   3.768 -14.036  0.00  0.00     0.137 N 
ATOM     18  C   UNL d   1       6.689   2.996 -14.355  0.00  0.00     0.255 C 
ATOM     19  C   UNL d   1       7.131   2.107 -15.531  0.00  0.00     0.058 C 
ATOM     20  C   UNL d   1       8.647   1.981 -15.377  0.00  0.00     0.042 C 
ATOM     21  C   UNL d   1       8.959   2.781 -14.116  0.00  0.00     0.251 C 
BRANCH  19  22
ATOM     22  C   UNL d   1       6.396   0.782 -15.597  0.00  0.00    -0.018 A 
ATOM     23  C   UNL d   1       5.728   0.376 -16.773  0.00  0.00     0.023 A 
ATOM     24  C   UNL d   1       5.041  -0.857 -16.806  0.00  0.00     0.131 A 
ATOM     25  C   UNL d   1       5.035  -1.687 -15.671  0.00  0.00     0.027 A 
ATOM     26  O   UNL d   1       4.384  -1.248 -17.938  0.00  0.00    -0.190 OA
ATOM     27  C   UNL d   1       5.710  -1.286 -14.502  0.00  0.00     0.002 A 
ATOM     28  C   UNL d   1       6.391  -0.060 -14.466  0.00  0.00    -0.004 A 
ENDBRANCH  19  22
ENDBRANCH  16  17
ENDBRANCH  15  16
ENDBRANCH   1  15
TORSDOF 8
