REMARK  5 active torsions:
REMARK  status: ('A' for Active; 'I' for Inactive)
REMARK    1  A    between atoms: C_2  and  C_3 
REMARK    2  A    between atoms: C_3  and  N_4 
REMARK    3  A    between atoms: C_7  and  C_8 
REMARK    4  A    between atoms: C_12  and  S_13 
REMARK    5  A    between atoms: S_13  and  C_16 
ROOT
ATOM      1  C   UNL d   1       8.850   5.473 -11.557  0.00  0.00    -0.022 A 
ATOM      2  C   UNL d   1       7.451   5.580 -11.676  0.00  0.00    -0.004 A 
ATOM      3  C   UNL d   1       6.758   4.916 -12.707  0.00  0.00     0.000 A 
ATOM      4  C   UNL d   1       7.478   4.152 -13.642  0.00  0.00     0.011 A 
ATOM      5  C   UNL d   1       8.886   4.066 -13.546  0.00  0.00     0.084 A 
ATOM      6  C   UNL d   1       9.568   4.714 -12.506  0.00  0.00     0.007 A 
ENDROOT
BRANCH   1   7
ATOM      7  C   UNL d   1       9.560   6.200 -10.420  0.00  0.00     0.026 C 
ATOM      8  C   UNL d   1       8.900   5.909  -9.051  0.00  0.00     0.040 C 
ATOM      9  C   UNL d   1       9.593   6.697  -7.930  0.00  0.00     0.251 C 
ATOM     10  N   UNL d   1       9.592   8.127  -8.242  0.00  0.00     0.137 N 
ATOM     11  C   UNL d   1      10.282   8.430  -9.501  0.00  0.00     0.251 C 
ATOM     12  C   UNL d   1       9.633   7.709 -10.692  0.00  0.00     0.040 C 
BRANCH  10  13
ATOM     13  C   UNL d   1      10.115   8.905  -7.119  0.00  0.00     0.250 C 
BRANCH  13  14
ATOM     14  C   UNL d   1      11.630   8.709  -6.895  0.00  0.00     0.035 C 
ATOM     15  C   UNL d   1      12.174   9.558  -5.746  0.00  0.00     0.002 C 
ENDBRANCH  13  14
ENDBRANCH  10  13
ENDBRANCH   1   7
BRANCH   5  16
ATOM     16  S   UNL d   1       9.818   3.145 -14.760  0.00  0.00     0.189 S 
ATOM     17  O   UNL d   1      10.902   2.436 -14.058  0.00  0.00    -0.222 OA
ATOM     18  O   UNL d   1       8.873   2.377 -15.579  0.00  0.00    -0.222 OA
BRANCH  16  19
ATOM     19  C   UNL d   1      10.607   4.455 -15.809  0.00  0.00     0.112 C 
ATOM     20  C   UNL d   1      11.802   3.900 -16.588  0.00  0.00     0.016 C 
ATOM     21  C   UNL d   1      11.965   4.869 -17.762  0.00  0.00     0.001 C 
ATOM     22  C   UNL d   1      10.568   5.435 -18.056  0.00  0.00     0.001 C 
ATOM     23  C   UNL d   1       9.670   5.008 -16.894  0.00  0.00     0.016 C 
ENDBRANCH  16  19
ENDBRANCH   5  16
TORSDOF 5
