REMARK  6 active torsions:
REMARK  status: ('A' for Active; 'I' for Inactive)
REMARK    1  A    between atoms: C_2  and  C_3 
REMARK    2  A    between atoms: N_15  and  C_16 
REMARK    3  A    between atoms: C_16  and  C_17 
REMARK    4  A    between atoms: C_17  and  S_18 
REMARK    5  A    between atoms: S_18  and  C_19 
REMARK    6  A    between atoms: C_22  and  C_23 
ROOT
ATOM      1  C   UNL d   1      10.775   1.375 -21.237  0.00  0.00     0.101 C 
ENDROOT
BRANCH   1   2
ATOM      2  C   UNL d   1      12.015   0.604 -20.697  0.00  0.00     0.262 C 
BRANCH   2   3
ATOM      3  N   UNL d   1      13.047   1.466 -20.112  0.00  0.00     0.139 N 
ATOM      4  C   UNL d   1      12.496   2.365 -19.092  0.00  0.00     0.255 C 
ATOM      5  C   UNL d   1      13.551   3.026 -18.196  0.00  0.00     0.062 C 
ATOM      6  C   UNL d   1      14.194   4.239 -18.848  0.00  0.00    -0.016 A 
ATOM      7  C   UNL d   1      14.952   4.078 -20.041  0.00  0.00    -0.022 A 
ATOM      8  C   UNL d   1      14.035   5.537 -18.292  0.00  0.00     0.055 A 
ATOM      9  C   UNL d   1      15.561   5.195 -20.662  0.00  0.00     0.017 A 
ATOM     10  C   UNL d   1      15.123   2.715 -20.692  0.00  0.00     0.061 C 
ATOM     11  C   UNL d   1      15.427   6.482 -20.107  0.00  0.00     0.106 A 
ATOM     12  N   UNL d   1      15.933   7.713 -20.479  0.00  0.00    -0.224 NA
ATOM     13  C   UNL d   1      14.657   6.621 -18.934  0.00  0.00     0.125 A 
ATOM     14  C   UNL d   1      15.458   8.535 -19.534  0.00  0.00     0.159 A 
ATOM     15  O   UNL d   1      14.668   7.957 -18.574  0.00  0.00    -0.291 OA
ATOM     16  C   UNL d   1      13.799   2.109 -21.177  0.00  0.00     0.255 C 
ATOM     17 BR   UNL d   1      13.038   5.873 -16.700  0.00  0.00    -0.047 Br
BRANCH  14  18
ATOM     18  C   UNL d   1      15.713  10.001 -19.446  0.00  0.00     0.072 C 
ATOM     19  C   UNL d   1      14.849  10.809 -20.417  0.00  0.00     0.009 C 
ENDBRANCH  14  18
ENDBRANCH   2   3
ENDBRANCH   1   2
BRANCH   1  20
ATOM     20  S   UNL d   1       9.353   0.292 -21.557  0.00  0.00    -0.073 SA
BRANCH  20  21
ATOM     21  C   UNL d   1       8.816   0.003 -19.896  0.00  0.00     0.193 A 
ATOM     22  N   UNL d   1       7.522  -0.107 -19.563  0.00  0.00    -0.289 N 
ATOM     23  C   UNL d   1       7.601  -0.401 -18.243  0.00  0.00     0.167 A 
ATOM     24  C   UNL d   1       6.366   0.035 -20.432  0.00  0.00     0.134 C 
ATOM     25  N   UNL d   1       8.845  -0.479 -17.789  0.00  0.00    -0.128 NA
ATOM     26  N   UNL d   1       9.651  -0.165 -18.872  0.00  0.00    -0.122 NA
BRANCH  23  27
ATOM     27  C   UNL d   1       6.447  -0.648 -17.376  0.00  0.00     0.037 A 
ATOM     28  C   UNL d   1       6.263   0.042 -16.149  0.00  0.00     0.021 A 
ATOM     29  C   UNL d   1       5.144  -0.272 -15.311  0.00  0.00     0.081 A 
ATOM     30  C   UNL d   1       7.157   1.044 -15.703  0.00  0.00     0.003 A 
ATOM     31  C   UNL d   1       4.213  -1.228 -15.767  0.00  0.00     0.019 A 
ATOM     32  N   UNL d   1       4.947   0.332 -14.119  0.00  0.00    -0.250 NA
ATOM     33  C   UNL d   1       4.392  -1.909 -16.983  0.00  0.00     0.002 A 
ATOM     34  C   UNL d   1       5.522  -1.629 -17.779  0.00  0.00     0.003 A 
ATOM     35  C   UNL d   1       5.799   1.300 -13.725  0.00  0.00     0.059 A 
ATOM     36  C   UNL d   1       5.458   2.008 -12.444  0.00  0.00     0.052 C 
ATOM     37  C   UNL d   1       6.926   1.690 -14.473  0.00  0.00     0.015 A 
ENDBRANCH  23  27
ENDBRANCH  20  21
ENDBRANCH   1  20
TORSDOF 6
