REMARK  1 active torsions:
REMARK  status: ('A' for Active; 'I' for Inactive)
REMARK    1  A    between atoms: N_5  and  C_6 
ROOT
ATOM      1  C   UNL d   1       8.094   1.691 -15.770  0.00  0.00     0.141 C 
ATOM      2  N   UNL d   1       7.875   0.897 -16.767  0.00  0.00    -0.228 NA
ATOM      3  C   UNL d   1       6.699   0.182 -17.027  0.00  0.00     0.089 A 
ATOM      4  C   UNL d   1       6.331   0.040 -18.381  0.00  0.00     0.020 A 
ATOM      5  C   UNL d   1       5.168  -0.676 -18.759  0.00  0.00     0.002 A 
ATOM      6  C   UNL d   1       4.330  -1.206 -17.749  0.00  0.00     0.001 A 
ATOM      7  C   UNL d   1       4.702  -1.083 -16.398  0.00  0.00     0.008 A 
ATOM      8  C   UNL d   1       5.906  -0.460 -16.071  0.00  0.00     0.047 A 
ATOM      9  S   UNL d   1       6.394  -0.558 -14.462  0.00  0.00    -0.085 SA
ATOM     10  C   UNL d   1       6.316   1.062 -14.037  0.00  0.00     0.032 A 
ATOM     11  C   UNL d   1       5.410   1.375 -13.040  0.00  0.00     0.007 A 
ATOM     12  C   UNL d   1       5.416   2.659 -12.476  0.00  0.00     0.012 A 
ATOM     13  C   UNL d   1       6.321   3.629 -12.961  0.00  0.00     0.058 A 
ATOM     14 CL   UNL d   1       6.425   5.199 -12.239  0.00  0.00    -0.082 Cl
ATOM     15  C   UNL d   1       7.156   3.285 -14.046  0.00  0.00     0.015 A 
ATOM     16  C   UNL d   1       7.163   1.993 -14.621  0.00  0.00     0.041 A 
ENDROOT
BRANCH   1  17
ATOM     17  N   UNL d   1       9.302   2.371 -15.706  0.00  0.00    -0.330 N 
ATOM     18  C   UNL d   1       9.458   3.605 -16.473  0.00  0.00     0.138 C 
ATOM     19  C   UNL d   1      10.923   3.929 -16.761  0.00  0.00     0.274 C 
ATOM     20  N   UNL d   1      11.643   4.020 -15.492  0.00  0.00     0.143 N 
ATOM     21  C   UNL d   1      13.031   4.350 -15.766  0.00  0.00     0.286 C 
ATOM     22  C   UNL d   1      11.584   2.722 -14.812  0.00  0.00     0.274 C 
ATOM     23  C   UNL d   1      10.123   2.349 -14.501  0.00  0.00     0.138 C 
ENDBRANCH   1  17
TORSDOF 1
