REMARK  9 active torsions:
REMARK  status: ('A' for Active; 'I' for Inactive)
REMARK    1  A    between atoms: O_2  and  C_3 
REMARK    2  A    between atoms: C_8  and  N_9 
REMARK    3  A    between atoms: N_12  and  C_13 
REMARK    4  A    between atoms: C_13  and  C_14 
REMARK    5  A    between atoms: C_14  and  C_16 
REMARK    6  A    between atoms: C_16  and  C_17 
REMARK    7  A    between atoms: C_17  and  N_18 
REMARK       I    between atoms: N_18  and  C_19 
REMARK    8  A    between atoms: C_19  and  C_21 
REMARK    9  A    between atoms: C_24  and  C_25 
ROOT
ATOM      1  C   UNL d   1       9.303   4.142 -14.035  0.00  0.00     0.196 C 
ATOM      2  F   UNL d   1       8.352   3.376 -13.536  0.00  0.00    -0.235 F 
ENDROOT
BRANCH   1   3
ATOM      3  C   UNL d   1      10.380   3.415 -14.895  0.00  0.00     0.285 C 
BRANCH   3   4
ATOM      4  N   UNL d   1       9.920   2.257 -15.653  0.00  0.00     0.144 N 
ATOM      5  C   UNL d   1       9.345   1.212 -14.796  0.00  0.00     0.274 C 
ATOM      6  C   UNL d   1       8.906  -0.014 -15.602  0.00  0.00     0.137 C 
ATOM      7  N   UNL d   1       7.986   0.415 -16.656  0.00  0.00    -0.343 N 
ATOM      8  C   UNL d   1       8.485   1.479 -17.518  0.00  0.00     0.137 C 
ATOM      9  C   UNL d   1       8.962   2.675 -16.680  0.00  0.00     0.274 C 
BRANCH   7  10
ATOM     10  C   UNL d   1       6.672  -0.104 -16.792  0.00  0.00     0.079 A 
ATOM     11  C   UNL d   1       6.105  -0.355 -18.075  0.00  0.00     0.110 A 
ATOM     12  C   UNL d   1       4.799  -0.908 -18.149  0.00  0.00     0.026 A 
ATOM     13  C   UNL d   1       4.075  -1.216 -16.984  0.00  0.00     0.002 A 
ATOM     14  C   UNL d   1       4.638  -0.965 -15.723  0.00  0.00     0.002 A 
ATOM     15  C   UNL d   1       5.921  -0.408 -15.630  0.00  0.00     0.019 A 
BRANCH  11  16
ATOM     16  O   UNL d   1       6.866  -0.091 -19.199  0.00  0.00    -0.327 OA
ATOM     17  C   UNL d   1       6.293  -0.290 -20.482  0.00  0.00     0.181 C 
ENDBRANCH  11  16
ENDBRANCH   7  10
ENDBRANCH   3   4
ENDBRANCH   1   3
BRANCH   1  18
ATOM     18  C   UNL d   1       9.934   4.800 -12.808  0.00  0.00     0.064 C 
BRANCH  18  19
ATOM     19  C   UNL d   1       8.942   5.712 -12.070  0.00  0.00     0.132 C 
BRANCH  19  20
ATOM     20  N   UNL d   1       9.461   6.114 -10.771  0.00  0.00    -0.234 NA
ATOM     21  C   UNL d   1       9.845   7.354 -10.432  0.00  0.00     0.275 C 
ATOM     22  O   UNL d   1       9.851   8.302 -11.212  0.00  0.00    -0.266 OA
BRANCH  21  23
ATOM     23  C   UNL d   1      10.287   7.510  -9.006  0.00  0.00     0.058 A 
ATOM     24  C   UNL d   1      11.296   8.437  -8.680  0.00  0.00     0.005 A 
ATOM     25  C   UNL d   1      11.681   8.622  -7.337  0.00  0.00     0.002 A 
ATOM     26  C   UNL d   1      11.065   7.894  -6.294  0.00  0.00     0.018 A 
ATOM     27  C   UNL d   1      10.057   6.965  -6.631  0.00  0.00     0.002 A 
ATOM     28  C   UNL d   1       9.662   6.781  -7.970  0.00  0.00     0.005 A 
BRANCH  26  29
ATOM     29  C   UNL d   1      11.474   8.080  -4.890  0.00  0.00     0.081 A 
ATOM     30  N   UNL d   1      11.484   9.356  -4.441  0.00  0.00    -0.244 NA
ATOM     31  C   UNL d   1      11.866   9.586  -3.170  0.00  0.00     0.099 A 
ATOM     32  C   UNL d   1      12.257   8.566  -2.278  0.00  0.00     0.021 A 
ATOM     33  C   UNL d   1      12.248   7.240  -2.740  0.00  0.00     0.003 A 
ATOM     34  C   UNL d   1      11.850   6.994  -4.066  0.00  0.00     0.019 A 
ENDBRANCH  26  29
ENDBRANCH  21  23
ENDBRANCH  19  20
ENDBRANCH  18  19
ENDBRANCH   1  18
TORSDOF 9
