REMARK  7 active torsions:
REMARK  status: ('A' for Active; 'I' for Inactive)
REMARK    1  A    between atoms: C_6  and  N_7 
REMARK    2  A    between atoms: N_11  and  C_12 
REMARK    3  A    between atoms: C_12  and  C_13 
REMARK    4  A    between atoms: C_13  and  C_14 
REMARK    5  A    between atoms: C_14  and  C_15 
REMARK    6  A    between atoms: C_15  and  O_16 
REMARK    7  A    between atoms: O_16  and  C_17 
ROOT
ATOM      1  N   UNL d   1       7.760   0.934 -16.251  0.00  0.00    -0.345 N 
ATOM      2  C   UNL d   1       9.062   0.277 -16.253  0.00  0.00     0.104 C 
ATOM      3  C   UNL d   1      10.169   1.128 -15.580  0.00  0.00     0.059 C 
ATOM      4  C   UNL d   1       9.773   1.740 -14.225  0.00  0.00     0.252 C 
ATOM      5  N   UNL d   1       9.215   3.090 -14.383  0.00  0.00     0.139 N 
ATOM      6  C   UNL d   1       7.832   2.998 -14.845  0.00  0.00     0.274 C 
ATOM      7  C   UNL d   1       7.685   2.383 -16.272  0.00  0.00     0.137 C 
ENDROOT
BRANCH   5   8
ATOM      8  C   UNL d   1       9.116   3.675 -13.048  0.00  0.00     0.250 C 
BRANCH   8   9
ATOM      9  C   UNL d   1       8.769   5.168 -13.126  0.00  0.00     0.038 C 
BRANCH   9  10
ATOM     10  C   UNL d   1       9.259   5.915 -11.899  0.00  0.00     0.035 C 
BRANCH  10  11
ATOM     11  C   UNL d   1       8.556   5.555 -10.574  0.00  0.00     0.149 C 
BRANCH  11  12
ATOM     12  O   UNL d   1       9.413   5.342  -9.450  0.00  0.00    -0.331 OA
BRANCH  12  13
ATOM     13  C   UNL d   1       9.934   6.461  -8.835  0.00  0.00     0.096 A 
ATOM     14  C   UNL d   1      10.049   6.457  -7.428  0.00  0.00     0.044 A 
ATOM     15  C   UNL d   1      10.533   7.584  -6.728  0.00  0.00     0.090 A 
ATOM     16  C   UNL d   1      10.915   8.738  -7.480  0.00  0.00     0.049 A 
ATOM     17  N   UNL d   1      10.682   7.702  -5.351  0.00  0.00    -0.236 NA
ATOM     18  C   UNL d   1      10.835   8.745  -8.878  0.00  0.00     0.010 A 
ATOM     19  S   UNL d   1      11.471  10.014  -6.415  0.00  0.00    -0.064 SA
ATOM     20  C   UNL d   1      10.371   7.611  -9.547  0.00  0.00     0.025 A 
ATOM     21  C   UNL d   1      11.146   8.925  -5.071  0.00  0.00     0.135 A 
ENDBRANCH  12  13
ENDBRANCH  11  12
ENDBRANCH  10  11
ENDBRANCH   9  10
ENDBRANCH   8   9
ENDBRANCH   5   8
BRANCH   1  22
ATOM     22  C   UNL d   1       6.580   0.124 -16.308  0.00  0.00     0.068 A 
ATOM     23  C   UNL d   1       6.353  -0.626 -17.486  0.00  0.00     0.018 A 
ATOM     24  C   UNL d   1       5.212  -1.475 -17.595  0.00  0.00     0.002 A 
ATOM     25  C   UNL d   1       4.294  -1.545 -16.536  0.00  0.00     0.012 A 
ATOM     26  C   UNL d   1       4.500  -0.792 -15.374  0.00  0.00     0.070 A 
ATOM     27 CL   UNL d   1       3.333  -0.871 -14.102  0.00  0.00    -0.081 Cl
ATOM     28  C   UNL d   1       5.660   0.021 -15.225  0.00  0.00     0.084 A 
ATOM     29 CL   UNL d   1       5.865   0.744 -13.663  0.00  0.00    -0.080 Cl
ENDBRANCH   1  22
TORSDOF 7
