REMARK  4 active torsions:
REMARK  status: ('A' for Active; 'I' for Inactive)
REMARK    1  A    between atoms: C_6  and  O_7 
REMARK    2  A    between atoms: O_7  and  C_8 
REMARK    3  A    between atoms: C_8  and  C_9 
REMARK    4  A    between atoms: C_14  and  N_15 
ROOT
ATOM      1  C   UNL d   1       9.727   6.326  -9.195  0.00  0.00     0.206 A 
ATOM      2  N   UNL d   1      10.393   7.046 -10.113  0.00  0.00    -0.039 NA
ATOM      3  C   UNL d   1      11.108   8.018  -9.559  0.00  0.00     0.785 A 
ATOM      4  N   UNL d   1      11.831   8.790 -10.424  0.00  0.00     0.063 N 
ATOM      5  N   UNL d   1      11.247   8.323  -8.281  0.00  0.00     0.134 NA
ATOM      6  C   UNL d   1      10.556   7.504  -7.494  0.00  0.00     0.744 A 
ATOM      7  N   UNL d   1       9.798   6.467  -7.867  0.00  0.00    -0.043 NA
ENDROOT
BRANCH   1   8
ATOM      8  C   UNL d   1       8.890   5.156  -9.704  0.00  0.00     0.215 C 
BRANCH   8   9
ATOM      9  O   UNL d   1       8.031   5.550 -10.784  0.00  0.00    -0.323 OA
BRANCH   9  10
ATOM     10  C   UNL d   1       8.043   4.761 -11.914  0.00  0.00     0.094 A 
ATOM     11  C   UNL d   1       6.802   4.475 -12.512  0.00  0.00     0.024 A 
ATOM     12  C   UNL d   1       6.720   3.622 -13.635  0.00  0.00     0.002 A 
ATOM     13  C   UNL d   1       7.900   3.090 -14.197  0.00  0.00    -0.004 A 
ATOM     14  C   UNL d   1       9.157   3.420 -13.648  0.00  0.00    -0.020 A 
ATOM     15  C   UNL d   1      10.435   2.847 -14.219  0.00  0.00     0.031 C 
ATOM     16  C   UNL d   1       9.226   4.274 -12.521  0.00  0.00     0.020 A 
ENDBRANCH   9  10
ENDBRANCH   8   9
ENDBRANCH   1   8
BRANCH   6  17
ATOM     17  N   UNL d   1      10.678   7.746  -6.132  0.00  0.00    -0.178 N 
ATOM     18  C   UNL d   1      10.547   6.686  -5.160  0.00  0.00     0.155 C 
ATOM     19  C   UNL d   1      11.698   6.725  -4.137  0.00  0.00     0.275 C 
ATOM     20  N   UNL d   1      11.809   8.035  -3.517  0.00  0.00     0.143 N 
ATOM     21  C   UNL d   1      12.060   9.035  -4.553  0.00  0.00     0.275 C 
ATOM     22  C   UNL d   1      12.888   7.992  -2.559  0.00  0.00     0.286 C 
ATOM     23  C   UNL d   1      10.885   9.072  -5.564  0.00  0.00     0.155 C 
ENDBRANCH   6  17
TORSDOF 4
