REMARK  7 active torsions:
REMARK  status: ('A' for Active; 'I' for Inactive)
REMARK    1  A    between atoms: O_2  and  C_3 
REMARK    2  A    between atoms: C_12  and  C_13 
REMARK    3  A    between atoms: C_13  and  O_15 
REMARK    4  A    between atoms: O_15  and  C_16 
REMARK    5  A    between atoms: C_16  and  C_17 
REMARK    6  A    between atoms: N_20  and  C_21 
REMARK    7  A    between atoms: C_21  and  C_22 
ROOT
ATOM      1  O   UNL d   1       7.172   2.199 -14.893  0.00  0.00    -0.298 OA
ENDROOT
BRANCH   1   2
ATOM      2  C   UNL d   1       6.712   1.000 -15.291  0.00  0.00     0.298 C 
ATOM      3  O   UNL d   1       5.808   0.397 -14.706  0.00  0.00    -0.259 OA
BRANCH   2   4
ATOM      4  C   UNL d   1       7.401   0.509 -16.528  0.00  0.00     0.085 A 
ATOM      5  C   UNL d   1       6.764  -0.413 -17.400  0.00  0.00     0.099 A 
ATOM      6  C   UNL d   1       7.456  -0.864 -18.556  0.00  0.00     0.024 A 
ATOM      7  C   UNL d   1       8.754  -0.408 -18.849  0.00  0.00     0.002 A 
ATOM      8  C   UNL d   1       9.389   0.511 -17.981  0.00  0.00     0.000 A 
ATOM      9  C   UNL d   1       9.423  -0.863 -20.005  0.00  0.00     0.000 A 
ATOM     10  C   UNL d   1      10.694   0.965 -18.277  0.00  0.00     0.000 A 
ATOM     11  C   UNL d   1       8.713   0.963 -16.832  0.00  0.00     0.007 A 
ATOM     12  C   UNL d   1      11.360   0.503 -19.430  0.00  0.00     0.000 A 
ATOM     13  C   UNL d   1      10.724  -0.410 -20.295  0.00  0.00     0.000 A 
BRANCH   5  14
ATOM     14  O   UNL d   1       5.478  -0.824 -17.102  0.00  0.00    -0.328 OA
ATOM     15  C   UNL d   1       4.859  -1.808 -17.917  0.00  0.00     0.181 C 
ENDBRANCH   5  14
ENDBRANCH   2   4
ENDBRANCH   1   2
BRANCH   1  16
ATOM     16  C   UNL d   1       6.593   2.852 -13.779  0.00  0.00     0.152 C 
BRANCH  16  17
ATOM     17  C   UNL d   1       7.446   4.084 -13.428  0.00  0.00     0.034 C 
ATOM     18  C   UNL d   1       6.912   4.770 -12.161  0.00  0.00     0.038 C 
ATOM     19  C   UNL d   1       7.790   5.968 -11.761  0.00  0.00     0.251 C 
ATOM     20  N   UNL d   1       9.167   5.532 -11.555  0.00  0.00     0.141 N 
ATOM     21  C   UNL d   1       9.719   5.037 -12.816  0.00  0.00     0.251 C 
ATOM     22  C   UNL d   1       8.950   3.784 -13.257  0.00  0.00     0.038 C 
BRANCH  20  23
ATOM     23  C   UNL d   1       9.967   6.652 -11.046  0.00  0.00     0.277 C 
BRANCH  23  24
ATOM     24  C   UNL d   1       9.729   7.026  -9.594  0.00  0.00     0.011 A 
ATOM     25  C   UNL d   1       9.091   6.132  -8.707  0.00  0.00    -0.002 A 
ATOM     26  C   UNL d   1       8.848   6.522  -7.378  0.00  0.00    -0.000 A 
ATOM     27  C   UNL d   1       9.283   7.776  -6.917  0.00  0.00    -0.000 A 
ATOM     28  C   UNL d   1       9.948   8.655  -7.786  0.00  0.00    -0.000 A 
ATOM     29  C   UNL d   1      10.175   8.282  -9.128  0.00  0.00    -0.002 A 
ENDBRANCH  23  24
ENDBRANCH  20  23
ENDBRANCH  16  17
ENDBRANCH   1  16
TORSDOF 7
