REMARK  8 active torsions:
REMARK  status: ('A' for Active; 'I' for Inactive)
REMARK    1  A    between atoms: C_3  and  S_4 
REMARK    2  A    between atoms: S_4  and  C_5 
REMARK    3  A    between atoms: C_5  and  C_6 
REMARK    4  A    between atoms: C_6  and  C_7 
REMARK    5  A    between atoms: C_7  and  N_8 
REMARK    6  A    between atoms: N_13  and  C_14 
REMARK    7  A    between atoms: C_17  and  C_18 
REMARK    8  A    between atoms: C_28  and  C_29 
ROOT
ATOM      1  N   UNL d   1       8.775   1.643 -15.486  0.00  0.00     0.139 N 
ATOM      2  C   UNL d   1       8.177   0.343 -15.756  0.00  0.00     0.252 C 
ATOM      3  C   UNL d   1       8.886  -0.107 -17.032  0.00  0.00     0.058 C 
ATOM      4  C   UNL d   1      10.260  -0.755 -16.819  0.00  0.00     0.028 C 
ATOM      5  C   UNL d   1      11.095  -0.213 -17.974  0.00  0.00     0.102 C 
ATOM      6  N   UNL d   1      10.575   1.123 -18.213  0.00  0.00    -0.348 N 
ATOM      7  C   UNL d   1       9.182   1.185 -17.783  0.00  0.00     0.117 C 
ATOM      8  C   UNL d   1       8.897   2.312 -16.779  0.00  0.00     0.272 C 
ENDROOT
BRANCH   1   9
ATOM      9  C   UNL d   1       8.007   2.401 -14.508  0.00  0.00     0.251 C 
BRANCH   9  10
ATOM     10  C   UNL d   1       8.751   3.667 -14.065  0.00  0.00     0.047 C 
BRANCH  10  11
ATOM     11  C   UNL d   1       8.078   4.286 -12.840  0.00  0.00     0.067 C 
BRANCH  11  12
ATOM     12  S   UNL d   1       8.642   5.990 -12.581  0.00  0.00    -0.075 SA
BRANCH  12  13
ATOM     13  C   UNL d   1       9.096   5.993 -10.871  0.00  0.00     0.193 A 
ATOM     14  N   UNL d   1       9.611   7.090 -10.276  0.00  0.00    -0.289 N 
ATOM     15  C   UNL d   1       9.864   8.395 -10.886  0.00  0.00     0.134 C 
ATOM     16  C   UNL d   1       9.792   6.654  -9.004  0.00  0.00     0.168 A 
ATOM     17  N   UNL d   1       9.459   5.364  -8.840  0.00  0.00    -0.128 NA
ATOM     18  N   UNL d   1       8.993   4.936 -10.066  0.00  0.00    -0.122 NA
BRANCH  16  19
ATOM     19  C   UNL d   1      10.306   7.422  -7.850  0.00  0.00     0.055 A 
ATOM     20  C   UNL d   1      10.568   6.825  -6.665  0.00  0.00     0.105 A 
ATOM     21  N   UNL d   1      11.067   7.516  -5.554  0.00  0.00    -0.206 NA
ATOM     22  C   UNL d   1      11.349   8.839  -5.553  0.00  0.00     0.279 A 
ATOM     23  C   UNL d   1      11.076   9.520  -6.822  0.00  0.00     0.063 A 
ATOM     24  O   UNL d   1      11.780   9.401  -4.549  0.00  0.00    -0.265 OA
ATOM     25  C   UNL d   1      10.574   8.858  -7.889  0.00  0.00     0.010 A 
ENDBRANCH  16  19
ENDBRANCH  12  13
ENDBRANCH  11  12
ENDBRANCH  10  11
ENDBRANCH   9  10
ENDBRANCH   1   9
BRANCH   6  26
ATOM     26  C   UNL d   1      11.048   1.900 -19.294  0.00  0.00     0.056 A 
ATOM     27  C   UNL d   1      12.259   1.571 -19.948  0.00  0.00     0.017 A 
ATOM     28  C   UNL d   1      12.734   2.342 -21.026  0.00  0.00     0.005 A 
ATOM     29  C   UNL d   1      12.013   3.470 -21.471  0.00  0.00     0.072 A 
ATOM     30  C   UNL d   1      10.808   3.808 -20.825  0.00  0.00     0.005 A 
ATOM     31  C   UNL d   1      10.333   3.036 -19.747  0.00  0.00     0.017 A 
BRANCH  29  32
ATOM     32  C   UNL d   1      12.519   4.305 -22.638  0.00  0.00     0.419 C 
ATOM     33  F   UNL d   1      11.888   3.933 -23.751  0.00  0.00    -0.166 F 
ATOM     34  F   UNL d   1      12.283   5.599 -22.422  0.00  0.00    -0.166 F 
ATOM     35  F   UNL d   1      13.831   4.143 -22.816  0.00  0.00    -0.166 F 
ENDBRANCH  29  32
ENDBRANCH   6  26
TORSDOF 8
