REMARK  5 active torsions:
REMARK  status: ('A' for Active; 'I' for Inactive)
REMARK    1  A    between atoms: O_2  and  C_3 
REMARK    2  A    between atoms: C_6  and  N_7 
REMARK       I    between atoms: N_7  and  C_8 
REMARK       I    between atoms: C_8  and  N_10 
REMARK    3  A    between atoms: N_13  and  C_14 
REMARK    4  A    between atoms: C_17  and  S_18 
REMARK    5  A    between atoms: C_25  and  N_26 
ROOT
ATOM      1  N   UNL d   1       9.112   4.463 -12.067  0.00  0.00    -0.193 NA
ATOM      2  C   UNL d   1       9.187   5.791 -11.830  0.00  0.00     0.346 C 
ATOM      3  O   UNL d   1       8.900   6.607 -12.703  0.00  0.00    -0.245 OA
ATOM      4  N   UNL d   1       9.750   6.134 -10.640  0.00  0.00    -0.297 N 
ATOM      5  C   UNL d   1      10.512   7.392 -10.464  0.00  0.00     0.130 C 
ATOM      6  C   UNL d   1       9.946   8.266  -9.344  0.00  0.00     0.126 C 
ATOM      7  N   UNL d   1       9.779   7.468  -8.136  0.00  0.00    -0.344 N 
ATOM      8  C   UNL d   1       9.041   6.214  -8.284  0.00  0.00     0.126 C 
ATOM      9  C   UNL d   1       9.651   5.351  -9.398  0.00  0.00     0.130 C 
ENDROOT
BRANCH   1  10
ATOM     10  C   UNL d   1       9.279   3.875 -13.357  0.00  0.00     0.088 A 
ATOM     11  C   UNL d   1      10.471   4.047 -14.099  0.00  0.00     0.021 A 
ATOM     12  C   UNL d   1      10.629   3.393 -15.339  0.00  0.00     0.027 A 
ATOM     13  C   UNL d   1       9.615   2.538 -15.864  0.00  0.00     0.110 A 
ATOM     14  C   UNL d   1       8.417   2.360 -15.122  0.00  0.00     0.080 A 
ATOM     15  C   UNL d   1       8.268   3.036 -13.884  0.00  0.00     0.038 A 
BRANCH  13  16
ATOM     16  O   UNL d   1       9.765   1.848 -17.046  0.00  0.00    -0.327 OA
ATOM     17  C   UNL d   1      10.930   2.018 -17.814  0.00  0.00     0.181 C 
ENDBRANCH  13  16
BRANCH  14  18
ATOM     18  N   UNL d   1       7.366   1.512 -15.566  0.00  0.00    -0.343 N 
ATOM     19  C   UNL d   1       7.289   0.225 -14.887  0.00  0.00     0.137 C 
ATOM     20  C   UNL d   1       5.990  -0.523 -15.265  0.00  0.00     0.274 C 
ATOM     21  N   UNL d   1       5.899  -0.697 -16.716  0.00  0.00     0.143 N 
ATOM     22  C   UNL d   1       5.838   0.624 -17.344  0.00  0.00     0.274 C 
ATOM     23  C   UNL d   1       4.695  -1.439 -17.066  0.00  0.00     0.286 C 
ATOM     24  C   UNL d   1       7.133   1.376 -17.008  0.00  0.00     0.137 C 
ENDBRANCH  14  18
ENDBRANCH   1  10
BRANCH   7  25
ATOM     25  C   UNL d   1      10.383   7.845  -6.924  0.00  0.00     0.056 A 
ATOM     26  C   UNL d   1      10.883   6.878  -6.027  0.00  0.00     0.017 A 
ATOM     27  C   UNL d   1      11.460   7.254  -4.803  0.00  0.00     0.008 A 
ATOM     28  C   UNL d   1      11.558   8.620  -4.465  0.00  0.00     0.025 A 
ATOM     29  C   UNL d   1      11.079   9.595  -5.357  0.00  0.00     0.008 A 
ATOM     30  C   UNL d   1      10.501   9.207  -6.579  0.00  0.00     0.017 A 
BRANCH  28  31
ATOM     31  S   UNL d   1      12.253   9.141  -2.930  0.00  0.00    -0.113 SA
ATOM     32  C   UNL d   1      12.357   7.699  -1.842  0.00  0.00     0.074 C 
ENDBRANCH  28  31
ENDBRANCH   7  25
TORSDOF 5
