REMARK  9 active torsions:
REMARK  status: ('A' for Active; 'I' for Inactive)
REMARK    1  A    between atoms: S_2  and  C_4 
REMARK    2  A    between atoms: S_2  and  N_10 
REMARK    3  A    between atoms: C_14  and  N_15 
REMARK    4  A    between atoms: N_18  and  C_19 
REMARK    5  A    between atoms: C_19  and  C_20 
REMARK    6  A    between atoms: C_20  and  C_21 
REMARK    7  A    between atoms: C_21  and  C_22 
REMARK    8  A    between atoms: C_22  and  O_23 
REMARK    9  A    between atoms: O_23  and  C_24 
ROOT
ATOM      1  N   UNL d   1       7.610   1.703 -15.954  0.00  0.00    -0.231 N 
ATOM      2  C   UNL d   1       8.829   2.326 -16.215  0.00  0.00     0.092 A 
ATOM      3  C   UNL d   1       9.134   3.186 -15.203  0.00  0.00     0.023 A 
ATOM      4  C   UNL d   1       8.027   3.163 -14.296  0.00  0.00     0.034 A 
ATOM      5  C   UNL d   1       7.716   3.882 -13.113  0.00  0.00     0.058 A 
ATOM      6  C   UNL d   1       6.500   3.649 -12.433  0.00  0.00     0.017 A 
ATOM      7  C   UNL d   1       5.593   2.675 -12.895  0.00  0.00     0.003 A 
ATOM      8  C   UNL d   1       5.906   1.919 -14.038  0.00  0.00     0.018 A 
ATOM      9  C   UNL d   1       7.086   2.193 -14.758  0.00  0.00     0.076 A 
ENDROOT
BRANCH   5  10
ATOM     10  N   UNL d   1       8.615   4.801 -12.591  0.00  0.00    -0.344 N 
ATOM     11  C   UNL d   1       9.659   4.441 -11.653  0.00  0.00     0.137 C 
ATOM     12  C   UNL d   1       9.605   5.398 -10.437  0.00  0.00     0.274 C 
ATOM     13  N   UNL d   1       9.733   6.790 -10.887  0.00  0.00     0.141 N 
ATOM     14  C   UNL d   1       8.600   7.067 -11.781  0.00  0.00     0.274 C 
ATOM     15  C   UNL d   1       8.630   6.178 -13.021  0.00  0.00     0.137 C 
BRANCH  13  16
ATOM     16  C   UNL d   1       9.665   7.697  -9.745  0.00  0.00     0.251 C 
BRANCH  16  17
ATOM     17  C   UNL d   1      11.002   7.753  -8.975  0.00  0.00     0.038 C 
BRANCH  17  18
ATOM     18  C   UNL d   1      11.005   8.801  -7.860  0.00  0.00     0.035 C 
BRANCH  18  19
ATOM     19  C   UNL d   1      10.080   8.428  -6.686  0.00  0.00     0.149 C 
BRANCH  19  20
ATOM     20  O   UNL d   1      10.739   7.460  -5.880  0.00  0.00    -0.331 OA
BRANCH  20  21
ATOM     21  C   UNL d   1      11.388   7.838  -4.725  0.00  0.00     0.094 A 
ATOM     22  C   UNL d   1      11.531   9.174  -4.285  0.00  0.00     0.024 A 
ATOM     23  C   UNL d   1      12.096   9.441  -3.026  0.00  0.00     0.002 A 
ATOM     24  C   UNL d   1      12.563   8.399  -2.203  0.00  0.00     0.000 A 
ATOM     25  C   UNL d   1      12.444   7.067  -2.644  0.00  0.00     0.002 A 
ATOM     26  C   UNL d   1      11.864   6.793  -3.895  0.00  0.00     0.024 A 
ENDBRANCH  20  21
ENDBRANCH  19  20
ENDBRANCH  18  19
ENDBRANCH  17  18
ENDBRANCH  16  17
ENDBRANCH  13  16
ENDBRANCH   5  10
BRANCH   1  27
ATOM     27  S   UNL d   1       6.865   0.516 -16.974  0.00  0.00     0.271 S 
ATOM     28  O   UNL d   1       5.891   1.236 -17.806  0.00  0.00    -0.200 OA
ATOM     29  O   UNL d   1       6.422  -0.549 -16.063  0.00  0.00    -0.200 OA
BRANCH  27  30
ATOM     30  C   UNL d   1       8.188  -0.082 -18.035  0.00  0.00     0.104 A 
ATOM     31  C   UNL d   1       8.028  -0.037 -19.438  0.00  0.00     0.013 A 
ATOM     32  C   UNL d   1       9.095  -0.413 -20.278  0.00  0.00     0.001 A 
ATOM     33  C   UNL d   1      10.322  -0.807 -19.716  0.00  0.00     0.000 A 
ATOM     34  C   UNL d   1      10.485  -0.849 -18.317  0.00  0.00     0.001 A 
ATOM     35  C   UNL d   1       9.411  -0.500 -17.474  0.00  0.00     0.013 A 
ENDBRANCH  27  30
ENDBRANCH   1  27
TORSDOF 9
