REMARK  4 active torsions:
REMARK  status: ('A' for Active; 'I' for Inactive)
REMARK    1  A    between atoms: C_9  and  C_10 
REMARK    2  A    between atoms: C_10  and  C_11 
REMARK    3  A    between atoms: C_11  and  N_12 
REMARK    4  A    between atoms: N_15  and  C_16 
ROOT
ATOM      1  N   UNL d   1       9.688   5.280 -12.097  0.00  0.00     0.141 N 
ATOM      2  C   UNL d   1       8.866   5.708 -13.230  0.00  0.00     0.274 C 
ATOM      3  C   UNL d   1       9.424   5.147 -14.560  0.00  0.00     0.137 C 
ATOM      4  N   UNL d   1       9.522   3.696 -14.483  0.00  0.00    -0.344 N 
ATOM      5  C   UNL d   1      10.238   3.192 -13.327  0.00  0.00     0.137 C 
ATOM      6  C   UNL d   1       9.657   3.820 -12.046  0.00  0.00     0.274 C 
ENDROOT
BRANCH   1   7
ATOM      7  C   UNL d   1       9.142   5.832 -10.851  0.00  0.00     0.250 C 
BRANCH   7   8
ATOM      8  C   UNL d   1      10.054   6.952 -10.330  0.00  0.00     0.036 C 
BRANCH   8   9
ATOM      9  C   UNL d   1       9.692   7.380  -8.894  0.00  0.00     0.011 C 
ATOM     10  C   UNL d   1      10.192   6.431  -7.777  0.00  0.00     0.026 C 
ATOM     11  C   UNL d   1      10.675   7.367  -6.700  0.00  0.00    -0.024 A 
ATOM     12  C   UNL d   1      10.660   8.689  -7.123  0.00  0.00    -0.026 A 
ATOM     13  C   UNL d   1      11.108   7.019  -5.410  0.00  0.00     0.025 A 
ATOM     14  C   UNL d   1      11.079   9.730  -6.279  0.00  0.00    -0.002 A 
ATOM     15  C   UNL d   1      10.163   8.814  -8.536  0.00  0.00     0.026 C 
ATOM     16  C   UNL d   1      11.517   9.399  -4.979  0.00  0.00     0.029 A 
ATOM     17  C   UNL d   1      11.539   8.053  -4.547  0.00  0.00     0.140 A 
ATOM     18  F   UNL d   1      11.973   7.752  -3.305  0.00  0.00    -0.204 F 
ENDBRANCH   8   9
ENDBRANCH   7   8
ENDBRANCH   1   7
BRANCH   4  19
ATOM     19  C   UNL d   1       8.986   2.847 -15.460  0.00  0.00     0.056 A 
ATOM     20  C   UNL d   1       9.108   3.184 -16.828  0.00  0.00     0.018 A 
ATOM     21  C   UNL d   1       8.534   2.367 -17.820  0.00  0.00     0.013 A 
ATOM     22  C   UNL d   1       7.827   1.206 -17.460  0.00  0.00     0.058 A 
ATOM     23  C   UNL d   1       7.706   0.853 -16.103  0.00  0.00     0.013 A 
ATOM     24 CL   UNL d   1       7.106   0.231 -18.681  0.00  0.00    -0.082 Cl
ATOM     25  C   UNL d   1       8.290   1.666 -15.106  0.00  0.00     0.018 A 
ENDBRANCH   4  19
TORSDOF 4
