REMARK  4 active torsions:
REMARK  status: ('A' for Active; 'I' for Inactive)
REMARK    1  A    between atoms: C_2  and  C_3 
REMARK    2  A    between atoms: C_3  and  N_4 
REMARK    3  A    between atoms: C_8  and  C_9 
REMARK    4  A    between atoms: C_13  and  C_14 
ROOT
ATOM      1  C   UNL d   1       7.331   0.713 -15.714  0.00  0.00    -0.021 A 
ATOM      2  C   UNL d   1       6.280  -0.073 -15.203  0.00  0.00    -0.004 A 
ATOM      3  C   UNL d   1       5.529   0.385 -14.105  0.00  0.00    -0.000 A 
ATOM      4  C   UNL d   1       5.825   1.631 -13.523  0.00  0.00    -0.000 A 
ATOM      5  C   UNL d   1       6.857   2.450 -14.038  0.00  0.00     0.000 A 
ATOM      6  C   UNL d   1       7.611   1.969 -15.130  0.00  0.00    -0.004 A 
ENDROOT
BRANCH   1   7
ATOM      7  C   UNL d   1       8.153   0.218 -16.892  0.00  0.00     0.056 C 
ATOM      8  C   UNL d   1       9.626   0.012 -16.506  0.00  0.00     0.008 C 
ATOM      9  C   UNL d   1      10.434  -0.374 -17.746  0.00  0.00     0.036 C 
ATOM     10  C   UNL d   1      10.208   0.636 -18.886  0.00  0.00     0.250 C 
ATOM     11  N   UNL d   1       8.788   0.707 -19.243  0.00  0.00     0.137 N 
ATOM     12  C   UNL d   1       8.024   1.183 -18.086  0.00  0.00     0.255 C 
BRANCH  11  13
ATOM     13  C   UNL d   1       8.621   1.620 -20.371  0.00  0.00     0.250 C 
BRANCH  13  14
ATOM     14  C   UNL d   1       7.228   1.497 -21.019  0.00  0.00     0.035 C 
ATOM     15  C   UNL d   1       7.055   2.447 -22.207  0.00  0.00     0.002 C 
ENDBRANCH  13  14
ENDBRANCH  11  13
ENDBRANCH   1   7
BRANCH   5  16
ATOM     16  C   UNL d   1       7.178   3.761 -13.429  0.00  0.00     0.007 A 
ATOM     17  C   UNL d   1       8.319   4.506 -13.615  0.00  0.00     0.035 A 
ATOM     18  S   UNL d   1       8.323   5.982 -12.687  0.00  0.00    -0.086 SA
ATOM     19  C   UNL d   1       6.756   5.607 -12.038  0.00  0.00     0.035 A 
ATOM     20  C   UNL d   1       6.282   4.413 -12.515  0.00  0.00     0.007 A 
ENDBRANCH   5  16
TORSDOF 4
