REMARK  7 active torsions:
REMARK  status: ('A' for Active; 'I' for Inactive)
REMARK    1  A    between atoms: O_2  and  C_3 
REMARK    2  A    between atoms: C_8  and  N_9 
REMARK    3  A    between atoms: N_12  and  C_13 
REMARK    4  A    between atoms: C_13  and  C_14 
REMARK    5  A    between atoms: C_14  and  C_16 
REMARK    6  A    between atoms: C_16  and  N_17 
REMARK    7  A    between atoms: C_21  and  C_23 
ROOT
ATOM      1  C   UNL d   1      13.430   3.567 -17.943  0.00  0.00     0.208 C 
ATOM      2  O   UNL d   1      13.731   3.039 -19.202  0.00  0.00    -0.219 OA
ENDROOT
BRANCH   1   3
ATOM      3  C   UNL d   1      11.917   3.901 -17.911  0.00  0.00     0.285 C 
BRANCH   3   4
ATOM      4  N   UNL d   1      11.368   3.993 -16.562  0.00  0.00     0.144 N 
ATOM      5  C   UNL d   1      11.031   2.656 -16.052  0.00  0.00     0.274 C 
ATOM      6  C   UNL d   1      10.429   2.709 -14.636  0.00  0.00     0.137 C 
ATOM      7  N   UNL d   1       9.302   3.638 -14.613  0.00  0.00    -0.343 N 
ATOM      8  C   UNL d   1       9.563   4.962 -15.168  0.00  0.00     0.137 C 
ATOM      9  C   UNL d   1      10.171   4.830 -16.569  0.00  0.00     0.274 C 
BRANCH   7  10
ATOM     10  C   UNL d   1       8.047   3.283 -14.100  0.00  0.00     0.079 A 
ATOM     11  C   UNL d   1       7.339   4.157 -13.244  0.00  0.00     0.110 A 
ATOM     12  C   UNL d   1       6.073   3.743 -12.732  0.00  0.00     0.026 A 
ATOM     13  C   UNL d   1       5.545   2.488 -13.075  0.00  0.00     0.002 A 
ATOM     14  C   UNL d   1       6.244   1.633 -13.933  0.00  0.00     0.002 A 
ATOM     15  C   UNL d   1       7.502   2.029 -14.449  0.00  0.00     0.019 A 
BRANCH  11  16
ATOM     16  O   UNL d   1       7.918   5.366 -12.911  0.00  0.00    -0.327 OA
ATOM     17  C   UNL d   1       7.224   6.251 -12.050  0.00  0.00     0.181 C 
ENDBRANCH  11  16
ENDBRANCH   7  10
ENDBRANCH   3   4
ENDBRANCH   1   3
BRANCH   1  18
ATOM     18  C   UNL d   1      14.412   4.746 -17.661  0.00  0.00     0.148 C 
BRANCH  18  19
ATOM     19  N   UNL d   1      13.892   6.049 -18.095  0.00  0.00    -0.247 N 
ATOM     20  C   UNL d   1      13.640   6.364 -19.376  0.00  0.00     0.265 A 
ATOM     21  C   UNL d   1      13.015   7.747 -19.440  0.00  0.00     0.179 A 
ATOM     22  O   UNL d   1      13.829   5.650 -20.359  0.00  0.00    -0.269 OA
ATOM     23  N   UNL d   1      12.944   7.991 -18.015  0.00  0.00    -0.209 NA
ATOM     24  C   UNL d   1      11.582   7.719 -20.029  0.00  0.00     0.039 C 
ATOM     25  C   UNL d   1      13.450   7.011 -17.273  0.00  0.00     0.348 A 
ATOM     26  O   UNL d   1      13.477   7.012 -16.037  0.00  0.00    -0.245 OA
BRANCH  21  27
ATOM     27  C   UNL d   1      13.982   8.688 -20.171  0.00  0.00     0.006 A 
ATOM     28  C   UNL d   1      15.132   9.184 -19.510  0.00  0.00     0.000 A 
ATOM     29  C   UNL d   1      16.043  10.017 -20.186  0.00  0.00     0.029 A 
ATOM     30  C   UNL d   1      15.809  10.375 -21.526  0.00  0.00     0.140 A 
ATOM     31  C   UNL d   1      14.678   9.881 -22.197  0.00  0.00     0.029 A 
ATOM     32  F   UNL d   1      16.671  11.193 -22.170  0.00  0.00    -0.204 F 
ATOM     33  C   UNL d   1      13.775   9.037 -21.529  0.00  0.00     0.000 A 
ENDBRANCH  21  27
ENDBRANCH  18  19
ENDBRANCH   1  18
TORSDOF 7
