REMARK  3 active torsions:
REMARK  status: ('A' for Active; 'I' for Inactive)
REMARK    1  A    between atoms: N_2  and  C_4 
REMARK    2  A    between atoms: C_4  and  C_5 
REMARK    3  A    between atoms: C_10  and  C_11 
ROOT
ATOM      1  C   UNL d   1       9.204   5.390  -9.754  0.00  0.00     0.137 C 
ATOM      2  C   UNL d   1       9.854   4.160  -9.181  0.00  0.00     0.033 C 
ATOM      3  C   UNL d   1       8.329   5.930  -8.675  0.00  0.00     0.099 C 
ATOM      4  C   UNL d   1       9.092   6.506  -7.548  0.00  0.00     0.177 C 
ATOM      5  O   UNL d   1       8.583   6.406  -6.440  0.00  0.00    -0.291 OA
ATOM      6  C   UNL d   1      10.350   7.167  -7.779  0.00  0.00     0.059 C 
ATOM      7  C   UNL d   1      10.745   7.170  -9.087  0.00  0.00     0.119 C 
ATOM      8  O   UNL d   1      10.159   6.427 -10.113  0.00  0.00    -0.331 OA
ENDROOT
BRANCH   6   9
ATOM      9  C   UNL d   1      11.071   7.882  -6.727  0.00  0.00     0.005 A 
ATOM     10  C   UNL d   1      11.576   9.178  -6.921  0.00  0.00     0.000 A 
ATOM     11  C   UNL d   1      12.255   9.842  -5.873  0.00  0.00     0.000 A 
ATOM     12  C   UNL d   1      12.419   9.213  -4.621  0.00  0.00     0.000 A 
ATOM     13  C   UNL d   1      11.911   7.926  -4.407  0.00  0.00     0.000 A 
ATOM     14  C   UNL d   1      11.254   7.253  -5.460  0.00  0.00     0.000 A 
ENDBRANCH   6   9
BRANCH   1  15
ATOM     15  C   UNL d   1       8.317   5.065 -10.986  0.00  0.00     0.278 C 
BRANCH  15  16
ATOM     16  N   UNL d   1       8.969   5.110 -12.314  0.00  0.00     0.144 N 
ATOM     17  C   UNL d   1       7.932   5.268 -13.323  0.00  0.00     0.286 C 
ATOM     18  C   UNL d   1       9.687   3.883 -12.640  0.00  0.00     0.286 C 
ENDBRANCH  15  16
ENDBRANCH   1  15
TORSDOF 3
