REMARK  5 active torsions:
REMARK  status: ('A' for Active; 'I' for Inactive)
REMARK    1  A    between atoms: C_4  and  C_5 
REMARK       I    between atoms: C_5  and  N_7 
REMARK    2  A    between atoms: N_10  and  C_11 
REMARK    3  A    between atoms: C_11  and  C_12 
REMARK    4  A    between atoms: C_12  and  N_13 
REMARK    5  A    between atoms: N_16  and  C_17 
ROOT
ATOM      1  C   UNL d   1      15.093   9.275 -19.157  0.00  0.00     0.277 C 
ATOM      2  O   UNL d   1      14.669  10.226 -19.813  0.00  0.00    -0.266 OA
ATOM      3  N   UNL d   1      14.304   8.272 -18.687  0.00  0.00    -0.311 N 
ATOM      4  C   UNL d   1      14.721   7.256 -17.690  0.00  0.00     0.140 C 
ATOM      5  C   UNL d   1      14.333   5.846 -18.193  0.00  0.00     0.274 C 
ATOM      6  N   UNL d   1      12.911   5.741 -18.506  0.00  0.00     0.143 N 
ATOM      7  C   UNL d   1      12.579   6.725 -19.539  0.00  0.00     0.274 C 
ATOM      8  C   UNL d   1      12.892   8.161 -19.085  0.00  0.00     0.140 C 
ENDROOT
BRANCH   6   9
ATOM      9  C   UNL d   1      12.055   5.895 -17.324  0.00  0.00     0.286 C 
BRANCH   9  10
ATOM     10  C   UNL d   1      12.098   4.720 -16.337  0.00  0.00     0.286 C 
BRANCH  10  11
ATOM     11  N   UNL d   1      11.329   3.559 -16.758  0.00  0.00     0.143 N 
ATOM     12  C   UNL d   1       9.905   3.880 -16.928  0.00  0.00     0.274 C 
ATOM     13  C   UNL d   1       9.110   2.678 -17.417  0.00  0.00     0.137 C 
ATOM     14  N   UNL d   1       9.304   1.554 -16.517  0.00  0.00    -0.344 N 
ATOM     15  C   UNL d   1      10.690   1.212 -16.209  0.00  0.00     0.137 C 
ATOM     16  C   UNL d   1      11.465   2.470 -15.783  0.00  0.00     0.274 C 
BRANCH  14  17
ATOM     17  C   UNL d   1       8.207   0.868 -15.972  0.00  0.00     0.068 A 
ATOM     18  C   UNL d   1       7.134   0.404 -16.784  0.00  0.00     0.084 A 
ATOM     19  C   UNL d   1       6.035  -0.249 -16.187  0.00  0.00     0.070 A 
ATOM     20 CL   UNL d   1       7.148   0.567 -18.513  0.00  0.00    -0.080 Cl
ATOM     21  C   UNL d   1       5.995  -0.448 -14.800  0.00  0.00     0.012 A 
ATOM     22 CL   UNL d   1       4.732  -0.833 -17.157  0.00  0.00    -0.081 Cl
ATOM     23  C   UNL d   1       7.056  -0.008 -13.996  0.00  0.00     0.002 A 
ATOM     24  C   UNL d   1       8.159   0.651 -14.577  0.00  0.00     0.018 A 
ENDBRANCH  14  17
ENDBRANCH  10  11
ENDBRANCH   9  10
ENDBRANCH   6   9
BRANCH   1  25
ATOM     25  C   UNL d   1      16.544   9.168 -18.838  0.00  0.00     0.158 A 
ATOM     26  N   UNL d   1      17.250   9.986 -18.096  0.00  0.00    -0.165 NA
ATOM     27  N   UNL d   1      18.503   9.473 -18.045  0.00  0.00    -0.249 N 
ATOM     28  C   UNL d   1      19.515  10.188 -17.295  0.00  0.00     0.154 C 
ATOM     29  C   UNL d   1      18.630   8.282 -18.753  0.00  0.00     0.080 A 
ATOM     30  C   UNL d   1      17.340   8.067 -19.303  0.00  0.00     0.041 A 
ATOM     31  C   UNL d   1      19.690   7.391 -18.976  0.00  0.00     0.019 A 
ATOM     32  C   UNL d   1      17.140   6.904 -20.085  0.00  0.00     0.003 A 
ATOM     33  C   UNL d   1      18.191   5.996 -20.300  0.00  0.00     0.000 A 
ATOM     34  C   UNL d   1      19.468   6.242 -19.754  0.00  0.00     0.002 A 
ENDBRANCH   1  25
TORSDOF 5
