REMARK  7 active torsions:
REMARK  status: ('A' for Active; 'I' for Inactive)
REMARK    1  A    between atoms: S_2  and  N_4 
REMARK    2  A    between atoms: S_2  and  C_23 
REMARK    3  A    between atoms: N_4  and  C_5 
REMARK    4  A    between atoms: C_5  and  C_6 
REMARK    5  A    between atoms: C_6  and  C_7 
REMARK    6  A    between atoms: C_7  and  N_8 
REMARK    7  A    between atoms: N_11  and  C_12 
ROOT
ATOM      1  C   UNL d   1       8.734   2.289 -14.149  0.00  0.00     0.062 C 
ENDROOT
BRANCH   1   2
ATOM      2  C   UNL d   1       9.239   1.471 -15.339  0.00  0.00     0.141 C 
BRANCH   2   3
ATOM      3  N   UNL d   1       8.360   1.626 -16.498  0.00  0.00    -0.185 NA
BRANCH   3   4
ATOM      4  S   UNL d   1       8.933   2.458 -17.892  0.00  0.00     0.281 S 
ATOM      5  O   UNL d   1       7.865   2.385 -18.901  0.00  0.00    -0.199 OA
ATOM      6  O   UNL d   1       9.468   3.756 -17.453  0.00  0.00    -0.199 OA
BRANCH   4   7
ATOM      7  C   UNL d   1      10.287   1.425 -18.431  0.00  0.00     0.105 A 
ATOM      8  C   UNL d   1      11.505   2.020 -18.814  0.00  0.00     0.013 A 
ATOM      9  C   UNL d   1      12.581   1.205 -19.222  0.00  0.00     0.001 A 
ATOM     10  C   UNL d   1      12.434  -0.206 -19.231  0.00  0.00     0.000 A 
ATOM     11  C   UNL d   1      13.801   1.788 -19.625  0.00  0.00     0.000 A 
ATOM     12  C   UNL d   1      11.211  -0.788 -18.829  0.00  0.00     0.001 A 
ATOM     13  C   UNL d   1      13.512  -1.017 -19.642  0.00  0.00     0.000 A 
ATOM     14  C   UNL d   1      10.138   0.026 -18.426  0.00  0.00     0.013 A 
ATOM     15  C   UNL d   1      14.726  -0.429 -20.046  0.00  0.00     0.000 A 
ATOM     16  C   UNL d   1      14.871   0.971 -20.039  0.00  0.00     0.000 A 
ENDBRANCH   4   7
ENDBRANCH   3   4
ENDBRANCH   2   3
ENDBRANCH   1   2
BRANCH   1  17
ATOM     17  C   UNL d   1       9.064   3.787 -14.241  0.00  0.00     0.253 C 
BRANCH  17  18
ATOM     18  N   UNL d   1       8.667   4.476 -13.016  0.00  0.00     0.141 N 
ATOM     19  C   UNL d   1       8.600   5.921 -13.265  0.00  0.00     0.274 C 
ATOM     20  C   UNL d   1       8.191   6.692 -12.000  0.00  0.00     0.138 C 
ATOM     21  N   UNL d   1       9.093   6.357 -10.914  0.00  0.00    -0.328 N 
ATOM     22  C   UNL d   1       9.287   4.945 -10.665  0.00  0.00     0.138 C 
ATOM     23  C   UNL d   1       9.678   4.244 -11.979  0.00  0.00     0.274 C 
BRANCH  21  24
ATOM     24  C   UNL d   1       9.739   7.351 -10.169  0.00  0.00     0.169 A 
ATOM     25  C   UNL d   1       9.938   7.368  -8.770  0.00  0.00     0.061 A 
ATOM     26  C   UNL d   1      10.604   8.550  -8.435  0.00  0.00     0.128 A 
ATOM     27  C   UNL d   1       9.552   6.474  -7.751  0.00  0.00     0.005 A 
ATOM     28  O   UNL d   1      10.799   9.212  -9.636  0.00  0.00    -0.210 OA
ATOM     29  C   UNL d   1      10.940   8.892  -7.114  0.00  0.00     0.027 A 
ATOM     30  N   UNL d   1      10.239   8.459 -10.705  0.00  0.00    -0.109 NA
ATOM     31  C   UNL d   1      10.567   7.992  -6.094  0.00  0.00     0.002 A 
ATOM     32  C   UNL d   1       9.878   6.800  -6.414  0.00  0.00     0.000 A 
ENDBRANCH  21  24
ENDBRANCH  17  18
ENDBRANCH   1  17
TORSDOF 7
