REMARK  6 active torsions:
REMARK  status: ('A' for Active; 'I' for Inactive)
REMARK    1  A    between atoms: N_13  and  C_14 
REMARK    2  A    between atoms: C_14  and  C_15 
REMARK    3  A    between atoms: C_15  and  C_16 
REMARK    4  A    between atoms: C_16  and  C_17 
REMARK    5  A    between atoms: C_17  and  N_18 
REMARK    6  A    between atoms: N_21  and  C_22 
ROOT
ATOM      1  C   UNL d   1       7.757   4.322 -11.634  0.00  0.00     0.037 C 
ENDROOT
BRANCH   1   2
ATOM      2  C   UNL d   1       7.900   3.626 -12.985  0.00  0.00     0.027 C 
BRANCH   2   3
ATOM      3  C   UNL d   1       6.559   3.103 -13.528  0.00  0.00     0.112 C 
BRANCH   3   4
ATOM      4  N   UNL d   1       6.761   2.142 -14.625  0.00  0.00    -0.271 N 
ATOM      5  C   UNL d   1       7.710   2.206 -15.583  0.00  0.00     0.239 C 
ATOM      6  O   UNL d   1       8.701   2.931 -15.645  0.00  0.00    -0.272 OA
ATOM      7  C   UNL d   1       7.359   1.244 -16.680  0.00  0.00     0.091 C 
ATOM      8  C   UNL d   1       6.581   0.201 -15.915  0.00  0.00     0.091 C 
ATOM      9  C   UNL d   1       8.474   0.585 -17.473  0.00  0.00     0.045 C 
ATOM     10  C   UNL d   1       5.712  -0.587 -16.907  0.00  0.00     0.045 C 
ATOM     11  C   UNL d   1       6.024   1.020 -14.767  0.00  0.00     0.239 C 
ATOM     12  C   UNL d   1       6.701  -1.271 -17.891  0.00  0.00     0.183 C 
ATOM     13  C   UNL d   1       7.808  -0.354 -18.501  0.00  0.00     0.183 C 
ATOM     14  O   UNL d   1       6.035  -2.004 -18.899  0.00  0.00    -0.221 OA
ATOM     15  O   UNL d   1       7.239   0.433 -19.523  0.00  0.00    -0.221 OA
ATOM     16  O   UNL d   1       5.099   0.637 -14.049  0.00  0.00    -0.272 OA
ENDBRANCH   3   4
ENDBRANCH   2   3
ENDBRANCH   1   2
BRANCH   1  17
ATOM     17  C   UNL d   1       9.148   4.554 -11.016  0.00  0.00     0.251 C 
BRANCH  17  18
ATOM     18  N   UNL d   1       9.040   5.115  -9.682  0.00  0.00     0.141 N 
ATOM     19  C   UNL d   1      10.296   4.968  -9.009  0.00  0.00     0.274 C 
ATOM     20  C   UNL d   1      10.272   5.590  -7.623  0.00  0.00     0.137 C 
ATOM     21  N   UNL d   1       9.977   6.985  -7.769  0.00  0.00    -0.344 N 
ATOM     22  C   UNL d   1       8.674   7.193  -8.383  0.00  0.00     0.137 C 
ATOM     23  C   UNL d   1       8.785   6.550  -9.797  0.00  0.00     0.274 C 
BRANCH  21  24
ATOM     24  C   UNL d   1      10.557   7.939  -6.930  0.00  0.00     0.057 A 
ATOM     25  C   UNL d   1      11.118   7.687  -5.632  0.00  0.00     0.022 A 
ATOM     26  C   UNL d   1      11.857   8.758  -5.010  0.00  0.00     0.031 A 
ATOM     27  C   UNL d   1      11.144   6.527  -4.772  0.00  0.00     0.009 A 
ATOM     28  C   UNL d   1      11.987   9.984  -5.638  0.00  0.00     0.007 A 
ATOM     29  S   UNL d   1      12.529   8.324  -3.452  0.00  0.00    -0.086 SA
ATOM     30  C   UNL d   1      11.375  10.206  -6.847  0.00  0.00     0.002 A 
ATOM     31  C   UNL d   1      10.682   9.200  -7.524  0.00  0.00     0.017 A 
ATOM     32  C   UNL d   1      11.858   6.744  -3.619  0.00  0.00     0.035 A 
ENDBRANCH  21  24
ENDBRANCH  17  18
ENDBRANCH   1  17
TORSDOF 6
