REMARK  2 active torsions:
REMARK  status: ('A' for Active; 'I' for Inactive)
REMARK    1  A    between atoms: C_4  and  C_5 
REMARK    2  A    between atoms: C_7  and  N_8 
ROOT
ATOM      1  C   UNL d   1       7.820   1.848 -15.929  0.00  0.00     0.045 C 
ATOM      2  C   UNL d   1       9.275   1.354 -16.166  0.00  0.00     0.046 C 
ATOM      3  C   UNL d   1      10.206   2.237 -15.280  0.00  0.00     0.242 C 
ATOM      4  C   UNL d   1       9.246   2.896 -14.305  0.00  0.00     0.006 A 
ATOM      5  C   UNL d   1       9.553   3.640 -13.152  0.00  0.00     0.009 A 
ATOM      6  C   UNL d   1       8.513   4.305 -12.472  0.00  0.00     0.058 A 
ATOM      7 CL   UNL d   1       8.893   5.300 -11.118  0.00  0.00    -0.082 Cl
ATOM      8  C   UNL d   1       7.170   4.159 -12.895  0.00  0.00     0.011 A 
ATOM      9  C   UNL d   1       6.864   3.351 -14.016  0.00  0.00    -0.003 A 
ATOM     10  C   UNL d   1       7.926   2.740 -14.714  0.00  0.00    -0.021 A 
ENDROOT
BRANCH   3  11
ATOM     11  N   UNL d   1      11.017   3.197 -16.052  0.00  0.00     0.143 N 
ATOM     12  C   UNL d   1      10.191   4.167 -16.790  0.00  0.00     0.281 C 
ATOM     13  C   UNL d   1      11.027   5.139 -17.666  0.00  0.00     0.222 C 
ATOM     14  N   UNL d   1      12.000   5.846 -16.801  0.00  0.00     0.117 N 
ATOM     15  C   UNL d   1      10.000   6.103 -18.316  0.00  0.00     0.035 C 
ATOM     16  C   UNL d   1      11.687   4.324 -18.804  0.00  0.00     0.035 C 
ATOM     17  C   UNL d   1      12.843   4.899 -16.068  0.00  0.00     0.283 C 
ATOM     18  C   UNL d   1      12.802   6.846 -17.485  0.00  0.00     0.312 C 
ATOM     19  C   UNL d   1      11.995   3.930 -15.245  0.00  0.00     0.286 C 
ENDBRANCH   3  11
BRANCH   1  20
ATOM     20  C   UNL d   1       6.825   0.719 -15.756  0.00  0.00    -0.043 A 
ATOM     21  C   UNL d   1       5.935   0.377 -16.797  0.00  0.00     0.008 A 
ATOM     22  C   UNL d   1       5.008  -0.667 -16.610  0.00  0.00     0.001 A 
ATOM     23  C   UNL d   1       4.965  -1.364 -15.389  0.00  0.00     0.000 A 
ATOM     24  C   UNL d   1       5.858  -1.022 -14.354  0.00  0.00     0.001 A 
ATOM     25  C   UNL d   1       6.785   0.009 -14.538  0.00  0.00     0.008 A 
ENDBRANCH   1  20
TORSDOF 2
