REMARK  7 active torsions:
REMARK  status: ('A' for Active; 'I' for Inactive)
REMARK    1  A    between atoms: O_2  and  C_3 
REMARK    2  A    between atoms: C_6  and  S_7 
REMARK    3  A    between atoms: S_7  and  N_10 
REMARK    4  A    between atoms: C_17  and  C_18 
REMARK    5  A    between atoms: C_21  and  C_22 
REMARK    6  A    between atoms: C_22  and  N_23 
REMARK    7  A    between atoms: C_29  and  C_30 
ROOT
ATOM      1  C   UNL d   1       9.529   1.901 -15.425  0.00  0.00     0.083 A 
ATOM      2  C   UNL d   1       8.817   0.910 -14.800  0.00  0.00     0.020 A 
ATOM      3  C   UNL d   1       7.750   1.504 -14.054  0.00  0.00     0.018 A 
ATOM      4  C   UNL d   1       7.871   2.861 -14.216  0.00  0.00     0.092 A 
ATOM      5  N   UNL d   1       8.932   3.085 -15.055  0.00  0.00    -0.248 NA
ENDROOT
BRANCH   1   6
ATOM      6  C   UNL d   1      10.679   1.905 -16.330  0.00  0.00     0.041 A 
ATOM      7  C   UNL d   1      11.020   0.761 -17.088  0.00  0.00     0.096 A 
ATOM      8  C   UNL d   1      12.131   0.799 -17.958  0.00  0.00     0.025 A 
ATOM      9  C   UNL d   1      12.907   1.974 -18.082  0.00  0.00     0.015 A 
ATOM     10  C   UNL d   1      12.563   3.112 -17.333  0.00  0.00     0.104 A 
ATOM     11  C   UNL d   1      11.461   3.086 -16.469  0.00  0.00     0.016 A 
BRANCH   7  12
ATOM     12  O   UNL d   1      10.255  -0.381 -16.916  0.00  0.00    -0.328 OA
ATOM     13  C   UNL d   1      10.133  -1.278 -18.002  0.00  0.00     0.181 C 
ENDBRANCH   7  12
BRANCH  10  14
ATOM     14  S   UNL d   1      13.569   4.600 -17.418  0.00  0.00     0.264 S 
ATOM     15  O   UNL d   1      13.370   5.368 -16.190  0.00  0.00    -0.200 OA
ATOM     16  O   UNL d   1      14.927   4.205 -17.844  0.00  0.00    -0.200 OA
BRANCH  14  17
ATOM     17  N   UNL d   1      12.841   5.470 -18.723  0.00  0.00    -0.269 N 
ATOM     18  C   UNL d   1      13.466   5.555 -20.053  0.00  0.00     0.145 C 
ATOM     19  C   UNL d   1      13.714   7.028 -20.417  0.00  0.00     0.167 C 
ATOM     20  O   UNL d   1      12.509   7.768 -20.301  0.00  0.00    -0.350 OA
ATOM     21  C   UNL d   1      12.022   7.779 -18.967  0.00  0.00     0.167 C 
ATOM     22  C   UNL d   1      11.683   6.353 -18.505  0.00  0.00     0.145 C 
ENDBRANCH  14  17
ENDBRANCH  10  14
ENDBRANCH   1   6
BRANCH   4  23
ATOM     23  C   UNL d   1       7.048   3.964 -13.710  0.00  0.00     0.296 C 
BRANCH  23  24
ATOM     24  N   UNL d   1       7.447   4.461 -12.391  0.00  0.00     0.145 N 
ATOM     25  C   UNL d   1       8.708   5.221 -12.317  0.00  0.00     0.242 C 
ATOM     26  C   UNL d   1       8.657   6.533 -13.110  0.00  0.00     0.038 C 
ATOM     27  C   UNL d   1       7.935   7.732 -12.444  0.00  0.00     0.002 C 
ATOM     28  C   UNL d   1       6.401   7.685 -12.563  0.00  0.00     0.002 C 
ATOM     29  C   UNL d   1       5.774   6.307 -12.639  0.00  0.00     0.035 C 
ATOM     30  C   UNL d   1       6.361   5.212 -11.769  0.00  0.00     0.251 C 
BRANCH  25  31
ATOM     31  C   UNL d   1       9.245   5.456 -10.891  0.00  0.00     0.009 A 
ATOM     32  C   UNL d   1       8.697   4.770  -9.799  0.00  0.00    -0.002 A 
ATOM     33  C   UNL d   1       9.129   5.009  -8.499  0.00  0.00    -0.000 A 
ATOM     34  C   UNL d   1      10.113   5.976  -8.226  0.00  0.00    -0.000 A 
ATOM     35  C   UNL d   1      10.648   6.703  -9.295  0.00  0.00    -0.000 A 
ATOM     36  C   UNL d   1      10.235   6.423 -10.599  0.00  0.00    -0.002 A 
ENDBRANCH  25  31
ENDBRANCH  23  24
ENDBRANCH   4  23
TORSDOF 7
