REMARK  10 active torsions:
REMARK  status: ('A' for Active; 'I' for Inactive)
REMARK    1  A    between atoms: C_2  and  C_3 
REMARK    2  A    between atoms: C_3  and  N_4 
REMARK    3  A    between atoms: N_4  and  C_5 
REMARK    4  A    between atoms: N_4  and  C_24 
REMARK    5  A    between atoms: C_5  and  C_6 
REMARK    6  A    between atoms: C_6  and  C_7 
REMARK    7  A    between atoms: C_7  and  C_8 
REMARK    8  A    between atoms: C_8  and  N_9 
REMARK       I    between atoms: N_9  and  C_10 
REMARK    9  A    between atoms: C_10  and  C_12 
REMARK   10  A    between atoms: C_15  and  C_16 
ROOT
ATOM      1  C   UNL d   1       8.674   1.514 -15.871  0.00  0.00     0.224 C 
ATOM      2  C   UNL d   1       8.205   0.579 -14.737  0.00  0.00     0.038 C 
ATOM      3  C   UNL d   1       6.701   0.335 -14.793  0.00  0.00     0.029 C 
ATOM      4  C   UNL d   1       6.178  -0.011 -16.189  0.00  0.00    -0.016 A 
ATOM      5  C   UNL d   1       4.885  -0.588 -16.340  0.00  0.00     0.064 A 
ATOM      6  C   UNL d   1       4.052  -0.848 -15.188  0.00  0.00     0.101 C 
ATOM      7  N   UNL d   1       3.388  -1.049 -14.253  0.00  0.00    -0.191 NA
ATOM      8  C   UNL d   1       4.400  -0.873 -17.639  0.00  0.00     0.010 A 
ATOM      9  C   UNL d   1       5.177  -0.582 -18.773  0.00  0.00     0.000 A 
ATOM     10  C   UNL d   1       6.452  -0.016 -18.623  0.00  0.00    -0.004 A 
ATOM     11  C   UNL d   1       6.957   0.266 -17.339  0.00  0.00    -0.024 A 
ATOM     12  C   UNL d   1       8.357   0.861 -17.231  0.00  0.00     0.059 C 
ENDROOT
BRANCH   1  13
ATOM     13  N   UNL d   1      10.107   1.867 -15.732  0.00  0.00     0.135 N 
BRANCH  13  14
ATOM     14  C   UNL d   1      10.602   2.715 -16.824  0.00  0.00     0.250 C 
BRANCH  14  15
ATOM     15  C   UNL d   1      12.137   2.776 -16.849  0.00  0.00     0.035 C 
ATOM     16  C   UNL d   1      12.639   3.679 -17.970  0.00  0.00     0.002 C 
ENDBRANCH  14  15
ENDBRANCH  13  14
BRANCH  13  17
ATOM     17  C   UNL d   1      10.440   2.457 -14.423  0.00  0.00     0.250 C 
BRANCH  17  18
ATOM     18  C   UNL d   1       9.607   3.721 -14.101  0.00  0.00     0.037 C 
BRANCH  18  19
ATOM     19  C   UNL d   1       9.982   4.330 -12.762  0.00  0.00     0.029 C 
BRANCH  19  20
ATOM     20  C   UNL d   1       8.998   5.434 -12.359  0.00  0.00     0.129 C 
BRANCH  20  21
ATOM     21  N   UNL d   1       9.318   5.928 -11.029  0.00  0.00    -0.234 NA
ATOM     22  C   UNL d   1       9.578   7.202 -10.711  0.00  0.00     0.275 C 
ATOM     23  O   UNL d   1       9.522   8.135 -11.518  0.00  0.00    -0.266 OA
BRANCH  22  24
ATOM     24  C   UNL d   1      10.034   7.420  -9.297  0.00  0.00     0.058 A 
ATOM     25  C   UNL d   1       9.431   6.714  -8.229  0.00  0.00     0.005 A 
ATOM     26  C   UNL d   1       9.851   6.935  -6.904  0.00  0.00     0.000 A 
ATOM     27  C   UNL d   1      10.875   7.859  -6.610  0.00  0.00     0.000 A 
ATOM     28  C   UNL d   1      11.465   8.569  -7.682  0.00  0.00     0.000 A 
ATOM     29  C   UNL d   1      11.045   8.359  -9.010  0.00  0.00     0.005 A 
BRANCH  27  30
ATOM     30  C   UNL d   1      11.318   8.079  -5.221  0.00  0.00     0.000 A 
ATOM     31  C   UNL d   1      11.454   9.383  -4.698  0.00  0.00     0.000 A 
ATOM     32  C   UNL d   1      11.861   9.588  -3.364  0.00  0.00     0.000 A 
ATOM     33  C   UNL d   1      12.170   8.487  -2.542  0.00  0.00     0.000 A 
ATOM     34  C   UNL d   1      12.037   7.182  -3.048  0.00  0.00     0.000 A 
ATOM     35  C   UNL d   1      11.609   6.983  -4.375  0.00  0.00     0.000 A 
ENDBRANCH  27  30
ENDBRANCH  22  24
ENDBRANCH  20  21
ENDBRANCH  19  20
ENDBRANCH  18  19
ENDBRANCH  17  18
ENDBRANCH  13  17
ENDBRANCH   1  13
TORSDOF 10
