REMARK  1 active torsions:
REMARK  status: ('A' for Active; 'I' for Inactive)
REMARK    1  A    between atoms: O_2  and  C_3 
ROOT
ATOM      1  C   UNL d   1       9.176   5.563 -10.674  0.00  0.00     0.094 A 
ATOM      2  C   UNL d   1       8.832   4.993  -9.431  0.00  0.00     0.024 A 
ATOM      3  C   UNL d   1       9.175   5.651  -8.224  0.00  0.00    -0.001 A 
ATOM      4  C   UNL d   1       9.918   6.846  -8.231  0.00  0.00     0.005 A 
ATOM      5  C   UNL d   1      10.249   7.410  -9.472  0.00  0.00    -0.020 A 
ATOM      6  C   UNL d   1       9.864   6.798 -10.658  0.00  0.00     0.020 A 
ATOM      7  C   UNL d   1      10.982   8.713  -9.544  0.00  0.00     0.061 C 
ATOM      8  C   UNL d   1      10.812   9.485  -8.243  0.00  0.00     0.256 C 
ATOM      9  N   UNL d   1      11.254   8.669  -7.133  0.00  0.00     0.144 N 
ATOM     10  C   UNL d   1      11.327   9.500  -5.933  0.00  0.00     0.277 C 
ATOM     11  C   UNL d   1      11.695   8.712  -4.689  0.00  0.00     0.007 A 
ATOM     12  C   UNL d   1      12.187   9.337  -3.527  0.00  0.00    -0.003 A 
ATOM     13  C   UNL d   1      12.487   8.600  -2.364  0.00  0.00    -0.000 A 
ATOM     14  C   UNL d   1      12.273   7.217  -2.356  0.00  0.00    -0.000 A 
ATOM     15  C   UNL d   1      11.768   6.620  -3.506  0.00  0.00    -0.004 A 
ATOM     16  C   UNL d   1      11.484   7.331  -4.674  0.00  0.00    -0.022 A 
ATOM     17  C   UNL d   1      10.937   6.640  -5.902  0.00  0.00     0.064 C 
ATOM     18  C   UNL d   1      10.295   7.583  -6.936  0.00  0.00     0.246 C 
ENDROOT
BRANCH   1  19
ATOM     19  O   UNL d   1       8.817   4.885 -11.824  0.00  0.00    -0.328 OA
ATOM     20  C   UNL d   1       9.075   5.560 -13.066  0.00  0.00     0.181 C 
ENDBRANCH   1  19
TORSDOF 1
