REMARK  10 active torsions:
REMARK  status: ('A' for Active; 'I' for Inactive)
REMARK    1  A    between atoms: C_2  and  C_3 
REMARK    2  A    between atoms: C_3  and  C_4 
REMARK    3  A    between atoms: C_4  and  C_5 
REMARK    4  A    between atoms: C_5  and  C_6 
REMARK    5  A    between atoms: C_6  and  C_7 
REMARK    6  A    between atoms: C_7  and  C_8 
REMARK    7  A    between atoms: C_8  and  C_9 
REMARK    8  A    between atoms: C_9  and  C_10 
REMARK    9  A    between atoms: C_10  and  N_11 
REMARK   10  A    between atoms: C_14  and  C_15 
ROOT
ATOM      1  N   UNL d   1       9.665   7.412  -8.677  0.00  0.00     0.137 N 
ATOM      2  C   UNL d   1      11.094   7.166  -8.724  0.00  0.00     0.251 C 
ATOM      3  C   UNL d   1      11.720   8.357  -8.015  0.00  0.00     0.042 C 
ATOM      4  C   UNL d   1      10.624   8.798  -7.036  0.00  0.00     0.058 C 
ATOM      5  C   UNL d   1       9.438   7.855  -7.310  0.00  0.00     0.255 C 
ENDROOT
BRANCH   1   6
ATOM      6  C   UNL d   1       8.877   6.225  -8.982  0.00  0.00     0.250 C 
BRANCH   6   7
ATOM      7  C   UNL d   1       8.850   5.955 -10.498  0.00  0.00     0.035 C 
BRANCH   7   8
ATOM      8  C   UNL d   1       7.681   5.054 -10.916  0.00  0.00     0.002 C 
BRANCH   8   9
ATOM      9  C   UNL d   1       7.821   4.488 -12.338  0.00  0.00     0.000 C 
BRANCH   9  10
ATOM     10  C   UNL d   1       6.630   3.599 -12.753  0.00  0.00     0.000 C 
BRANCH  10  11
ATOM     11  C   UNL d   1       6.981   2.595 -13.869  0.00  0.00     0.000 C 
BRANCH  11  12
ATOM     12  C   UNL d   1       6.108   1.331 -13.813  0.00  0.00     0.000 C 
BRANCH  12  13
ATOM     13  C   UNL d   1       6.411   0.340 -14.949  0.00  0.00     0.000 C 
BRANCH  13  14
ATOM     14  C   UNL d   1       5.646  -0.984 -14.802  0.00  0.00     0.000 C 
ATOM     15  C   UNL d   1       4.123  -0.839 -14.943  0.00  0.00     0.000 C 
ENDBRANCH  13  14
ENDBRANCH  12  13
ENDBRANCH  11  12
ENDBRANCH  10  11
ENDBRANCH   9  10
ENDBRANCH   8   9
ENDBRANCH   7   8
ENDBRANCH   6   7
ENDBRANCH   1   6
BRANCH   4  16
ATOM     16  C   UNL d   1      11.057   8.790  -5.581  0.00  0.00    -0.018 A 
ATOM     17  C   UNL d   1      11.465   7.575  -4.982  0.00  0.00     0.023 A 
ATOM     18  C   UNL d   1      11.869   7.552  -3.637  0.00  0.00     0.131 A 
ATOM     19  C   UNL d   1      11.873   8.725  -2.876  0.00  0.00     0.027 A 
ATOM     20  O   UNL d   1      12.260   6.389  -3.057  0.00  0.00    -0.190 OA
ATOM     21  C   UNL d   1      11.466   9.923  -3.462  0.00  0.00     0.002 A 
ATOM     22  C   UNL d   1      11.060   9.976  -4.814  0.00  0.00    -0.004 A 
ENDBRANCH   4  16
TORSDOF 10
