REMARK  1 active torsions:
REMARK  status: ('A' for Active; 'I' for Inactive)
REMARK    1  A    between atoms: C_6  and  C_7 
ROOT
ATOM      1  N   UNL d   1      12.397   8.327  -9.672  0.00  0.00    -0.100 N 
ATOM      2  C   UNL d   1      11.458   8.368  -8.671  0.00  0.00     0.292 A 
ATOM      3  N   UNL d   1      10.335   7.745  -8.597  0.00  0.00    -0.167 NA
ATOM      4  C   UNL d   1       9.801   8.119  -7.388  0.00  0.00     0.291 A 
ATOM      5  O   UNL d   1       8.749   7.755  -6.870  0.00  0.00    -0.267 OA
ATOM      6  C   UNL d   1      10.756   9.088  -6.699  0.00  0.00     0.227 A 
ATOM      7  O   UNL d   1      11.810   9.160  -7.626  0.00  0.00    -0.287 OA
ENDROOT
BRANCH   6   8
ATOM      8  C   UNL d   1      11.233   8.592  -5.338  0.00  0.00     0.014 A 
ATOM      9  C   UNL d   1      11.456   7.218  -5.085  0.00  0.00    -0.001 A 
ATOM     10  C   UNL d   1      11.883   6.791  -3.819  0.00  0.00    -0.000 A 
ATOM     11  C   UNL d   1      12.136   7.728  -2.801  0.00  0.00    -0.000 A 
ATOM     12  C   UNL d   1      11.938   9.098  -3.050  0.00  0.00    -0.000 A 
ATOM     13  C   UNL d   1      11.477   9.528  -4.311  0.00  0.00    -0.001 A 
ENDBRANCH   6   8
TORSDOF 1
