REMARK  0 active torsions:
REMARK  status: ('A' for Active; 'I' for Inactive)
ROOT
ATOM      1  C   UNL d   1      11.451   6.599  -5.141  0.00  0.00     0.133 C 
ATOM      2  N   UNL d   1      11.861   7.577  -4.143  0.00  0.00    -0.300 N 
ATOM      3  C   UNL d   1      12.260   7.242  -2.862  0.00  0.00     0.099 A 
ATOM      4  C   UNL d   1      12.514   8.383  -2.226  0.00  0.00     0.120 A 
ATOM      5  N   UNL d   1      12.258   9.403  -3.114  0.00  0.00    -0.216 NA
ATOM      6  C   UNL d   1      11.863   8.927  -4.314  0.00  0.00     0.202 A 
ATOM      7  S   UNL d   1      11.448   9.817  -5.654  0.00  0.00    -0.038 SA
ENDROOT
TORSDOF 0
