REMARK  5 active torsions:
REMARK  status: ('A' for Active; 'I' for Inactive)
REMARK    1  A    between atoms: C_2  and  C_3 
REMARK    2  A    between atoms: C_2  and  C_16 
REMARK    3  A    between atoms: C_3  and  C_4 
REMARK    4  A    between atoms: C_4  and  C_5 
REMARK    5  A    between atoms: C_5  and  N_6 
ROOT
ATOM      1  C   UNL d   1       9.325   6.345 -10.228  0.00  0.00     0.043 C 
ENDROOT
BRANCH   1   2
ATOM      2  C   UNL d   1       8.256   5.647 -11.104  0.00  0.00     0.071 C 
BRANCH   2   3
ATOM      3  C   UNL d   1       8.802   5.112 -12.442  0.00  0.00     0.173 C 
ATOM      4  O   UNL d   1       9.860   5.552 -12.903  0.00  0.00    -0.291 OA
BRANCH   3   5
ATOM      5  C   UNL d   1       8.044   4.013 -13.109  0.00  0.00     0.035 A 
ATOM      6  C   UNL d   1       6.668   3.794 -12.845  0.00  0.00     0.005 A 
ATOM      7  C   UNL d   1       5.988   2.731 -13.473  0.00  0.00     0.028 A 
ATOM      8  C   UNL d   1       6.661   1.885 -14.380  0.00  0.00     0.131 A 
ATOM      9  C   UNL d   1       8.018   2.120 -14.673  0.00  0.00     0.028 A 
ATOM     10  O   UNL d   1       6.008   0.827 -14.942  0.00  0.00    -0.190 OA
ATOM     11  C   UNL d   1       8.701   3.182 -14.046  0.00  0.00     0.005 A 
ENDBRANCH   3   5
ENDBRANCH   2   3
ENDBRANCH   1   2
BRANCH   1  12
ATOM     12  C   UNL d   1       8.981   6.328  -8.727  0.00  0.00     0.251 C 
BRANCH  12  13
ATOM     13  N   UNL d   1       9.928   7.135  -7.960  0.00  0.00     0.142 N 
ATOM     14  C   UNL d   1      10.022   6.623  -6.597  0.00  0.00     0.276 C 
ATOM     15  C   UNL d   1      10.915   7.427  -5.673  0.00  0.00     0.007 A 
ATOM     16  C   UNL d   1      11.183   8.771  -5.979  0.00  0.00    -0.022 A 
ATOM     17  C   UNL d   1      11.462   6.854  -4.503  0.00  0.00    -0.003 A 
ATOM     18  C   UNL d   1      10.635   9.371  -7.255  0.00  0.00     0.061 C 
ATOM     19  C   UNL d   1      11.976   9.550  -5.119  0.00  0.00    -0.004 A 
ATOM     20  C   UNL d   1       9.503   8.533  -7.891  0.00  0.00     0.255 C 
ATOM     21  C   UNL d   1      12.498   8.988  -3.937  0.00  0.00    -0.000 A 
ATOM     22  C   UNL d   1      12.248   7.635  -3.633  0.00  0.00    -0.000 A 
ENDBRANCH  12  13
ENDBRANCH   1  12
TORSDOF 5
