REMARK  4 active torsions:
REMARK  status: ('A' for Active; 'I' for Inactive)
REMARK    1  A    between atoms: N_4  and  C_5 
REMARK    2  A    between atoms: C_5  and  C_6 
REMARK    3  A    between atoms: C_6  and  C_7 
REMARK    4  A    between atoms: C_10  and  N_11 
ROOT
ATOM      1  C   UNL d   1      12.509   4.755 -17.313  0.00  0.00     0.002 C 
ATOM      2  C   UNL d   1      12.975   5.780 -16.256  0.00  0.00     0.002 C 
ATOM      3  C   UNL d   1      14.163   6.588 -16.762  0.00  0.00     0.023 C 
ATOM      4  C   UNL d   1      15.318   5.657 -17.206  0.00  0.00     0.091 C 
ATOM      5  C   UNL d   1      14.879   4.543 -18.196  0.00  0.00     0.023 C 
ATOM      6  C   UNL d   1      13.658   3.789 -17.687  0.00  0.00     0.002 C 
ENDROOT
BRANCH   1   7
ATOM      7  C   UNL d   1      11.286   3.990 -16.794  0.00  0.00     0.035 C 
BRANCH   7   8
ATOM      8  C   UNL d   1      10.454   3.322 -17.908  0.00  0.00     0.250 C 
BRANCH   8   9
ATOM      9  N   UNL d   1       9.774   2.124 -17.411  0.00  0.00     0.138 N 
ATOM     10  C   UNL d   1       8.640   2.523 -16.581  0.00  0.00     0.255 C 
ATOM     11  C   UNL d   1       8.112   1.411 -15.662  0.00  0.00     0.055 C 
ATOM     12  C   UNL d   1       9.223   0.743 -14.835  0.00  0.00     0.007 C 
ATOM     13  C   UNL d   1       7.224   0.387 -16.360  0.00  0.00    -0.024 A 
ATOM     14  C   UNL d   1       7.634  -0.330 -17.521  0.00  0.00    -0.024 A 
ATOM     15  C   UNL d   1       5.959   0.111 -15.794  0.00  0.00     0.007 A 
ATOM     16  C   UNL d   1       8.996  -0.133 -18.166  0.00  0.00     0.061 C 
ATOM     17  C   UNL d   1       6.770  -1.302 -18.073  0.00  0.00    -0.004 A 
ATOM     18  C   UNL d   1       9.345   1.312 -18.545  0.00  0.00     0.255 C 
ATOM     19  C   UNL d   1       5.513  -1.577 -17.494  0.00  0.00     0.011 A 
ATOM     20  C   UNL d   1       5.105  -0.865 -16.350  0.00  0.00     0.057 A 
ATOM     21 CL   UNL d   1       3.580  -1.212 -15.609  0.00  0.00    -0.082 Cl
ENDBRANCH   8   9
ENDBRANCH   7   8
ENDBRANCH   1   7
BRANCH   4  22
ATOM     22  N   UNL d   1      16.451   6.431 -17.754  0.00  0.00    -0.272 N 
ATOM     23  C   UNL d   1      16.216   7.164 -18.882  0.00  0.00     0.239 C 
ATOM     24  C   UNL d   1      17.299   8.039 -19.466  0.00  0.00     0.089 C 
ATOM     25  O   UNL d   1      15.135   7.174 -19.462  0.00  0.00    -0.272 OA
ATOM     26  C   UNL d   1      18.714   7.518 -19.150  0.00  0.00     0.018 C 
ATOM     27  C   UNL d   1      18.836   7.251 -17.645  0.00  0.00     0.089 C 
ATOM     28  C   UNL d   1      19.693   8.570 -19.664  0.00  0.00     0.001 C 
ATOM     29  C   UNL d   1      19.052   6.263 -19.990  0.00  0.00     0.001 C 
ATOM     30  C   UNL d   1      17.649   6.409 -17.120  0.00  0.00     0.239 C 
ATOM     31  O   UNL d   1      17.840   5.799 -16.074  0.00  0.00    -0.272 OA
ATOM     32  C   UNL d   1      19.917   8.222 -21.148  0.00  0.00     0.000 C 
ATOM     33  C   UNL d   1      19.364   6.802 -21.382  0.00  0.00     0.000 C 
ENDBRANCH   4  22
TORSDOF 4
