REMARK  3 active torsions:
REMARK  status: ('A' for Active; 'I' for Inactive)
REMARK    1  A    between atoms: C_11  and  C_12 
REMARK    2  A    between atoms: N_15  and  C_16 
REMARK    3  A    between atoms: C_16  and  C_17 
ROOT
ATOM      1  C   UNL d   1       8.879   6.254 -10.424  0.00  0.00     0.011 C 
ATOM      2  C   UNL d   1       8.699   4.761 -10.457  0.00  0.00     0.036 C 
ATOM      3  C   UNL d   1       7.497   4.390 -11.342  0.00  0.00     0.251 C 
ATOM      4  N   UNL d   1       7.768   4.822 -12.695  0.00  0.00     0.141 N 
ATOM      5  C   UNL d   1       7.751   6.278 -12.725  0.00  0.00     0.251 C 
ATOM      6  C   UNL d   1       8.888   6.815 -11.875  0.00  0.00     0.036 C 
ENDROOT
BRANCH   1   7
ATOM      7  C   UNL d   1      10.035   6.765  -9.534  0.00  0.00     0.062 C 
ATOM      8  C   UNL d   1       9.698   6.715  -8.017  0.00  0.00     0.172 C 
ATOM      9  O   UNL d   1       8.795   6.009  -7.608  0.00  0.00    -0.291 OA
ATOM     10  C   UNL d   1      10.544   7.546  -7.117  0.00  0.00     0.031 A 
ATOM     11  C   UNL d   1      11.515   8.440  -7.639  0.00  0.00    -0.019 A 
ATOM     12  C   UNL d   1      10.388   7.446  -5.719  0.00  0.00     0.003 A 
ATOM     13  C   UNL d   1      12.277   9.210  -6.767  0.00  0.00    -0.004 A 
ATOM     14  C   UNL d   1      11.735   8.574  -9.129  0.00  0.00     0.027 C 
ATOM     15  C   UNL d   1      12.111   9.142  -5.381  0.00  0.00    -0.000 A 
ATOM     16  C   UNL d   1      11.167   8.234  -4.845  0.00  0.00     0.000 A 
ATOM     17  C   UNL d   1      10.505   8.192  -9.921  0.00  0.00     0.012 C 
ENDBRANCH   1   7
BRANCH   4  18
ATOM     18  C   UNL d   1       6.716   4.352 -13.570  0.00  0.00     0.277 C 
BRANCH  18  19
ATOM     19  C   UNL d   1       6.604   2.848 -13.705  0.00  0.00     0.011 A 
ATOM     20  C   UNL d   1       5.551   2.187 -13.043  0.00  0.00    -0.000 A 
ATOM     21  C   UNL d   1       5.454   0.784 -13.091  0.00  0.00     0.029 A 
ATOM     22  C   UNL d   1       6.412   0.038 -13.799  0.00  0.00     0.140 A 
ATOM     23  C   UNL d   1       7.464   0.689 -14.477  0.00  0.00     0.029 A 
ATOM     24  F   UNL d   1       6.331  -1.310 -13.793  0.00  0.00    -0.204 F 
ATOM     25  C   UNL d   1       7.555   2.098 -14.432  0.00  0.00    -0.000 A 
ENDBRANCH  18  19
ENDBRANCH   4  18
TORSDOF 3
