REMARK  6 active torsions:
REMARK  status: ('A' for Active; 'I' for Inactive)
REMARK    1  A    between atoms: O_2  and  N_3 
REMARK    2  A    between atoms: C_4  and  C_5 
REMARK    3  A    between atoms: C_4  and  C_19 
REMARK    4  A    between atoms: C_5  and  C_6 
REMARK    5  A    between atoms: C_6  and  N_7 
REMARK    6  A    between atoms: N_10  and  C_11 
ROOT
ATOM      1  C   UNL d   1       7.897   5.675 -11.505  0.00  0.00     0.257 C 
ENDROOT
BRANCH   1   2
ATOM      2  C   UNL d   1       8.194   5.811 -13.014  0.00  0.00     0.083 C 
BRANCH   2   3
ATOM      3  C   UNL d   1       9.152   4.763 -13.551  0.00  0.00     0.087 C 
ATOM      4  N   UNL d   1      10.403   4.980 -13.440  0.00  0.00    -0.136 NA
BRANCH   4   5
ATOM      5  O   UNL d   1      11.204   3.909 -13.854  0.00  0.00    -0.234 OA
ATOM      6  C   UNL d   1      12.493   4.402 -14.138  0.00  0.00     0.211 C 
ENDBRANCH   4   5
BRANCH   3   7
ATOM      7  C   UNL d   1       8.507   3.609 -14.234  0.00  0.00     0.015 A 
ATOM      8  C   UNL d   1       7.312   3.054 -13.711  0.00  0.00    -0.003 A 
ATOM      9  C   UNL d   1       6.708   1.937 -14.316  0.00  0.00    -0.022 A 
ATOM     10  C   UNL d   1       7.264   1.384 -15.487  0.00  0.00    -0.004 A 
ATOM     11  C   UNL d   1       5.486   1.314 -13.671  0.00  0.00     0.031 C 
ATOM     12  C   UNL d   1       8.432   1.953 -16.042  0.00  0.00    -0.000 A 
ATOM     13  C   UNL d   1       9.046   3.059 -15.421  0.00  0.00     0.001 A 
ENDBRANCH   3   7
ENDBRANCH   2   3
ENDBRANCH   1   2
BRANCH   1  14
ATOM     14  N   UNL d   1       9.084   5.818 -10.665  0.00  0.00     0.141 N 
ATOM     15  C   UNL d   1       8.702   5.527  -9.284  0.00  0.00     0.274 C 
ATOM     16  C   UNL d   1       9.945   5.603  -8.376  0.00  0.00     0.138 C 
ATOM     17  N   UNL d   1      10.600   6.905  -8.527  0.00  0.00    -0.330 N 
ATOM     18  C   UNL d   1      10.899   7.288  -9.901  0.00  0.00     0.138 C 
ATOM     19  C   UNL d   1       9.636   7.173 -10.757  0.00  0.00     0.274 C 
BRANCH  17  20
ATOM     20  C   UNL d   1      10.888   7.730  -7.423  0.00  0.00     0.140 A 
ATOM     21  N   UNL d   1      11.024   7.133  -6.223  0.00  0.00    -0.227 NA
ATOM     22  C   UNL d   1      11.303   7.884  -5.139  0.00  0.00     0.101 A 
ATOM     23  C   UNL d   1      11.473   9.278  -5.192  0.00  0.00     0.021 A 
ATOM     24  C   UNL d   1      11.348   9.912  -6.438  0.00  0.00     0.005 A 
ATOM     25  C   UNL d   1      11.044   9.129  -7.572  0.00  0.00     0.037 A 
ENDBRANCH  17  20
ENDBRANCH   1  14
TORSDOF 6
