REMARK  6 active torsions:
REMARK  status: ('A' for Active; 'I' for Inactive)
REMARK       I    between atoms: C_2  and  N_3 
REMARK    1  A    between atoms: C_2  and  C_27 
REMARK    2  A    between atoms: N_3  and  C_4 
REMARK    3  A    between atoms: C_7  and  C_8 
REMARK    4  A    between atoms: C_8  and  C_9 
REMARK    5  A    between atoms: C_9  and  N_10 
REMARK    6  A    between atoms: N_13  and  C_14 
ROOT
ATOM      1  C   UNL d   1       8.162   5.200 -10.736  0.00  0.00     0.250 C 
ENDROOT
BRANCH   1   2
ATOM      2  C   UNL d   1       9.441   6.056 -10.657  0.00  0.00     0.035 C 
BRANCH   2   3
ATOM      3  C   UNL d   1       9.990   6.348  -9.247  0.00  0.00     0.002 C 
ATOM      4  C   UNL d   1      11.150   7.361  -9.388  0.00  0.00     0.002 C 
ATOM      5  C   UNL d   1      11.733   7.737  -8.020  0.00  0.00     0.024 C 
ATOM      6  C   UNL d   1      10.638   8.288  -7.080  0.00  0.00     0.106 C 
ATOM      7  C   UNL d   1       9.437   7.318  -6.950  0.00  0.00     0.024 C 
ATOM      8  C   UNL d   1       8.931   6.940  -8.321  0.00  0.00     0.002 C 
BRANCH   6   9
ATOM      9  N   UNL d   1      11.168   8.599  -5.764  0.00  0.00    -0.238 NA
ATOM     10  C   UNL d   1      11.534   7.691  -4.854  0.00  0.00     0.279 C 
ATOM     11  O   UNL d   1      11.765   6.513  -5.119  0.00  0.00    -0.268 OA
BRANCH  10  12
ATOM     12  C   UNL d   1      11.639   8.172  -3.408  0.00  0.00     0.198 C 
ATOM     13  C   UNL d   1      13.053   8.062  -2.883  0.00  0.00     0.040 C 
ATOM     14  C   UNL d   1      12.489   7.434  -1.638  0.00  0.00     0.006 C 
ATOM     15  C   UNL d   1      11.247   7.047  -2.394  0.00  0.00     0.040 C 
ATOM     16  O   UNL d   1      11.111   9.482  -3.258  0.00  0.00    -0.216 OA
ENDBRANCH  10  12
ENDBRANCH   6   9
ENDBRANCH   2   3
ENDBRANCH   1   2
BRANCH   1  17
ATOM     17  N   UNL d   1       7.791   4.898 -12.125  0.00  0.00     0.141 N 
ATOM     18  C   UNL d   1       6.530   4.142 -12.114  0.00  0.00     0.274 C 
ATOM     19  C   UNL d   1       6.065   3.839 -13.547  0.00  0.00     0.137 C 
ATOM     20  N   UNL d   1       7.132   3.154 -14.275  0.00  0.00    -0.343 N 
ATOM     21  C   UNL d   1       8.419   3.827 -14.255  0.00  0.00     0.137 C 
ATOM     22  C   UNL d   1       8.833   4.116 -12.813  0.00  0.00     0.274 C 
BRANCH  20  23
ATOM     23  C   UNL d   1       6.932   1.967 -14.998  0.00  0.00     0.081 A 
ATOM     24  C   UNL d   1       7.626   1.687 -16.201  0.00  0.00     0.135 A 
ATOM     25  C   UNL d   1       7.410   0.539 -16.917  0.00  0.00     0.121 A 
ATOM     26  O   UNL d   1       8.548   2.449 -16.864  0.00  0.00    -0.298 OA
ATOM     27  C   UNL d   1       6.477  -0.425 -16.500  0.00  0.00     0.026 A 
ATOM     28  O   UNL d   1       8.200   0.515 -18.019  0.00  0.00    -0.299 OA
ATOM     29  C   UNL d   1       5.768  -0.187 -15.297  0.00  0.00     0.004 A 
ATOM     30  C   UNL d   1       5.999   0.995 -14.557  0.00  0.00     0.019 A 
ATOM     31  C   UNL d   1       8.925   1.717 -17.991  0.00  0.00     0.304 A 
ENDBRANCH  20  23
ENDBRANCH   1  17
TORSDOF 6
