REMARK  5 active torsions:
REMARK  status: ('A' for Active; 'I' for Inactive)
REMARK       I    between atoms: N_2  and  C_3 
REMARK    1  A    between atoms: C_3  and  C_5 
REMARK    2  A    between atoms: C_5  and  N_6 
REMARK    3  A    between atoms: N_8  and  C_9 
REMARK    4  A    between atoms: N_18  and  C_19 
REMARK    5  A    between atoms: C_19  and  C_20 
ROOT
ATOM      1  N   UNL d   1       8.014   4.840 -13.013  0.00  0.00    -0.290 N 
ATOM      2  C   UNL d   1       6.796   4.185 -13.476  0.00  0.00     0.214 A 
ATOM      3  N   UNL d   1       7.277   3.195 -14.445  0.00  0.00    -0.324 N 
ATOM      4  C   UNL d   1       8.712   3.333 -14.668  0.00  0.00     0.141 A 
ATOM      5  C   UNL d   1       9.393   1.970 -14.386  0.00  0.00     0.065 C 
ATOM      6  C   UNL d   1      10.869   1.952 -14.741  0.00  0.00     0.253 C 
ATOM      7  N   UNL d   1      11.018   2.313 -16.158  0.00  0.00     0.142 N 
ATOM      8  C   UNL d   1      10.583   3.690 -16.385  0.00  0.00     0.253 C 
ATOM      9  C   UNL d   1       9.086   3.811 -16.101  0.00  0.00     0.065 C 
ATOM     10  C   UNL d   1       9.126   4.409 -13.654  0.00  0.00     0.254 A 
ATOM     11  O   UNL d   1      10.274   4.795 -13.467  0.00  0.00    -0.270 OA
ENDROOT
BRANCH   3  12
ATOM     12  C   UNL d   1       6.629   1.968 -14.632  0.00  0.00     0.058 A 
ATOM     13  C   UNL d   1       5.927   1.333 -13.584  0.00  0.00     0.017 A 
ATOM     14  C   UNL d   1       5.371   0.061 -13.770  0.00  0.00     0.002 A 
ATOM     15  C   UNL d   1       5.461  -0.586 -15.015  0.00  0.00     0.000 A 
ATOM     16  C   UNL d   1       6.119   0.054 -16.080  0.00  0.00     0.002 A 
ATOM     17  C   UNL d   1       6.699   1.318 -15.891  0.00  0.00     0.017 A 
ENDBRANCH   3  12
BRANCH   1  18
ATOM     18  C   UNL d   1       7.986   5.824 -11.925  0.00  0.00     0.196 C 
BRANCH  18  19
ATOM     19  C   UNL d   1       8.665   5.328 -10.627  0.00  0.00     0.274 C 
ATOM     20  N   UNL d   1       8.342   5.952  -9.498  0.00  0.00    -0.234 NA
ATOM     21  C   UNL d   1       8.851   5.606  -8.194  0.00  0.00     0.155 C 
ATOM     22  O   UNL d   1       9.460   4.399 -10.642  0.00  0.00    -0.268 OA
ENDBRANCH  18  19
ENDBRANCH   1  18
BRANCH   7  23
ATOM     23  C   UNL d   1      12.422   2.184 -16.505  0.00  0.00     0.278 C 
BRANCH  23  24
ATOM     24  C   UNL d   1      12.735   2.348 -17.980  0.00  0.00     0.024 A 
ATOM     25  C   UNL d   1      12.396   1.334 -18.921  0.00  0.00     0.058 A 
ATOM     26  C   UNL d   1      12.696   1.510 -20.289  0.00  0.00     0.037 A 
ATOM     27 CL   UNL d   1      11.626  -0.134 -18.427  0.00  0.00    -0.083 Cl
ATOM     28  C   UNL d   1      13.333   2.698 -20.679  0.00  0.00     0.120 A 
ATOM     29  C   UNL d   1      13.668   3.675 -19.765  0.00  0.00     0.119 A 
ATOM     30  O   UNL d   1      13.713   3.089 -21.921  0.00  0.00    -0.299 OA
ATOM     31  C   UNL d   1      13.385   3.532 -18.401  0.00  0.00     0.025 A 
ATOM     32  O   UNL d   1      14.271   4.709 -20.403  0.00  0.00    -0.300 OA
ATOM     33  C   UNL d   1      14.299   4.356 -21.762  0.00  0.00     0.304 A 
ENDBRANCH  23  24
ENDBRANCH   7  23
TORSDOF 5
