REMARK  7 active torsions:
REMARK  status: ('A' for Active; 'I' for Inactive)
REMARK    1  A    between atoms: C_2  and  C_3 
REMARK    2  A    between atoms: C_3  and  N_4 
REMARK    3  A    between atoms: N_4  and  C_5 
REMARK    4  A    between atoms: N_4  and  C_8 
REMARK    5  A    between atoms: C_5  and  C_6 
REMARK    6  A    between atoms: C_8  and  C_9 
REMARK    7  A    between atoms: C_16  and  O_17 
ROOT
ATOM      1  C   UNL d   1       7.353   1.262 -15.038  0.00  0.00     0.068 C 
ATOM      2  C   UNL d   1       7.279  -0.104 -14.356  0.00  0.00     0.151 C 
ATOM      3  O   UNL d   1       5.981  -0.660 -14.539  0.00  0.00    -0.331 OA
ATOM      4  C   UNL d   1       5.489  -0.627 -15.828  0.00  0.00     0.092 A 
ATOM      5  C   UNL d   1       4.415  -1.480 -16.117  0.00  0.00     0.024 A 
ATOM      6  C   UNL d   1       3.871  -1.505 -17.416  0.00  0.00     0.004 A 
ATOM      7  C   UNL d   1       4.378  -0.649 -18.408  0.00  0.00     0.024 A 
ATOM      8  C   UNL d   1       5.449   0.232 -18.143  0.00  0.00     0.092 A 
ATOM      9  C   UNL d   1       6.021   0.216 -16.848  0.00  0.00     0.022 A 
ATOM     10  C   UNL d   1       7.188   1.139 -16.543  0.00  0.00     0.035 C 
ENDROOT
BRANCH   1  11
ATOM     11  C   UNL d   1       8.690   1.956 -14.678  0.00  0.00     0.253 C 
BRANCH  11  12
ATOM     12  N   UNL d   1       8.657   3.421 -14.807  0.00  0.00     0.137 N 
BRANCH  12  13
ATOM     13  C   UNL d   1       8.040   4.114 -13.661  0.00  0.00     0.250 C 
BRANCH  13  14
ATOM     14  C   UNL d   1       6.563   3.767 -13.455  0.00  0.00     0.035 C 
ATOM     15  C   UNL d   1       5.901   4.419 -12.264  0.00  0.00     0.002 C 
ENDBRANCH  13  14
ENDBRANCH  12  13
BRANCH  12  16
ATOM     16  C   UNL d   1      10.008   3.946 -15.071  0.00  0.00     0.250 C 
BRANCH  16  17
ATOM     17  C   UNL d   1      10.986   3.720 -13.897  0.00  0.00     0.035 C 
ATOM     18  C   UNL d   1      12.409   4.185 -14.186  0.00  0.00     0.002 C 
ENDBRANCH  16  17
ENDBRANCH  12  16
ENDBRANCH  11  12
ENDBRANCH   1  11
BRANCH   8  19
ATOM     19  O   UNL d   1       5.970   1.105 -19.071  0.00  0.00    -0.328 OA
ATOM     20  C   UNL d   1       5.409   1.075 -20.372  0.00  0.00     0.181 C 
ENDBRANCH   8  19
TORSDOF 7
