REMARK  3 active torsions:
REMARK  status: ('A' for Active; 'I' for Inactive)
REMARK    1  A    between atoms: O_2  and  C_3 
REMARK    2  A    between atoms: N_18  and  C_19 
REMARK    3  A    between atoms: C_19  and  C_20 
ROOT
ATOM      1  C   UNL d   1      10.329   3.572 -16.171  0.00  0.00     0.090 A 
ATOM      2  C   UNL d   1      11.387   2.947 -16.888  0.00  0.00     0.000 A 
ATOM      3  C   UNL d   1      12.380   3.753 -17.725  0.00  0.00     0.033 C 
ATOM      4  C   UNL d   1      11.547   1.554 -16.827  0.00  0.00    -0.003 A 
ATOM      5  C   UNL d   1      10.665   0.769 -16.061  0.00  0.00    -0.004 A 
ATOM      6  C   UNL d   1       9.637   1.385 -15.329  0.00  0.00    -0.018 A 
ATOM      7  C   UNL d   1       9.485   2.788 -15.317  0.00  0.00     0.018 A 
ATOM      8  C   UNL d   1       8.413   3.350 -14.443  0.00  0.00    -0.001 A 
ATOM      9  C   UNL d   1       8.465   4.659 -13.898  0.00  0.00    -0.000 A 
ATOM     10  C   UNL d   1       7.450   5.187 -13.072  0.00  0.00    -0.000 A 
ATOM     11  C   UNL d   1       6.323   4.410 -12.755  0.00  0.00    -0.004 A 
ATOM     12  C   UNL d   1       6.221   3.103 -13.233  0.00  0.00    -0.022 A 
ATOM     13  C   UNL d   1       7.284   2.594 -14.038  0.00  0.00     0.005 A 
ATOM     14  C   UNL d   1       7.232   1.133 -14.514  0.00  0.00     0.246 C 
ATOM     15  C   UNL d   1       8.656   0.510 -14.575  0.00  0.00     0.064 C 
ATOM     16  N   UNL d   1       6.308   0.245 -13.777  0.00  0.00     0.144 N 
ATOM     17  C   UNL d   1       5.011   0.887 -13.720  0.00  0.00     0.256 C 
ATOM     18  C   UNL d   1       5.130   2.121 -12.838  0.00  0.00     0.061 C 
ENDROOT
BRANCH  16  19
ATOM     19  C   UNL d   1       6.105  -1.083 -14.378  0.00  0.00     0.277 C 
BRANCH  19  20
ATOM     20  C   UNL d   1       5.506  -1.117 -15.788  0.00  0.00     0.011 A 
ATOM     21  C   UNL d   1       6.263  -0.677 -16.912  0.00  0.00    -0.002 A 
ATOM     22  C   UNL d   1       5.704  -0.633 -18.188  0.00  0.00    -0.000 A 
ATOM     23  C   UNL d   1       4.387  -1.108 -18.396  0.00  0.00    -0.000 A 
ATOM     24  C   UNL d   1       3.655  -1.593 -17.308  0.00  0.00    -0.000 A 
ATOM     25  C   UNL d   1       4.203  -1.599 -16.003  0.00  0.00    -0.002 A 
ENDBRANCH  19  20
ENDBRANCH  16  19
BRANCH   1  26
ATOM     26  O   UNL d   1      10.140   4.927 -16.291  0.00  0.00    -0.328 OA
ATOM     27  C   UNL d   1       9.563   5.340 -17.529  0.00  0.00     0.181 C 
ENDBRANCH   1  26
TORSDOF 3
