REMARK  4 active torsions:
REMARK  status: ('A' for Active; 'I' for Inactive)
REMARK    1  A    between atoms: C_6  and  C_7 
REMARK    2  A    between atoms: C_11  and  O_12 
REMARK    3  A    between atoms: O_12  and  S_13 
REMARK    4  A    between atoms: S_13  and  C_16 
ROOT
ATOM      1  C   UNL d   1       6.649   2.217 -13.904  0.00  0.00    -0.018 A 
ATOM      2  C   UNL d   1       5.752   1.140 -13.724  0.00  0.00    -0.004 A 
ATOM      3  C   UNL d   1       5.766   0.040 -14.609  0.00  0.00     0.002 A 
ATOM      4  C   UNL d   1       6.692  -0.001 -15.667  0.00  0.00     0.026 A 
ATOM      5  C   UNL d   1       7.608   1.060 -15.836  0.00  0.00     0.113 A 
ATOM      6  C   UNL d   1       7.576   2.166 -14.969  0.00  0.00     0.021 A 
ENDROOT
BRANCH   5   7
ATOM      7  O   UNL d   1       8.531   1.044 -16.843  0.00  0.00    -0.224 OA
BRANCH   7   8
ATOM      8  S   UNL d   1       9.975   0.223 -16.536  0.00  0.00     0.374 S 
ATOM      9  O   UNL d   1      10.285   0.340 -15.104  0.00  0.00    -0.189 OA
ATOM     10  O   UNL d   1       9.869  -1.097 -17.184  0.00  0.00    -0.189 OA
BRANCH   8  11
ATOM     11  C   UNL d   1      11.146   1.292 -17.494  0.00  0.00     0.524 C 
ATOM     12  F   UNL d   1      11.744   0.554 -18.428  0.00  0.00    -0.155 F 
ATOM     13  F   UNL d   1      10.469   2.284 -18.072  0.00  0.00    -0.155 F 
ATOM     14  F   UNL d   1      12.056   1.801 -16.661  0.00  0.00    -0.155 F 
ENDBRANCH   8  11
ENDBRANCH   7   8
ENDBRANCH   5   7
BRANCH   1  15
ATOM     15  C   UNL d   1       6.633   3.393 -12.929  0.00  0.00     0.056 C 
ATOM     16  C   UNL d   1       5.653   4.464 -13.405  0.00  0.00     0.008 C 
ATOM     17  C   UNL d   1       5.740   5.700 -12.495  0.00  0.00     0.036 C 
ATOM     18  C   UNL d   1       7.185   6.186 -12.323  0.00  0.00     0.250 C 
ATOM     19  N   UNL d   1       8.002   5.113 -11.769  0.00  0.00     0.139 N 
ATOM     20  C   UNL d   1       9.356   5.612 -11.576  0.00  0.00     0.285 C 
ATOM     21  C   UNL d   1       8.044   3.999 -12.712  0.00  0.00     0.255 C 
ENDBRANCH   1  15
TORSDOF 4
