REMARK  7 active torsions:
REMARK  status: ('A' for Active; 'I' for Inactive)
REMARK    1  A    between atoms: C_2  and  C_3 
REMARK    2  A    between atoms: C_3  and  N_4 
REMARK    3  A    between atoms: N_4  and  C_5 
REMARK    4  A    between atoms: N_4  and  C_19 
REMARK    5  A    between atoms: C_5  and  C_6 
REMARK    6  A    between atoms: C_6  and  N_7 
REMARK    7  A    between atoms: N_10  and  C_11 
ROOT
ATOM      1  N   UNL d   1       8.384   3.057 -15.053  0.00  0.00     0.137 N 
ENDROOT
BRANCH   1   2
ATOM      2  C   UNL d   1       7.946   1.783 -14.441  0.00  0.00     0.250 C 
BRANCH   2   3
ATOM      3  C   UNL d   1       6.473   1.733 -13.980  0.00  0.00     0.035 C 
ATOM      4  C   UNL d   1       6.050   0.333 -13.500  0.00  0.00     0.002 C 
ENDBRANCH   2   3
ENDBRANCH   1   2
BRANCH   1   5
ATOM      5  C   UNL d   1       8.156   4.201 -14.161  0.00  0.00     0.285 C 
BRANCH   5   6
ATOM      6  C   UNL d   1       8.872   4.096 -12.810  0.00  0.00     0.286 C 
BRANCH   6   7
ATOM      7  N   UNL d   1       8.628   5.223 -11.932  0.00  0.00     0.143 N 
ATOM      8  C   UNL d   1       8.749   4.790 -10.535  0.00  0.00     0.274 C 
ATOM      9  C   UNL d   1       8.572   5.929  -9.549  0.00  0.00     0.137 C 
ATOM     10  N   UNL d   1       9.517   6.982  -9.873  0.00  0.00    -0.344 N 
ATOM     11  C   UNL d   1       9.484   7.461 -11.254  0.00  0.00     0.137 C 
ATOM     12  C   UNL d   1       9.616   6.266 -12.199  0.00  0.00     0.274 C 
BRANCH  10  13
ATOM     13  C   UNL d   1      10.269   7.614  -8.885  0.00  0.00     0.056 A 
ATOM     14  C   UNL d   1       9.788   7.747  -7.558  0.00  0.00     0.017 A 
ATOM     15  C   UNL d   1      10.576   8.351  -6.567  0.00  0.00     0.002 A 
ATOM     16  C   UNL d   1      11.863   8.842  -6.892  0.00  0.00     0.000 A 
ATOM     17  C   UNL d   1      12.337   8.715  -8.210  0.00  0.00     0.002 A 
ATOM     18  C   UNL d   1      11.550   8.120  -9.198  0.00  0.00     0.017 A 
ENDBRANCH  10  13
ENDBRANCH   6   7
ENDBRANCH   5   6
ENDBRANCH   1   5
BRANCH   1  19
ATOM     19  C   UNL d   1       9.769   3.010 -15.567  0.00  0.00     0.224 C 
ATOM     20  C   UNL d   1      10.351   4.386 -16.099  0.00  0.00     0.059 C 
ATOM     21  C   UNL d   1      11.729   4.242 -16.751  0.00  0.00    -0.026 A 
ATOM     22  C   UNL d   1      12.203   2.993 -17.170  0.00  0.00    -0.026 A 
ATOM     23  C   UNL d   1      12.605   5.331 -17.028  0.00  0.00     0.001 A 
ATOM     24  C   UNL d   1      11.425   1.745 -16.927  0.00  0.00     0.028 C 
ATOM     25  C   UNL d   1      13.455   2.844 -17.805  0.00  0.00    -0.003 A 
ATOM     26  C   UNL d   1       9.950   1.928 -16.652  0.00  0.00     0.038 C 
ATOM     27  C   UNL d   1      14.319   3.916 -18.088  0.00  0.00     0.019 A 
ATOM     28  C   UNL d   1      13.843   5.167 -17.683  0.00  0.00     0.081 A 
ATOM     29  N   UNL d   1      14.489   6.386 -17.872  0.00  0.00    -0.212 NA
ATOM     30  C   UNL d   1      13.727   7.374 -17.394  0.00  0.00     0.260 A 
ATOM     31  C   UNL d   1      12.429   6.831 -16.793  0.00  0.00     0.117 A 
ATOM     32  O   UNL d   1      13.980   8.557 -17.447  0.00  0.00    -0.270 OA
ENDBRANCH   1  19
TORSDOF 7
