REMARK  5 active torsions:
REMARK  status: ('A' for Active; 'I' for Inactive)
REMARK    1  A    between atoms: C_6  and  C_7 
REMARK    2  A    between atoms: C_7  and  C_10 
REMARK    3  A    between atoms: C_10  and  C_12 
REMARK    4  A    between atoms: C_12  and  N_13 
REMARK    5  A    between atoms: N_16  and  C_17 
ROOT
ATOM      1  C   UNL d   1       9.135   5.199 -10.306  0.00  0.00     0.289 C 
ENDROOT
BRANCH   1   2
ATOM      2  C   UNL d   1       9.222   5.400 -11.836  0.00  0.00     0.227 C 
ATOM      3  O   UNL d   1       9.961   4.321 -12.383  0.00  0.00    -0.215 OA
BRANCH   2   4
ATOM      4  C   UNL d   1       7.818   5.523 -12.457  0.00  0.00     0.121 C 
ATOM      5  N   UNL d   1       7.131   6.609 -12.493  0.00  0.00    -0.098 NA
ATOM      6  O   UNL d   1       7.946   7.709 -12.043  0.00  0.00    -0.061 OA
BRANCH   4   7
ATOM      7  C   UNL d   1       7.202   4.285 -12.979  0.00  0.00     0.018 A 
ATOM      8  C   UNL d   1       6.014   3.785 -12.398  0.00  0.00     0.001 A 
ATOM      9  C   UNL d   1       5.478   2.575 -12.850  0.00  0.00    -0.000 A 
ATOM     10  C   UNL d   1       6.059   1.851 -13.895  0.00  0.00    -0.004 A 
ATOM     11  C   UNL d   1       7.229   2.345 -14.501  0.00  0.00    -0.022 A 
ATOM     12  C   UNL d   1       7.889   1.586 -15.633  0.00  0.00     0.031 C 
ATOM     13  C   UNL d   1       7.784   3.558 -14.049  0.00  0.00    -0.003 A 
ENDBRANCH   4   7
ENDBRANCH   2   4
ENDBRANCH   1   2
BRANCH   1  14
ATOM     14  N   UNL d   1       9.405   6.409  -9.513  0.00  0.00     0.144 N 
ATOM     15  C   UNL d   1      10.803   6.517  -9.154  0.00  0.00     0.274 C 
ATOM     16  C   UNL d   1      11.165   7.788  -8.361  0.00  0.00     0.138 C 
ATOM     17  N   UNL d   1      10.293   7.891  -7.207  0.00  0.00    -0.330 N 
ATOM     18  C   UNL d   1       8.871   7.706  -7.439  0.00  0.00     0.138 C 
ATOM     19  C   UNL d   1       8.649   6.408  -8.270  0.00  0.00     0.274 C 
BRANCH  17  20
ATOM     20  C   UNL d   1      10.826   8.064  -5.920  0.00  0.00     0.140 A 
ATOM     21  N   UNL d   1      11.294   6.969  -5.279  0.00  0.00    -0.227 NA
ATOM     22  C   UNL d   1      11.811   7.127  -4.042  0.00  0.00     0.101 A 
ATOM     23  C   UNL d   1      11.885   8.375  -3.389  0.00  0.00     0.021 A 
ATOM     24  C   UNL d   1      11.412   9.512  -4.068  0.00  0.00     0.005 A 
ATOM     25  C   UNL d   1      10.871   9.355  -5.355  0.00  0.00     0.037 A 
ENDBRANCH  17  20
ENDBRANCH   1  14
TORSDOF 5
