REMARK  2 active torsions:
REMARK  status: ('A' for Active; 'I' for Inactive)
REMARK    1  A    between atoms: C_10  and  C_11 
REMARK    2  A    between atoms: C_11  and  N_12 
ROOT
ATOM      1  C   UNL d   1       5.941   4.755 -12.250  0.00  0.00     0.031 C 
ATOM      2  C   UNL d   1       6.058   3.408 -12.931  0.00  0.00    -0.020 A 
ATOM      3  C   UNL d   1       5.332   2.301 -12.461  0.00  0.00    -0.004 A 
ATOM      4  C   UNL d   1       5.460   1.051 -13.094  0.00  0.00    -0.003 A 
ATOM      5  C   UNL d   1       6.293   0.895 -14.218  0.00  0.00    -0.000 A 
ATOM      6  C   UNL d   1       7.016   2.010 -14.715  0.00  0.00     0.079 A 
ATOM      7  C   UNL d   1       6.910   3.247 -14.040  0.00  0.00     0.015 A 
ATOM      8  N   UNL d   1       7.847   1.986 -15.850  0.00  0.00    -0.237 N 
ATOM      9  O   UNL d   1       9.238   2.020 -15.509  0.00  0.00    -0.258 OA
ATOM     10  C   UNL d   1       9.974   1.259 -16.461  0.00  0.00     0.180 C 
ATOM     11  C   UNL d   1       8.944   0.324 -17.099  0.00  0.00     0.064 C 
ATOM     12  C   UNL d   1       7.676   1.151 -17.036  0.00  0.00     0.134 C 
ATOM     13  C   UNL d   1       6.400   0.342 -17.269  0.00  0.00    -0.003 A 
ATOM     14  C   UNL d   1       5.835   0.337 -18.565  0.00  0.00    -0.003 A 
ATOM     15  C   UNL d   1       4.688  -0.431 -18.847  0.00  0.00    -0.000 A 
ATOM     16  C   UNL d   1       4.102  -1.211 -17.836  0.00  0.00    -0.000 A 
ATOM     17  C   UNL d   1       4.658  -1.218 -16.543  0.00  0.00    -0.004 A 
ATOM     18  C   UNL d   1       5.806  -0.447 -16.257  0.00  0.00    -0.020 A 
ATOM     19  C   UNL d   1       6.387  -0.467 -14.861  0.00  0.00     0.054 C 
ENDROOT
BRANCH  10  20
ATOM     20  C   UNL d   1      10.609   2.248 -17.463  0.00  0.00     0.282 C 
BRANCH  20  21
ATOM     21  N   UNL d   1      11.350   1.582 -18.538  0.00  0.00     0.144 N 
ATOM     22  C   UNL d   1      12.539   0.906 -18.036  0.00  0.00     0.286 C 
ATOM     23  C   UNL d   1      11.767   2.576 -19.518  0.00  0.00     0.286 C 
ENDBRANCH  20  21
ENDBRANCH  10  20
TORSDOF 2
