REMARK  4 active torsions:
REMARK  status: ('A' for Active; 'I' for Inactive)
REMARK    1  A    between atoms: O_2  and  C_3 
REMARK    2  A    between atoms: C_9  and  C_10 
REMARK    3  A    between atoms: C_10  and  N_11 
REMARK    4  A    between atoms: N_14  and  C_15 
ROOT
ATOM      1  N   UNL d   1      10.753   2.471 -15.949  0.00  0.00     0.144 N 
ATOM      2  C   UNL d   1      11.844   1.634 -16.433  0.00  0.00     0.268 C 
ATOM      3  C   UNL d   1      12.304   2.105 -17.788  0.00  0.00     0.112 C 
ATOM      4  N   UNL d   1      12.770   3.488 -17.851  0.00  0.00    -0.248 NA
ATOM      5  C   UNL d   1      11.712   4.346 -17.291  0.00  0.00     0.112 C 
ATOM      6  C   UNL d   1      11.236   3.858 -15.915  0.00  0.00     0.268 C 
ENDROOT
BRANCH   4   7
ATOM      7  C   UNL d   1      13.190   3.908 -19.228  0.00  0.00     0.071 C 
ATOM      8  C   UNL d   1      12.109   4.471 -20.192  0.00  0.00     0.267 C 
ATOM      9  N   UNL d   1      11.069   3.692 -20.589  0.00  0.00    -0.299 N 
ATOM     10  O   UNL d   1      12.218   5.641 -20.561  0.00  0.00    -0.266 OA
ATOM     11  C   UNL d   1      11.005   2.283 -20.459  0.00  0.00     0.054 C 
ATOM     12  C   UNL d   1       9.723   4.200 -20.920  0.00  0.00     0.075 C 
ATOM     13  C   UNL d   1      12.111   1.379 -20.440  0.00  0.00    -0.006 C 
ATOM     14  C   UNL d   1       9.678   1.858 -20.265  0.00  0.00    -0.005 C 
ATOM     15  C   UNL d   1      13.432   1.954 -20.953  0.00  0.00     0.034 C 
ATOM     16  C   UNL d   1      11.810   0.014 -20.188  0.00  0.00    -0.003 C 
ATOM     17  C   UNL d   1      14.128   2.927 -19.970  0.00  0.00     0.047 C 
ATOM     18  C   UNL d   1      10.492  -0.389 -19.863  0.00  0.00    -0.001 C 
ATOM     19  C   UNL d   1       9.422   0.513 -19.938  0.00  0.00    -0.003 C 
ATOM     20  C   UNL d   1       8.789   3.049 -20.459  0.00  0.00     0.049 C 
ATOM     21  C   UNL d   1       9.279   5.513 -20.208  0.00  0.00     0.023 C 
ATOM     22  C   UNL d   1       9.671   4.381 -22.438  0.00  0.00     0.023 C 
ENDBRANCH   4   7
BRANCH   1  23
ATOM     23  C   UNL d   1      10.281   1.993 -14.656  0.00  0.00     0.279 C 
BRANCH  23  24
ATOM     24  C   UNL d   1       9.017   2.686 -14.182  0.00  0.00     0.033 A 
ATOM     25  C   UNL d   1       7.751   2.115 -14.443  0.00  0.00     0.092 A 
ATOM     26  C   UNL d   1       6.599   2.787 -13.968  0.00  0.00     0.020 A 
ATOM     27  C   UNL d   1       6.708   3.997 -13.254  0.00  0.00    -0.020 A 
ATOM     28  C   UNL d   1       5.465   4.695 -12.749  0.00  0.00     0.031 C 
ATOM     29  C   UNL d   1       7.976   4.553 -13.005  0.00  0.00    -0.004 A 
ATOM     30  C   UNL d   1       9.127   3.895 -13.465  0.00  0.00    -0.001 A 
BRANCH  25  31
ATOM     31  O   UNL d   1       7.711   0.919 -15.132  0.00  0.00    -0.328 OA
ATOM     32  C   UNL d   1       6.444   0.333 -15.393  0.00  0.00     0.181 C 
ENDBRANCH  25  31
ENDBRANCH  23  24
ENDBRANCH   1  23
TORSDOF 4
