REMARK  5 active torsions:
REMARK  status: ('A' for Active; 'I' for Inactive)
REMARK       I    between atoms: N_2  and  C_3 
REMARK    1  A    between atoms: C_3  and  C_5 
REMARK    2  A    between atoms: C_7  and  C_8 
REMARK       I    between atoms: C_8  and  N_10 
REMARK    3  A    between atoms: N_10  and  C_11 
REMARK    4  A    between atoms: C_21  and  C_22 
REMARK    5  A    between atoms: C_24  and  C_25 
ROOT
ATOM      1  C   UNL d   1       7.886   3.169 -14.110  0.00  0.00     0.080 A 
ATOM      2  C   UNL d   1       9.169   3.041 -14.707  0.00  0.00     0.011 A 
ATOM      3  C   UNL d   1      10.178   4.012 -14.511  0.00  0.00     0.058 A 
ATOM      4  C   UNL d   1       9.911   5.105 -13.657  0.00  0.00     0.003 A 
ATOM      5  C   UNL d   1       8.665   5.195 -13.038  0.00  0.00     0.007 A 
ATOM      6  C   UNL d   1       7.662   4.278 -13.259  0.00  0.00     0.095 A 
ATOM      7  O   UNL d   1       6.514   4.616 -12.591  0.00  0.00    -0.330 OA
ATOM      8  C   UNL d   1       6.718   5.878 -11.925  0.00  0.00     0.165 A 
ATOM      9  C   UNL d   1       8.204   6.282 -12.132  0.00  0.00     0.077 A 
ENDROOT
BRANCH   3  10
ATOM     10  C   UNL d   1      11.530   3.888 -15.142  0.00  0.00     0.275 C 
ATOM     11  O   UNL d   1      12.544   4.288 -14.582  0.00  0.00    -0.266 OA
ATOM     12  N   UNL d   1      11.514   3.370 -16.387  0.00  0.00    -0.236 NA
BRANCH  12  13
ATOM     13  C   UNL d   1      12.649   3.171 -17.224  0.00  0.00     0.112 A 
ATOM     14  C   UNL d   1      12.484   2.219 -18.393  0.00  0.00     0.057 A 
ATOM     15  C   UNL d   1      12.558   3.691 -18.641  0.00  0.00     0.057 A 
ATOM     16  C   UNL d   1      13.657   1.620 -19.119  0.00  0.00     0.144 C 
ATOM     17  C   UNL d   1      13.779   3.915 -19.488  0.00  0.00     0.144 C 
ATOM     18  O   UNL d   1      14.529   2.713 -19.373  0.00  0.00    -0.354 OA
ENDBRANCH  12  13
ENDBRANCH   3  10
BRANCH   1  19
ATOM     19  C   UNL d   1       6.822   2.134 -14.347  0.00  0.00     0.277 C 
ATOM     20  N   UNL d   1       6.984   1.371 -15.435  0.00  0.00    -0.232 NA
ATOM     21  C   UNL d   1       6.085   0.294 -15.812  0.00  0.00     0.155 C 
ATOM     22  O   UNL d   1       5.860   2.014 -13.585  0.00  0.00    -0.266 OA
ENDBRANCH   1  19
BRANCH   9  23
ATOM     23  C   UNL d   1       9.023   6.360 -10.858  0.00  0.00    -0.016 A 
ATOM     24  C   UNL d   1       9.876   7.475 -10.662  0.00  0.00    -0.004 A 
ATOM     25  C   UNL d   1      10.625   7.595  -9.484  0.00  0.00    -0.000 A 
ATOM     26  C   UNL d   1      10.498   6.625  -8.471  0.00  0.00    -0.000 A 
ATOM     27  C   UNL d   1       9.626   5.532  -8.653  0.00  0.00    -0.000 A 
ATOM     28  C   UNL d   1       8.902   5.392  -9.845  0.00  0.00    -0.004 A 
ENDBRANCH   9  23
BRANCH   8  29
ATOM     29  C   UNL d   1       5.669   6.865 -12.442  0.00  0.00     0.224 C 
ATOM     30  F   UNL d   1       6.128   7.985 -12.983  0.00  0.00    -0.232 F 
ENDBRANCH   8  29
TORSDOF 5
