REMARK  6 active torsions:
REMARK  status: ('A' for Active; 'I' for Inactive)
REMARK    1  A    between atoms: O_2  and  C_3 
REMARK    2  A    between atoms: C_6  and  O_7 
REMARK    3  A    between atoms: O_7  and  C_8 
REMARK    4  A    between atoms: C_8  and  C_9 
REMARK    5  A    between atoms: C_9  and  N_10 
REMARK       I    between atoms: N_13  and  C_14 
REMARK    6  A    between atoms: C_14  and  C_16 
ROOT
ATOM      1  N   UNL d   1       9.457   7.008  -9.697  0.00  0.00     0.144 N 
ATOM      2  C   UNL d   1       9.438   5.547  -9.732  0.00  0.00     0.274 C 
ATOM      3  C   UNL d   1       8.634   5.074 -10.949  0.00  0.00     0.140 C 
ATOM      4  N   UNL d   1       9.196   5.660 -12.166  0.00  0.00    -0.312 N 
ATOM      5  C   UNL d   1       9.618   4.929 -13.204  0.00  0.00     0.259 C 
ATOM      6  O   UNL d   1      10.640   5.216 -13.848  0.00  0.00    -0.267 OA
ATOM      7  C   UNL d   1       9.342   7.122 -12.101  0.00  0.00     0.140 C 
ATOM      8  C   UNL d   1      10.104   7.573 -10.855  0.00  0.00     0.274 C 
ENDROOT
BRANCH   1   9
ATOM      9  C   UNL d   1      10.179   7.439  -8.514  0.00  0.00     0.283 C 
BRANCH   9  10
ATOM     10  C   UNL d   1       9.693   8.783  -7.918  0.00  0.00     0.184 C 
BRANCH  10  11
ATOM     11  O   UNL d   1      10.717   9.405  -7.155  0.00  0.00    -0.329 OA
BRANCH  11  12
ATOM     12  C   UNL d   1      11.140   8.856  -5.966  0.00  0.00     0.094 A 
ATOM     13  C   UNL d   1      11.744   9.756  -5.076  0.00  0.00     0.026 A 
ATOM     14  C   UNL d   1      12.198   9.306  -3.823  0.00  0.00     0.026 A 
ATOM     15  C   UNL d   1      12.093   7.939  -3.427  0.00  0.00     0.094 A 
ATOM     16  C   UNL d   1      11.516   7.047  -4.340  0.00  0.00     0.026 A 
ATOM     17  C   UNL d   1      11.030   7.473  -5.592  0.00  0.00     0.026 A 
BRANCH  15  18
ATOM     18  O   UNL d   1      12.494   7.427  -2.219  0.00  0.00    -0.328 OA
ATOM     19  C   UNL d   1      12.989   8.393  -1.327  0.00  0.00     0.181 C 
ENDBRANCH  15  18
ENDBRANCH  11  12
ENDBRANCH  10  11
ENDBRANCH   9  10
ENDBRANCH   1   9
BRANCH   5  20
ATOM     20  C   UNL d   1       8.755   3.790 -13.619  0.00  0.00     0.076 A 
ATOM     21  C   UNL d   1       9.239   2.633 -14.309  0.00  0.00     0.024 A 
ATOM     22  C   UNL d   1       8.121   1.800 -14.597  0.00  0.00     0.082 A 
ATOM     23  C   UNL d   1      10.516   2.172 -14.742  0.00  0.00     0.002 A 
ATOM     24  N   UNL d   1       7.012   2.478 -14.111  0.00  0.00    -0.244 NA
ATOM     25  C   UNL d   1       8.255   0.566 -15.251  0.00  0.00     0.019 A 
ATOM     26  C   UNL d   1       7.380   3.683 -13.537  0.00  0.00     0.104 A 
ATOM     27  C   UNL d   1       9.533   0.135 -15.661  0.00  0.00     0.002 A 
ATOM     28  C   UNL d   1      10.650   0.943 -15.408  0.00  0.00     0.000 A 
ENDBRANCH   5  20
TORSDOF 6
