REMARK  4 active torsions:
REMARK  status: ('A' for Active; 'I' for Inactive)
REMARK    1  A    between atoms: C_4  and  C_5 
REMARK    2  A    between atoms: C_5  and  C_6 
REMARK    3  A    between atoms: C_6  and  N_7 
REMARK    4  A    between atoms: N_10  and  C_11 
ROOT
ATOM      1  N   UNL d   1       9.235   6.039 -10.831  0.00  0.00     0.141 N 
ATOM      2  C   UNL d   1       9.803   7.394 -10.755  0.00  0.00     0.274 C 
ATOM      3  C   UNL d   1      11.008   7.428  -9.795  0.00  0.00     0.137 C 
ATOM      4  N   UNL d   1      10.625   6.906  -8.492  0.00  0.00    -0.344 N 
ATOM      5  C   UNL d   1       9.948   5.618  -8.514  0.00  0.00     0.137 C 
ATOM      6  C   UNL d   1       8.765   5.662  -9.490  0.00  0.00     0.274 C 
ENDROOT
BRANCH   1   7
ATOM      7  C   UNL d   1       8.122   6.056 -11.783  0.00  0.00     0.253 C 
BRANCH   7   8
ATOM      8  C   UNL d   1       7.490   4.661 -11.973  0.00  0.00     0.064 C 
BRANCH   8   9
ATOM      9  C   UNL d   1       7.327   4.270 -13.446  0.00  0.00     0.131 A 
ATOM     10  N   UNL d   1       6.330   3.203 -13.631  0.00  0.00    -0.232 NA
ATOM     11  C   UNL d   1       6.820   2.092 -14.205  0.00  0.00     0.275 A 
ATOM     12  O   UNL d   1       6.219   1.051 -14.461  0.00  0.00    -0.266 OA
ATOM     13  C   UNL d   1       8.255   2.362 -14.460  0.00  0.00     0.055 A 
ATOM     14  C   UNL d   1       8.571   3.636 -14.022  0.00  0.00     0.005 A 
ATOM     15  C   UNL d   1       9.219   1.516 -15.033  0.00  0.00     0.004 A 
ATOM     16  C   UNL d   1       9.874   4.153 -14.133  0.00  0.00    -0.002 A 
ATOM     17  C   UNL d   1      10.861   3.324 -14.714  0.00  0.00    -0.000 A 
ATOM     18  C   UNL d   1      10.536   2.017 -15.159  0.00  0.00     0.000 A 
ENDBRANCH   8   9
ENDBRANCH   7   8
ENDBRANCH   1   7
BRANCH   4  19
ATOM     19  C   UNL d   1      10.857   7.589  -7.289  0.00  0.00     0.056 A 
ATOM     20  C   UNL d   1      11.224   6.867  -6.136  0.00  0.00     0.017 A 
ATOM     21  C   UNL d   1      11.463   7.526  -4.916  0.00  0.00     0.001 A 
ATOM     22  C   UNL d   1      11.341   8.933  -4.843  0.00  0.00     0.000 A 
ATOM     23  C   UNL d   1      11.860   6.792  -3.778  0.00  0.00     0.000 A 
ATOM     24  C   UNL d   1      10.973   9.661  -5.991  0.00  0.00     0.002 A 
ATOM     25  C   UNL d   1      11.580   9.588  -3.620  0.00  0.00     0.000 A 
ATOM     26  C   UNL d   1      10.738   8.992  -7.208  0.00  0.00     0.017 A 
ATOM     27  C   UNL d   1      11.970   8.850  -2.485  0.00  0.00     0.000 A 
ATOM     28  C   UNL d   1      12.107   7.452  -2.560  0.00  0.00     0.000 A 
ENDBRANCH   4  19
TORSDOF 4
