REMARK  7 active torsions:
REMARK  status: ('A' for Active; 'I' for Inactive)
REMARK    1  A    between atoms: C_6  and  C_7 
REMARK    2  A    between atoms: C_10  and  S_11 
REMARK    3  A    between atoms: S_11  and  C_12 
REMARK    4  A    between atoms: C_12  and  C_13 
REMARK    5  A    between atoms: C_13  and  C_14 
REMARK    6  A    between atoms: C_14  and  C_15 
REMARK    7  A    between atoms: C_15  and  N_16 
ROOT
ATOM      1  C   UNL d   1      12.026   0.323 -18.585  0.00  0.00     0.065 C 
ENDROOT
BRANCH   1   2
ATOM      2  S   UNL d   1      10.373  -0.429 -18.560  0.00  0.00    -0.076 SA
BRANCH   2   3
ATOM      3  C   UNL d   1       9.835   0.091 -16.965  0.00  0.00     0.193 A 
ATOM      4  N   UNL d   1      10.647   0.228 -15.915  0.00  0.00    -0.122 NA
ATOM      5  N   UNL d   1       9.840   0.636 -14.882  0.00  0.00    -0.128 NA
ATOM      6  C   UNL d   1       8.611   0.735 -15.395  0.00  0.00     0.167 A 
ATOM      7  N   UNL d   1       8.549   0.380 -16.697  0.00  0.00    -0.289 N 
ATOM      8  C   UNL d   1       7.405   0.340 -17.599  0.00  0.00     0.134 C 
BRANCH   6   9
ATOM      9  C   UNL d   1       7.475   1.174 -14.598  0.00  0.00     0.037 A 
ATOM     10  C   UNL d   1       7.396   2.485 -14.049  0.00  0.00     0.021 A 
ATOM     11  C   UNL d   1       8.430   3.438 -14.217  0.00  0.00     0.003 A 
ATOM     12  C   UNL d   1       6.261   2.869 -13.278  0.00  0.00     0.081 A 
ATOM     13  C   UNL d   1       8.300   4.706 -13.625  0.00  0.00     0.015 A 
ATOM     14  C   UNL d   1       7.137   4.984 -12.884  0.00  0.00     0.059 A 
ATOM     15  C   UNL d   1       6.938   6.341 -12.245  0.00  0.00     0.052 C 
ATOM     16  N   UNL d   1       6.138   4.097 -12.727  0.00  0.00    -0.250 NA
ATOM     17  C   UNL d   1       5.246   1.926 -13.062  0.00  0.00     0.019 A 
ATOM     18  C   UNL d   1       5.312   0.634 -13.617  0.00  0.00     0.002 A 
ATOM     19  C   UNL d   1       6.432   0.255 -14.374  0.00  0.00     0.003 A 
ENDBRANCH   6   9
ENDBRANCH   2   3
ENDBRANCH   1   2
BRANCH   1  20
ATOM     20  C   UNL d   1      11.959   1.860 -18.619  0.00  0.00     0.014 C 
BRANCH  20  21
ATOM     21  C   UNL d   1      13.338   2.510 -18.810  0.00  0.00     0.036 C 
BRANCH  21  22
ATOM     22  C   UNL d   1      13.251   4.046 -18.798  0.00  0.00     0.250 C 
BRANCH  22  23
ATOM     23  N   UNL d   1      14.537   4.647 -19.159  0.00  0.00     0.138 N 
ATOM     24  C   UNL d   1      14.882   5.849 -18.398  0.00  0.00     0.255 C 
ATOM     25  C   UNL d   1      13.990   7.075 -18.676  0.00  0.00     0.061 C 
ATOM     26  C   UNL d   1      14.391   7.846 -19.934  0.00  0.00    -0.026 A 
ATOM     27  C   UNL d   1      14.319   7.203 -21.199  0.00  0.00    -0.023 A 
ATOM     28  C   UNL d   1      14.838   9.198 -19.865  0.00  0.00    -0.002 A 
ATOM     29  C   UNL d   1      13.858   5.762 -21.330  0.00  0.00     0.061 C 
ATOM     30  C   UNL d   1      14.670   7.893 -22.381  0.00  0.00     0.017 A 
ATOM     31  C   UNL d   1      14.765   4.750 -20.600  0.00  0.00     0.255 C 
ATOM     32  C   UNL d   1      15.109   9.227 -22.326  0.00  0.00     0.105 A 
ATOM     33  C   UNL d   1      15.185   9.849 -21.064  0.00  0.00     0.115 A 
ATOM     34  N   UNL d   1      15.517  10.105 -23.310  0.00  0.00    -0.224 NA
ATOM     35  O   UNL d   1      15.657  11.137 -21.259  0.00  0.00    -0.292 OA
ATOM     36  C   UNL d   1      15.824  11.207 -22.616  0.00  0.00     0.159 A 
ATOM     37  C   UNL d   1      16.317  12.482 -23.196  0.00  0.00     0.080 C 
ATOM     38  C   UNL d   1      14.963   9.951 -18.552  0.00  0.00     0.033 C 
ENDBRANCH  22  23
ENDBRANCH  21  22
ENDBRANCH  20  21
ENDBRANCH   1  20
TORSDOF 7
