REMARK  7 active torsions:
REMARK  status: ('A' for Active; 'I' for Inactive)
REMARK    1  A    between atoms: C_5  and  N_6 
REMARK    2  A    between atoms: N_9  and  C_10 
REMARK    3  A    between atoms: C_10  and  C_11 
REMARK    4  A    between atoms: C_11  and  C_12 
REMARK    5  A    between atoms: C_12  and  C_13 
REMARK    6  A    between atoms: C_13  and  C_14 
REMARK    7  A    between atoms: C_14  and  C_15 
ROOT
ATOM      1  N   UNL d   1       8.769   4.462 -14.651  0.00  0.00    -0.343 N 
ATOM      2  C   UNL d   1       7.585   3.966 -13.983  0.00  0.00     0.137 C 
ATOM      3  C   UNL d   1       7.925   3.685 -12.511  0.00  0.00     0.274 C 
ATOM      4  N   UNL d   1       8.450   4.857 -11.816  0.00  0.00     0.141 N 
ATOM      5  C   UNL d   1       9.688   5.229 -12.498  0.00  0.00     0.274 C 
ATOM      6  C   UNL d   1       9.344   5.587 -13.936  0.00  0.00     0.137 C 
ENDROOT
BRANCH   4   7
ATOM      7  C   UNL d   1       8.761   4.492 -10.437  0.00  0.00     0.250 C 
BRANCH   7   8
ATOM      8  C   UNL d   1       9.163   5.715  -9.625  0.00  0.00     0.035 C 
BRANCH   8   9
ATOM      9  C   UNL d   1       8.883   5.536  -8.135  0.00  0.00     0.002 C 
BRANCH   9  10
ATOM     10  C   UNL d   1       9.159   6.793  -7.299  0.00  0.00     0.005 C 
BRANCH  10  11
ATOM     11  C   UNL d   1      10.647   7.176  -7.245  0.00  0.00     0.028 C 
BRANCH  11  12
ATOM     12  C   UNL d   1      10.936   8.222  -6.215  0.00  0.00    -0.002 A 
ATOM     13  C   UNL d   1      11.432   8.037  -4.879  0.00  0.00     0.015 A 
ATOM     14  C   UNL d   1      11.560   9.318  -4.270  0.00  0.00     0.081 A 
ATOM     15  C   UNL d   1      11.776   6.912  -4.097  0.00  0.00     0.001 A 
ATOM     16  N   UNL d   1      11.146  10.225  -5.222  0.00  0.00    -0.244 NA
ATOM     17  C   UNL d   1      12.024   9.471  -2.957  0.00  0.00     0.019 A 
ATOM     18  C   UNL d   1      10.787   9.570  -6.380  0.00  0.00     0.095 A 
ATOM     19  C   UNL d   1      12.373   8.336  -2.208  0.00  0.00     0.002 A 
ATOM     20  C   UNL d   1      12.242   7.055  -2.775  0.00  0.00     0.000 A 
ENDBRANCH  11  12
ENDBRANCH  10  11
ENDBRANCH   9  10
ENDBRANCH   8   9
ENDBRANCH   7   8
ENDBRANCH   4   7
BRANCH   1  21
ATOM     21  C   UNL d   1       9.680   3.567 -15.251  0.00  0.00     0.081 A 
ATOM     22  C   UNL d   1      10.552   4.021 -16.273  0.00  0.00     0.132 A 
ATOM     23  C   UNL d   1      11.514   3.136 -16.841  0.00  0.00     0.118 A 
ATOM     24  O   UNL d   1      10.460   5.328 -16.734  0.00  0.00    -0.325 OA
ATOM     25  C   UNL d   1      11.572   1.797 -16.401  0.00  0.00     0.026 A 
ATOM     26  O   UNL d   1      12.393   3.550 -17.816  0.00  0.00    -0.326 OA
ATOM     27  C   UNL d   1      10.692   1.342 -15.405  0.00  0.00     0.004 A 
ATOM     28  C   UNL d   1       9.741   2.204 -14.853  0.00  0.00     0.019 A 
ATOM     29  C   UNL d   1      12.500   4.962 -17.963  0.00  0.00     0.181 C 
ATOM     30  C   UNL d   1      11.102   5.591 -17.976  0.00  0.00     0.182 C 
ENDBRANCH   1  21
TORSDOF 7
