REMARK  7 active torsions:
REMARK  status: ('A' for Active; 'I' for Inactive)
REMARK    1  A    between atoms: C_6  and  C_7 
REMARK       I    between atoms: C_7  and  N_9 
REMARK    2  A    between atoms: N_9  and  C_10 
REMARK    3  A    between atoms: C_10  and  C_11 
REMARK    4  A    between atoms: C_11  and  C_12 
REMARK    5  A    between atoms: C_12  and  C_13 
REMARK    6  A    between atoms: C_13  and  N_14 
REMARK    7  A    between atoms: N_17  and  C_18 
ROOT
ATOM      1  C   UNL d   1      13.062   8.788  -1.634  0.00  0.00    -0.009 C 
ATOM      2  C   UNL d   1      12.560   8.585  -2.721  0.00  0.00    -0.051 C 
ATOM      3  C   UNL d   1      12.002   8.345  -4.026  0.00  0.00     0.042 A 
ATOM      4  C   UNL d   1      11.501   7.070  -4.343  0.00  0.00     0.008 A 
ATOM      5  C   UNL d   1      10.916   6.864  -5.600  0.00  0.00     0.005 A 
ATOM      6  C   UNL d   1      10.831   7.918  -6.544  0.00  0.00     0.058 A 
ATOM      7  C   UNL d   1      11.360   9.178  -6.213  0.00  0.00     0.005 A 
ATOM      8  C   UNL d   1      11.940   9.398  -4.960  0.00  0.00     0.008 A 
ENDROOT
BRANCH   6   9
ATOM      9  C   UNL d   1      10.212   7.726  -7.896  0.00  0.00     0.275 C 
ATOM     10  O   UNL d   1      10.276   8.634  -8.725  0.00  0.00    -0.266 OA
ATOM     11  N   UNL d   1       9.610   6.546  -8.106  0.00  0.00    -0.234 NA
BRANCH  11  12
ATOM     12  C   UNL d   1       8.956   6.052  -9.311  0.00  0.00     0.129 C 
BRANCH  12  13
ATOM     13  C   UNL d   1       9.465   6.714 -10.610  0.00  0.00     0.029 C 
BRANCH  13  14
ATOM     14  C   UNL d   1       8.801   6.229 -11.878  0.00  0.00     0.037 C 
BRANCH  14  15
ATOM     15  C   UNL d   1       9.095   4.753 -12.150  0.00  0.00     0.251 C 
BRANCH  15  16
ATOM     16  N   UNL d   1       8.354   4.306 -13.307  0.00  0.00     0.141 N 
ATOM     17  C   UNL d   1       9.022   3.106 -13.824  0.00  0.00     0.274 C 
ATOM     18  C   UNL d   1       8.273   2.561 -15.037  0.00  0.00     0.137 C 
ATOM     19  N   UNL d   1       6.883   2.316 -14.692  0.00  0.00    -0.344 N 
ATOM     20  C   UNL d   1       6.168   3.422 -14.062  0.00  0.00     0.137 C 
ATOM     21  C   UNL d   1       6.980   3.966 -12.885  0.00  0.00     0.274 C 
BRANCH  19  22
ATOM     22  C   UNL d   1       6.258   1.083 -14.982  0.00  0.00     0.068 A 
ATOM     23  C   UNL d   1       6.394   0.420 -16.235  0.00  0.00     0.084 A 
ATOM     24  C   UNL d   1       5.708  -0.791 -16.470  0.00  0.00     0.070 A 
ATOM     25 CL   UNL d   1       7.309   1.095 -17.548  0.00  0.00    -0.080 Cl
ATOM     26  C   UNL d   1       4.867  -1.330 -15.489  0.00  0.00     0.012 A 
ATOM     27 CL   UNL d   1       5.853  -1.608 -17.985  0.00  0.00    -0.081 Cl
ATOM     28  C   UNL d   1       4.693  -0.660 -14.276  0.00  0.00     0.002 A 
ATOM     29  C   UNL d   1       5.396   0.527 -14.007  0.00  0.00     0.018 A 
ENDBRANCH  19  22
ENDBRANCH  15  16
ENDBRANCH  14  15
ENDBRANCH  13  14
ENDBRANCH  12  13
ENDBRANCH  11  12
ENDBRANCH   6   9
TORSDOF 7
