REMARK  2 active torsions:
REMARK  status: ('A' for Active; 'I' for Inactive)
REMARK    1  A    between atoms: N_13  and  C_14 
REMARK    2  A    between atoms: C_14  and  C_15 
ROOT
ATOM      1  N   UNL d   1       6.212   4.396 -13.090  0.00  0.00    -0.072 NA
ATOM      2  C   UNL d   1       7.148   5.049 -12.302  0.00  0.00     0.181 A 
ATOM      3  N   UNL d   1       7.573   4.567 -11.149  0.00  0.00    -0.225 NA
ATOM      4  C   UNL d   1       8.481   5.457 -10.581  0.00  0.00     0.089 A 
ATOM      5  C   UNL d   1       9.120   5.340  -9.329  0.00  0.00     0.015 A 
ATOM      6  C   UNL d   1      10.041   6.324  -8.896  0.00  0.00    -0.022 A 
ATOM      7  C   UNL d   1      10.350   7.438  -9.692  0.00  0.00    -0.024 A 
ATOM      8  C   UNL d   1       9.714   7.574 -10.935  0.00  0.00     0.004 A 
ATOM      9  C   UNL d   1       8.806   6.595 -11.363  0.00  0.00     0.049 A 
ATOM     10  S   UNL d   1       7.861   6.569 -12.847  0.00  0.00    -0.052 SA
ATOM     11  C   UNL d   1      11.331   8.495  -9.211  0.00  0.00     0.061 C 
ATOM     12  C   UNL d   1      10.903   9.173  -7.893  0.00  0.00     0.255 C 
ATOM     13  N   UNL d   1      11.198   8.400  -6.689  0.00  0.00     0.144 N 
ATOM     14  C   UNL d   1      10.248   7.293  -6.563  0.00  0.00     0.255 C 
ATOM     15  C   UNL d   1      10.669   6.194  -7.539  0.00  0.00     0.061 C 
ENDROOT
BRANCH  13  16
ATOM     16  C   UNL d   1      11.130   9.301  -5.534  0.00  0.00     0.296 C 
BRANCH  16  17
ATOM     17  C   UNL d   1      11.689   8.739  -4.234  0.00  0.00     0.092 C 
ATOM     18  N   UNL d   1      11.774   9.613  -3.219  0.00  0.00    -0.246 NA
ATOM     19  C   UNL d   1      12.292   9.181  -2.035  0.00  0.00     0.099 C 
ATOM     20  C   UNL d   1      12.577   7.842  -1.770  0.00  0.00     0.021 C 
ATOM     21  C   UNL d   1      12.437   6.923  -2.817  0.00  0.00     0.003 C 
ATOM     22  C   UNL d   1      12.066   7.380  -4.069  0.00  0.00     0.017 C 
ENDBRANCH  16  17
ENDBRANCH  13  16
TORSDOF 2
