REMARK  8 active torsions:
REMARK  status: ('A' for Active; 'I' for Inactive)
REMARK    1  A    between atoms: S_2  and  N_4 
REMARK    2  A    between atoms: S_2  and  C_25 
REMARK    3  A    between atoms: N_4  and  C_5 
REMARK    4  A    between atoms: C_5  and  C_6 
REMARK    5  A    between atoms: C_6  and  C_7 
REMARK    6  A    between atoms: C_7  and  C_8 
REMARK    7  A    between atoms: C_8  and  N_9 
REMARK    8  A    between atoms: C_12  and  C_13 
ROOT
ATOM      1  C   UNL d   1       6.786   2.310 -14.941  0.00  0.00     0.037 C 
ENDROOT
BRANCH   1   2
ATOM      2  C   UNL d   1       6.078   0.934 -14.889  0.00  0.00     0.029 C 
BRANCH   2   3
ATOM      3  C   UNL d   1       6.585  -0.089 -15.931  0.00  0.00     0.139 C 
BRANCH   3   4
ATOM      4  N   UNL d   1       6.481   0.521 -17.270  0.00  0.00    -0.185 NA
BRANCH   4   5
ATOM      5  S   UNL d   1       7.880   0.679 -18.279  0.00  0.00     0.281 S 
ATOM      6  O   UNL d   1       8.446  -0.669 -18.476  0.00  0.00    -0.199 OA
ATOM      7  O   UNL d   1       7.468   1.490 -19.428  0.00  0.00    -0.199 OA
BRANCH   5   8
ATOM      8  C   UNL d   1       9.059   1.629 -17.304  0.00  0.00     0.105 A 
ATOM      9  C   UNL d   1       9.364   2.954 -17.691  0.00  0.00     0.013 A 
ATOM     10  C   UNL d   1      10.241   3.720 -16.895  0.00  0.00     0.001 A 
ATOM     11  C   UNL d   1      10.773   3.178 -15.695  0.00  0.00     0.000 A 
ATOM     12  C   UNL d   1      10.605   5.022 -17.292  0.00  0.00     0.000 A 
ATOM     13  C   UNL d   1      10.464   1.856 -15.321  0.00  0.00     0.001 A 
ATOM     14  C   UNL d   1      11.640   3.937 -14.891  0.00  0.00     0.000 A 
ATOM     15  C   UNL d   1       9.664   1.060 -16.155  0.00  0.00     0.013 A 
ATOM     16  C   UNL d   1      12.005   5.231 -15.301  0.00  0.00     0.000 A 
ATOM     17  C   UNL d   1      11.491   5.771 -16.495  0.00  0.00     0.000 A 
ENDBRANCH   5   8
ENDBRANCH   4   5
ENDBRANCH   3   4
ENDBRANCH   2   3
ENDBRANCH   1   2
BRANCH   1  18
ATOM     18  C   UNL d   1       6.077   3.387 -14.081  0.00  0.00     0.250 C 
BRANCH  18  19
ATOM     19  N   UNL d   1       6.977   4.379 -13.499  0.00  0.00     0.137 N 
ATOM     20  C   UNL d   1       6.149   5.350 -12.773  0.00  0.00     0.251 C 
ATOM     21  C   UNL d   1       7.036   6.443 -12.182  0.00  0.00     0.041 C 
ATOM     22  C   UNL d   1       8.116   5.864 -11.233  0.00  0.00     0.047 C 
ATOM     23  C   UNL d   1       8.857   4.737 -11.949  0.00  0.00     0.041 C 
ATOM     24  C   UNL d   1       7.872   3.741 -12.541  0.00  0.00     0.251 C 
BRANCH  22  25
ATOM     25  C   UNL d   1       9.065   6.889 -10.740  0.00  0.00     0.087 A 
ATOM     26  C   UNL d   1       9.672   7.099  -9.465  0.00  0.00     0.041 A 
ATOM     27  C   UNL d   1      10.486   8.225  -9.527  0.00  0.00     0.129 A 
ATOM     28  C   UNL d   1       9.540   6.398  -8.248  0.00  0.00     0.006 A 
ATOM     29  O   UNL d   1      10.376   8.691 -10.821  0.00  0.00    -0.211 OA
ATOM     30  C   UNL d   1      11.200   8.712  -8.426  0.00  0.00     0.057 A 
ATOM     31  N   UNL d   1       9.525   7.840 -11.569  0.00  0.00    -0.131 NA
ATOM     32  C   UNL d   1      11.071   8.021  -7.204  0.00  0.00     0.142 A 
ATOM     33  F   UNL d   1      11.747   8.459  -6.111  0.00  0.00    -0.204 F 
ATOM     34  C   UNL d   1      10.244   6.876  -7.116  0.00  0.00     0.030 A 
ENDBRANCH  22  25
ENDBRANCH  18  19
ENDBRANCH   1  18
TORSDOF 8
