REMARK  5 active torsions:
REMARK  status: ('A' for Active; 'I' for Inactive)
REMARK    1  A    between atoms: N_3  and  C_4 
REMARK    2  A    between atoms: C_4  and  C_5 
REMARK    3  A    between atoms: C_5  and  N_6 
REMARK    4  A    between atoms: N_17  and  C_18 
REMARK    5  A    between atoms: C_18  and  C_19 
ROOT
ATOM      1  O   UNL d   1       9.847   3.983 -11.364  0.00  0.00    -0.247 OA
ATOM      2  C   UNL d   1       9.009   4.729 -11.790  0.00  0.00     0.324 A 
ATOM      3  N   UNL d   1       8.444   5.704 -11.087  0.00  0.00    -0.299 N 
ATOM      4  C   UNL d   1       7.465   6.410 -11.876  0.00  0.00     0.130 A 
ATOM      5  C   UNL d   1       7.523   5.694 -13.226  0.00  0.00     0.130 A 
ATOM      6  N   UNL d   1       8.530   4.695 -13.027  0.00  0.00    -0.297 N 
ENDROOT
BRANCH   3   7
ATOM      7  C   UNL d   1       8.726   6.009  -9.686  0.00  0.00     0.141 C 
BRANCH   7   8
ATOM      8  C   UNL d   1       9.836   7.058  -9.583  0.00  0.00     0.275 C 
BRANCH   8   9
ATOM      9  N   UNL d   1      10.011   7.504  -8.210  0.00  0.00     0.148 N 
ATOM     10  C   UNL d   1      10.464   6.477  -7.264  0.00  0.00     0.277 C 
ATOM     11  C   UNL d   1      11.037   7.292  -6.145  0.00  0.00     0.009 A 
ATOM     12  C   UNL d   1      11.312   8.562  -6.613  0.00  0.00     0.009 A 
ATOM     13  C   UNL d   1      11.309   6.918  -4.819  0.00  0.00    -0.003 A 
ATOM     14  C   UNL d   1      10.943   8.627  -8.071  0.00  0.00     0.277 C 
ATOM     15  C   UNL d   1      11.871   9.549  -5.784  0.00  0.00    -0.003 A 
ATOM     16  C   UNL d   1      12.150   9.191  -4.444  0.00  0.00    -0.000 A 
ATOM     17  C   UNL d   1      11.867   7.890  -3.963  0.00  0.00    -0.000 A 
ENDBRANCH   8   9
ENDBRANCH   7   8
ENDBRANCH   3   7
BRANCH   6  18
ATOM     18  C   UNL d   1       8.912   3.743 -14.068  0.00  0.00     0.133 C 
BRANCH  18  19
ATOM     19  C   UNL d   1      10.152   4.189 -14.813  0.00  0.00     0.001 A 
ATOM     20  C   UNL d   1      10.038   4.789 -16.079  0.00  0.00     0.010 A 
ATOM     21  C   UNL d   1      11.177   5.218 -16.781  0.00  0.00     0.068 A 
ATOM     22  C   UNL d   1      12.458   5.050 -16.207  0.00  0.00     0.068 A 
ATOM     23 CL   UNL d   1      10.979   5.949 -18.333  0.00  0.00    -0.082 Cl
ATOM     24  C   UNL d   1      12.577   4.453 -14.936  0.00  0.00     0.012 A 
ATOM     25 CL   UNL d   1      13.890   5.563 -17.030  0.00  0.00    -0.082 Cl
ATOM     26  C   UNL d   1      11.431   4.029 -14.242  0.00  0.00    -0.002 A 
ENDBRANCH  18  19
ENDBRANCH   6  18
TORSDOF 5
