REMARK  4 active torsions:
REMARK  status: ('A' for Active; 'I' for Inactive)
REMARK    1  A    between atoms: C_8  and  C_9 
REMARK    2  A    between atoms: C_9  and  C_10 
REMARK    3  A    between atoms: C_10  and  N_11 
REMARK    4  A    between atoms: C_14  and  C_15 
ROOT
ATOM      1  N   UNL d   1       8.831   4.469 -12.986  0.00  0.00     0.137 N 
ATOM      2  C   UNL d   1       9.331   4.052 -11.672  0.00  0.00     0.251 C 
ATOM      3  C   UNL d   1       8.289   4.391 -10.589  0.00  0.00     0.041 C 
ATOM      4  C   UNL d   1       8.105   5.897 -10.524  0.00  0.00     0.047 C 
ATOM      5  C   UNL d   1       7.705   6.391 -11.937  0.00  0.00     0.041 C 
ATOM      6  C   UNL d   1       8.675   5.930 -13.038  0.00  0.00     0.251 C 
ENDROOT
BRANCH   1   7
ATOM      7  C   UNL d   1       9.874   4.109 -13.937  0.00  0.00     0.255 C 
BRANCH   7   8
ATOM      8  C   UNL d   1       9.313   4.221 -15.364  0.00  0.00     0.068 C 
BRANCH   8   9
ATOM      9  C   UNL d   1      10.306   3.900 -16.471  0.00  0.00     0.050 A 
ATOM     10  C   UNL d   1      10.066   2.941 -17.409  0.00  0.00     0.061 A 
ATOM     11  C   UNL d   1       8.818   2.072 -17.414  0.00  0.00     0.052 C 
ATOM     12  N   UNL d   1      10.967   2.704 -18.446  0.00  0.00    -0.236 NA
ATOM     13  C   UNL d   1      12.021   3.445 -18.546  0.00  0.00     0.137 A 
ATOM     14  C   UNL d   1      13.075   3.188 -19.614  0.00  0.00     0.137 C 
ATOM     15  N   UNL d   1      12.309   4.503 -17.653  0.00  0.00    -0.284 N 
ATOM     16  C   UNL d   1      14.504   3.341 -19.069  0.00  0.00     0.026 C 
ATOM     17 CL   UNL d   1      12.824   4.245 -21.029  0.00  0.00    -0.107 Cl
ATOM     18  C   UNL d   1      14.736   4.660 -18.314  0.00  0.00     0.026 C 
ATOM     19  C   UNL d   1      13.433   5.405 -17.977  0.00  0.00     0.110 C 
ATOM     20  C   UNL d   1      11.506   4.752 -16.582  0.00  0.00     0.259 A 
ATOM     21  O   UNL d   1      11.757   5.662 -15.785  0.00  0.00    -0.267 OA
ENDBRANCH   8   9
ENDBRANCH   7   8
ENDBRANCH   1   7
BRANCH   4  22
ATOM     22  C   UNL d   1       9.315   6.641  -9.947  0.00  0.00     0.087 A 
ATOM     23  C   UNL d   1       9.685   6.949  -8.613  0.00  0.00     0.041 A 
ATOM     24  C   UNL d   1      10.919   7.610  -8.618  0.00  0.00     0.129 A 
ATOM     25  C   UNL d   1       9.062   6.676  -7.365  0.00  0.00     0.006 A 
ATOM     26  O   UNL d   1      11.258   7.711  -9.951  0.00  0.00    -0.211 OA
ATOM     27  C   UNL d   1      11.607   8.029  -7.473  0.00  0.00     0.057 A 
ATOM     28  N   UNL d   1      10.252   7.098 -10.757  0.00  0.00    -0.131 NA
ATOM     29  C   UNL d   1      10.993   7.763  -6.222  0.00  0.00     0.142 A 
ATOM     30  F   UNL d   1      11.604   8.155  -5.075  0.00  0.00    -0.204 F 
ATOM     31  C   UNL d   1       9.745   7.086  -6.177  0.00  0.00     0.030 A 
ENDBRANCH   4  22
TORSDOF 4
