REMARK  7 active torsions:
REMARK  status: ('A' for Active; 'I' for Inactive)
REMARK       I    between atoms: C_2  and  N_3 
REMARK    1  A    between atoms: C_2  and  C_24 
REMARK    2  A    between atoms: N_3  and  C_4 
REMARK    3  A    between atoms: C_4  and  C_5 
REMARK    4  A    between atoms: C_5  and  C_6 
REMARK    5  A    between atoms: C_6  and  C_7 
REMARK    6  A    between atoms: C_7  and  N_8 
REMARK    7  A    between atoms: N_11  and  C_12 
ROOT
ATOM      1  N   UNL d   1       8.456   5.701 -11.960  0.00  0.00     0.141 N 
ATOM      2  C   UNL d   1       7.811   4.393 -11.816  0.00  0.00     0.274 C 
ATOM      3  C   UNL d   1       7.183   3.925 -13.140  0.00  0.00     0.137 C 
ATOM      4  N   UNL d   1       8.224   3.902 -14.165  0.00  0.00    -0.343 N 
ATOM      5  C   UNL d   1       8.943   5.161 -14.302  0.00  0.00     0.137 C 
ATOM      6  C   UNL d   1       9.521   5.569 -12.958  0.00  0.00     0.274 C 
ENDROOT
BRANCH   1   7
ATOM      7  C   UNL d   1       8.995   6.099 -10.668  0.00  0.00     0.251 C 
BRANCH   7   8
ATOM      8  C   UNL d   1       9.539   7.550 -10.697  0.00  0.00     0.037 C 
BRANCH   8   9
ATOM      9  C   UNL d   1      10.297   7.910  -9.423  0.00  0.00     0.029 C 
BRANCH   9  10
ATOM     10  C   UNL d   1       9.372   8.053  -8.203  0.00  0.00     0.129 C 
BRANCH  10  11
ATOM     11  N   UNL d   1      10.106   8.309  -6.973  0.00  0.00    -0.234 NA
ATOM     12  C   UNL d   1      10.970   7.469  -6.391  0.00  0.00     0.275 C 
ATOM     13  O   UNL d   1      11.319   6.387  -6.875  0.00  0.00    -0.266 OA
BRANCH  12  14
ATOM     14  C   UNL d   1      11.430   7.867  -5.023  0.00  0.00     0.058 A 
ATOM     15  C   UNL d   1      11.849   6.864  -4.127  0.00  0.00     0.005 A 
ATOM     16  C   UNL d   1      12.258   7.192  -2.825  0.00  0.00     0.000 A 
ATOM     17  C   UNL d   1      12.262   8.540  -2.420  0.00  0.00     0.000 A 
ATOM     18  C   UNL d   1      11.859   9.552  -3.312  0.00  0.00     0.000 A 
ATOM     19  C   UNL d   1      11.464   9.225  -4.620  0.00  0.00     0.005 A 
ENDBRANCH  12  14
ENDBRANCH  10  11
ENDBRANCH   9  10
ENDBRANCH   8   9
ENDBRANCH   7   8
ENDBRANCH   1   7
BRANCH   4  20
ATOM     20  C   UNL d   1       8.494   2.789 -14.972  0.00  0.00     0.076 A 
ATOM     21  C   UNL d   1       9.765   2.599 -15.573  0.00  0.00     0.020 A 
ATOM     22  C   UNL d   1       9.980   1.489 -16.401  0.00  0.00     0.019 A 
ATOM     23  C   UNL d   1       8.912   0.577 -16.622  0.00  0.00     0.082 A 
ATOM     24  C   UNL d   1      11.241   1.295 -16.994  0.00  0.00     0.002 A 
ATOM     25  N   UNL d   1       7.696   0.757 -16.065  0.00  0.00    -0.243 NA
ATOM     26  C   UNL d   1       9.156  -0.535 -17.451  0.00  0.00     0.019 A 
ATOM     27  C   UNL d   1       7.498   1.817 -15.264  0.00  0.00     0.116 A 
ATOM     28  C   UNL d   1      10.422  -0.748 -18.032  0.00  0.00     0.002 A 
ATOM     29  C   UNL d   1      11.463   0.174 -17.810  0.00  0.00     0.000 A 
ENDBRANCH   4  20
TORSDOF 7
