REMARK  3 active torsions:
REMARK  status: ('A' for Active; 'I' for Inactive)
REMARK    1  A    between atoms: C_8  and  C_9 
REMARK    2  A    between atoms: C_9  and  N_10 
REMARK    3  A    between atoms: N_13  and  C_14 
ROOT
ATOM      1  N   UNL d   1       6.598  -0.348 -16.464  0.00  0.00    -0.191 NA
ATOM      2  C   UNL d   1       6.632   0.469 -15.636  0.00  0.00     0.101 C 
ATOM      3  C   UNL d   1       6.662   1.497 -14.623  0.00  0.00     0.068 A 
ATOM      4  C   UNL d   1       5.659   1.556 -13.630  0.00  0.00     0.012 A 
ATOM      5  C   UNL d   1       5.585   2.648 -12.745  0.00  0.00     0.020 A 
ATOM      6  C   UNL d   1       6.572   3.653 -12.816  0.00  0.00     0.081 A 
ATOM      7  N   UNL d   1       6.835   4.782 -12.055  0.00  0.00    -0.248 NA
ATOM      8  C   UNL d   1       7.971   5.423 -12.537  0.00  0.00     0.092 A 
ATOM      9  C   UNL d   1       8.451   4.751 -13.618  0.00  0.00     0.018 A 
ATOM     10  C   UNL d   1       7.612   3.604 -13.796  0.00  0.00     0.019 A 
ATOM     11  C   UNL d   1       7.634   2.515 -14.689  0.00  0.00     0.012 A 
ENDROOT
BRANCH   8  12
ATOM     12  C   UNL d   1       8.494   6.685 -11.972  0.00  0.00     0.296 C 
BRANCH  12  13
ATOM     13  N   UNL d   1       9.515   6.510 -10.928  0.00  0.00     0.147 N 
ATOM     14  C   UNL d   1      10.120   7.822 -10.641  0.00  0.00     0.275 C 
ATOM     15  C   UNL d   1      11.280   7.644  -9.644  0.00  0.00     0.137 C 
ATOM     16  N   UNL d   1      10.794   7.035  -8.416  0.00  0.00    -0.344 N 
ATOM     17  C   UNL d   1      10.027   5.802  -8.598  0.00  0.00     0.137 C 
ATOM     18  C   UNL d   1       8.943   6.008  -9.662  0.00  0.00     0.275 C 
BRANCH  16  19
ATOM     19  C   UNL d   1      11.063   7.601  -7.168  0.00  0.00     0.056 A 
ATOM     20  C   UNL d   1      11.232   6.757  -6.050  0.00  0.00     0.018 A 
ATOM     21  C   UNL d   1      11.463   7.295  -4.769  0.00  0.00     0.013 A 
ATOM     22  C   UNL d   1      11.583   8.679  -4.596  0.00  0.00     0.058 A 
ATOM     23  C   UNL d   1      11.472   9.533  -5.704  0.00  0.00     0.013 A 
ATOM     24 CL   UNL d   1      11.852   9.309  -3.021  0.00  0.00    -0.082 Cl
ATOM     25  C   UNL d   1      11.201   9.006  -6.995  0.00  0.00     0.018 A 
ENDBRANCH  16  19
ENDBRANCH  12  13
ENDBRANCH   8  12
TORSDOF 3
