REMARK  4 active torsions:
REMARK  status: ('A' for Active; 'I' for Inactive)
REMARK    1  A    between atoms: C_5  and  C_6 
REMARK    2  A    between atoms: C_6  and  N_7 
REMARK    3  A    between atoms: N_10  and  C_11 
REMARK    4  A    between atoms: C_11  and  C_12 
REMARK       I    between atoms: C_12  and  N_14 
ROOT
ATOM      1  N   UNL d   1      10.339   7.691  -7.980  0.00  0.00     0.146 N 
ATOM      2  C   UNL d   1      10.552   7.999  -9.381  0.00  0.00     0.286 C 
ATOM      3  C   UNL d   1      10.425   6.759 -10.249  0.00  0.00     0.286 C 
ATOM      4  N   UNL d   1       9.123   6.107 -10.153  0.00  0.00     0.151 N 
ATOM      5  C   UNL d   1       8.871   5.814  -8.740  0.00  0.00     0.286 C 
ATOM      6  C   UNL d   1       9.014   7.074  -7.848  0.00  0.00     0.286 C 
ENDROOT
BRANCH   4   7
ATOM      7  C   UNL d   1       8.962   4.910 -10.999  0.00  0.00     0.337 C 
BRANCH   7   8
ATOM      8  C   UNL d   1       9.269   5.094 -12.516  0.00  0.00     0.271 C 
ATOM      9  O   UNL d   1       9.770   6.116 -12.932  0.00  0.00    -0.270 OA
ATOM     10  N   UNL d   1       8.984   4.115 -13.411  0.00  0.00    -0.299 N 
ATOM     11  C   UNL d   1       9.929   3.703 -14.475  0.00  0.00     0.093 C 
ATOM     12  C   UNL d   1       7.790   3.398 -13.509  0.00  0.00     0.058 A 
ATOM     13  C   UNL d   1       9.308   2.410 -15.068  0.00  0.00     0.051 C 
ATOM     14  C   UNL d   1      10.114   4.771 -15.577  0.00  0.00     0.025 C 
ATOM     15  C   UNL d   1       7.948   2.358 -14.422  0.00  0.00    -0.004 A 
ATOM     16  C   UNL d   1       6.934   1.415 -14.628  0.00  0.00    -0.003 A 
ATOM     17  C   UNL d   1       5.745   1.543 -13.878  0.00  0.00    -0.000 A 
ATOM     18  C   UNL d   1       5.553   2.638 -12.995  0.00  0.00     0.002 A 
ATOM     19  C   UNL d   1       6.578   3.591 -12.826  0.00  0.00     0.017 A 
ENDBRANCH   7   8
ENDBRANCH   4   7
BRANCH   1  20
ATOM     20  C   UNL d   1      10.453   8.892  -7.162  0.00  0.00     0.277 C 
BRANCH  20  21
ATOM     21  C   UNL d   1      10.961   8.638  -5.754  0.00  0.00     0.011 A 
ATOM     22  C   UNL d   1      11.344   7.344  -5.327  0.00  0.00    -0.003 A 
ATOM     23  C   UNL d   1      11.858   7.149  -4.036  0.00  0.00    -0.004 A 
ATOM     24  C   UNL d   1      11.998   8.245  -3.166  0.00  0.00    -0.022 A 
ATOM     25  C   UNL d   1      12.516   8.030  -1.770  0.00  0.00     0.031 C 
ATOM     26  C   UNL d   1      11.615   9.534  -3.584  0.00  0.00    -0.004 A 
ATOM     27  C   UNL d   1      11.100   9.732  -4.877  0.00  0.00    -0.003 A 
ENDBRANCH  20  21
ENDBRANCH   1  20
TORSDOF 4
