REMARK  5 active torsions:
REMARK  status: ('A' for Active; 'I' for Inactive)
REMARK    1  A    between atoms: N_5  and  C_6 
REMARK    2  A    between atoms: C_6  and  C_7 
REMARK    3  A    between atoms: C_7  and  C_8 
REMARK    4  A    between atoms: N_12  and  S_13 
REMARK    5  A    between atoms: S_13  and  C_16 
ROOT
ATOM      1  C   UNL d   1       9.803   2.947 -16.246  0.00  0.00     0.094 C 
ATOM      2  C   UNL d   1      11.334   2.925 -16.401  0.00  0.00     0.025 C 
ATOM      3  C   UNL d   1      11.666   1.514 -16.886  0.00  0.00     0.027 C 
ATOM      4  C   UNL d   1      10.557   0.667 -16.284  0.00  0.00     0.113 C 
ATOM      5  N   UNL d   1       9.382   1.539 -16.371  0.00  0.00    -0.276 N 
ENDROOT
BRANCH   5   6
ATOM      6  S   UNL d   1       8.063   1.099 -17.405  0.00  0.00     0.264 S 
ATOM      7  O   UNL d   1       7.487   2.342 -17.945  0.00  0.00    -0.200 OA
ATOM      8  O   UNL d   1       8.571   0.070 -18.328  0.00  0.00    -0.200 OA
BRANCH   6   9
ATOM      9  C   UNL d   1       6.793   0.374 -16.352  0.00  0.00     0.103 A 
ATOM     10  C   UNL d   1       5.690  -0.307 -16.937  0.00  0.00     0.012 A 
ATOM     11  C   UNL d   1       4.701  -0.871 -16.084  0.00  0.00     0.001 A 
ATOM     12  C   UNL d   1       5.535  -0.443 -18.339  0.00  0.00     0.001 A 
ATOM     13  C   UNL d   1       4.795  -0.732 -14.688  0.00  0.00     0.000 A 
ATOM     14  C   UNL d   1       3.612  -1.577 -16.639  0.00  0.00     0.000 A 
ATOM     15  C   UNL d   1       5.878  -0.038 -14.116  0.00  0.00     0.001 A 
ATOM     16  C   UNL d   1       6.876   0.512 -14.948  0.00  0.00     0.013 A 
ATOM     17  C   UNL d   1       3.488  -1.719 -18.031  0.00  0.00     0.000 A 
ATOM     18  C   UNL d   1       4.443  -1.150 -18.882  0.00  0.00     0.000 A 
ENDBRANCH   6   9
ENDBRANCH   5   6
BRANCH   1  19
ATOM     19  C   UNL d   1       9.382   3.431 -14.862  0.00  0.00     0.058 C 
BRANCH  19  20
ATOM     20  C   UNL d   1       9.692   4.918 -14.586  0.00  0.00     0.252 C 
BRANCH  20  21
ATOM     21  N   UNL d   1       9.468   5.318 -13.193  0.00  0.00     0.137 N 
ATOM     22  C   UNL d   1       9.925   4.303 -12.242  0.00  0.00     0.250 C 
ATOM     23  C   UNL d   1       9.821   4.794 -10.797  0.00  0.00     0.035 C 
ATOM     24  C   UNL d   1       8.402   5.148 -10.453  0.00  0.00     0.004 C 
ATOM     25  C   UNL d   1       8.453   5.710  -9.036  0.00  0.00     0.000 C 
ATOM     26  C   UNL d   1       7.883   6.148 -11.500  0.00  0.00     0.035 C 
ATOM     27  C   UNL d   1       8.064   5.631 -12.939  0.00  0.00     0.250 C 
ENDBRANCH  20  21
ENDBRANCH  19  20
ENDBRANCH   1  19
TORSDOF 5
