REMARK  7 active torsions:
REMARK  status: ('A' for Active; 'I' for Inactive)
REMARK    1  A    between atoms: C_2  and  C_3 
REMARK    2  A    between atoms: C_3  and  N_4 
REMARK    3  A    between atoms: N_4  and  C_5 
REMARK    4  A    between atoms: N_4  and  C_23 
REMARK    5  A    between atoms: C_5  and  C_6 
REMARK    6  A    between atoms: C_6  and  N_7 
REMARK    7  A    between atoms: N_10  and  C_11 
ROOT
ATOM      1  C   UNL d   1       9.721   4.296 -14.415  0.00  0.00     0.286 C 
ENDROOT
BRANCH   1   2
ATOM      2  C   UNL d   1       9.703   4.636 -12.912  0.00  0.00     0.285 C 
BRANCH   2   3
ATOM      3  N   UNL d   1       8.788   5.704 -12.500  0.00  0.00     0.137 N 
BRANCH   3   4
ATOM      4  C   UNL d   1       7.417   5.525 -12.988  0.00  0.00     0.250 C 
BRANCH   4   5
ATOM      5  C   UNL d   1       6.585   4.440 -12.296  0.00  0.00     0.035 C 
ATOM      6  C   UNL d   1       5.378   3.971 -13.111  0.00  0.00     0.002 C 
ENDBRANCH   4   5
ENDBRANCH   3   4
BRANCH   3   7
ATOM      7  C   UNL d   1       8.848   6.039 -11.066  0.00  0.00     0.224 C 
ATOM      8  C   UNL d   1      10.064   6.911 -10.658  0.00  0.00     0.059 C 
ATOM      9  C   UNL d   1      10.166   7.191  -9.174  0.00  0.00    -0.022 A 
ATOM     10  C   UNL d   1       9.447   6.417  -8.232  0.00  0.00    -0.026 A 
ATOM     11  C   UNL d   1      11.028   8.216  -8.718  0.00  0.00     0.023 A 
ATOM     12  C   UNL d   1       8.523   5.301  -8.677  0.00  0.00     0.028 C 
ATOM     13  C   UNL d   1       9.552   6.702  -6.862  0.00  0.00    -0.003 A 
ATOM     14  C   UNL d   1       8.757   4.840 -10.101  0.00  0.00     0.038 C 
ATOM     15  C   UNL d   1      10.409   7.719  -6.405  0.00  0.00     0.027 A 
ATOM     16  C   UNL d   1      11.146   8.473  -7.336  0.00  0.00     0.131 A 
ATOM     17  O   UNL d   1      11.978   9.447  -6.873  0.00  0.00    -0.190 OA
ENDBRANCH   3   7
ENDBRANCH   2   3
ENDBRANCH   1   2
BRANCH   1  18
ATOM     18  N   UNL d   1      11.054   4.172 -14.997  0.00  0.00     0.143 N 
ATOM     19  C   UNL d   1      11.011   3.351 -16.209  0.00  0.00     0.274 C 
ATOM     20  C   UNL d   1      12.408   3.195 -16.841  0.00  0.00     0.137 C 
ATOM     21  N   UNL d   1      12.992   4.512 -17.076  0.00  0.00    -0.344 N 
ATOM     22  C   UNL d   1      12.976   5.418 -15.936  0.00  0.00     0.137 C 
ATOM     23  C   UNL d   1      11.566   5.499 -15.342  0.00  0.00     0.274 C 
BRANCH  21  24
ATOM     24  C   UNL d   1      13.558   4.869 -18.298  0.00  0.00     0.056 A 
ATOM     25  C   UNL d   1      14.878   5.393 -18.412  0.00  0.00     0.015 A 
ATOM     26  C   UNL d   1      15.381   5.757 -19.690  0.00  0.00     0.001 A 
ATOM     27  C   UNL d   1      15.735   5.545 -17.289  0.00  0.00     0.001 A 
ATOM     28  C   UNL d   1      14.577   5.603 -20.839  0.00  0.00     0.000 A 
ATOM     29  C   UNL d   1      16.693   6.265 -19.824  0.00  0.00     0.000 A 
ATOM     30  C   UNL d   1      13.272   5.087 -20.724  0.00  0.00     0.002 A 
ATOM     31  C   UNL d   1      12.771   4.719 -19.466  0.00  0.00     0.017 A 
ATOM     32  C   UNL d   1      17.516   6.424 -18.694  0.00  0.00     0.000 A 
ATOM     33  C   UNL d   1      17.030   6.067 -17.424  0.00  0.00     0.000 A 
ENDBRANCH  21  24
ENDBRANCH   1  18
TORSDOF 7
