REMARK  4 active torsions:
REMARK  status: ('A' for Active; 'I' for Inactive)
REMARK    1  A    between atoms: N_2  and  C_4 
REMARK    2  A    between atoms: C_4  and  C_5 
REMARK    3  A    between atoms: C_5  and  C_6 
REMARK    4  A    between atoms: C_6  and  N_7 
ROOT
ATOM      1  N   UNL d   1       8.777   2.855 -15.376  0.00  0.00    -0.328 N 
ATOM      2  C   UNL d   1       8.224   3.459 -14.232  0.00  0.00     0.056 A 
ATOM      3  C   UNL d   1       6.824   3.569 -14.041  0.00  0.00     0.017 A 
ATOM      4  C   UNL d   1       6.276   4.155 -12.889  0.00  0.00     0.002 A 
ATOM      5  C   UNL d   1       7.138   4.609 -11.871  0.00  0.00    -0.000 A 
ATOM      6  C   UNL d   1       8.533   4.495 -12.047  0.00  0.00    -0.003 A 
ATOM      7  C   UNL d   1       9.072   3.942 -13.224  0.00  0.00    -0.006 A 
ATOM      8  C   UNL d   1      10.562   3.758 -13.424  0.00  0.00     0.033 C 
ATOM      9  C   UNL d   1      11.147   4.598 -14.565  0.00  0.00     0.033 C 
ATOM     10  C   UNL d   1      10.618   4.406 -15.991  0.00  0.00    -0.006 A 
ATOM     11  C   UNL d   1      11.276   5.143 -17.006  0.00  0.00    -0.002 A 
ATOM     12  C   UNL d   1      10.874   5.067 -18.348  0.00  0.00     0.011 A 
ATOM     13  C   UNL d   1       9.785   4.245 -18.699  0.00  0.00     0.059 A 
ATOM     14 CL   UNL d   1       9.247   4.161 -20.334  0.00  0.00    -0.082 Cl
ATOM     15  C   UNL d   1       9.128   3.501 -17.699  0.00  0.00     0.028 A 
ATOM     16  C   UNL d   1       9.524   3.569 -16.343  0.00  0.00     0.057 A 
ENDROOT
BRANCH   1  17
ATOM     17  C   UNL d   1       8.299   1.523 -15.746  0.00  0.00     0.108 C 
BRANCH  17  18
ATOM     18  C   UNL d   1       8.157   0.541 -14.561  0.00  0.00     0.060 C 
BRANCH  18  19
ATOM     19  C   UNL d   1       6.947  -0.414 -14.702  0.00  0.00     0.252 C 
BRANCH  19  20
ATOM     20  N   UNL d   1       5.650   0.248 -14.530  0.00  0.00     0.141 N 
ATOM     21  C   UNL d   1       4.592  -0.706 -14.841  0.00  0.00     0.285 C 
ATOM     22  C   UNL d   1       5.396   0.745 -13.173  0.00  0.00     0.285 C 
ENDBRANCH  19  20
ENDBRANCH  18  19
ENDBRANCH  17  18
ENDBRANCH   1  17
TORSDOF 4
