REMARK  12 active torsions:
REMARK  status: ('A' for Active; 'I' for Inactive)
REMARK    1  A    between atoms: O_2  and  C_3 
REMARK    2  A    between atoms: C_5  and  C_6 
REMARK    3  A    between atoms: C_6  and  C_7 
REMARK    4  A    between atoms: C_7  and  N_8 
REMARK    5  A    between atoms: N_8  and  C_9 
REMARK    6  A    between atoms: C_9  and  C_10 
REMARK    7  A    between atoms: C_10  and  C_11 
REMARK    8  A    between atoms: C_25  and  O_26 
REMARK    9  A    between atoms: O_26  and  C_27 
REMARK   10  A    between atoms: C_27  and  C_28 
REMARK   11  A    between atoms: C_28  and  C_29 
REMARK   12  A    between atoms: C_29  and  C_30 
ROOT
ATOM      1  C   UNL d   1       7.510   4.611 -13.041  0.00  0.00     0.116 A 
ATOM      2  C   UNL d   1       7.342   3.651 -14.043  0.00  0.00     0.022 A 
ATOM      3  C   UNL d   1       8.385   2.792 -14.444  0.00  0.00    -0.018 A 
ATOM      4  C   UNL d   1       9.611   2.814 -13.761  0.00  0.00    -0.002 A 
ATOM      5  C   UNL d   1       9.774   3.705 -12.667  0.00  0.00     0.026 A 
ATOM      6  C   UNL d   1       8.747   4.602 -12.324  0.00  0.00     0.116 A 
ENDROOT
BRANCH   3   7
ATOM      7  C   UNL d   1       8.208   1.852 -15.574  0.00  0.00     0.065 C 
BRANCH   7   8
ATOM      8  C   UNL d   1       8.309   2.507 -16.964  0.00  0.00     0.295 C 
BRANCH   8   9
ATOM      9  N   UNL d   1       8.736   1.551 -17.988  0.00  0.00     0.340 N 
BRANCH   9  10
ATOM     10  C   UNL d   1       7.726   1.270 -19.018  0.00  0.00     0.295 C 
BRANCH  10  11
ATOM     11  C   UNL d   1       7.766  -0.214 -19.460  0.00  0.00     0.065 C 
BRANCH  11  12
ATOM     12  C   UNL d   1       6.487  -1.011 -19.146  0.00  0.00    -0.018 A 
ATOM     13  C   UNL d   1       5.905  -1.070 -17.851  0.00  0.00     0.016 A 
ATOM     14  C   UNL d   1       4.703  -1.802 -17.623  0.00  0.00     0.110 A 
ATOM     15  C   UNL d   1       6.468  -0.429 -16.668  0.00  0.00     0.006 A 
ATOM     16  C   UNL d   1       4.115  -2.531 -18.688  0.00  0.00     0.149 A 
ATOM     17  N   UNL d   1       4.100  -1.810 -16.321  0.00  0.00    -0.206 NA
ATOM     18  C   UNL d   1       4.693  -2.493 -19.961  0.00  0.00     0.029 A 
ATOM     19  O   UNL d   1       3.014  -3.313 -18.484  0.00  0.00    -0.189 OA
ATOM     20  C   UNL d   1       5.881  -1.732 -20.207  0.00  0.00    -0.002 A 
ATOM     21  C   UNL d   1       4.577  -1.149 -15.244  0.00  0.00     0.279 A 
ATOM     22  O   UNL d   1       3.973  -1.181 -14.172  0.00  0.00    -0.265 OA
ATOM     23  C   UNL d   1       5.847  -0.450 -15.482  0.00  0.00     0.063 A 
ENDBRANCH  11  12
ENDBRANCH  10  11
ENDBRANCH   9  10
ENDBRANCH   8   9
ENDBRANCH   7   8
ENDBRANCH   3   7
BRANCH   1  24
ATOM     24  O   UNL d   1       6.524   5.532 -12.780  0.00  0.00    -0.326 OA
ATOM     25  C   UNL d   1       6.917   6.903 -12.650  0.00  0.00     0.181 C 
ENDBRANCH   1  24
BRANCH   6  26
ATOM     26  O   UNL d   1       8.977   5.465 -11.301  0.00  0.00    -0.329 OA
BRANCH  26  27
ATOM     27  C   UNL d   1       8.090   5.316 -10.199  0.00  0.00     0.149 C 
BRANCH  27  28
ATOM     28  C   UNL d   1       8.848   4.738  -9.022  0.00  0.00     0.037 C 
BRANCH  28  29
ATOM     29  C   UNL d   1      10.248   5.365  -8.881  0.00  0.00     0.029 C 
BRANCH  29  30
ATOM     30  C   UNL d   1      10.267   6.617  -8.022  0.00  0.00    -0.022 A 
ATOM     31  C   UNL d   1      10.958   6.628  -6.793  0.00  0.00    -0.004 A 
ATOM     32  C   UNL d   1      10.965   7.792  -5.995  0.00  0.00    -0.000 A 
ATOM     33  C   UNL d   1      10.269   8.938  -6.427  0.00  0.00    -0.000 A 
ATOM     34  C   UNL d   1       9.586   8.924  -7.660  0.00  0.00    -0.000 A 
ATOM     35  C   UNL d   1       9.606   7.780  -8.468  0.00  0.00    -0.004 A 
ENDBRANCH  29  30
ENDBRANCH  28  29
ENDBRANCH  27  28
ENDBRANCH  26  27
ENDBRANCH   6  26
TORSDOF 12
