REMARK  7 active torsions:
REMARK  status: ('A' for Active; 'I' for Inactive)
REMARK    1  A    between atoms: C_1  and  C_9 
REMARK    2  A    between atoms: C_2  and  C_3 
REMARK    3  A    between atoms: C_9  and  O_10 
REMARK    4  A    between atoms: O_10  and  C_11 
REMARK    5  A    between atoms: C_11  and  C_12 
REMARK    6  A    between atoms: N_15  and  C_16 
REMARK    7  A    between atoms: C_16  and  C_17 
ROOT
ATOM      1  C   UNL d   1       9.806   3.394 -13.558  0.00  0.00     0.034 C 
ATOM      2  C   UNL d   1      11.004   3.069 -14.443  0.00  0.00     0.038 C 
ATOM      3  C   UNL d   1      10.964   1.620 -14.924  0.00  0.00     0.251 C 
ATOM      4  N   UNL d   1       9.735   1.358 -15.700  0.00  0.00     0.141 N 
ATOM      5  C   UNL d   1       8.583   1.547 -14.816  0.00  0.00     0.251 C 
ATOM      6  C   UNL d   1       8.523   2.997 -14.313  0.00  0.00     0.038 C 
ENDROOT
BRANCH   1   7
ATOM      7  C   UNL d   1       9.830   4.871 -13.164  0.00  0.00     0.143 C 
BRANCH   7   8
ATOM      8  O   UNL d   1       8.585   5.222 -12.591  0.00  0.00    -0.349 OA
BRANCH   8   9
ATOM      9  C   UNL d   1       8.531   6.573 -12.178  0.00  0.00     0.169 C 
BRANCH   9  10
ATOM     10  C   UNL d   1       8.948   6.709 -10.733  0.00  0.00     0.006 C 
ATOM     11  C   UNL d   1       9.915   7.527 -10.301  0.00  0.00    -0.002 C 
BRANCH  11  12
ATOM     12  C   UNL d   1      10.309   7.747  -8.900  0.00  0.00    -0.000 A 
ATOM     13  C   UNL d   1      11.430   8.560  -8.641  0.00  0.00    -0.000 A 
ATOM     14  C   UNL d   1      11.860   8.794  -7.320  0.00  0.00    -0.000 A 
ATOM     15  C   UNL d   1      11.165   8.206  -6.242  0.00  0.00    -0.000 A 
ATOM     16  C   UNL d   1      10.047   7.389  -6.489  0.00  0.00    -0.000 A 
ATOM     17  C   UNL d   1       9.619   7.159  -7.811  0.00  0.00    -0.000 A 
ENDBRANCH  11  12
ENDBRANCH   9  10
ENDBRANCH   8   9
ENDBRANCH   7   8
ENDBRANCH   1   7
BRANCH   4  18
ATOM     18  C   UNL d   1       9.733   0.002 -16.246  0.00  0.00     0.277 C 
BRANCH  18  19
ATOM     19  C   UNL d   1      10.367  -0.142 -17.634  0.00  0.00     0.011 A 
ATOM     20  C   UNL d   1      11.723   0.225 -17.876  0.00  0.00    -0.002 A 
ATOM     21  C   UNL d   1      12.271   0.100 -19.177  0.00  0.00    -0.000 A 
ATOM     22  C   UNL d   1      11.499  -0.410 -20.227  0.00  0.00    -0.000 A 
ATOM     23  C   UNL d   1      10.166  -0.802 -19.987  0.00  0.00    -0.000 A 
ATOM     24  C   UNL d   1       9.606  -0.658 -18.704  0.00  0.00    -0.002 A 
ENDBRANCH  18  19
ENDBRANCH   4  18
TORSDOF 7
