REMARK  10 active torsions:
REMARK  status: ('A' for Active; 'I' for Inactive)
REMARK    1  A    between atoms: O_2  and  C_3 
REMARK    2  A    between atoms: C_7  and  C_8 
REMARK    3  A    between atoms: C_8  and  C_9 
REMARK    4  A    between atoms: C_9  and  C_10 
REMARK    5  A    between atoms: C_15  and  O_16 
REMARK    6  A    between atoms: O_16  and  C_17 
REMARK    7  A    between atoms: C_17  and  C_18 
REMARK    8  A    between atoms: C_18  and  C_19 
REMARK    9  A    between atoms: C_19  and  N_20 
REMARK   10  A    between atoms: N_23  and  C_24 
ROOT
ATOM      1  O   UNL d   1       7.641   4.384 -13.230  0.00  0.00    -0.331 OA
ENDROOT
BRANCH   1   2
ATOM      2  C   UNL d   1       8.786   3.907 -13.834  0.00  0.00     0.090 A 
ATOM      3  C   UNL d   1       8.666   2.780 -14.672  0.00  0.00     0.001 A 
ATOM      4  C   UNL d   1       9.816   2.215 -15.283  0.00  0.00    -0.002 A 
ATOM      5  C   UNL d   1      11.088   2.752 -15.042  0.00  0.00    -0.000 A 
ATOM      6  C   UNL d   1      11.208   3.886 -14.195  0.00  0.00     0.002 A 
ATOM      7  C   UNL d   1      10.076   4.462 -13.623  0.00  0.00     0.024 A 
BRANCH   3   8
ATOM      8  C   UNL d   1       7.299   2.158 -14.957  0.00  0.00     0.033 C 
BRANCH   8   9
ATOM      9  C   UNL d   1       7.155   0.736 -14.392  0.00  0.00     0.031 C 
BRANCH   9  10
ATOM     10  C   UNL d   1       5.890   0.057 -14.872  0.00  0.00    -0.020 A 
ATOM     11  C   UNL d   1       4.773  -0.049 -14.026  0.00  0.00    -0.004 A 
ATOM     12  C   UNL d   1       3.615  -0.712 -14.474  0.00  0.00     0.002 A 
ATOM     13  C   UNL d   1       3.571  -1.265 -15.771  0.00  0.00     0.024 A 
ATOM     14  C   UNL d   1       4.685  -1.134 -16.641  0.00  0.00     0.094 A 
ATOM     15  C   UNL d   1       5.839  -0.478 -16.175  0.00  0.00     0.020 A 
BRANCH  14  16
ATOM     16  O   UNL d   1       4.715  -1.581 -17.944  0.00  0.00    -0.328 OA
ATOM     17  C   UNL d   1       3.554  -2.204 -18.465  0.00  0.00     0.181 C 
ENDBRANCH  14  16
ENDBRANCH   9  10
ENDBRANCH   8   9
ENDBRANCH   3   8
ENDBRANCH   1   2
BRANCH   1  18
ATOM     18  C   UNL d   1       7.664   5.654 -12.601  0.00  0.00     0.151 C 
BRANCH  18  19
ATOM     19  C   UNL d   1       8.488   5.644 -11.302  0.00  0.00     0.068 C 
BRANCH  19  20
ATOM     20  C   UNL d   1       9.298   6.957 -11.136  0.00  0.00     0.253 C 
BRANCH  20  21
ATOM     21  N   UNL d   1      10.258   6.880 -10.038  0.00  0.00     0.141 N 
ATOM     22  C   UNL d   1       9.571   6.490  -8.801  0.00  0.00     0.274 C 
ATOM     23  C   UNL d   1      10.565   6.402  -7.642  0.00  0.00     0.137 C 
ATOM     24  N   UNL d   1      11.264   7.653  -7.514  0.00  0.00    -0.344 N 
ATOM     25  C   UNL d   1      11.867   8.209  -8.706  0.00  0.00     0.137 C 
ATOM     26  C   UNL d   1      10.844   8.215  -9.867  0.00  0.00     0.274 C 
BRANCH  24  27
ATOM     27  C   UNL d   1      11.259   8.315  -6.257  0.00  0.00     0.057 A 
ATOM     28  C   UNL d   1      11.477   7.559  -5.105  0.00  0.00     0.028 A 
ATOM     29  C   UNL d   1      11.578   8.198  -3.853  0.00  0.00     0.059 A 
ATOM     30  C   UNL d   1      11.369   9.589  -3.757  0.00  0.00     0.011 A 
ATOM     31 CL   UNL d   1      11.929   7.266  -2.435  0.00  0.00    -0.082 Cl
ATOM     32  C   UNL d   1      11.062  10.326  -4.917  0.00  0.00     0.002 A 
ATOM     33  C   UNL d   1      11.058   9.691  -6.180  0.00  0.00     0.017 A 
ENDBRANCH  24  27
ENDBRANCH  20  21
ENDBRANCH  19  20
ENDBRANCH  18  19
ENDBRANCH   1  18
TORSDOF 10
