REMARK  6 active torsions:
REMARK  status: ('A' for Active; 'I' for Inactive)
REMARK    1  A    between atoms: O_2  and  C_3 
REMARK    2  A    between atoms: C_7  and  N_8 
REMARK    3  A    between atoms: N_11  and  C_12 
REMARK    4  A    between atoms: C_12  and  C_13 
REMARK    5  A    between atoms: C_13  and  O_14 
REMARK    6  A    between atoms: O_14  and  C_15 
ROOT
ATOM      1  N   UNL d   1       9.865   7.523  -7.763  0.00  0.00    -0.344 N 
ATOM      2  C   UNL d   1       9.978   8.091  -9.100  0.00  0.00     0.137 C 
ATOM      3  C   UNL d   1      10.213   6.975 -10.111  0.00  0.00     0.274 C 
ATOM      4  N   UNL d   1       9.122   5.999 -10.067  0.00  0.00     0.144 N 
ATOM      5  C   UNL d   1       9.101   5.384  -8.729  0.00  0.00     0.274 C 
ATOM      6  C   UNL d   1       8.869   6.457  -7.636  0.00  0.00     0.137 C 
ENDROOT
BRANCH   4   7
ATOM      7  C   UNL d   1       9.327   4.963 -11.088  0.00  0.00     0.283 C 
BRANCH   7   8
ATOM      8  C   UNL d   1       9.260   5.551 -12.537  0.00  0.00     0.184 C 
BRANCH   8   9
ATOM      9  O   UNL d   1      10.269   4.930 -13.335  0.00  0.00    -0.329 OA
BRANCH   9  10
ATOM     10  C   UNL d   1       9.982   3.761 -14.011  0.00  0.00     0.096 A 
ATOM     11  C   UNL d   1      11.014   3.184 -14.787  0.00  0.00     0.045 A 
ATOM     12  C   UNL d   1      10.734   2.039 -15.569  0.00  0.00     0.103 A 
ATOM     13  C   UNL d   1       9.434   1.460 -15.570  0.00  0.00     0.101 A 
ATOM     14  N   UNL d   1      11.468   1.233 -16.439  0.00  0.00    -0.223 NA
ATOM     15  C   UNL d   1       8.423   2.041 -14.774  0.00  0.00     0.023 A 
ATOM     16  N   UNL d   1       9.377   0.347 -16.395  0.00  0.00    -0.223 NA
ATOM     17  C   UNL d   1       8.698   3.174 -13.984  0.00  0.00     0.026 A 
ATOM     18  C   UNL d   1      10.621   0.280 -16.869  0.00  0.00     0.199 A 
ENDBRANCH   9  10
ENDBRANCH   8   9
ENDBRANCH   7   8
ENDBRANCH   4   7
BRANCH   1  19
ATOM     19  C   UNL d   1      10.645   8.014  -6.689  0.00  0.00     0.058 A 
ATOM     20  C   UNL d   1      11.164   9.318  -6.724  0.00  0.00     0.017 A 
ATOM     21  C   UNL d   1      11.967   9.806  -5.669  0.00  0.00     0.004 A 
ATOM     22  C   UNL d   1      12.228   8.993  -4.562  0.00  0.00     0.024 A 
ATOM     23  C   UNL d   1      11.708   7.683  -4.496  0.00  0.00     0.096 A 
ATOM     24  C   UNL d   1      10.930   7.197  -5.577  0.00  0.00     0.041 A 
BRANCH  23  25
ATOM     25  O   UNL d   1      11.915   6.801  -3.469  0.00  0.00    -0.328 OA
ATOM     26  C   UNL d   1      12.473   7.330  -2.282  0.00  0.00     0.181 C 
ENDBRANCH  23  25
ENDBRANCH   1  19
TORSDOF 6
