REMARK  2 active torsions:
REMARK  status: ('A' for Active; 'I' for Inactive)
REMARK    1  A    between atoms: O_2  and  C_3 
REMARK    2  A    between atoms: C_8  and  O_9 
ROOT
ATOM      1  C   UNL d   1       6.908   0.846 -15.280  0.00  0.00     0.116 A 
ATOM      2  C   UNL d   1       6.127   1.525 -14.321  0.00  0.00     0.022 A 
ATOM      3  C   UNL d   1       6.608   2.686 -13.701  0.00  0.00    -0.020 A 
ATOM      4  C   UNL d   1       7.902   3.148 -14.045  0.00  0.00     0.007 A 
ATOM      5  C   UNL d   1       8.730   2.530 -15.023  0.00  0.00     0.022 A 
ATOM      6  C   UNL d   1       8.203   1.327 -15.586  0.00  0.00     0.116 A 
ATOM      7  C   UNL d   1      10.061   3.097 -15.367  0.00  0.00    -0.001 A 
ATOM      8  C   UNL d   1      10.703   2.886 -16.613  0.00  0.00     0.014 A 
ATOM      9  C   UNL d   1      11.995   3.383 -16.864  0.00  0.00     0.070 A 
ATOM     10  N   UNL d   1      12.623   3.118 -18.077  0.00  0.00    -0.101 NA
ATOM     11  C   UNL d   1      12.658   4.140 -15.880  0.00  0.00     0.014 A 
ATOM     12  C   UNL d   1      12.024   4.390 -14.653  0.00  0.00    -0.003 A 
ATOM     13  C   UNL d   1      10.726   3.890 -14.408  0.00  0.00    -0.020 A 
ATOM     14  C   UNL d   1      10.007   4.238 -13.121  0.00  0.00     0.064 C 
ATOM     15  C   UNL d   1       8.484   4.401 -13.354  0.00  0.00     0.246 C 
ATOM     16  N   UNL d   1       7.812   4.783 -12.105  0.00  0.00     0.142 N 
ATOM     17  C   UNL d   1       8.244   6.088 -11.613  0.00  0.00     0.286 C 
ATOM     18  C   UNL d   1       6.385   4.870 -12.368  0.00  0.00     0.255 C 
ATOM     19  C   UNL d   1       5.872   3.452 -12.610  0.00  0.00     0.061 C 
ENDROOT
BRANCH   1  20
ATOM     20  O   UNL d   1       6.477  -0.293 -15.933  0.00  0.00    -0.326 OA
ATOM     21  C   UNL d   1       5.237  -0.875 -15.552  0.00  0.00     0.181 C 
ENDBRANCH   1  20
BRANCH   6  22
ATOM     22  O   UNL d   1       8.949   0.576 -16.463  0.00  0.00    -0.326 OA
ATOM     23  C   UNL d   1      10.013  -0.146 -15.856  0.00  0.00     0.181 C 
ENDBRANCH   6  22
TORSDOF 2
