REMARK  9 active torsions:
REMARK  status: ('A' for Active; 'I' for Inactive)
REMARK    1  A    between atoms: C_8  and  O_9 
REMARK    2  A    between atoms: O_9  and  C_10 
REMARK    3  A    between atoms: C_10  and  C_11 
REMARK    4  A    between atoms: C_11  and  C_12 
REMARK    5  A    between atoms: C_12  and  C_13 
REMARK    6  A    between atoms: C_13  and  N_14 
REMARK    7  A    between atoms: N_14  and  C_15 
REMARK    8  A    between atoms: C_15  and  C_16 
REMARK    9  A    between atoms: C_18  and  C_19 
ROOT
ATOM      1  C   UNL d   1       9.763   6.672 -11.001  0.00  0.00     0.290 C 
ENDROOT
BRANCH   1   2
ATOM      2  C   UNL d   1      10.030   8.185 -11.009  0.00  0.00     0.041 C 
BRANCH   2   3
ATOM      3  C   UNL d   1      10.413   8.761  -9.658  0.00  0.00     0.035 C 
BRANCH   3   4
ATOM      4  C   UNL d   1       9.179   8.937  -8.816  0.00  0.00     0.149 C 
BRANCH   4   5
ATOM      5  O   UNL d   1       9.533   9.517  -7.601  0.00  0.00    -0.331 OA
BRANCH   5   6
ATOM      6  C   UNL d   1      10.143   8.788  -6.618  0.00  0.00     0.096 A 
ATOM      7  C   UNL d   1      10.226   7.388  -6.659  0.00  0.00     0.024 A 
ATOM      8  C   UNL d   1      10.865   6.710  -5.626  0.00  0.00    -0.001 A 
ATOM      9  C   UNL d   1      11.409   7.386  -4.549  0.00  0.00    -0.004 A 
ATOM     10  C   UNL d   1      12.006   6.593  -3.419  0.00  0.00     0.038 C 
ATOM     11  C   UNL d   1      11.334   8.785  -4.483  0.00  0.00     0.082 A 
ATOM     12  C   UNL d   1      11.859   7.262  -2.097  0.00  0.00     0.095 C 
ATOM     13  C   UNL d   1      12.184   8.733  -2.220  0.00  0.00     0.256 C 
ATOM     14  O   UNL d   1      12.675   9.210  -1.239  0.00  0.00    -0.270 OA
ATOM     15  N   UNL d   1      11.842   9.427  -3.341  0.00  0.00    -0.212 NA
ATOM     16  C   UNL d   1      10.692   9.496  -5.522  0.00  0.00     0.043 A 
ENDBRANCH   5   6
ENDBRANCH   4   5
ENDBRANCH   3   4
ENDBRANCH   2   3
ENDBRANCH   1   2
BRANCH   1  17
ATOM     17  N   UNL d   1       9.460   6.216 -12.349  0.00  0.00     0.339 N 
BRANCH  17  18
ATOM     18  C   UNL d   1       9.351   4.769 -12.376  0.00  0.00     0.290 C 
BRANCH  18  19
ATOM     19  C   UNL d   1       9.217   4.299 -13.809  0.00  0.00     0.041 A 
ATOM     20  C   UNL d   1      10.338   3.525 -14.473  0.00  0.00     0.026 A 
ATOM     21  C   UNL d   1       9.055   2.827 -14.107  0.00  0.00     0.007 A 
BRANCH  20  22
ATOM     22  C   UNL d   1      10.699   3.774 -15.903  0.00  0.00     0.002 A 
ATOM     23  C   UNL d   1      10.841   2.695 -16.804  0.00  0.00     0.112 A 
ATOM     24  C   UNL d   1      11.112   2.947 -18.171  0.00  0.00     0.116 A 
ATOM     25  O   UNL d   1      10.676   1.407 -16.337  0.00  0.00    -0.326 OA
ATOM     26  C   UNL d   1      11.281   4.271 -18.620  0.00  0.00     0.026 A 
ATOM     27  O   UNL d   1      11.206   1.924 -19.085  0.00  0.00    -0.326 OA
ATOM     28  C   UNL d   1      11.161   5.344 -17.719  0.00  0.00     0.002 A 
ATOM     29  C   UNL d   1      10.875   5.094 -16.366  0.00  0.00    -0.002 A 
ATOM     30  C   UNL d   1      10.681   0.677 -18.641  0.00  0.00     0.181 C 
ATOM     31  C   UNL d   1      11.161   0.397 -17.211  0.00  0.00     0.181 C 
ENDBRANCH  20  22
ENDBRANCH  18  19
ENDBRANCH  17  18
ENDBRANCH   1  17
TORSDOF 9
