REMARK  4 active torsions:
REMARK  status: ('A' for Active; 'I' for Inactive)
REMARK    1  A    between atoms: C_2  and  C_3 
REMARK    2  A    between atoms: C_2  and  C_20 
REMARK    3  A    between atoms: C_3  and  N_4 
REMARK    4  A    between atoms: C_10  and  C_12 
ROOT
ATOM      1  N   UNL d   1      10.270   6.786  -9.275  0.00  0.00     0.141 N 
ATOM      2  C   UNL d   1      11.480   7.592  -9.431  0.00  0.00     0.223 C 
ATOM      3  C   UNL d   1      11.008   8.880 -10.114  0.00  0.00     0.035 C 
ATOM      4  C   UNL d   1       9.545   9.004  -9.674  0.00  0.00     0.035 C 
ATOM      5  C   UNL d   1       9.324   7.767  -8.760  0.00  0.00     0.223 C 
ATOM      6  C   UNL d   1       9.627   8.025  -7.280  0.00  0.00     0.068 C 
ATOM      7  C   UNL d   1      11.068   8.520  -7.042  0.00  0.00     0.149 C 
ATOM      8  O   UNL d   1      11.096   9.887  -7.339  0.00  0.00    -0.221 OA
ATOM      9  C   UNL d   1      12.054   7.801  -8.007  0.00  0.00     0.068 C 
ENDROOT
BRANCH   1  10
ATOM     10  C   UNL d   1       9.789   6.220 -10.547  0.00  0.00     0.318 C 
BRANCH  10  11
ATOM     11  C   UNL d   1       8.686   5.150 -10.435  0.00  0.00     0.207 C 
ATOM     12  O   UNL d   1       8.268   4.799  -9.334  0.00  0.00    -0.289 OA
BRANCH  11  13
ATOM     13  C   UNL d   1       8.216   4.541 -11.708  0.00  0.00     0.037 A 
ATOM     14  C   UNL d   1       6.837   4.350 -11.956  0.00  0.00     0.005 A 
ATOM     15  C   UNL d   1       6.398   3.685 -13.117  0.00  0.00     0.030 A 
ATOM     16  C   UNL d   1       7.340   3.189 -14.041  0.00  0.00     0.140 A 
ATOM     17  C   UNL d   1       8.716   3.375 -13.800  0.00  0.00     0.030 A 
ATOM     18  F   UNL d   1       6.925   2.523 -15.141  0.00  0.00    -0.204 F 
ATOM     19  C   UNL d   1       9.154   4.035 -12.639  0.00  0.00     0.005 A 
ENDBRANCH  11  13
ENDBRANCH  10  11
ENDBRANCH   1  10
BRANCH   7  20
ATOM     20  C   UNL d   1      11.463   8.369  -5.586  0.00  0.00     0.005 A 
ATOM     21  C   UNL d   1      11.470   7.092  -4.978  0.00  0.00    -0.001 A 
ATOM     22  C   UNL d   1      11.846   6.975  -3.625  0.00  0.00     0.011 A 
ATOM     23  C   UNL d   1      12.209   8.132  -2.920  0.00  0.00     0.058 A 
ATOM     24  C   UNL d   1      12.171   9.394  -3.490  0.00  0.00     0.011 A 
ATOM     25 CL   UNL d   1      12.658   8.058  -1.293  0.00  0.00    -0.082 Cl
ATOM     26  C   UNL d   1      11.804   9.517  -4.831  0.00  0.00    -0.001 A 
ENDBRANCH   7  20
TORSDOF 4
