REMARK  5 active torsions:
REMARK  status: ('A' for Active; 'I' for Inactive)
REMARK    1  A    between atoms: C_4  and  N_5 
REMARK    2  A    between atoms: N_8  and  C_9 
REMARK    3  A    between atoms: C_9  and  C_10 
REMARK    4  A    between atoms: C_10  and  O_11 
REMARK    5  A    between atoms: O_11  and  C_12 
ROOT
ATOM      1  N   UNL d   1       8.789   4.996 -11.589  0.00  0.00    -0.344 N 
ATOM      2  C   UNL d   1       9.627   6.035 -12.135  0.00  0.00     0.137 C 
ATOM      3  C   UNL d   1       9.453   7.321 -11.294  0.00  0.00     0.274 C 
ATOM      4  N   UNL d   1       9.747   7.082  -9.871  0.00  0.00     0.144 N 
ATOM      5  C   UNL d   1       8.826   6.045  -9.376  0.00  0.00     0.274 C 
ATOM      6  C   UNL d   1       8.947   4.734 -10.166  0.00  0.00     0.137 C 
ENDROOT
BRANCH   4   7
ATOM      7  C   UNL d   1       9.556   8.315  -9.090  0.00  0.00     0.283 C 
BRANCH   7   8
ATOM      8  C   UNL d   1      10.913   8.888  -8.621  0.00  0.00     0.184 C 
BRANCH   8   9
ATOM      9  O   UNL d   1      10.800   9.571  -7.364  0.00  0.00    -0.329 OA
BRANCH   9  10
ATOM     10  C   UNL d   1      11.074   8.866  -6.213  0.00  0.00     0.096 A 
ATOM     11  C   UNL d   1      11.428   9.596  -5.052  0.00  0.00     0.047 A 
ATOM     12  C   UNL d   1      11.819   8.893  -3.893  0.00  0.00     0.126 A 
ATOM     13  C   UNL d   1      11.861   7.484  -3.846  0.00  0.00     0.124 A 
ATOM     14  N   UNL d   1      12.260   9.210  -2.622  0.00  0.00    -0.127 NA
ATOM     15  C   UNL d   1      11.451   6.776  -4.992  0.00  0.00     0.025 A 
ATOM     16  N   UNL d   1      12.282   7.059  -2.599  0.00  0.00    -0.127 NA
ATOM     17  C   UNL d   1      11.032   7.448  -6.150  0.00  0.00     0.026 A 
ATOM     18  N   UNL d   1      12.526   8.109  -1.876  0.00  0.00    -0.042 NA
ENDBRANCH   9  10
ENDBRANCH   8   9
ENDBRANCH   7   8
ENDBRANCH   4   7
BRANCH   1  19
ATOM     19  C   UNL d   1       7.930   4.264 -12.413  0.00  0.00     0.056 A 
ATOM     20  C   UNL d   1       6.563   4.175 -12.107  0.00  0.00     0.017 A 
ATOM     21  C   UNL d   1       5.707   3.402 -12.913  0.00  0.00     0.002 A 
ATOM     22  C   UNL d   1       6.230   2.704 -14.018  0.00  0.00     0.000 A 
ATOM     23  C   UNL d   1       7.588   2.810 -14.350  0.00  0.00     0.002 A 
ATOM     24  C   UNL d   1       8.444   3.594 -13.548  0.00  0.00     0.017 A 
ENDBRANCH   1  19
TORSDOF 5
