REMARK  3 active torsions:
REMARK  status: ('A' for Active; 'I' for Inactive)
REMARK    1  A    between atoms: C_5  and  N_6 
REMARK    2  A    between atoms: N_9  and  C_10 
REMARK    3  A    between atoms: C_10  and  C_11 
ROOT
ATOM      1  N   UNL d   1      10.423   8.194  -6.347  0.00  0.00    -0.344 N 
ATOM      2  C   UNL d   1       9.534   7.117  -6.747  0.00  0.00     0.137 C 
ATOM      3  C   UNL d   1       9.992   6.553  -8.095  0.00  0.00     0.275 C 
ATOM      4  N   UNL d   1       9.986   7.634  -9.095  0.00  0.00     0.147 N 
ATOM      5  C   UNL d   1      10.977   8.645  -8.700  0.00  0.00     0.275 C 
ATOM      6  C   UNL d   1      10.585   9.238  -7.341  0.00  0.00     0.137 C 
ENDROOT
BRANCH   4   7
ATOM      7  C   UNL d   1      10.325   7.130 -10.417  0.00  0.00     0.297 C 
BRANCH   7   8
ATOM      8  C   UNL d   1       9.425   6.175 -11.151  0.00  0.00     0.113 A 
ATOM      9  N   UNL d   1       9.702   5.781 -12.463  0.00  0.00    -0.228 NA
ATOM     10  C   UNL d   1       8.696   4.992 -12.822  0.00  0.00     0.164 A 
ATOM     11  N   UNL d   1       7.775   4.852 -11.758  0.00  0.00    -0.209 N 
ATOM     12  C   UNL d   1       8.363   4.299 -14.015  0.00  0.00     0.041 A 
ATOM     13  C   UNL d   1       8.266   5.595 -10.714  0.00  0.00     0.119 A 
ATOM     14  N   UNL d   1       6.630   4.130 -11.728  0.00  0.00    -0.152 NA
ATOM     15  C   UNL d   1       6.406   3.476 -12.859  0.00  0.00     0.159 A 
ATOM     16 CL   UNL d   1       5.063   2.394 -12.833  0.00  0.00    -0.060 Cl
ATOM     17  C   UNL d   1       7.219   3.530 -14.019  0.00  0.00     0.036 A 
ENDBRANCH   7   8
ENDBRANCH   4   7
BRANCH   1  18
ATOM     18  C   UNL d   1      11.081   8.229  -5.107  0.00  0.00     0.056 A 
ATOM     19  C   UNL d   1      11.476   7.035  -4.456  0.00  0.00     0.019 A 
ATOM     20  C   UNL d   1      12.119   7.088  -3.204  0.00  0.00     0.031 A 
ATOM     21  C   UNL d   1      12.377   8.327  -2.597  0.00  0.00     0.140 A 
ATOM     22  F   UNL d   1      13.000   8.390  -1.401  0.00  0.00    -0.204 F 
ATOM     23  C   UNL d   1      11.987   9.512  -3.240  0.00  0.00     0.031 A 
ATOM     24  C   UNL d   1      11.347   9.471  -4.480  0.00  0.00     0.019 A 
ENDBRANCH   1  18
TORSDOF 3
