REMARK  5 active torsions:
REMARK  status: ('A' for Active; 'I' for Inactive)
REMARK    1  A    between atoms: O_2  and  C_3 
REMARK    2  A    between atoms: C_9  and  C_10 
REMARK    3  A    between atoms: C_14  and  C_15 
REMARK    4  A    between atoms: C_15  and  N_16 
REMARK    5  A    between atoms: N_19  and  C_20 
ROOT
ATOM      1  C   UNL d   1       8.762   4.484 -13.035  0.00  0.00     0.155 C 
ATOM      2  N   UNL d   1       8.264   5.544 -13.617  0.00  0.00    -0.253 NA
ATOM      3  C   UNL d   1       8.278   6.803 -12.908  0.00  0.00     0.129 C 
ATOM      4  C   UNL d   1       8.329   6.686 -11.407  0.00  0.00     0.053 C 
ATOM      5  C   UNL d   1       9.403   5.724 -10.997  0.00  0.00     0.140 C 
ATOM      6  N   UNL d   1       9.223   4.493 -11.737  0.00  0.00    -0.253 NA
ENDROOT
BRANCH   5   7
ATOM      7  C   UNL d   1       9.403   5.490  -9.472  0.00  0.00     0.275 C 
BRANCH   7   8
ATOM      8  N   UNL d   1      10.319   6.420  -8.810  0.00  0.00     0.143 N 
ATOM      9  C   UNL d   1      10.861   5.720  -7.679  0.00  0.00     0.274 C 
ATOM     10  C   UNL d   1      11.944   6.518  -6.970  0.00  0.00     0.137 C 
ATOM     11  N   UNL d   1      11.359   7.728  -6.468  0.00  0.00    -0.344 N 
ATOM     12  C   UNL d   1      10.713   8.492  -7.529  0.00  0.00     0.137 C 
ATOM     13  C   UNL d   1       9.668   7.606  -8.271  0.00  0.00     0.274 C 
BRANCH  11  14
ATOM     14  C   UNL d   1      11.495   8.094  -5.124  0.00  0.00     0.056 A 
ATOM     15  C   UNL d   1      11.743   7.140  -4.107  0.00  0.00     0.017 A 
ATOM     16  C   UNL d   1      11.941   7.543  -2.764  0.00  0.00     0.002 A 
ATOM     17  C   UNL d   1      11.886   8.899  -2.436  0.00  0.00     0.000 A 
ATOM     18  C   UNL d   1      11.604   9.828  -3.442  0.00  0.00     0.002 A 
ATOM     19  C   UNL d   1      11.445   9.447  -4.790  0.00  0.00     0.017 A 
ENDBRANCH  11  14
ENDBRANCH   7   8
ENDBRANCH   5   7
BRANCH   1  20
ATOM     20  C   UNL d   1       8.804   3.263 -13.843  0.00  0.00     0.058 A 
ATOM     21  C   UNL d   1      10.052   2.740 -14.259  0.00  0.00     0.097 A 
ATOM     22  C   UNL d   1      10.077   1.484 -14.908  0.00  0.00     0.025 A 
ATOM     23  C   UNL d   1       8.885   0.778 -15.131  0.00  0.00     0.009 A 
ATOM     24  C   UNL d   1       7.649   1.321 -14.737  0.00  0.00     0.035 A 
ATOM     25 BR   UNL d   1       6.040   0.330 -14.917  0.00  0.00    -0.049 Br
ATOM     26  C   UNL d   1       7.597   2.594 -14.135  0.00  0.00     0.012 A 
BRANCH  21  27
ATOM     27  O   UNL d   1      11.184   3.469 -13.962  0.00  0.00    -0.328 OA
ATOM     28  C   UNL d   1      12.174   3.536 -14.971  0.00  0.00     0.181 C 
ENDBRANCH  21  27
ENDBRANCH   1  20
TORSDOF 5
