REMARK  7 active torsions:
REMARK  status: ('A' for Active; 'I' for Inactive)
REMARK    1  A    between atoms: S_2  and  N_4 
REMARK    2  A    between atoms: S_2  and  C_22 
REMARK    3  A    between atoms: N_4  and  C_5 
REMARK    4  A    between atoms: N_8  and  C_9 
REMARK    5  A    between atoms: C_9  and  C_10 
REMARK    6  A    between atoms: C_10  and  C_11 
REMARK    7  A    between atoms: C_11  and  C_12 
ROOT
ATOM      1  C   UNL d   1      10.328   7.272  -8.378  0.00  0.00     0.151 C 
ATOM      2  C   UNL d   1       9.312   6.393  -7.612  0.00  0.00     0.063 C 
ATOM      3  C   UNL d   1       8.508   5.719  -8.692  0.00  0.00     0.252 C 
ATOM      4  N   UNL d   1       9.417   5.699  -9.822  0.00  0.00     0.139 N 
ATOM      5  C   UNL d   1       9.995   7.040  -9.837  0.00  0.00     0.275 C 
ENDROOT
BRANCH   4   6
ATOM      6  C   UNL d   1       8.674   5.423 -11.040  0.00  0.00     0.251 C 
BRANCH   6   7
ATOM      7  C   UNL d   1       9.616   4.966 -12.163  0.00  0.00     0.042 C 
BRANCH   7   8
ATOM      8  C   UNL d   1       8.890   4.732 -13.493  0.00  0.00     0.050 C 
BRANCH   8   9
ATOM      9  C   UNL d   1       9.746   3.974 -14.467  0.00  0.00     0.088 A 
ATOM     10  C   UNL d   1       9.636   2.652 -14.941  0.00  0.00     0.041 A 
ATOM     11  C   UNL d   1      10.676   2.398 -15.836  0.00  0.00     0.126 A 
ATOM     12  C   UNL d   1       8.695   1.637 -14.661  0.00  0.00     0.003 A 
ATOM     13  O   UNL d   1      11.401   3.580 -15.888  0.00  0.00    -0.211 OA
ATOM     14  C   UNL d   1      10.841   1.165 -16.483  0.00  0.00     0.027 A 
ATOM     15  N   UNL d   1      10.809   4.549 -15.030  0.00  0.00    -0.131 NA
ATOM     16  C   UNL d   1       9.903   0.147 -16.203  0.00  0.00     0.002 A 
ATOM     17  C   UNL d   1       8.840   0.386 -15.298  0.00  0.00     0.000 A 
ENDBRANCH   8   9
ENDBRANCH   7   8
ENDBRANCH   6   7
ENDBRANCH   4   6
BRANCH   1  18
ATOM     18  N   UNL d   1      10.251   8.677  -7.928  0.00  0.00    -0.185 NA
BRANCH  18  19
ATOM     19  S   UNL d   1      11.546   9.342  -6.986  0.00  0.00     0.281 S 
ATOM     20  O   UNL d   1      12.779   8.981  -7.679  0.00  0.00    -0.199 OA
ATOM     21  O   UNL d   1      11.240  10.745  -6.659  0.00  0.00    -0.199 OA
BRANCH  19  22
ATOM     22  C   UNL d   1      11.538   8.484  -5.457  0.00  0.00     0.106 C 
ATOM     23  C   UNL d   1      11.813   9.178  -4.264  0.00  0.00     0.024 C 
ATOM     24  C   UNL d   1      11.927   8.421  -3.065  0.00  0.00     0.059 C 
ATOM     25  C   UNL d   1      11.635   7.038  -3.059  0.00  0.00     0.011 C 
ATOM     26 CL   UNL d   1      12.395   9.154  -1.616  0.00  0.00    -0.082 Cl
ATOM     27  C   UNL d   1      11.362   6.412  -4.275  0.00  0.00     0.002 C 
ATOM     28  C   UNL d   1      11.410   7.093  -5.470  0.00  0.00     0.013 C 
ENDBRANCH  19  22
ENDBRANCH  18  19
ENDBRANCH   1  18
TORSDOF 7
