REMARK  5 active torsions:
REMARK  status: ('A' for Active; 'I' for Inactive)
REMARK    1  A    between atoms: C_5  and  C_6 
REMARK    2  A    between atoms: C_10  and  C_11 
REMARK    3  A    between atoms: C_11  and  N_12 
REMARK    4  A    between atoms: N_12  and  C_13 
REMARK    5  A    between atoms: C_13  and  C_14 
ROOT
ATOM      1  C   UNL d   1       7.768   2.866 -14.387  0.00  0.00     0.019 A 
ATOM      2  C   UNL d   1       9.122   2.981 -14.763  0.00  0.00     0.099 A 
ATOM      3  N   UNL d   1       9.883   4.073 -14.489  0.00  0.00    -0.243 NA
ATOM      4  C   UNL d   1       9.344   5.049 -13.773  0.00  0.00     0.097 A 
ATOM      5  C   UNL d   1       8.009   5.039 -13.306  0.00  0.00     0.021 A 
ATOM      6  C   UNL d   1       7.213   3.926 -13.637  0.00  0.00     0.001 A 
ENDROOT
BRANCH   5   7
ATOM      7  C   UNL d   1       7.442   6.157 -12.457  0.00  0.00     0.148 C 
BRANCH   7   8
ATOM      8  N   UNL d   1       8.435   6.813 -11.653  0.00  0.00    -0.288 NA
BRANCH   8   9
ATOM      9  C   UNL d   1       9.261   5.929 -10.831  0.00  0.00     0.150 C 
BRANCH   9  10
ATOM     10  C   UNL d   1      10.187   6.788  -9.937  0.00  0.00     0.145 C 
ATOM     11  O   UNL d   1       9.771   6.562  -8.596  0.00  0.00    -0.332 OA
ATOM     12  C   UNL d   1      10.393   7.317  -7.641  0.00  0.00     0.090 A 
ATOM     13  C   UNL d   1      11.118   8.502  -7.937  0.00  0.00     0.000 A 
ATOM     14  C   UNL d   1      10.258   6.885  -6.312  0.00  0.00     0.024 A 
ATOM     15  C   UNL d   1      11.259   8.986  -9.375  0.00  0.00     0.031 C 
ATOM     16  C   UNL d   1      11.691   9.246  -6.892  0.00  0.00    -0.002 A 
ATOM     17  C   UNL d   1      10.265   8.289 -10.277  0.00  0.00     0.037 C 
ATOM     18  C   UNL d   1      11.552   8.816  -5.564  0.00  0.00    -0.000 A 
ATOM     19  C   UNL d   1      10.857   7.628  -5.277  0.00  0.00     0.002 A 
ENDBRANCH   9  10
ENDBRANCH   8   9
ENDBRANCH   7   8
ENDBRANCH   5   7
BRANCH   1  20
ATOM     20  C   UNL d   1       6.967   1.693 -14.780  0.00  0.00     0.002 A 
ATOM     21  C   UNL d   1       7.168   1.099 -16.038  0.00  0.00     0.002 A 
ATOM     22  C   UNL d   1       6.402  -0.014 -16.435  0.00  0.00     0.030 A 
ATOM     23  C   UNL d   1       5.424  -0.533 -15.569  0.00  0.00     0.140 A 
ATOM     24  F   UNL d   1       4.681  -1.601 -15.947  0.00  0.00    -0.204 F 
ATOM     25  C   UNL d   1       5.208   0.060 -14.315  0.00  0.00     0.030 A 
ATOM     26  C   UNL d   1       5.976   1.172 -13.920  0.00  0.00     0.002 A 
ENDBRANCH   1  20
TORSDOF 5
