REMARK  5 active torsions:
REMARK  status: ('A' for Active; 'I' for Inactive)
REMARK    1  A    between atoms: O_2  and  C_3 
REMARK    2  A    between atoms: C_7  and  C_8 
REMARK    3  A    between atoms: C_8  and  N_9 
REMARK    4  A    between atoms: N_12  and  C_13 
REMARK    5  A    between atoms: C_13  and  C_14 
ROOT
ATOM      1  N   UNL d   1       9.960   3.480 -14.778  0.00  0.00     0.146 N 
ATOM      2  C   UNL d   1      10.624   3.406 -13.480  0.00  0.00     0.286 C 
ATOM      3  C   UNL d   1       9.707   3.878 -12.336  0.00  0.00     0.286 C 
ATOM      4  N   UNL d   1       9.227   5.245 -12.542  0.00  0.00     0.148 N 
ATOM      5  C   UNL d   1       8.559   5.299 -13.839  0.00  0.00     0.286 C 
ATOM      6  C   UNL d   1       9.499   4.851 -14.977  0.00  0.00     0.286 C 
ENDROOT
BRANCH   4   7
ATOM      7  C   UNL d   1       8.350   5.692 -11.454  0.00  0.00     0.301 C 
BRANCH   7   8
ATOM      8  C   UNL d   1       9.100   6.159 -10.251  0.00  0.00     0.111 A 
ATOM      9  O   UNL d   1       9.944   7.225 -10.438  0.00  0.00    -0.309 OA
ATOM     10  C   UNL d   1      10.483   7.530  -9.208  0.00  0.00     0.100 A 
ATOM     11  C   UNL d   1       9.967   6.632  -8.240  0.00  0.00     0.025 A 
ATOM     12  C   UNL d   1      11.408   8.546  -8.903  0.00  0.00     0.025 A 
ATOM     13  C   UNL d   1       9.075   5.752  -8.938  0.00  0.00     0.024 A 
ATOM     14  C   UNL d   1      10.422   6.797  -6.910  0.00  0.00     0.002 A 
ATOM     15  C   UNL d   1      11.349   7.807  -6.580  0.00  0.00     0.000 A 
ATOM     16  C   UNL d   1      11.847   8.678  -7.571  0.00  0.00     0.002 A 
ENDBRANCH   7   8
ENDBRANCH   4   7
BRANCH   1  17
ATOM     17  C   UNL d   1      10.837   3.022 -15.851  0.00  0.00     0.277 C 
BRANCH  17  18
ATOM     18  C   UNL d   1      10.134   2.866 -17.188  0.00  0.00     0.013 A 
ATOM     19  C   UNL d   1      10.692   3.434 -18.350  0.00  0.00    -0.002 A 
ATOM     20  C   UNL d   1      10.040   3.284 -19.589  0.00  0.00     0.002 A 
ATOM     21  C   UNL d   1       8.835   2.562 -19.668  0.00  0.00     0.024 A 
ATOM     22  C   UNL d   1       8.261   1.987 -18.515  0.00  0.00     0.094 A 
ATOM     23  C   UNL d   1       8.928   2.139 -17.274  0.00  0.00     0.022 A 
BRANCH  22  24
ATOM     24  O   UNL d   1       7.071   1.315 -18.681  0.00  0.00    -0.328 OA
ATOM     25  C   UNL d   1       6.503   0.675 -17.545  0.00  0.00     0.181 C 
ENDBRANCH  22  24
ENDBRANCH  17  18
ENDBRANCH   1  17
TORSDOF 5
