REMARK  5 active torsions:
REMARK  status: ('A' for Active; 'I' for Inactive)
REMARK    1  A    between atoms: O_2  and  C_3 
REMARK    2  A    between atoms: C_6  and  N_7 
REMARK    3  A    between atoms: N_10  and  C_11 
REMARK    4  A    between atoms: C_11  and  C_12 
REMARK    5  A    between atoms: C_12  and  C_13 
ROOT
ATOM      1  N   UNL d   1      10.726   6.927  -8.423  0.00  0.00    -0.344 N 
ATOM      2  C   UNL d   1      10.180   5.586  -8.345  0.00  0.00     0.137 C 
ATOM      3  C   UNL d   1       9.108   5.370  -9.428  0.00  0.00     0.274 C 
ATOM      4  N   UNL d   1       9.594   5.758 -10.757  0.00  0.00     0.141 N 
ATOM      5  C   UNL d   1       9.915   7.192 -10.707  0.00  0.00     0.274 C 
ATOM      6  C   UNL d   1      11.113   7.402  -9.750  0.00  0.00     0.137 C 
ENDROOT
BRANCH   4   7
ATOM      7  C   UNL d   1       8.591   5.496 -11.759  0.00  0.00     0.253 C 
BRANCH   7   8
ATOM      8  C   UNL d   1       9.108   4.437 -12.754  0.00  0.00     0.062 C 
BRANCH   8   9
ATOM      9  C   UNL d   1       8.126   4.223 -13.935  0.00  0.00     0.109 A 
ATOM     10  N   UNL d   1       8.807   3.485 -15.020  0.00  0.00    -0.313 N 
ATOM     11  C   UNL d   1       8.187   2.315 -15.358  0.00  0.00     0.257 A 
ATOM     12  C   UNL d   1       9.711   4.183 -15.919  0.00  0.00     0.129 C 
ATOM     13  C   UNL d   1       7.058   2.187 -14.411  0.00  0.00     0.054 A 
ATOM     14  O   UNL d   1       8.401   1.592 -16.312  0.00  0.00    -0.267 OA
ATOM     15  C   UNL d   1       6.976   3.308 -13.611  0.00  0.00     0.003 A 
ATOM     16  C   UNL d   1       6.147   1.111 -14.317  0.00  0.00     0.004 A 
ATOM     17  C   UNL d   1       5.974   3.436 -12.627  0.00  0.00    -0.002 A 
ATOM     18  C   UNL d   1       5.100   2.343 -12.442  0.00  0.00    -0.000 A 
ATOM     19  C   UNL d   1       5.186   1.188 -13.280  0.00  0.00     0.000 A 
ENDBRANCH   8   9
ENDBRANCH   7   8
ENDBRANCH   4   7
BRANCH   1  20
ATOM     20  C   UNL d   1      10.857   7.710  -7.284  0.00  0.00     0.056 A 
ATOM     21  C   UNL d   1      10.751   9.126  -7.340  0.00  0.00     0.019 A 
ATOM     22  C   UNL d   1      10.909   9.883  -6.173  0.00  0.00     0.026 A 
ATOM     23  C   UNL d   1      11.127   9.267  -4.945  0.00  0.00     0.094 A 
ATOM     24  C   UNL d   1      11.169   7.849  -4.870  0.00  0.00     0.026 A 
ATOM     25  C   UNL d   1      11.058   7.093  -6.030  0.00  0.00     0.019 A 
BRANCH  23  26
ATOM     26  O   UNL d   1      11.175  10.114  -3.886  0.00  0.00    -0.328 OA
ATOM     27  C   UNL d   1      11.969   9.676  -2.813  0.00  0.00     0.181 C 
ENDBRANCH  23  26
ENDBRANCH   1  20
TORSDOF 5
