REMARK  7 active torsions:
REMARK  status: ('A' for Active; 'I' for Inactive)
REMARK    1  A    between atoms: C_8  and  O_9 
REMARK    2  A    between atoms: O_9  and  C_10 
REMARK    3  A    between atoms: C_10  and  C_11 
REMARK    4  A    between atoms: C_11  and  C_12 
REMARK    5  A    between atoms: C_12  and  C_13 
REMARK    6  A    between atoms: C_13  and  N_14 
REMARK    7  A    between atoms: N_17  and  C_18 
ROOT
ATOM      1  N   UNL d   1       9.043   3.036 -13.812  0.00  0.00     0.141 N 
ATOM      2  C   UNL d   1       7.611   3.174 -14.098  0.00  0.00     0.274 C 
ATOM      3  C   UNL d   1       7.037   1.867 -14.620  0.00  0.00     0.137 C 
ATOM      4  N   UNL d   1       7.773   1.405 -15.791  0.00  0.00    -0.344 N 
ATOM      5  C   UNL d   1       9.216   1.326 -15.609  0.00  0.00     0.137 C 
ATOM      6  C   UNL d   1       9.741   2.664 -15.053  0.00  0.00     0.274 C 
ENDROOT
BRANCH   1   7
ATOM      7  C   UNL d   1       9.560   4.295 -13.309  0.00  0.00     0.251 C 
BRANCH   7   8
ATOM      8  C   UNL d   1       9.104   4.558 -11.860  0.00  0.00     0.038 C 
BRANCH   8   9
ATOM      9  C   UNL d   1       9.615   5.894 -11.319  0.00  0.00     0.035 C 
BRANCH   9  10
ATOM     10  C   UNL d   1       9.589   5.960  -9.794  0.00  0.00     0.149 C 
BRANCH  10  11
ATOM     11  O   UNL d   1      10.251   7.154  -9.394  0.00  0.00    -0.329 OA
BRANCH  11  12
ATOM     12  C   UNL d   1      10.604   7.303  -8.072  0.00  0.00     0.121 A 
ATOM     13  C   UNL d   1      10.593   6.249  -7.120  0.00  0.00     0.026 A 
ATOM     14  C   UNL d   1      11.016   6.425  -5.781  0.00  0.00    -0.000 A 
ATOM     15  C   UNL d   1      11.392   7.697  -5.386  0.00  0.00     0.009 A 
ATOM     16  C   UNL d   1      11.855   8.174  -4.037  0.00  0.00     0.156 A 
ATOM     17  C   UNL d   1      11.386   8.734  -6.295  0.00  0.00     0.085 A 
ATOM     18  N   UNL d   1      12.093   9.582  -4.330  0.00  0.00    -0.229 NA
ATOM     19  C   UNL d   1      11.799   9.946  -5.596  0.00  0.00     0.277 A 
ATOM     20  O   UNL d   1      11.849  11.049  -6.119  0.00  0.00    -0.266 OA
ATOM     21  C   UNL d   1      11.031   8.568  -7.644  0.00  0.00     0.167 A 
ATOM     22  F   UNL d   1      11.095   9.581  -8.534  0.00  0.00    -0.202 F 
ENDBRANCH  11  12
ENDBRANCH  10  11
ENDBRANCH   9  10
ENDBRANCH   8   9
ENDBRANCH   7   8
ENDBRANCH   1   7
BRANCH   4  23
ATOM     23  C   UNL d   1       7.149   1.041 -16.997  0.00  0.00     0.056 A 
ATOM     24  C   UNL d   1       5.983   0.205 -17.062  0.00  0.00     0.018 A 
ATOM     25  C   UNL d   1       5.390  -0.074 -18.322  0.00  0.00     0.002 A 
ATOM     26  C   UNL d   1       5.416  -0.383 -15.902  0.00  0.00     0.031 A 
ATOM     27  C   UNL d   1       5.945   0.431 -19.511  0.00  0.00     0.000 A 
ATOM     28  C   UNL d   1       4.240  -0.886 -18.398  0.00  0.00     0.002 A 
ATOM     29  C   UNL d   1       7.110   1.212 -19.458  0.00  0.00     0.002 A 
ATOM     30  C   UNL d   1       7.698   1.520 -18.217  0.00  0.00     0.017 A 
ATOM     31  C   UNL d   1       3.681  -1.427 -17.230  0.00  0.00     0.030 A 
ATOM     32  C   UNL d   1       4.256  -1.159 -15.984  0.00  0.00     0.140 A 
ATOM     33  F   UNL d   1       3.688  -1.614 -14.847  0.00  0.00    -0.204 F 
ENDBRANCH   4  23
TORSDOF 7
