REMARK  5 active torsions:
REMARK  status: ('A' for Active; 'I' for Inactive)
REMARK    1  A    between atoms: O_2  and  N_3 
REMARK    2  A    between atoms: C_4  and  C_5 
REMARK    3  A    between atoms: C_4  and  C_18 
REMARK    4  A    between atoms: C_5  and  N_6 
REMARK    5  A    between atoms: N_9  and  C_10 
ROOT
ATOM      1  N   UNL d   1       7.347   3.412 -13.251  0.00  0.00     0.147 N 
ATOM      2  C   UNL d   1       5.887   3.215 -13.334  0.00  0.00     0.275 C 
ATOM      3  C   UNL d   1       5.556   1.700 -13.244  0.00  0.00     0.138 C 
ATOM      4  N   UNL d   1       6.276   0.966 -14.284  0.00  0.00    -0.330 N 
ATOM      5  C   UNL d   1       7.715   1.197 -14.344  0.00  0.00     0.138 C 
ATOM      6  C   UNL d   1       8.035   2.696 -14.338  0.00  0.00     0.275 C 
ENDROOT
BRANCH   1   7
ATOM      7  C   UNL d   1       7.686   4.838 -13.241  0.00  0.00     0.298 C 
BRANCH   7   8
ATOM      8  C   UNL d   1       9.101   5.198 -12.772  0.00  0.00     0.119 C 
ATOM      9  N   UNL d   1      10.144   5.136 -13.508  0.00  0.00    -0.134 NA
BRANCH   9  10
ATOM     10  O   UNL d   1       9.893   4.716 -14.816  0.00  0.00    -0.234 OA
ATOM     11  C   UNL d   1      11.117   4.330 -15.410  0.00  0.00     0.211 C 
ENDBRANCH   9  10
BRANCH   8  12
ATOM     12  C   UNL d   1       9.199   5.736 -11.395  0.00  0.00     0.018 A 
ATOM     13  C   UNL d   1       8.781   4.985 -10.276  0.00  0.00     0.004 A 
ATOM     14  C   UNL d   1       8.923   5.509  -8.974  0.00  0.00     0.030 A 
ATOM     15  C   UNL d   1       9.467   6.793  -8.783  0.00  0.00     0.140 A 
ATOM     16  C   UNL d   1       9.863   7.557  -9.895  0.00  0.00     0.030 A 
ATOM     17  F   UNL d   1       9.598   7.301  -7.535  0.00  0.00    -0.204 F 
ATOM     18  C   UNL d   1       9.701   7.035 -11.192  0.00  0.00     0.004 A 
ENDBRANCH   8  12
ENDBRANCH   7   8
ENDBRANCH   1   7
BRANCH   4  19
ATOM     19  C   UNL d   1       5.640   0.132 -15.229  0.00  0.00     0.140 A 
ATOM     20  N   UNL d   1       6.244  -0.021 -16.433  0.00  0.00    -0.227 NA
ATOM     21  C   UNL d   1       5.677  -0.832 -17.345  0.00  0.00     0.101 A 
ATOM     22  C   UNL d   1       4.468  -1.516 -17.115  0.00  0.00     0.021 A 
ATOM     23  C   UNL d   1       3.840  -1.348 -15.868  0.00  0.00     0.005 A 
ATOM     24  C   UNL d   1       4.431  -0.517 -14.908  0.00  0.00     0.037 A 
ENDBRANCH   4  19
TORSDOF 5
