REMARK  6 active torsions:
REMARK  status: ('A' for Active; 'I' for Inactive)
REMARK    1  A    between atoms: C_2  and  N_4 
REMARK    2  A    between atoms: N_4  and  C_5 
REMARK    3  A    between atoms: C_5  and  C_6 
REMARK    4  A    between atoms: C_6  and  C_8 
REMARK    5  A    between atoms: C_11  and  N_12 
REMARK    6  A    between atoms: N_12  and  S_13 
ROOT
ATOM      1  C   UNL d   1      10.509   8.509  -7.121  0.00  0.00     0.010 A 
ATOM      2  C   UNL d   1      11.491   8.689  -8.106  0.00  0.00    -0.000 A 
ATOM      3  C   UNL d   1      11.341   8.095  -9.369  0.00  0.00     0.020 A 
ATOM      4  C   UNL d   1      10.216   7.286  -9.629  0.00  0.00     0.093 A 
ATOM      5  C   UNL d   1       9.258   7.071  -8.620  0.00  0.00     0.020 A 
ATOM      6  C   UNL d   1       9.394   7.689  -7.371  0.00  0.00    -0.000 A 
ENDROOT
BRANCH   1   7
ATOM      7  C   UNL d   1      10.665   9.178  -5.780  0.00  0.00     0.198 C 
ATOM      8  O   UNL d   1      11.396  10.381  -5.810  0.00  0.00    -0.216 OA
BRANCH   7   9
ATOM      9  C   UNL d   1      11.306   8.206  -4.786  0.00  0.00     0.157 C 
BRANCH   9  10
ATOM     10  N   UNL d   1      11.677   8.850  -3.523  0.00  0.00    -0.294 NA
BRANCH  10  11
ATOM     11  C   UNL d   1      11.951   7.963  -2.386  0.00  0.00     0.098 C 
ATOM     12  C   UNL d   1      12.889   8.689  -1.437  0.00  0.00     0.026 C 
ATOM     13  C   UNL d   1      12.584   6.631  -2.779  0.00  0.00     0.026 C 
ENDBRANCH  10  11
ENDBRANCH   9  10
ENDBRANCH   7   9
ENDBRANCH   1   7
BRANCH   4  14
ATOM     14  N   UNL d   1      10.069   6.753 -10.908  0.00  0.00    -0.162 NA
BRANCH  14  15
ATOM     15  S   UNL d   1       9.116   5.425 -11.498  0.00  0.00     0.266 S 
ATOM     16  C   UNL d   1       7.658   6.234 -12.207  0.00  0.00     0.165 C 
ATOM     17  O   UNL d   1       9.904   4.817 -12.569  0.00  0.00    -0.203 OA
ATOM     18  O   UNL d   1       8.721   4.640 -10.324  0.00  0.00    -0.203 OA
ENDBRANCH  14  15
ENDBRANCH   4  14
TORSDOF 6
