REMARK  5 active torsions:
REMARK  status: ('A' for Active; 'I' for Inactive)
REMARK    1  A    between atoms: C_4  and  C_5 
REMARK    2  A    between atoms: C_5  and  C_6 
REMARK    3  A    between atoms: C_6  and  C_7 
REMARK    4  A    between atoms: N_9  and  C_10 
REMARK    5  A    between atoms: C_10  and  C_11 
ROOT
ATOM      1  C   UNL d   1       9.725   6.375 -10.753  0.00  0.00     0.149 C 
ATOM      2  C   UNL d   1       8.443   5.571 -11.030  0.00  0.00     0.280 C 
ATOM      3  N   UNL d   1       7.927   5.787 -12.375  0.00  0.00     0.147 N 
ATOM      4  C   UNL d   1       7.751   7.208 -12.600  0.00  0.00     0.283 C 
ATOM      5  C   UNL d   1       9.037   8.017 -12.337  0.00  0.00     0.178 C 
ATOM      6  O   UNL d   1       9.541   7.764 -11.035  0.00  0.00    -0.352 OA
ENDROOT
BRANCH   3   7
ATOM      7  C   UNL d   1       6.715   5.012 -12.619  0.00  0.00     0.279 C 
BRANCH   7   8
ATOM      8  C   UNL d   1       6.829   3.663 -13.260  0.00  0.00     0.032 A 
ATOM      9  C   UNL d   1       7.926   3.142 -14.037  0.00  0.00     0.017 A 
ATOM     10  C   UNL d   1       7.566   1.839 -14.496  0.00  0.00     0.081 A 
ATOM     11  C   UNL d   1       9.197   3.628 -14.432  0.00  0.00     0.001 A 
ATOM     12  N   UNL d   1       6.294   1.613 -14.012  0.00  0.00    -0.244 NA
ATOM     13  C   UNL d   1       8.432   1.052 -15.283  0.00  0.00     0.019 A 
ATOM     14  C   UNL d   1       5.859   2.696 -13.258  0.00  0.00     0.097 A 
ATOM     15  C   UNL d   1       9.692   1.564 -15.643  0.00  0.00     0.002 A 
ATOM     16  C   UNL d   1      10.071   2.852 -15.221  0.00  0.00     0.000 A 
ENDBRANCH   7   8
ENDBRANCH   3   7
BRANCH   1  17
ATOM     17  C   UNL d   1      10.206   6.253  -9.298  0.00  0.00     0.036 C 
BRANCH  17  18
ATOM     18  C   UNL d   1       9.299   6.968  -8.274  0.00  0.00     0.029 C 
BRANCH  18  19
ATOM     19  C   UNL d   1      10.099   7.699  -7.217  0.00  0.00    -0.022 A 
ATOM     20  C   UNL d   1      10.515   7.034  -6.051  0.00  0.00    -0.004 A 
ATOM     21  C   UNL d   1      11.262   7.716  -5.072  0.00  0.00    -0.000 A 
ATOM     22  C   UNL d   1      11.595   9.075  -5.257  0.00  0.00    -0.000 A 
ATOM     23  C   UNL d   1      11.193   9.742  -6.432  0.00  0.00    -0.000 A 
ATOM     24  C   UNL d   1      10.450   9.051  -7.410  0.00  0.00    -0.004 A 
ENDBRANCH  18  19
ENDBRANCH  17  18
ENDBRANCH   1  17
TORSDOF 5
