REMARK  1 active torsions:
REMARK  status: ('A' for Active; 'I' for Inactive)
REMARK    1  A    between atoms: O_2  and  C_3 
ROOT
ATOM      1  C   UNL d   1      11.945   7.622  -3.898  0.00  0.00     0.090 A 
ATOM      2  C   UNL d   1      11.965   8.803  -3.130  0.00  0.00     0.024 A 
ATOM      3  C   UNL d   1      11.457   9.979  -3.652  0.00  0.00     0.002 A 
ATOM      4  C   UNL d   1      10.941  10.041  -4.957  0.00  0.00    -0.004 A 
ATOM      5  C   UNL d   1      10.936   8.888  -5.761  0.00  0.00    -0.022 A 
ATOM      6  C   UNL d   1      11.463   7.682  -5.236  0.00  0.00    -0.004 A 
ATOM      7  C   UNL d   1      11.469   6.420  -6.074  0.00  0.00     0.030 C 
ATOM      8  C   UNL d   1      11.183   6.641  -7.566  0.00  0.00     0.044 C 
ATOM      9  C   UNL d   1      10.026   7.608  -7.797  0.00  0.00     0.307 C 
ATOM     10  N   UNL d   1       8.812   7.046  -7.242  0.00  0.00     0.616 N 
ATOM     11  C   UNL d   1      10.354   8.971  -7.169  0.00  0.00     0.065 C 
ENDROOT
BRANCH   1  12
ATOM     12  O   UNL d   1      12.367   6.401  -3.420  0.00  0.00    -0.328 OA
ATOM     13  C   UNL d   1      12.450   6.247  -2.015  0.00  0.00     0.181 C 
ENDBRANCH   1  12
TORSDOF 1
