REMARK  7 active torsions:
REMARK  status: ('A' for Active; 'I' for Inactive)
REMARK    1  A    between atoms: C_3  and  S_4 
REMARK    2  A    between atoms: S_4  and  N_7 
REMARK    3  A    between atoms: N_7  and  C_8 
REMARK    4  A    between atoms: N_11  and  C_12 
REMARK    5  A    between atoms: C_12  and  C_13 
REMARK    6  A    between atoms: C_13  and  C_14 
REMARK    7  A    between atoms: C_14  and  C_15 
ROOT
ATOM      1  C   UNL d   1       7.962   5.014 -11.439  0.00  0.00     0.151 C 
ATOM      2  C   UNL d   1       8.704   6.142 -12.172  0.00  0.00     0.063 C 
ATOM      3  C   UNL d   1       9.330   6.981 -11.127  0.00  0.00     0.252 C 
ATOM      4  N   UNL d   1       9.457   6.060 -10.013  0.00  0.00     0.139 N 
ATOM      5  C   UNL d   1       8.191   5.331  -9.980  0.00  0.00     0.275 C 
ENDROOT
BRANCH   1   6
ATOM      6  N   UNL d   1       6.552   4.982 -11.826  0.00  0.00    -0.184 NA
BRANCH   6   7
ATOM      7  S   UNL d   1       5.956   3.744 -12.893  0.00  0.00     0.287 S 
ATOM      8  O   UNL d   1       5.037   4.408 -13.826  0.00  0.00    -0.198 OA
ATOM      9  O   UNL d   1       5.472   2.631 -12.096  0.00  0.00    -0.198 OA
BRANCH   7  10
ATOM     10  C   UNL d   1       7.340   3.180 -13.888  0.00  0.00     0.130 C 
ATOM     11  C   UNL d   1       7.497   1.946 -14.477  0.00  0.00    -0.003 C 
ATOM     12  C   UNL d   1       6.436   0.875 -14.495  0.00  0.00     0.032 C 
ATOM     13  C   UNL d   1       8.801   1.844 -15.121  0.00  0.00     0.005 A 
ATOM     14  C   UNL d   1       9.566   3.026 -14.970  0.00  0.00     0.030 A 
ATOM     15  C   UNL d   1       9.387   0.807 -15.889  0.00  0.00     0.030 A 
ATOM     16  S   UNL d   1       8.589   4.289 -14.341  0.00  0.00    -0.074 SA
ATOM     17  C   UNL d   1      10.879   3.146 -15.430  0.00  0.00     0.009 A 
ATOM     18  C   UNL d   1      11.443   2.114 -16.198  0.00  0.00     0.030 A 
ATOM     19  C   UNL d   1      10.682   0.955 -16.443  0.00  0.00     0.140 A 
ATOM     20  F   UNL d   1      11.195  -0.037 -17.218  0.00  0.00    -0.204 F 
ENDBRANCH   7  10
ENDBRANCH   6   7
ENDBRANCH   1   6
BRANCH   4  21
ATOM     21  C   UNL d   1       9.647   6.796  -8.784  0.00  0.00     0.251 C 
BRANCH  21  22
ATOM     22  C   UNL d   1      10.794   7.840  -8.898  0.00  0.00     0.042 C 
BRANCH  22  23
ATOM     23  C   UNL d   1      10.945   8.696  -7.641  0.00  0.00     0.050 C 
BRANCH  23  24
ATOM     24  C   UNL d   1      11.306   7.901  -6.419  0.00  0.00     0.088 A 
ATOM     25  C   UNL d   1      11.552   8.319  -5.087  0.00  0.00     0.041 A 
ATOM     26  C   UNL d   1      11.855   7.199  -4.323  0.00  0.00     0.126 A 
ATOM     27  C   UNL d   1      11.552   9.592  -4.512  0.00  0.00     0.003 A 
ATOM     28  O   UNL d   1      11.819   6.135  -5.183  0.00  0.00    -0.211 OA
ATOM     29  C   UNL d   1      12.169   7.259  -2.950  0.00  0.00     0.027 A 
ATOM     30  N   UNL d   1      11.441   6.582  -6.467  0.00  0.00    -0.131 NA
ATOM     31  C   UNL d   1      12.178   8.539  -2.366  0.00  0.00     0.002 A 
ATOM     32  C   UNL d   1      11.897   9.684  -3.134  0.00  0.00     0.000 A 
ENDBRANCH  23  24
ENDBRANCH  22  23
ENDBRANCH  21  22
ENDBRANCH   4  21
TORSDOF 7
