REMARK  5 active torsions:
REMARK  status: ('A' for Active; 'I' for Inactive)
REMARK    1  A    between atoms: O_2  and  C_3 
REMARK    2  A    between atoms: C_6  and  N_7 
REMARK       I    between atoms: N_7  and  C_8 
REMARK       I    between atoms: C_8  and  N_10 
REMARK    3  A    between atoms: N_13  and  C_14 
REMARK    4  A    between atoms: C_17  and  C_18 
REMARK    5  A    between atoms: C_27  and  N_28 
ROOT
ATOM      1  N   UNL d   1       7.806   5.113 -11.789  0.00  0.00    -0.193 NA
ATOM      2  C   UNL d   1       8.933   5.828 -11.888  0.00  0.00     0.346 C 
ATOM      3  O   UNL d   1       9.401   6.183 -12.959  0.00  0.00    -0.245 OA
ATOM      4  N   UNL d   1       9.426   6.229 -10.703  0.00  0.00    -0.297 N 
ATOM      5  C   UNL d   1      10.293   7.408 -10.578  0.00  0.00     0.130 C 
ATOM      6  C   UNL d   1       9.832   8.291  -9.415  0.00  0.00     0.126 C 
ATOM      7  N   UNL d   1       9.653   7.468  -8.216  0.00  0.00    -0.344 N 
ATOM      8  C   UNL d   1       8.894   6.215  -8.341  0.00  0.00     0.126 C 
ATOM      9  C   UNL d   1       9.444   5.384  -9.497  0.00  0.00     0.130 C 
ENDROOT
BRANCH   1  10
ATOM     10  C   UNL d   1       7.362   4.108 -12.699  0.00  0.00     0.088 A 
ATOM     11  C   UNL d   1       6.087   3.567 -12.476  0.00  0.00     0.021 A 
ATOM     12  C   UNL d   1       5.635   2.474 -13.239  0.00  0.00     0.027 A 
ATOM     13  C   UNL d   1       6.444   1.898 -14.245  0.00  0.00     0.110 A 
ATOM     14  C   UNL d   1       7.738   2.429 -14.479  0.00  0.00     0.080 A 
ATOM     15  C   UNL d   1       8.189   3.525 -13.693  0.00  0.00     0.038 A 
BRANCH  13  16
ATOM     16  O   UNL d   1       5.992   0.882 -15.062  0.00  0.00    -0.327 OA
ATOM     17  C   UNL d   1       5.063  -0.056 -14.541  0.00  0.00     0.181 C 
ENDBRANCH  13  16
BRANCH  14  18
ATOM     18  N   UNL d   1       8.564   1.824 -15.454  0.00  0.00    -0.343 N 
ATOM     19  C   UNL d   1       9.664   2.605 -16.012  0.00  0.00     0.137 C 
ATOM     20  C   UNL d   1      10.269   1.914 -17.250  0.00  0.00     0.274 C 
ATOM     21  N   UNL d   1      10.727   0.566 -16.900  0.00  0.00     0.143 N 
ATOM     22  C   UNL d   1       9.567  -0.203 -16.450  0.00  0.00     0.274 C 
ATOM     23  C   UNL d   1      11.316  -0.071 -18.054  0.00  0.00     0.286 C 
ATOM     24  C   UNL d   1       8.948   0.439 -15.180  0.00  0.00     0.137 C 
ENDBRANCH  14  18
ENDBRANCH   1  10
BRANCH   7  25
ATOM     25  C   UNL d   1      10.311   7.819  -7.033  0.00  0.00     0.056 A 
ATOM     26  C   UNL d   1      10.771   6.811  -6.153  0.00  0.00     0.017 A 
ATOM     27  C   UNL d   1      11.378   7.128  -4.934  0.00  0.00     0.005 A 
ATOM     28  C   UNL d   1      11.536   8.474  -4.578  0.00  0.00     0.072 A 
ATOM     29  C   UNL d   1      11.137   9.495  -5.463  0.00  0.00     0.005 A 
ATOM     30  C   UNL d   1      10.522   9.176  -6.675  0.00  0.00     0.017 A 
BRANCH  28  31
ATOM     31  C   UNL d   1      12.225   8.843  -3.310  0.00  0.00     0.419 C 
ATOM     32  F   UNL d   1      11.458   9.593  -2.555  0.00  0.00    -0.166 F 
ATOM     33  F   UNL d   1      12.675   7.822  -2.598  0.00  0.00    -0.166 F 
ATOM     34  F   UNL d   1      13.184   9.592  -3.766  0.00  0.00    -0.166 F 
ENDBRANCH  28  31
ENDBRANCH   7  25
TORSDOF 5
