REMARK  2 active torsions:
REMARK  status: ('A' for Active; 'I' for Inactive)
REMARK       I    between atoms: C_2  and  N_4 
REMARK    1  A    between atoms: N_4  and  N_5 
REMARK    2  A    between atoms: C_6  and  C_7 
ROOT
ATOM      1  C   UNL d   1      11.408   7.819  -5.114  0.00  0.00     0.042 A 
ATOM      2  C   UNL d   1      11.855   7.668  -3.771  0.00  0.00     0.060 A 
ATOM      3 CL   UNL d   1      12.271   6.206  -3.069  0.00  0.00    -0.082 Cl
ATOM      4  C   UNL d   1      11.965   8.721  -2.866  0.00  0.00     0.011 A 
ATOM      5  C   UNL d   1      11.613   9.994  -3.266  0.00  0.00     0.002 A 
ATOM      6  C   UNL d   1      11.145  10.190  -4.575  0.00  0.00     0.011 A 
ATOM      7  C   UNL d   1      11.085   9.149  -5.512  0.00  0.00     0.060 A 
ATOM      8 CL   UNL d   1      10.723   9.590  -7.133  0.00  0.00    -0.082 Cl
ENDROOT
BRANCH   1   9
ATOM      9  C   UNL d   1      11.305   6.653  -6.030  0.00  0.00     0.124 C 
ATOM     10  N   UNL d   1      10.571   6.700  -7.091  0.00  0.00    -0.131 NA
BRANCH  10  11
ATOM     11  N   UNL d   1      10.597   5.711  -7.961  0.00  0.00     0.049 NA
ATOM     12  C   UNL d   1       9.821   5.630  -9.096  0.00  0.00     0.804 C 
ATOM     13  N   UNL d   1       9.446   4.499  -9.581  0.00  0.00     0.065 N 
ATOM     14  N   UNL d   1       9.490   6.800  -9.729  0.00  0.00     0.065 N 
ENDBRANCH  10  11
ENDBRANCH   1   9
TORSDOF 2
