REMARK  8 active torsions:
REMARK  status: ('A' for Active; 'I' for Inactive)
REMARK    1  A    between atoms: O_2  and  C_3 
REMARK    2  A    between atoms: C_9  and  N_10 
REMARK    3  A    between atoms: N_13  and  C_14 
REMARK    4  A    between atoms: C_14  and  C_15 
REMARK    5  A    between atoms: C_15  and  C_16 
REMARK    6  A    between atoms: C_16  and  C_17 
REMARK    7  A    between atoms: C_17  and  N_18 
REMARK       I    between atoms: N_18  and  C_19 
REMARK    8  A    between atoms: C_19  and  C_21 
ROOT
ATOM      1  N   UNL d   1       6.420   2.670 -13.695  0.00  0.00    -0.328 N 
ATOM      2  C   UNL d   1       5.591   3.558 -12.919  0.00  0.00     0.138 C 
ATOM      3  C   UNL d   1       6.426   4.165 -11.777  0.00  0.00     0.274 C 
ATOM      4  N   UNL d   1       7.666   4.763 -12.295  0.00  0.00     0.141 N 
ATOM      5  C   UNL d   1       8.539   3.779 -12.932  0.00  0.00     0.274 C 
ATOM      6  C   UNL d   1       7.742   3.122 -14.084  0.00  0.00     0.138 C 
ENDROOT
BRANCH   4   7
ATOM      7  C   UNL d   1       8.343   5.357 -11.145  0.00  0.00     0.251 C 
BRANCH   7   8
ATOM      8  C   UNL d   1       9.588   6.176 -11.535  0.00  0.00     0.037 C 
BRANCH   8   9
ATOM      9  C   UNL d   1      10.333   6.787 -10.340  0.00  0.00     0.029 C 
BRANCH   9  10
ATOM     10  C   UNL d   1       9.455   7.527  -9.328  0.00  0.00     0.129 C 
BRANCH  10  11
ATOM     11  N   UNL d   1      10.120   7.624  -8.054  0.00  0.00    -0.234 NA
ATOM     12  C   UNL d   1      10.934   8.610  -7.680  0.00  0.00     0.275 C 
ATOM     13  O   UNL d   1      11.253   9.533  -8.421  0.00  0.00    -0.266 OA
BRANCH  12  14
ATOM     14  C   UNL d   1      11.418   8.519  -6.261  0.00  0.00     0.060 A 
ATOM     15  C   UNL d   1      11.105   7.390  -5.456  0.00  0.00     0.031 A 
ATOM     16  C   UNL d   1      11.617   7.346  -4.157  0.00  0.00     0.119 A 
ATOM     17  C   UNL d   1      12.398   8.361  -3.656  0.00  0.00     0.119 A 
ATOM     18  O   UNL d   1      11.503   6.393  -3.229  0.00  0.00    -0.300 OA
ATOM     19  C   UNL d   1      12.769   9.449  -4.431  0.00  0.00     0.026 A 
ATOM     20  O   UNL d   1      12.782   8.063  -2.404  0.00  0.00    -0.300 OA
ATOM     21  C   UNL d   1      12.235   9.559  -5.734  0.00  0.00     0.007 A 
ATOM     22  C   UNL d   1      12.208   6.830  -2.115  0.00  0.00     0.304 A 
ENDBRANCH  12  14
ENDBRANCH  10  11
ENDBRANCH   9  10
ENDBRANCH   8   9
ENDBRANCH   7   8
ENDBRANCH   4   7
BRANCH   1  23
ATOM     23  C   UNL d   1       6.010   1.329 -13.952  0.00  0.00     0.169 A 
ATOM     24  N   UNL d   1       5.444   0.588 -13.018  0.00  0.00    -0.109 NA
ATOM     25  O   UNL d   1       5.162  -0.660 -13.657  0.00  0.00    -0.210 OA
ATOM     26  C   UNL d   1       5.546  -0.625 -14.979  0.00  0.00     0.128 A 
ATOM     27  C   UNL d   1       5.408  -1.576 -16.004  0.00  0.00     0.029 A 
ATOM     28  C   UNL d   1       6.097   0.646 -15.179  0.00  0.00     0.063 A 
ATOM     29  C   UNL d   1       5.835  -1.208 -17.298  0.00  0.00     0.026 A 
ATOM     30  C   UNL d   1       6.380   0.079 -17.558  0.00  0.00     0.094 A 
ATOM     31  C   UNL d   1       6.528   1.010 -16.487  0.00  0.00     0.029 A 
BRANCH  30  32
ATOM     32  O   UNL d   1       6.776   0.528 -18.802  0.00  0.00    -0.328 OA
ATOM     33  C   UNL d   1       6.668  -0.388 -19.881  0.00  0.00     0.181 C 
ENDBRANCH  30  32
ENDBRANCH   1  23
TORSDOF 8
