REMARK  8 active torsions:
REMARK  status: ('A' for Active; 'I' for Inactive)
REMARK       I    between atoms: N_2  and  C_3 
REMARK    1  A    between atoms: C_3  and  C_5 
REMARK    2  A    between atoms: C_7  and  O_8 
REMARK    3  A    between atoms: O_8  and  C_9 
REMARK    4  A    between atoms: C_9  and  C_10 
REMARK    5  A    between atoms: C_10  and  C_11 
REMARK    6  A    between atoms: C_11  and  C_12 
REMARK    7  A    between atoms: C_12  and  N_13 
REMARK    8  A    between atoms: N_16  and  C_17 
ROOT
ATOM      1  C   UNL d   1       9.358   5.669 -11.679  0.00  0.00     0.038 C 
ENDROOT
BRANCH   1   2
ATOM      2  C   UNL d   1       9.280   4.470 -12.627  0.00  0.00     0.035 C 
BRANCH   2   3
ATOM      3  C   UNL d   1       9.644   4.838 -14.075  0.00  0.00     0.149 C 
BRANCH   3   4
ATOM      4  O   UNL d   1       9.648   3.656 -14.859  0.00  0.00    -0.331 OA
BRANCH   4   5
ATOM      5  C   UNL d   1       9.745   3.777 -16.228  0.00  0.00     0.094 A 
ATOM      6  C   UNL d   1       9.558   2.602 -16.979  0.00  0.00     0.030 A 
ATOM      7  C   UNL d   1       9.616   2.597 -18.395  0.00  0.00     0.070 A 
ATOM      8  C   UNL d   1       9.861   3.830 -19.064  0.00  0.00     0.062 A 
ATOM      9  C   UNL d   1      10.044   5.007 -18.317  0.00  0.00     0.014 A 
ATOM     10 CL   UNL d   1       9.964   3.968 -20.788  0.00  0.00    -0.082 Cl
ATOM     11  C   UNL d   1       9.999   4.989 -16.911  0.00  0.00     0.025 A 
BRANCH   7  12
ATOM     12  C   UNL d   1       9.367   1.308 -19.138  0.00  0.00     0.276 C 
ATOM     13  N   UNL d   1       9.866   0.212 -18.544  0.00  0.00    -0.232 NA
ATOM     14  C   UNL d   1       9.733  -1.137 -19.075  0.00  0.00     0.155 C 
ATOM     15  O   UNL d   1       8.758   1.267 -20.206  0.00  0.00    -0.266 OA
ENDBRANCH   7  12
ENDBRANCH   4   5
ENDBRANCH   3   4
ENDBRANCH   2   3
ENDBRANCH   1   2
BRANCH   1  16
ATOM     16  C   UNL d   1       9.037   5.323 -10.219  0.00  0.00     0.251 C 
BRANCH  16  17
ATOM     17  N   UNL d   1       9.418   6.437  -9.333  0.00  0.00     0.141 N 
ATOM     18  C   UNL d   1      10.837   6.348  -9.016  0.00  0.00     0.274 C 
ATOM     19  C   UNL d   1      11.345   7.448  -8.086  0.00  0.00     0.137 C 
ATOM     20  N   UNL d   1      10.525   7.484  -6.891  0.00  0.00    -0.344 N 
ATOM     21  C   UNL d   1       9.088   7.482  -7.117  0.00  0.00     0.137 C 
ATOM     22  C   UNL d   1       8.727   6.300  -8.059  0.00  0.00     0.274 C 
BRANCH  20  23
ATOM     23  C   UNL d   1      11.113   7.547  -5.610  0.00  0.00     0.068 C 
ATOM     24  C   UNL d   1      11.238   8.702  -4.854  0.00  0.00     0.084 C 
ATOM     25  C   UNL d   1      11.811   8.617  -3.559  0.00  0.00     0.070 C 
ATOM     26 CL   UNL d   1      10.781  10.229  -5.514  0.00  0.00    -0.080 Cl
ATOM     27  C   UNL d   1      12.302   7.449  -2.990  0.00  0.00     0.012 C 
ATOM     28 CL   UNL d   1      11.844   9.986  -2.647  0.00  0.00    -0.081 Cl
ATOM     29  C   UNL d   1      12.258   6.324  -3.792  0.00  0.00     0.002 C 
ATOM     30  C   UNL d   1      11.720   6.385  -5.117  0.00  0.00     0.018 C 
ENDBRANCH  20  23
ENDBRANCH  16  17
ENDBRANCH   1  16
TORSDOF 8
