REMARK  7 active torsions:
REMARK  status: ('A' for Active; 'I' for Inactive)
REMARK    1  A    between atoms: N_2  and  S_4 
REMARK    2  A    between atoms: S_4  and  N_7 
REMARK    3  A    between atoms: N_7  and  C_8 
REMARK    4  A    between atoms: C_11  and  C_12 
REMARK    5  A    between atoms: C_12  and  C_13 
REMARK    6  A    between atoms: C_13  and  N_14 
REMARK    7  A    between atoms: N_17  and  C_18 
ROOT
ATOM      1  N   UNL d   1       8.909   5.886  -9.794  0.00  0.00     0.141 N 
ATOM      2  C   UNL d   1      10.290   6.381  -9.758  0.00  0.00     0.274 C 
ATOM      3  C   UNL d   1      10.422   7.559  -8.792  0.00  0.00     0.138 C 
ATOM      4  N   UNL d   1       9.941   7.156  -7.484  0.00  0.00    -0.330 N 
ATOM      5  C   UNL d   1       8.637   6.553  -7.429  0.00  0.00     0.138 C 
ATOM      6  C   UNL d   1       8.555   5.405  -8.453  0.00  0.00     0.274 C 
ENDROOT
BRANCH   1   7
ATOM      7  C   UNL d   1       8.765   4.777 -10.727  0.00  0.00     0.250 C 
BRANCH   7   8
ATOM      8  C   UNL d   1       8.789   5.246 -12.195  0.00  0.00     0.035 C 
BRANCH   8   9
ATOM      9  C   UNL d   1       8.936   4.103 -13.214  0.00  0.00     0.002 C 
ATOM     10  C   UNL d   1       8.959   4.690 -14.635  0.00  0.00     0.002 C 
ATOM     11  C   UNL d   1       9.150   3.608 -15.685  0.00  0.00     0.025 C 
ATOM     12  C   UNL d   1      10.424   2.777 -15.445  0.00  0.00     0.117 C 
ATOM     13  C   UNL d   1      10.428   2.194 -14.038  0.00  0.00     0.025 C 
ATOM     14  C   UNL d   1      10.225   3.291 -12.993  0.00  0.00     0.002 C 
BRANCH  12  15
ATOM     15  N   UNL d   1      10.558   1.699 -16.422  0.00  0.00    -0.177 NA
BRANCH  15  16
ATOM     16  S   UNL d   1       9.186   0.828 -17.009  0.00  0.00     0.322 S 
ATOM     17  O   UNL d   1       8.417   1.712 -17.907  0.00  0.00    -0.186 OA
ATOM     18  O   UNL d   1       8.533   0.148 -15.884  0.00  0.00    -0.186 OA
BRANCH  16  19
ATOM     19  N   UNL d   1       9.972  -0.344 -17.987  0.00  0.00    -0.160 NA
ATOM     20  C   UNL d   1      11.094   0.108 -18.823  0.00  0.00     0.108 C 
ATOM     21  C   UNL d   1       9.043  -1.206 -18.720  0.00  0.00     0.108 C 
ENDBRANCH  16  19
ENDBRANCH  15  16
ENDBRANCH  12  15
ENDBRANCH   8   9
ENDBRANCH   7   8
ENDBRANCH   1   7
BRANCH   4  22
ATOM     22  C   UNL d   1      10.689   7.382  -6.303  0.00  0.00     0.138 A 
ATOM     23  C   UNL d   1      11.320   8.600  -6.040  0.00  0.00     0.036 A 
ATOM     24  C   UNL d   1      12.065   8.778  -4.892  0.00  0.00     0.095 A 
ATOM     25  C   UNL d   1      11.329   9.822  -6.864  0.00  0.00     0.064 C 
ATOM     26  C   UNL d   1      12.219   7.734  -3.983  0.00  0.00     0.045 A 
ATOM     27  O   UNL d   1      12.639   9.986  -4.853  0.00  0.00    -0.331 OA
ATOM     28  C   UNL d   1      11.543   6.545  -4.306  0.00  0.00     0.103 A 
ATOM     29  N   UNL d   1      10.802   6.400  -5.422  0.00  0.00    -0.228 NA
ATOM     30  C   UNL d   1      12.111  10.760  -5.948  0.00  0.00     0.154 C 
ENDBRANCH   4  22
TORSDOF 7
