REMARK  7 active torsions:
REMARK  status: ('A' for Active; 'I' for Inactive)
REMARK       I    between atoms: C_2  and  N_3 
REMARK    1  A    between atoms: C_2  and  C_23 
REMARK    2  A    between atoms: N_3  and  C_4 
REMARK    3  A    between atoms: C_4  and  C_5 
REMARK    4  A    between atoms: C_5  and  C_6 
REMARK    5  A    between atoms: C_6  and  C_8 
REMARK    6  A    between atoms: C_8  and  N_9 
REMARK    7  A    between atoms: N_12  and  C_13 
ROOT
ATOM      1  C   UNL d   1       8.352   6.790 -11.270  0.00  0.00     0.061 C 
ENDROOT
BRANCH   1   2
ATOM      2  C   UNL d   1       7.038   6.344 -11.959  0.00  0.00     0.132 C 
BRANCH   2   3
ATOM      3  N   UNL d   1       7.138   5.031 -12.614  0.00  0.00    -0.234 NA
ATOM      4  C   UNL d   1       8.223   4.370 -13.028  0.00  0.00     0.275 C 
ATOM      5  O   UNL d   1       9.395   4.582 -12.751  0.00  0.00    -0.266 OA
BRANCH   4   6
ATOM      6  C   UNL d   1       7.998   3.285 -14.015  0.00  0.00     0.058 A 
ATOM      7  C   UNL d   1       9.100   2.845 -14.771  0.00  0.00     0.004 A 
ATOM      8  C   UNL d   1       8.932   1.786 -15.635  0.00  0.00    -0.004 A 
ATOM      9  C   UNL d   1       7.683   1.177 -15.771  0.00  0.00    -0.018 A 
ATOM     10  C   UNL d   1       9.874   1.112 -16.513  0.00  0.00    -0.004 A 
ATOM     11  C   UNL d   1       6.574   1.593 -15.007  0.00  0.00    -0.004 A 
ATOM     12  C   UNL d   1       7.714   0.084 -16.782  0.00  0.00     0.053 A 
ATOM     13  C   UNL d   1       6.719   2.666 -14.135  0.00  0.00     0.004 A 
ATOM     14  C   UNL d   1       9.176   0.107 -17.180  0.00  0.00    -0.018 A 
ATOM     15  C   UNL d   1       9.815  -0.733 -18.104  0.00  0.00    -0.004 A 
ATOM     16  C   UNL d   1      11.185  -0.519 -18.355  0.00  0.00    -0.000 A 
ATOM     17  C   UNL d   1      11.882   0.514 -17.685  0.00  0.00    -0.000 A 
ATOM     18  C   UNL d   1      11.236   1.340 -16.744  0.00  0.00    -0.000 A 
ENDBRANCH   4   6
ENDBRANCH   2   3
ENDBRANCH   1   2
BRANCH   1  19
ATOM     19  C   UNL d   1       8.822   8.178 -11.725  0.00  0.00     0.188 C 
ATOM     20  O   UNL d   1       9.716   7.989 -12.788  0.00  0.00    -0.221 OA
BRANCH  19  21
ATOM     21  C   UNL d   1       9.579   8.953 -10.642  0.00  0.00     0.283 C 
BRANCH  21  22
ATOM     22  N   UNL d   1       9.648   8.281  -9.352  0.00  0.00     0.144 N 
ATOM     23  C   UNL d   1      11.010   8.065  -8.941  0.00  0.00     0.274 C 
ATOM     24  C   UNL d   1      11.044   7.331  -7.612  0.00  0.00     0.137 C 
ATOM     25  N   UNL d   1      10.272   8.067  -6.617  0.00  0.00    -0.344 N 
ATOM     26  C   UNL d   1       8.890   8.353  -6.956  0.00  0.00     0.137 C 
ATOM     27  C   UNL d   1       8.928   9.031  -8.316  0.00  0.00     0.274 C 
BRANCH  25  28
ATOM     28  C   UNL d   1      10.840   8.467  -5.425  0.00  0.00     0.068 A 
ATOM     29  C   UNL d   1      11.565   7.561  -4.622  0.00  0.00     0.084 A 
ATOM     30  C   UNL d   1      12.066   7.927  -3.364  0.00  0.00     0.070 A 
ATOM     31 CL   UNL d   1      11.862   5.995  -5.097  0.00  0.00    -0.080 Cl
ATOM     32  C   UNL d   1      11.884   9.185  -2.849  0.00  0.00     0.012 A 
ATOM     33 CL   UNL d   1      12.739   6.686  -2.434  0.00  0.00    -0.081 Cl
ATOM     34  C   UNL d   1      11.146  10.036  -3.648  0.00  0.00     0.002 A 
ATOM     35  C   UNL d   1      10.655   9.752  -4.909  0.00  0.00     0.018 A 
ENDBRANCH  25  28
ENDBRANCH  21  22
ENDBRANCH  19  21
ENDBRANCH   1  19
TORSDOF 7
