REMARK  5 active torsions:
REMARK  status: ('A' for Active; 'I' for Inactive)
REMARK    1  A    between atoms: S_2  and  C_4 
REMARK    2  A    between atoms: S_2  and  C_14 
REMARK    3  A    between atoms: N_16  and  C_17 
REMARK    4  A    between atoms: C_17  and  C_18 
REMARK    5  A    between atoms: C_27  and  N_28 
ROOT
ATOM      1  C   UNL d   1       9.847   4.067 -14.244  0.00  0.00     0.190 A 
ATOM      2  N   UNL d   1       9.839   5.191 -13.579  0.00  0.00    -0.158 NA
ATOM      3  N   UNL d   1       8.605   5.267 -13.013  0.00  0.00    -0.246 N 
ATOM      4  C   UNL d   1       7.803   4.174 -13.315  0.00  0.00     0.081 A 
ATOM      5  C   UNL d   1       6.493   3.809 -12.962  0.00  0.00     0.020 A 
ATOM      6  C   UNL d   1       5.963   2.604 -13.458  0.00  0.00     0.018 A 
ATOM      7  C   UNL d   1       6.731   1.775 -14.309  0.00  0.00     0.056 A 
ATOM      8  C   UNL d   1       8.049   2.161 -14.646  0.00  0.00     0.021 A 
ATOM      9  C   UNL d   1       8.610   3.359 -14.154  0.00  0.00     0.049 A 
ENDROOT
BRANCH   1  10
ATOM     10  S   UNL d   1      11.230   3.578 -15.227  0.00  0.00     0.228 S 
ATOM     11  O   UNL d   1      11.055   2.159 -15.570  0.00  0.00    -0.216 OA
ATOM     12  O   UNL d   1      12.413   4.015 -14.468  0.00  0.00    -0.216 OA
BRANCH  10  13
ATOM     13  C   UNL d   1      11.132   4.530 -16.764  0.00  0.00     0.089 A 
ATOM     14  C   UNL d   1      12.237   4.590 -17.657  0.00  0.00     0.011 A 
ATOM     15  C   UNL d   1      12.120   5.341 -18.859  0.00  0.00     0.001 A 
ATOM     16  C   UNL d   1      13.455   3.919 -17.397  0.00  0.00     0.001 A 
ATOM     17  C   UNL d   1      10.916   6.007 -19.166  0.00  0.00     0.000 A 
ATOM     18  C   UNL d   1      13.206   5.422 -19.758  0.00  0.00     0.000 A 
ATOM     19  C   UNL d   1       9.820   5.926 -18.290  0.00  0.00     0.001 A 
ATOM     20  C   UNL d   1       9.925   5.186 -17.098  0.00  0.00     0.011 A 
ATOM     21  C   UNL d   1      14.414   4.759 -19.474  0.00  0.00     0.000 A 
ATOM     22  C   UNL d   1      14.536   4.008 -18.293  0.00  0.00     0.000 A 
ENDBRANCH  10  13
ENDBRANCH   1  10
BRANCH   3  23
ATOM     23  C   UNL d   1       8.291   6.418 -12.190  0.00  0.00     0.154 C 
BRANCH  23  24
ATOM     24  C   UNL d   1       8.976   6.323 -10.841  0.00  0.00     0.002 A 
ATOM     25  C   UNL d   1       8.669   5.259  -9.967  0.00  0.00    -0.002 A 
ATOM     26  C   UNL d   1       9.285   5.188  -8.706  0.00  0.00    -0.000 A 
ATOM     27  C   UNL d   1      10.200   6.182  -8.308  0.00  0.00    -0.000 A 
ATOM     28  C   UNL d   1      10.502   7.250  -9.175  0.00  0.00    -0.000 A 
ATOM     29  C   UNL d   1       9.886   7.322 -10.438  0.00  0.00    -0.002 A 
ENDBRANCH  23  24
ENDBRANCH   3  23
BRANCH   7  30
ATOM     30  N   UNL d   1       6.211   0.567 -14.806  0.00  0.00    -0.344 N 
ATOM     31  C   UNL d   1       5.330  -0.289 -14.026  0.00  0.00     0.140 C 
ATOM     32  C   UNL d   1       4.064  -0.617 -14.839  0.00  0.00     0.314 C 
ATOM     33  N   UNL d   1       4.427  -1.211 -16.125  0.00  0.00     0.343 N 
ATOM     34  C   UNL d   1       5.241  -0.271 -16.898  0.00  0.00     0.314 C 
ATOM     35  C   UNL d   1       6.538   0.076 -16.140  0.00  0.00     0.140 C 
ENDBRANCH   7  30
TORSDOF 5
