REMARK  7 active torsions:
REMARK  status: ('A' for Active; 'I' for Inactive)
REMARK    1  A    between atoms: S_2  and  C_5 
REMARK    2  A    between atoms: C_8  and  C_9 
REMARK       I    between atoms: C_9  and  N_11 
REMARK    3  A    between atoms: N_11  and  C_12 
REMARK    4  A    between atoms: C_15  and  C_16 
REMARK    5  A    between atoms: C_16  and  C_17 
REMARK    6  A    between atoms: C_17  and  N_18 
REMARK    7  A    between atoms: N_21  and  C_22 
ROOT
ATOM      1  C   UNL d   1       8.846   6.094 -10.485  0.00  0.00     0.107 C 
ATOM      2  C   UNL d   1       9.822   6.732 -11.472  0.00  0.00     0.024 C 
ATOM      3  C   UNL d   1       9.473   6.401 -12.908  0.00  0.00     0.002 C 
ATOM      4  C   UNL d   1       9.414   4.921 -13.195  0.00  0.00     0.002 C 
ATOM      5  C   UNL d   1       8.421   4.275 -12.229  0.00  0.00     0.002 C 
ATOM      6  C   UNL d   1       8.765   4.577 -10.749  0.00  0.00     0.024 C 
ENDROOT
BRANCH   4   7
ATOM      7  C   UNL d   1       9.014   4.660 -14.661  0.00  0.00     0.035 C 
BRANCH   7   8
ATOM      8  C   UNL d   1       9.630   3.357 -15.197  0.00  0.00     0.250 C 
BRANCH   8   9
ATOM      9  N   UNL d   1       8.844   2.814 -16.299  0.00  0.00     0.141 N 
ATOM     10  C   UNL d   1       9.655   1.874 -17.084  0.00  0.00     0.274 C 
ATOM     11  C   UNL d   1       8.833   1.333 -18.266  0.00  0.00     0.138 C 
ATOM     12  N   UNL d   1       7.585   0.735 -17.778  0.00  0.00    -0.330 N 
ATOM     13  C   UNL d   1       6.796   1.557 -16.868  0.00  0.00     0.138 C 
ATOM     14  C   UNL d   1       7.681   2.096 -15.751  0.00  0.00     0.274 C 
BRANCH  12  15
ATOM     15  C   UNL d   1       7.193  -0.568 -18.152  0.00  0.00     0.138 A 
ATOM     16  C   UNL d   1       5.838  -0.966 -18.246  0.00  0.00     0.036 A 
ATOM     17  C   UNL d   1       5.494  -2.269 -18.584  0.00  0.00     0.095 A 
ATOM     18  C   UNL d   1       4.583  -0.185 -18.090  0.00  0.00     0.064 C 
ATOM     19  C   UNL d   1       6.498  -3.215 -18.808  0.00  0.00     0.045 A 
ATOM     20  O   UNL d   1       4.149  -2.470 -18.695  0.00  0.00    -0.331 OA
ATOM     21  C   UNL d   1       7.824  -2.753 -18.704  0.00  0.00     0.103 A 
ATOM     22  N   UNL d   1       8.174  -1.469 -18.420  0.00  0.00    -0.228 NA
ATOM     23  C   UNL d   1       3.508  -1.194 -18.521  0.00  0.00     0.154 C 
ENDBRANCH  12  15
ENDBRANCH   8   9
ENDBRANCH   7   8
ENDBRANCH   4   7
BRANCH   1  24
ATOM     24  N   UNL d   1       9.237   6.384  -9.096  0.00  0.00    -0.236 NA
ATOM     25  C   UNL d   1       9.639   7.577  -8.589  0.00  0.00     0.281 C 
ATOM     26  O   UNL d   1       9.591   8.650  -9.178  0.00  0.00    -0.265 OA
BRANCH  25  27
ATOM     27  C   UNL d   1      10.220   7.547  -7.251  0.00  0.00     0.087 A 
ATOM     28  C   UNL d   1      10.193   6.560  -6.321  0.00  0.00     0.013 A 
ATOM     29  C   UNL d   1      10.878   6.900  -5.125  0.00  0.00     0.018 A 
ATOM     30  C   UNL d   1      11.401   8.161  -5.181  0.00  0.00     0.113 A 
ATOM     31  S   UNL d   1      11.064   8.962  -6.688  0.00  0.00    -0.071 SA
BRANCH  30  32
ATOM     32  S   UNL d   1      12.277   8.984  -3.903  0.00  0.00     0.197 S 
ATOM     33  C   UNL d   1      13.558   9.856  -4.845  0.00  0.00     0.145 C 
ATOM     34  O   UNL d   1      12.891   7.931  -3.073  0.00  0.00    -0.221 OA
ATOM     35  O   UNL d   1      11.365   9.981  -3.331  0.00  0.00    -0.221 OA
ENDBRANCH  30  32
ENDBRANCH  25  27
ENDBRANCH   1  24
TORSDOF 7
