REMARK  0 active torsions:
REMARK  status: ('A' for Active; 'I' for Inactive)
ROOT
ATOM      1  C   UNL d   1      11.670   6.082  -6.642  0.00  0.00     0.013 C 
ATOM      2  C   UNL d   1      10.738   7.162  -7.126  0.00  0.00     0.114 A 
ATOM      3  C   UNL d   1       9.604   6.566  -8.002  0.00  0.00     0.280 A 
ATOM      4  O   UNL d   1       8.895   5.598  -7.696  0.00  0.00    -0.264 OA
ATOM      5  O   UNL d   1       9.487   7.161  -9.153  0.00  0.00    -0.243 OA
ATOM      6  C   UNL d   1      10.390   8.109  -9.275  0.00  0.00     0.280 A 
ATOM      7  O   UNL d   1      10.524   8.802 -10.268  0.00  0.00    -0.264 OA
ATOM      8  C   UNL d   1      11.296   8.206  -8.045  0.00  0.00     0.114 A 
ATOM      9  C   UNL d   1      12.744   8.094  -8.526  0.00  0.00     0.013 C 
ATOM     10  C   UNL d   1      11.029   9.498  -7.244  0.00  0.00     0.125 C 
ATOM     11  C   UNL d   1      11.871   9.687  -5.978  0.00  0.00     0.033 C 
ATOM     12  C   UNL d   1      11.314   8.632  -5.052  0.00  0.00     0.033 C 
ATOM     13  C   UNL d   1      10.223   7.987  -5.933  0.00  0.00     0.125 C 
ATOM     14  O   UNL d   1       9.796   9.146  -6.611  0.00  0.00    -0.358 OA
ENDROOT
TORSDOF 0
