REMARK  7 active torsions:
REMARK  status: ('A' for Active; 'I' for Inactive)
REMARK    1  A    between atoms: C_2  and  C_3 
REMARK       I    between atoms: C_2  and  N_10 
REMARK    2  A    between atoms: C_3  and  C_4 
REMARK    3  A    between atoms: N_10  and  C_11 
REMARK    4  A    between atoms: C_14  and  C_15 
REMARK    5  A    between atoms: C_15  and  C_16 
REMARK    6  A    between atoms: C_16  and  N_17 
REMARK    7  A    between atoms: C_20  and  C_21 
ROOT
ATOM      1  C   UNL d   1       9.239   6.525 -11.523  0.00  0.00     0.035 C 
ENDROOT
BRANCH   1   2
ATOM      2  C   UNL d   1       9.464   7.628 -10.490  0.00  0.00     0.002 C 
ATOM      3  C   UNL d   1       9.229   7.110  -9.061  0.00  0.00     0.002 C 
ATOM      4  C   UNL d   1       9.444   8.238  -8.063  0.00  0.00     0.024 C 
ATOM      5  C   UNL d   1      10.912   8.757  -8.161  0.00  0.00     0.106 C 
ATOM      6  C   UNL d   1      11.187   9.248  -9.584  0.00  0.00     0.024 C 
ATOM      7  C   UNL d   1      10.898   8.137 -10.567  0.00  0.00     0.002 C 
BRANCH   5   8
ATOM      8  N   UNL d   1      11.157   9.826  -7.228  0.00  0.00    -0.240 NA
ATOM      9  C   UNL d   1      11.072   9.743  -5.899  0.00  0.00     0.251 C 
ATOM     10  O   UNL d   1      11.062  10.769  -5.229  0.00  0.00    -0.271 OA
BRANCH   9  11
ATOM     11  C   UNL d   1      10.964   8.355  -5.270  0.00  0.00     0.090 C 
BRANCH  11  12
ATOM     12  C   UNL d   1      11.967   8.133  -4.146  0.00  0.00     0.014 C 
ATOM     13  C   UNL d   1      11.820   9.103  -2.973  0.00  0.00     0.033 C 
ATOM     14  C   UNL d   1      12.810   8.766  -1.879  0.00  0.00     0.142 C 
ATOM     15  O   UNL d   1      12.655   7.415  -1.488  0.00  0.00    -0.354 OA
ATOM     16  C   UNL d   1      12.834   6.465  -2.509  0.00  0.00     0.142 C 
ATOM     17  C   UNL d   1      11.859   6.676  -3.657  0.00  0.00     0.033 C 
ENDBRANCH  11  12
ENDBRANCH   9  11
ENDBRANCH   5   8
ENDBRANCH   1   2
BRANCH   1  18
ATOM     18  C   UNL d   1       7.756   6.168 -11.741  0.00  0.00     0.250 C 
BRANCH  18  19
ATOM     19  N   UNL d   1       7.566   5.164 -12.801  0.00  0.00     0.137 N 
ATOM     20  C   UNL d   1       8.466   4.029 -12.640  0.00  0.00     0.251 C 
ATOM     21  C   UNL d   1       8.283   3.031 -13.779  0.00  0.00     0.040 C 
ATOM     22  C   UNL d   1       6.840   2.518 -13.869  0.00  0.00     0.028 C 
ATOM     23  C   UNL d   1       5.869   3.697 -13.851  0.00  0.00     0.040 C 
ATOM     24  C   UNL d   1       6.182   4.699 -12.725  0.00  0.00     0.251 C 
BRANCH  22  25
ATOM     25  C   UNL d   1       6.670   1.607 -15.070  0.00  0.00     0.004 A 
ATOM     26  C   UNL d   1       5.745   0.526 -15.204  0.00  0.00     0.021 A 
ATOM     27  C   UNL d   1       5.937   0.015 -16.514  0.00  0.00     0.100 A 
ATOM     28  C   UNL d   1       4.723  -0.064 -14.422  0.00  0.00     0.002 A 
ATOM     29  O   UNL d   1       6.936   0.718 -17.147  0.00  0.00    -0.305 OA
ATOM     30  C   UNL d   1       5.176  -1.029 -17.050  0.00  0.00     0.025 A 
ATOM     31  C   UNL d   1       7.374   1.651 -16.247  0.00  0.00     0.118 A 
ATOM     32  C   UNL d   1       4.174  -1.596 -16.247  0.00  0.00     0.002 A 
ATOM     33  C   UNL d   1       3.939  -1.116 -14.944  0.00  0.00     0.000 A 
ENDBRANCH  22  25
ENDBRANCH  18  19
ENDBRANCH   1  18
TORSDOF 7
