REMARK  5 active torsions:
REMARK  status: ('A' for Active; 'I' for Inactive)
REMARK    1  A    between atoms: N_11  and  C_12 
REMARK    2  A    between atoms: N_15  and  C_16 
REMARK    3  A    between atoms: N_19  and  C_20 
REMARK    4  A    between atoms: C_20  and  C_21 
REMARK    5  A    between atoms: C_26  and  C_27 
ROOT
ATOM      1  C   UNL d   1      10.843   7.312  -7.101  0.00  0.00     0.094 C 
ATOM      2  C   UNL d   1      11.176   7.868  -8.502  0.00  0.00     0.058 C 
ATOM      3  C   UNL d   1      10.653   6.981  -9.612  0.00  0.00     0.252 C 
ATOM      4  N   UNL d   1       9.215   6.784  -9.466  0.00  0.00     0.135 N 
ATOM      5  C   UNL d   1       8.868   6.167  -8.178  0.00  0.00     0.252 C 
ATOM      6  C   UNL d   1       9.332   7.046  -7.003  0.00  0.00     0.058 C 
ENDROOT
BRANCH   4   7
ATOM      7  C   UNL d   1       8.600   6.084 -10.600  0.00  0.00     0.223 C 
ATOM      8  C   UNL d   1       8.713   6.869 -11.929  0.00  0.00     0.069 C 
ATOM      9  C   UNL d   1       8.067   6.059 -13.055  0.00  0.00     0.253 C 
ATOM     10  N   UNL d   1       8.770   4.788 -13.189  0.00  0.00     0.141 N 
ATOM     11  C   UNL d   1       8.544   4.000 -11.996  0.00  0.00     0.253 C 
ATOM     12  C   UNL d   1       9.171   4.689 -10.790  0.00  0.00     0.069 C 
BRANCH  10  13
ATOM     13  C   UNL d   1       8.263   4.050 -14.331  0.00  0.00     0.277 C 
BRANCH  13  14
ATOM     14  C   UNL d   1       9.041   2.793 -14.676  0.00  0.00     0.015 A 
ATOM     15  C   UNL d   1      10.412   2.835 -15.064  0.00  0.00     0.069 A 
ATOM     16  C   UNL d   1      11.045   1.622 -15.415  0.00  0.00     0.004 A 
ATOM     17  C   UNL d   1      10.352   0.400 -15.358  0.00  0.00    -0.000 A 
ATOM     18  C   UNL d   1       9.007   0.368 -14.963  0.00  0.00    -0.000 A 
ATOM     19  C   UNL d   1       8.350   1.558 -14.626  0.00  0.00    -0.002 A 
BRANCH  15  20
ATOM     20  C   UNL d   1      11.214   4.140 -15.173  0.00  0.00     0.418 C 
ATOM     21  F   UNL d   1      12.477   3.903 -15.529  0.00  0.00    -0.166 F 
ATOM     22  F   UNL d   1      10.658   4.918 -16.105  0.00  0.00    -0.166 F 
ATOM     23  F   UNL d   1      11.291   4.806 -14.022  0.00  0.00    -0.166 F 
ENDBRANCH  15  20
ENDBRANCH  13  14
ENDBRANCH  10  13
ENDBRANCH   4   7
BRANCH   1  24
ATOM     24  N   UNL d   1      11.285   8.216  -6.026  0.00  0.00    -0.281 N 
ATOM     25  C   UNL d   1      11.345   9.575  -6.008  0.00  0.00     0.350 A 
ATOM     26  O   UNL d   1      11.051  10.394  -6.852  0.00  0.00    -0.244 OA
ATOM     27  N   UNL d   1      11.783   9.974  -4.838  0.00  0.00    -0.191 NA
ATOM     28  C   UNL d   1      11.994   8.919  -4.031  0.00  0.00     0.104 A 
ATOM     29  C   UNL d   1      11.687   7.784  -4.740  0.00  0.00     0.082 A 
ATOM     30  C   UNL d   1      12.420   8.936  -2.721  0.00  0.00     0.050 A 
ATOM     31  C   UNL d   1      11.797   6.517  -4.149  0.00  0.00     0.021 A 
ATOM     32  C   UNL d   1      12.260   6.504  -2.805  0.00  0.00     0.031 A 
ATOM     33  C   UNL d   1      12.585   7.700  -2.102  0.00  0.00     0.142 A 
ATOM     34  F   UNL d   1      13.059   7.715  -0.856  0.00  0.00    -0.204 F 
ENDBRANCH   1  24
TORSDOF 5
