REMARK  0 active torsions:
REMARK  status: ('A' for Active; 'I' for Inactive)
ROOT
ATOM      1  C   UNL d   1      12.285   0.669 -18.370  0.00  0.00     0.285 C 
ATOM      2  N   UNL d   1      11.120   0.084 -17.727  0.00  0.00     0.140 N 
ATOM      3  C   UNL d   1      10.051  -0.015 -18.709  0.00  0.00     0.255 C 
ATOM      4  C   UNL d   1       8.836  -0.719 -18.100  0.00  0.00     0.057 C 
ATOM      5  C   UNL d   1       8.347   0.013 -16.837  0.00  0.00    -0.040 C 
ATOM      6  C   UNL d   1       7.045   0.230 -16.523  0.00  0.00    -0.008 C 
ATOM      7  C   UNL d   1       5.927  -0.056 -17.451  0.00  0.00    -0.004 A 
ATOM      8  C   UNL d   1       5.968   0.554 -18.730  0.00  0.00    -0.000 A 
ATOM      9  C   UNL d   1       4.951   0.332 -19.671  0.00  0.00    -0.000 A 
ATOM     10  C   UNL d   1       3.856  -0.481 -19.330  0.00  0.00    -0.000 A 
ATOM     11  C   UNL d   1       3.795  -1.073 -18.060  0.00  0.00    -0.004 A 
ATOM     12  C   UNL d   1       4.791  -0.849 -17.095  0.00  0.00    -0.022 A 
ATOM     13  C   UNL d   1       4.500  -1.505 -15.735  0.00  0.00     0.032 C 
ATOM     14  C   UNL d   1       5.446  -1.259 -14.556  0.00  0.00     0.038 C 
ATOM     15  C   UNL d   1       5.868   0.151 -14.380  0.00  0.00     0.008 A 
ATOM     16  S   UNL d   1       5.458   1.126 -13.000  0.00  0.00    -0.091 SA
ATOM     17  C   UNL d   1       6.293   2.504 -13.676  0.00  0.00     0.035 A 
ATOM     18  C   UNL d   1       6.901   2.186 -14.861  0.00  0.00     0.007 A 
ATOM     19  C   UNL d   1       6.631   0.852 -15.257  0.00  0.00     0.002 A 
ATOM     20  C   UNL d   1       9.510   0.333 -15.886  0.00  0.00     0.057 C 
ATOM     21  C   UNL d   1      10.697   0.953 -16.635  0.00  0.00     0.255 C 
ENDROOT
TORSDOF 0
