REMARK  7 active torsions:
REMARK  status: ('A' for Active; 'I' for Inactive)
REMARK    1  A    between atoms: C_3  and  S_4 
REMARK    2  A    between atoms: S_4  and  N_7 
REMARK    3  A    between atoms: N_7  and  C_8 
REMARK    4  A    between atoms: N_11  and  C_12 
REMARK    5  A    between atoms: C_12  and  C_13 
REMARK    6  A    between atoms: C_13  and  C_14 
REMARK    7  A    between atoms: C_14  and  C_15 
ROOT
ATOM      1  C   UNL d   1      11.967   0.901 -18.303  0.00  0.00     0.151 C 
ATOM      2  C   UNL d   1      13.154   1.031 -19.258  0.00  0.00     0.063 C 
ATOM      3  C   UNL d   1      13.455   2.530 -19.318  0.00  0.00     0.252 C 
ATOM      4  N   UNL d   1      12.955   3.046 -18.064  0.00  0.00     0.139 N 
ATOM      5  C   UNL d   1      11.710   2.356 -17.998  0.00  0.00     0.275 C 
ENDROOT
BRANCH   1   6
ATOM      6  N   UNL d   1      10.786   0.298 -18.954  0.00  0.00    -0.184 NA
BRANCH   6   7
ATOM      7  S   UNL d   1       9.617  -0.498 -17.964  0.00  0.00     0.287 S 
ATOM      8  O   UNL d   1      10.235  -1.578 -17.266  0.00  0.00    -0.198 OA
ATOM      9  O   UNL d   1       8.442  -0.746 -18.855  0.00  0.00    -0.198 OA
BRANCH   7  10
ATOM     10  C   UNL d   1       9.086   0.711 -16.707  0.00  0.00     0.130 C 
ATOM     11  C   UNL d   1       7.862   0.941 -16.244  0.00  0.00    -0.003 C 
ATOM     12  C   UNL d   1       6.631   0.167 -16.629  0.00  0.00     0.032 C 
ATOM     13  C   UNL d   1       7.884   2.010 -15.229  0.00  0.00     0.004 A 
ATOM     14  C   UNL d   1       9.167   2.513 -15.009  0.00  0.00     0.030 A 
ATOM     15  C   UNL d   1       6.856   2.562 -14.432  0.00  0.00     0.012 A 
ATOM     16  S   UNL d   1      10.251   1.394 -15.679  0.00  0.00    -0.074 SA
ATOM     17  C   UNL d   1       9.465   3.597 -14.160  0.00  0.00     0.007 A 
ATOM     18  C   UNL d   1       8.406   4.131 -13.376  0.00  0.00     0.012 A 
ATOM     19  C   UNL d   1       7.112   3.601 -13.513  0.00  0.00     0.058 A 
ATOM     20 CL   UNL d   1       5.828   4.221 -12.575  0.00  0.00    -0.082 Cl
ENDBRANCH   7  10
ENDBRANCH   6   7
ENDBRANCH   1   6
BRANCH   4  21
ATOM     21  C   UNL d   1      12.782   4.495 -18.009  0.00  0.00     0.251 C 
BRANCH  21  22
ATOM     22  C   UNL d   1      11.451   4.982 -18.629  0.00  0.00     0.042 C 
BRANCH  22  23
ATOM     23  C   UNL d   1      11.249   6.484 -18.560  0.00  0.00     0.050 C 
BRANCH  23  24
ATOM     24  C   UNL d   1      10.018   6.904 -19.310  0.00  0.00     0.088 A 
ATOM     25  C   UNL d   1       9.884   7.601 -20.526  0.00  0.00     0.041 A 
ATOM     26  C   UNL d   1       8.528   7.753 -20.820  0.00  0.00     0.126 A 
ATOM     27  C   UNL d   1      10.851   8.122 -21.412  0.00  0.00     0.003 A 
ATOM     28  O   UNL d   1       7.861   7.143 -19.769  0.00  0.00    -0.211 OA
ATOM     29  C   UNL d   1       8.065   8.412 -21.968  0.00  0.00     0.027 A 
ATOM     30  N   UNL d   1       8.804   6.618 -18.840  0.00  0.00    -0.131 NA
ATOM     31  C   UNL d   1       9.030   8.933 -22.857  0.00  0.00     0.002 A 
ATOM     32  C   UNL d   1      10.411   8.788 -22.580  0.00  0.00     0.000 A 
ENDBRANCH  23  24
ENDBRANCH  22  23
ENDBRANCH  21  22
ENDBRANCH   4  21
TORSDOF 7
