REMARK  5 active torsions:
REMARK  status: ('A' for Active; 'I' for Inactive)
REMARK    1  A    between atoms: C_8  and  C_9 
REMARK    2  A    between atoms: C_9  and  C_10 
REMARK    3  A    between atoms: C_10  and  C_11 
REMARK    4  A    between atoms: C_11  and  N_12 
REMARK    5  A    between atoms: N_15  and  C_16 
ROOT
ATOM      1  N   UNL d   1       8.550   5.970 -10.644  0.00  0.00     0.141 N 
ATOM      2  C   UNL d   1       7.433   5.215 -11.220  0.00  0.00     0.274 C 
ATOM      3  C   UNL d   1       7.418   5.330 -12.748  0.00  0.00     0.137 C 
ATOM      4  N   UNL d   1       8.700   4.887 -13.273  0.00  0.00    -0.343 N 
ATOM      5  C   UNL d   1       9.847   5.547 -12.671  0.00  0.00     0.137 C 
ATOM      6  C   UNL d   1       9.800   5.428 -11.153  0.00  0.00     0.274 C 
ENDROOT
BRANCH   1   7
ATOM      7  C   UNL d   1       8.531   5.845  -9.194  0.00  0.00     0.251 C 
BRANCH   7   8
ATOM      8  C   UNL d   1       9.339   6.968  -8.529  0.00  0.00     0.040 C 
BRANCH   8   9
ATOM      9  C   UNL d   1       9.818   6.604  -7.119  0.00  0.00     0.030 C 
BRANCH   9  10
ATOM     10  C   UNL d   1      10.409   7.770  -6.376  0.00  0.00    -0.002 A 
ATOM     11  C   UNL d   1      10.362   9.091  -6.745  0.00  0.00     0.095 A 
ATOM     12  N   UNL d   1      10.999   9.860  -5.787  0.00  0.00    -0.244 NA
ATOM     13  C   UNL d   1      11.469   9.068  -4.766  0.00  0.00     0.081 A 
ATOM     14  C   UNL d   1      12.146   9.367  -3.568  0.00  0.00     0.021 A 
ATOM     15  C   UNL d   1      11.120   7.731  -5.122  0.00  0.00     0.017 A 
ATOM     16  C   UNL d   1      12.526   8.329  -2.709  0.00  0.00     0.031 A 
ATOM     17  C   UNL d   1      12.210   7.000  -3.034  0.00  0.00     0.140 A 
ATOM     18  F   UNL d   1      12.591   6.003  -2.203  0.00  0.00    -0.204 F 
ATOM     19  C   UNL d   1      11.501   6.713  -4.221  0.00  0.00     0.031 A 
ENDBRANCH   9  10
ENDBRANCH   8   9
ENDBRANCH   7   8
ENDBRANCH   1   7
BRANCH   4  20
ATOM     20  C   UNL d   1       8.825   3.939 -14.304  0.00  0.00     0.081 A 
ATOM     21  C   UNL d   1       9.819   4.073 -15.307  0.00  0.00     0.132 A 
ATOM     22  C   UNL d   1       9.942   3.086 -16.322  0.00  0.00     0.118 A 
ATOM     23  O   UNL d   1      10.648   5.178 -15.300  0.00  0.00    -0.325 OA
ATOM     24  C   UNL d   1       9.051   1.997 -16.355  0.00  0.00     0.026 A 
ATOM     25  O   UNL d   1      10.921   3.176 -17.288  0.00  0.00    -0.326 OA
ATOM     26  C   UNL d   1       8.052   1.873 -15.373  0.00  0.00     0.004 A 
ATOM     27  C   UNL d   1       7.942   2.836 -14.357  0.00  0.00     0.019 A 
ATOM     28  C   UNL d   1      11.961   4.101 -16.993  0.00  0.00     0.181 C 
ATOM     29  C   UNL d   1      11.356   5.420 -16.500  0.00  0.00     0.182 C 
ENDBRANCH   4  20
TORSDOF 5
