REMARK  8 active torsions:
REMARK  status: ('A' for Active; 'I' for Inactive)
REMARK    1  A    between atoms: O_2  and  C_3 
REMARK    2  A    between atoms: C_8  and  N_9 
REMARK    3  A    between atoms: N_12  and  C_13 
REMARK    4  A    between atoms: C_13  and  C_14 
REMARK    5  A    between atoms: C_14  and  C_16 
REMARK    6  A    between atoms: C_16  and  C_17 
REMARK    7  A    between atoms: C_17  and  N_18 
REMARK       I    between atoms: N_18  and  C_19 
REMARK    8  A    between atoms: C_19  and  C_21 
ROOT
ATOM      1  C   UNL d   1       8.443   5.724 -11.874  0.00  0.00     0.196 C 
ATOM      2  F   UNL d   1       7.325   6.441 -11.987  0.00  0.00    -0.235 F 
ENDROOT
BRANCH   1   3
ATOM      3  C   UNL d   1       9.155   5.830 -13.233  0.00  0.00     0.285 C 
BRANCH   3   4
ATOM      4  N   UNL d   1       9.988   4.688 -13.598  0.00  0.00     0.144 N 
ATOM      5  C   UNL d   1      10.600   4.931 -14.919  0.00  0.00     0.274 C 
ATOM      6  C   UNL d   1      11.525   3.754 -15.342  0.00  0.00     0.137 C 
ATOM      7  N   UNL d   1      10.784   2.507 -15.274  0.00  0.00    -0.343 N 
ATOM      8  C   UNL d   1      10.075   2.271 -14.041  0.00  0.00     0.137 C 
ATOM      9  C   UNL d   1       9.180   3.463 -13.708  0.00  0.00     0.274 C 
BRANCH   7  10
ATOM     10  C   UNL d   1      10.663   1.631 -16.387  0.00  0.00     0.079 A 
ATOM     11  C   UNL d   1       9.422   1.054 -16.764  0.00  0.00     0.110 A 
ATOM     12  C   UNL d   1       9.386   0.150 -17.858  0.00  0.00     0.026 A 
ATOM     13  C   UNL d   1      10.560  -0.157 -18.573  0.00  0.00     0.002 A 
ATOM     14  C   UNL d   1      11.782   0.428 -18.206  0.00  0.00     0.002 A 
ATOM     15  C   UNL d   1      11.827   1.323 -17.117  0.00  0.00     0.019 A 
BRANCH  11  16
ATOM     16  O   UNL d   1       8.279   1.431 -16.082  0.00  0.00    -0.327 OA
ATOM     17  C   UNL d   1       7.064   0.757 -16.337  0.00  0.00     0.181 C 
ENDBRANCH  11  16
ENDBRANCH   7  10
ENDBRANCH   3   4
ENDBRANCH   1   3
BRANCH   1  18
ATOM     18  C   UNL d   1       9.330   6.291 -10.756  0.00  0.00     0.064 C 
BRANCH  18  19
ATOM     19  C   UNL d   1       8.873   5.832  -9.361  0.00  0.00     0.132 C 
BRANCH  19  20
ATOM     20  N   UNL d   1       9.774   6.237  -8.279  0.00  0.00    -0.234 NA
ATOM     21  C   UNL d   1      10.046   7.513  -7.936  0.00  0.00     0.281 C 
ATOM     22  O   UNL d   1       9.807   8.482  -8.649  0.00  0.00    -0.265 OA
BRANCH  21  23
ATOM     23  C   UNL d   1      10.619   7.688  -6.591  0.00  0.00     0.087 A 
ATOM     24  S   UNL d   1      10.749   9.335  -6.035  0.00  0.00    -0.082 SA
ATOM     25  C   UNL d   1      11.410   8.798  -4.505  0.00  0.00     0.030 A 
ATOM     26  C   UNL d   1      11.534   7.374  -4.470  0.00  0.00     0.007 A 
ATOM     27  C   UNL d   1      11.744   9.588  -3.393  0.00  0.00     0.006 A 
ATOM     28  C   UNL d   1      11.098   6.766  -5.701  0.00  0.00     0.012 A 
ATOM     29  C   UNL d   1      12.045   6.797  -3.294  0.00  0.00     0.001 A 
ATOM     30  C   UNL d   1      12.400   7.584  -2.187  0.00  0.00     0.000 A 
ATOM     31  C   UNL d   1      12.264   8.980  -2.241  0.00  0.00     0.001 A 
ENDBRANCH  21  23
ENDBRANCH  19  20
ENDBRANCH  18  19
ENDBRANCH   1  18
TORSDOF 8
