REMARK  6 active torsions:
REMARK  status: ('A' for Active; 'I' for Inactive)
REMARK    1  A    between atoms: O_2  and  C_3 
REMARK    2  A    between atoms: C_6  and  C_7 
REMARK       I    between atoms: C_7  and  N_9 
REMARK    3  A    between atoms: N_12  and  C_13 
REMARK    4  A    between atoms: C_13  and  C_14 
REMARK    5  A    between atoms: C_14  and  O_15 
REMARK    6  A    between atoms: O_15  and  C_16 
ROOT
ATOM      1  C   UNL d   1       6.886   1.926 -14.341  0.00  0.00     0.257 C 
ATOM      2  O   UNL d   1       5.828   1.317 -14.072  0.00  0.00    -0.267 OA
ATOM      3  N   UNL d   1       7.151   3.166 -13.882  0.00  0.00    -0.312 N 
ATOM      4  C   UNL d   1       6.159   3.940 -13.098  0.00  0.00     0.140 C 
ATOM      5  C   UNL d   1       6.763   4.428 -11.768  0.00  0.00     0.274 C 
ATOM      6  N   UNL d   1       7.978   5.215 -12.001  0.00  0.00     0.144 N 
ATOM      7  C   UNL d   1       8.953   4.377 -12.705  0.00  0.00     0.274 C 
ATOM      8  C   UNL d   1       8.406   3.945 -14.082  0.00  0.00     0.140 C 
ENDROOT
BRANCH   1   9
ATOM      9  C   UNL d   1       7.858   1.239 -15.259  0.00  0.00     0.056 A 
ATOM     10  C   UNL d   1       7.433   0.694 -16.487  0.00  0.00     0.007 A 
ATOM     11  C   UNL d   1       8.338   0.071 -17.361  0.00  0.00     0.024 A 
ATOM     12  C   UNL d   1       9.714   0.000 -17.029  0.00  0.00     0.094 A 
ATOM     13  C   UNL d   1      10.128   0.513 -15.766  0.00  0.00     0.024 A 
ATOM     14  C   UNL d   1       9.222   1.093 -14.889  0.00  0.00     0.007 A 
BRANCH  12  15
ATOM     15  O   UNL d   1      10.585  -0.558 -17.928  0.00  0.00    -0.328 OA
ATOM     16  C   UNL d   1      11.819   0.122 -18.123  0.00  0.00     0.181 C 
ENDBRANCH  12  15
ENDBRANCH   1   9
BRANCH   6  17
ATOM     17  C   UNL d   1       8.532   5.674 -10.720  0.00  0.00     0.283 C 
BRANCH  17  18
ATOM     18  C   UNL d   1       9.531   6.849 -10.921  0.00  0.00     0.184 C 
BRANCH  18  19
ATOM     19  O   UNL d   1      10.672   6.769 -10.084  0.00  0.00    -0.329 OA
BRANCH  19  20
ATOM     20  C   UNL d   1      10.650   7.461  -8.901  0.00  0.00     0.094 A 
ATOM     21  C   UNL d   1      11.850   8.072  -8.467  0.00  0.00     0.025 A 
ATOM     22  C   UNL d   1      11.855   8.852  -7.299  0.00  0.00     0.013 A 
ATOM     23  C   UNL d   1      10.679   9.014  -6.548  0.00  0.00     0.058 A 
ATOM     24  C   UNL d   1       9.483   8.391  -6.962  0.00  0.00     0.013 A 
ATOM     25 CL   UNL d   1      10.712   9.968  -5.119  0.00  0.00    -0.082 Cl
ATOM     26  C   UNL d   1       9.480   7.606  -8.130  0.00  0.00     0.025 A 
ENDBRANCH  19  20
ENDBRANCH  18  19
ENDBRANCH  17  18
ENDBRANCH   6  17
TORSDOF 6
