REMARK  7 active torsions:
REMARK  status: ('A' for Active; 'I' for Inactive)
REMARK    1  A    between atoms: S_2  and  C_5 
REMARK    2  A    between atoms: C_5  and  C_6 
REMARK       I    between atoms: C_6  and  N_8 
REMARK    3  A    between atoms: N_8  and  C_9 
REMARK    4  A    between atoms: C_12  and  C_13 
REMARK    5  A    between atoms: C_13  and  C_14 
REMARK    6  A    between atoms: C_14  and  N_15 
REMARK    7  A    between atoms: C_18  and  C_19 
ROOT
ATOM      1  C   UNL d   1       8.681   5.096 -10.559  0.00  0.00     0.250 C 
ENDROOT
BRANCH   1   2
ATOM      2  C   UNL d   1       9.180   5.431 -11.985  0.00  0.00     0.035 C 
BRANCH   2   3
ATOM      3  C   UNL d   1       9.260   4.197 -12.900  0.00  0.00     0.002 C 
ATOM      4  C   UNL d   1       7.896   3.854 -13.519  0.00  0.00     0.002 C 
ATOM      5  C   UNL d   1       8.002   2.639 -14.453  0.00  0.00     0.024 C 
ATOM      6  C   UNL d   1       9.085   2.843 -15.534  0.00  0.00     0.106 C 
ATOM      7  C   UNL d   1      10.442   3.192 -14.916  0.00  0.00     0.024 C 
ATOM      8  C   UNL d   1      10.318   4.408 -13.999  0.00  0.00     0.002 C 
BRANCH   6   9
ATOM      9  N   UNL d   1       9.217   1.636 -16.337  0.00  0.00    -0.239 NA
ATOM     10  C   UNL d   1       8.369   1.332 -17.329  0.00  0.00     0.268 C 
ATOM     11  O   UNL d   1       7.493   2.106 -17.701  0.00  0.00    -0.269 OA
BRANCH  10  12
ATOM     12  C   UNL d   1       8.527  -0.046 -17.968  0.00  0.00     0.212 C 
BRANCH  12  13
ATOM     13  S   UNL d   1       6.977  -0.622 -18.803  0.00  0.00     0.180 S 
ATOM     14  C   UNL d   1       5.843  -0.846 -17.372  0.00  0.00     0.140 C 
ATOM     15  O   UNL d   1       7.245  -1.944 -19.386  0.00  0.00    -0.225 OA
ATOM     16  O   UNL d   1       6.436   0.450 -19.656  0.00  0.00    -0.225 OA
ENDBRANCH  12  13
ENDBRANCH  10  12
ENDBRANCH   6   9
ENDBRANCH   2   3
ENDBRANCH   1   2
BRANCH   1  17
ATOM     17  N   UNL d   1       9.086   6.089  -9.565  0.00  0.00     0.137 N 
ATOM     18  C   UNL d   1       8.565   5.685  -8.253  0.00  0.00     0.251 C 
ATOM     19  C   UNL d   1       8.923   6.724  -7.172  0.00  0.00     0.040 C 
ATOM     20  C   UNL d   1      10.443   6.929  -7.076  0.00  0.00     0.028 C 
ATOM     21  C   UNL d   1      10.994   7.217  -8.471  0.00  0.00     0.040 C 
ATOM     22  C   UNL d   1      10.541   6.165  -9.472  0.00  0.00     0.251 C 
BRANCH  20  23
ATOM     23  C   UNL d   1      10.801   8.043  -6.143  0.00  0.00     0.004 A 
ATOM     24  C   UNL d   1      11.356   7.944  -4.828  0.00  0.00     0.021 A 
ATOM     25  C   UNL d   1      11.491   9.273  -4.359  0.00  0.00     0.100 A 
ATOM     26  C   UNL d   1      11.736   6.902  -3.947  0.00  0.00     0.002 A 
ATOM     27  O   UNL d   1      11.063  10.155  -5.326  0.00  0.00    -0.305 OA
ATOM     28  C   UNL d   1      11.973   9.586  -3.084  0.00  0.00     0.025 A 
ATOM     29  C   UNL d   1      10.672   9.393  -6.386  0.00  0.00     0.118 A 
ATOM     30  C   UNL d   1      12.352   8.536  -2.231  0.00  0.00     0.002 A 
ATOM     31  C   UNL d   1      12.230   7.197  -2.656  0.00  0.00     0.000 A 
ENDBRANCH  20  23
ENDBRANCH   1  17
TORSDOF 7
