REMARK  8 active torsions:
REMARK  status: ('A' for Active; 'I' for Inactive)
REMARK    1  A    between atoms: O_2  and  C_3 
REMARK    2  A    between atoms: C_6  and  C_7 
REMARK    3  A    between atoms: N_10  and  C_11 
REMARK    4  A    between atoms: C_11  and  C_12 
REMARK    5  A    between atoms: C_12  and  C_13 
REMARK    6  A    between atoms: C_13  and  C_14 
REMARK    7  A    between atoms: C_14  and  N_15 
REMARK    8  A    between atoms: C_19  and  C_20 
ROOT
ATOM      1  C   UNL d   1       9.137   4.635 -12.798  0.00  0.00     0.072 A 
ATOM      2  C   UNL d   1      10.249   4.233 -13.661  0.00  0.00     0.266 A 
ATOM      3  O   UNL d   1      11.361   4.771 -13.631  0.00  0.00    -0.267 OA
ATOM      4  N   UNL d   1       9.984   3.204 -14.597  0.00  0.00    -0.249 N 
ATOM      5  C   UNL d   1       8.738   2.574 -14.749  0.00  0.00     0.338 A 
ATOM      6  O   UNL d   1       8.543   1.677 -15.577  0.00  0.00    -0.246 OA
ATOM      7  N   UNL d   1       7.702   3.019 -13.910  0.00  0.00    -0.259 N 
ATOM      8  C   UNL d   1       6.460   2.403 -13.977  0.00  0.00     0.085 A 
ATOM      9  C   UNL d   1       5.459   2.740 -13.140  0.00  0.00     0.019 A 
ATOM     10  C   UNL d   1       5.644   3.800 -12.182  0.00  0.00     0.003 A 
ATOM     11  C   UNL d   1       6.827   4.401 -12.075  0.00  0.00     0.018 A 
ATOM     12  C   UNL d   1       7.935   4.016 -12.943  0.00  0.00     0.073 A 
ENDROOT
BRANCH   4  13
ATOM     13  C   UNL d   1      11.077   2.807 -15.469  0.00  0.00     0.114 C 
BRANCH  13  14
ATOM     14  C   UNL d   1      11.360   3.846 -16.578  0.00  0.00     0.027 C 
BRANCH  14  15
ATOM     15  C   UNL d   1      12.751   3.660 -17.183  0.00  0.00     0.037 C 
BRANCH  15  16
ATOM     16  C   UNL d   1      13.139   4.833 -18.110  0.00  0.00     0.250 C 
BRANCH  16  17
ATOM     17  N   UNL d   1      14.580   5.039 -18.171  0.00  0.00     0.137 N 
ATOM     18  C   UNL d   1      14.873   5.917 -19.308  0.00  0.00     0.255 C 
ATOM     19  C   UNL d   1      16.395   6.154 -19.478  0.00  0.00     0.057 C 
ATOM     20  C   UNL d   1      17.006   6.705 -18.175  0.00  0.00     0.009 C 
ATOM     21  C   UNL d   1      16.581   5.853 -16.981  0.00  0.00     0.036 C 
ATOM     22  C   UNL d   1      15.058   5.693 -16.941  0.00  0.00     0.250 C 
BRANCH  19  23
ATOM     23  C   UNL d   1      16.684   7.061 -20.628  0.00  0.00     0.000 A 
ATOM     24  C   UNL d   1      16.229   8.417 -20.796  0.00  0.00     0.015 A 
ATOM     25  C   UNL d   1      16.745   8.914 -22.029  0.00  0.00     0.081 A 
ATOM     26  C   UNL d   1      15.426   9.296 -20.027  0.00  0.00     0.001 A 
ATOM     27  N   UNL d   1      17.482   7.877 -22.570  0.00  0.00    -0.244 NA
ATOM     28  C   UNL d   1      16.472  10.223 -22.472  0.00  0.00     0.019 A 
ATOM     29  C   UNL d   1      17.451   6.771 -21.735  0.00  0.00     0.095 A 
ATOM     30  C   UNL d   1      15.669  11.069 -21.681  0.00  0.00     0.002 A 
ATOM     31  C   UNL d   1      15.146  10.600 -20.463  0.00  0.00     0.000 A 
ENDBRANCH  19  23
ENDBRANCH  16  17
ENDBRANCH  15  16
ENDBRANCH  14  15
ENDBRANCH  13  14
ENDBRANCH   4  13
BRANCH   1  32
ATOM     32  C   UNL d   1       9.343   5.678 -11.761  0.00  0.00     0.006 A 
ATOM     33  C   UNL d   1       9.409   7.034 -12.144  0.00  0.00     0.002 A 
ATOM     34  C   UNL d   1       9.673   8.035 -11.196  0.00  0.00     0.024 A 
ATOM     35  C   UNL d   1       9.861   7.715  -9.841  0.00  0.00     0.094 A 
ATOM     36  C   UNL d   1       9.741   6.355  -9.439  0.00  0.00     0.024 A 
ATOM     37  C   UNL d   1       9.468   5.343 -10.392  0.00  0.00     0.002 A 
BRANCH  35  38
ATOM     38  O   UNL d   1      10.120   8.766  -8.989  0.00  0.00    -0.328 OA
ATOM     39  C   UNL d   1      10.069   8.504  -7.601  0.00  0.00     0.181 C 
ENDBRANCH  35  38
ENDBRANCH   1  32
TORSDOF 8
