REMARK  7 active torsions:
REMARK  status: ('A' for Active; 'I' for Inactive)
REMARK    1  A    between atoms: C_2  and  O_3 
REMARK    2  A    between atoms: O_3  and  N_4 
REMARK    3  A    between atoms: C_5  and  C_6 
REMARK    4  A    between atoms: C_5  and  C_20 
REMARK    5  A    between atoms: C_6  and  C_7 
REMARK    6  A    between atoms: C_7  and  N_8 
REMARK    7  A    between atoms: N_11  and  C_12 
ROOT
ATOM      1  C   UNL d   1       9.663   3.773 -11.653  0.00  0.00     0.257 C 
ENDROOT
BRANCH   1   2
ATOM      2  C   UNL d   1       8.591   4.394 -10.753  0.00  0.00     0.083 C 
BRANCH   2   3
ATOM      3  C   UNL d   1       8.609   5.838 -10.943  0.00  0.00     0.087 C 
ATOM      4  N   UNL d   1       8.060   6.230 -12.008  0.00  0.00    -0.136 NA
BRANCH   4   5
ATOM      5  O   UNL d   1       8.130   7.584 -12.105  0.00  0.00    -0.237 OA
BRANCH   5   6
ATOM      6  C   UNL d   1       6.969   8.032 -12.759  0.00  0.00     0.176 C 
ATOM      7  C   UNL d   1       5.551   7.577 -12.315  0.00  0.00     0.038 C 
ENDBRANCH   5   6
ENDBRANCH   4   5
BRANCH   3   8
ATOM      8  C   UNL d   1       9.276   6.639  -9.875  0.00  0.00     0.016 A 
ATOM      9  C   UNL d   1      10.176   7.662 -10.229  0.00  0.00     0.001 A 
ATOM     10  C   UNL d   1      10.796   8.446  -9.246  0.00  0.00     0.000 A 
ATOM     11  C   UNL d   1      10.534   8.203  -7.886  0.00  0.00     0.000 A 
ATOM     12  C   UNL d   1       9.658   7.166  -7.508  0.00  0.00     0.000 A 
ATOM     13  C   UNL d   1       9.034   6.388  -8.503  0.00  0.00     0.001 A 
ENDBRANCH   3   8
ENDBRANCH   2   3
ENDBRANCH   1   2
BRANCH   1  14
ATOM     14  N   UNL d   1       9.468   3.854 -13.081  0.00  0.00     0.141 N 
ATOM     15  C   UNL d   1      10.751   3.636 -13.753  0.00  0.00     0.274 C 
ATOM     16  C   UNL d   1      10.527   3.807 -15.258  0.00  0.00     0.138 C 
ATOM     17  N   UNL d   1       9.532   2.830 -15.711  0.00  0.00    -0.330 N 
ATOM     18  C   UNL d   1       8.294   2.832 -14.944  0.00  0.00     0.138 C 
ATOM     19  C   UNL d   1       8.581   2.766 -13.476  0.00  0.00     0.274 C 
BRANCH  17  20
ATOM     20  C   UNL d   1       9.714   1.981 -16.788  0.00  0.00     0.140 A 
ATOM     21  N   UNL d   1      10.990   1.658 -17.112  0.00  0.00    -0.227 NA
ATOM     22  C   UNL d   1      11.200   0.816 -18.120  0.00  0.00     0.101 A 
ATOM     23  C   UNL d   1      10.162   0.227 -18.884  0.00  0.00     0.021 A 
ATOM     24  C   UNL d   1       8.834   0.566 -18.548  0.00  0.00     0.005 A 
ATOM     25  C   UNL d   1       8.601   1.446 -17.507  0.00  0.00     0.037 A 
ENDBRANCH  17  20
ENDBRANCH   1  14
TORSDOF 7
