REMARK  8 active torsions:
REMARK  status: ('A' for Active; 'I' for Inactive)
REMARK    1  A    between atoms: C_2  and  O_3 
REMARK    2  A    between atoms: O_3  and  C_4 
REMARK    3  A    between atoms: C_9  and  N_10 
REMARK    4  A    between atoms: N_13  and  C_14 
REMARK    5  A    between atoms: C_14  and  C_15 
REMARK    6  A    between atoms: C_15  and  C_17 
REMARK    7  A    between atoms: C_17  and  N_18 
REMARK    8  A    between atoms: C_22  and  C_24 
ROOT
ATOM      1  C   UNL d   1       9.406   5.271 -11.010  0.00  0.00     0.208 C 
ATOM      2  O   UNL d   1       8.015   5.509 -11.162  0.00  0.00    -0.219 OA
ENDROOT
BRANCH   1   3
ATOM      3  C   UNL d   1       9.754   4.148 -12.024  0.00  0.00     0.285 C 
BRANCH   3   4
ATOM      4  N   UNL d   1      10.081   4.606 -13.382  0.00  0.00     0.144 N 
ATOM      5  C   UNL d   1       9.204   3.949 -14.361  0.00  0.00     0.274 C 
ATOM      6  C   UNL d   1       9.475   4.441 -15.794  0.00  0.00     0.137 C 
ATOM      7  N   UNL d   1      10.881   4.309 -16.125  0.00  0.00    -0.343 N 
ATOM      8  C   UNL d   1      11.826   4.832 -15.163  0.00  0.00     0.137 C 
ATOM      9  C   UNL d   1      11.481   4.319 -13.752  0.00  0.00     0.274 C 
BRANCH   7  10
ATOM     10  C   UNL d   1      11.304   3.581 -17.271  0.00  0.00     0.079 A 
ATOM     11  C   UNL d   1      10.916   2.239 -17.456  0.00  0.00     0.109 A 
ATOM     12  C   UNL d   1      11.344   1.566 -18.636  0.00  0.00     0.026 A 
ATOM     13  C   UNL d   1      12.110   2.233 -19.599  0.00  0.00     0.002 A 
ATOM     14  C   UNL d   1      12.507   3.563 -19.390  0.00  0.00     0.002 A 
ATOM     15  C   UNL d   1      12.112   4.237 -18.213  0.00  0.00     0.019 A 
BRANCH  11  16
ATOM     16  O   UNL d   1      10.139   1.635 -16.488  0.00  0.00    -0.329 OA
BRANCH  16  17
ATOM     17  C   UNL d   1       9.810   0.255 -16.612  0.00  0.00     0.149 C 
ATOM     18  C   UNL d   1       8.689   0.028 -17.658  0.00  0.00     0.035 C 
ENDBRANCH  16  17
ENDBRANCH  11  16
ENDBRANCH   7  10
ENDBRANCH   3   4
ENDBRANCH   1   3
BRANCH   1  19
ATOM     19  C   UNL d   1       9.687   4.886  -9.537  0.00  0.00     0.148 C 
BRANCH  19  20
ATOM     20  N   UNL d   1       9.655   6.024  -8.592  0.00  0.00    -0.247 N 
ATOM     21  C   UNL d   1      10.496   7.048  -8.515  0.00  0.00     0.265 C 
ATOM     22  C   UNL d   1       9.970   7.968  -7.430  0.00  0.00     0.179 C 
ATOM     23  O   UNL d   1      11.477   7.243  -9.248  0.00  0.00    -0.269 OA
ATOM     24  N   UNL d   1       8.701   7.318  -7.128  0.00  0.00    -0.209 NA
ATOM     25  C   UNL d   1       9.709   9.309  -8.086  0.00  0.00     0.039 C 
ATOM     26  C   UNL d   1       8.684   6.133  -7.721  0.00  0.00     0.348 C 
ATOM     27  O   UNL d   1       7.874   5.236  -7.631  0.00  0.00    -0.245 OA
BRANCH  22  28
ATOM     28  C   UNL d   1      10.897   8.002  -6.197  0.00  0.00     0.006 A 
ATOM     29  C   UNL d   1      11.691   9.137  -5.898  0.00  0.00     0.000 A 
ATOM     30  C   UNL d   1      12.510   9.130  -4.746  0.00  0.00     0.029 A 
ATOM     31  C   UNL d   1      12.520   8.012  -3.894  0.00  0.00     0.140 A 
ATOM     32  C   UNL d   1      11.769   6.882  -4.191  0.00  0.00     0.029 A 
ATOM     33  F   UNL d   1      13.281   7.995  -2.778  0.00  0.00    -0.204 F 
ATOM     34  C   UNL d   1      10.938   6.881  -5.326  0.00  0.00     0.000 A 
ENDBRANCH  22  28
ENDBRANCH  19  20
ENDBRANCH   1  19
TORSDOF 8
