REMARK  1 active torsions:
REMARK  status: ('A' for Active; 'I' for Inactive)
REMARK    1  A    between atoms: O_2  and  C_3 
ROOT
ATOM      1  C   UNL d   1      12.186   7.559  -3.344  0.00  0.00     0.178 C 
ATOM      2  C   UNL d   1      11.800   6.477  -4.117  0.00  0.00     0.044 C 
ATOM      3  C   UNL d   1      11.199   6.657  -5.365  0.00  0.00     0.001 C 
ATOM      4  C   UNL d   1      11.062   7.968  -5.821  0.00  0.00    -0.001 C 
ATOM      5  C   UNL d   1      11.614   8.998  -5.016  0.00  0.00     0.082 C 
ATOM      6  N   UNL d   1      12.147   8.821  -3.801  0.00  0.00    -0.225 NA
ATOM      7  C   UNL d   1      11.737  10.385  -5.532  0.00  0.00     0.165 C 
ATOM      8  N   UNL d   1      11.135  10.565  -6.829  0.00  0.00    -0.290 NA
ATOM      9  C   UNL d   1      11.298   9.454  -7.751  0.00  0.00     0.107 C 
ATOM     10  C   UNL d   1      10.919   9.769  -9.210  0.00  0.00     0.029 C 
ATOM     11  C   UNL d   1      11.279   8.595 -10.067  0.00  0.00     0.028 C 
ATOM     12  C   UNL d   1      10.545   7.380  -9.551  0.00  0.00    -0.024 A 
ATOM     13  C   UNL d   1      10.166   6.425 -10.499  0.00  0.00     0.025 A 
ATOM     14  C   UNL d   1       9.400   5.308 -10.162  0.00  0.00     0.156 A 
ATOM     15  O   UNL d   1       9.051   4.416 -11.153  0.00  0.00    -0.188 OA
ATOM     16  C   UNL d   1       8.984   5.164  -8.827  0.00  0.00     0.156 A 
ATOM     17  O   UNL d   1       8.253   4.092  -8.441  0.00  0.00    -0.188 OA
ATOM     18  C   UNL d   1       9.306   6.141  -7.857  0.00  0.00     0.025 A 
ATOM     19  C   UNL d   1      10.138   7.239  -8.191  0.00  0.00    -0.018 A 
ATOM     20  C   UNL d   1      10.428   8.342  -7.165  0.00  0.00     0.068 C 
ENDROOT
BRANCH   1  21
ATOM     21  O   UNL d   1      12.570   7.294  -2.056  0.00  0.00    -0.312 OA
ATOM     22  C   UNL d   1      12.950   8.396  -1.281  0.00  0.00     0.183 C 
ENDBRANCH   1  21
TORSDOF 1
