REMARK  8 active torsions:
REMARK  status: ('A' for Active; 'I' for Inactive)
REMARK    1  A    between atoms: C_2  and  C_3 
REMARK    2  A    between atoms: C_7  and  N_8 
REMARK    3  A    between atoms: N_11  and  C_12 
REMARK    4  A    between atoms: C_12  and  C_13 
REMARK    5  A    between atoms: C_13  and  C_15 
REMARK    6  A    between atoms: C_15  and  C_16 
REMARK    7  A    between atoms: C_16  and  N_17 
REMARK       I    between atoms: N_17  and  C_18 
REMARK    8  A    between atoms: C_18  and  C_20 
ROOT
ATOM      1  C   UNL d   1       7.720   2.478 -15.562  0.00  0.00     0.285 C 
ENDROOT
BRANCH   1   2
ATOM      2  N   UNL d   1       8.002   2.846 -14.170  0.00  0.00     0.144 N 
ATOM      3  C   UNL d   1       7.083   3.914 -13.764  0.00  0.00     0.274 C 
ATOM      4  C   UNL d   1       7.309   4.327 -12.293  0.00  0.00     0.137 C 
ATOM      5  N   UNL d   1       8.704   4.668 -12.107  0.00  0.00    -0.344 N 
ATOM      6  C   UNL d   1       9.687   3.709 -12.580  0.00  0.00     0.137 C 
ATOM      7  C   UNL d   1       9.386   3.323 -14.043  0.00  0.00     0.274 C 
BRANCH   5   8
ATOM      8  C   UNL d   1       9.072   5.854 -11.448  0.00  0.00     0.067 A 
ATOM      9  C   UNL d   1       9.057   7.049 -12.182  0.00  0.00     0.018 A 
ATOM     10  C   UNL d   1       9.461   8.258 -11.580  0.00  0.00     0.001 A 
ATOM     11  C   UNL d   1       9.865   8.270 -10.233  0.00  0.00    -0.003 A 
ATOM     12  C   UNL d   1       9.867   7.078  -9.476  0.00  0.00    -0.010 A 
ATOM     13  C   UNL d   1       9.449   5.864 -10.089  0.00  0.00     0.069 A 
ATOM     14 CL   UNL d   1       9.433   4.401  -9.166  0.00  0.00    -0.081 Cl
BRANCH  12  15
ATOM     15  C   UNL d   1      10.271   7.133  -8.013  0.00  0.00     0.027 C 
ATOM     16  C   UNL d   1       9.065   7.279  -7.073  0.00  0.00     0.005 C 
ENDBRANCH  12  15
ENDBRANCH   5   8
ENDBRANCH   1   2
BRANCH   1  17
ATOM     17  C   UNL d   1       8.098   1.036 -15.898  0.00  0.00     0.196 C 
ATOM     18  F   UNL d   1       7.632   0.204 -14.968  0.00  0.00    -0.235 F 
BRANCH  17  19
ATOM     19  C   UNL d   1       7.529   0.612 -17.267  0.00  0.00     0.064 C 
BRANCH  19  20
ATOM     20  C   UNL d   1       8.377  -0.484 -17.936  0.00  0.00     0.132 C 
BRANCH  20  21
ATOM     21  N   UNL d   1       9.772  -0.123 -18.193  0.00  0.00    -0.233 NA
ATOM     22  C   UNL d   1      10.224   1.004 -18.762  0.00  0.00     0.298 C 
ATOM     23  O   UNL d   1       9.533   1.994 -18.988  0.00  0.00    -0.263 OA
BRANCH  22  24
ATOM     24  C   UNL d   1      11.649   1.002 -19.126  0.00  0.00     0.157 A 
ATOM     25  O   UNL d   1      12.296  -0.196 -19.298  0.00  0.00    -0.302 OA
ATOM     26  C   UNL d   1      13.572   0.099 -19.721  0.00  0.00     0.100 A 
ATOM     27  C   UNL d   1      13.739   1.500 -19.784  0.00  0.00     0.025 A 
ATOM     28  C   UNL d   1      14.581  -0.815 -20.045  0.00  0.00     0.025 A 
ATOM     29  C   UNL d   1      12.481   2.060 -19.402  0.00  0.00     0.032 A 
ATOM     30  C   UNL d   1      14.998   1.989 -20.194  0.00  0.00     0.002 A 
ATOM     31  C   UNL d   1      16.038   1.087 -20.509  0.00  0.00     0.000 A 
ATOM     32  C   UNL d   1      15.834  -0.306 -20.432  0.00  0.00     0.002 A 
ENDBRANCH  22  24
ENDBRANCH  20  21
ENDBRANCH  19  20
ENDBRANCH  17  19
ENDBRANCH   1  17
TORSDOF 8
