REMARK  5 active torsions:
REMARK  status: ('A' for Active; 'I' for Inactive)
REMARK    1  A    between atoms: C_10  and  C_11 
REMARK    2  A    between atoms: C_11  and  C_12 
REMARK    3  A    between atoms: C_12  and  N_13 
REMARK    4  A    between atoms: C_16  and  C_17 
REMARK    5  A    between atoms: C_17  and  C_19 
ROOT
ATOM      1  N   UNL d   1       8.970   6.015  -9.682  0.00  0.00     0.137 N 
ATOM      2  C   UNL d   1      10.420   6.183  -9.692  0.00  0.00     0.251 C 
ATOM      3  C   UNL d   1      10.863   7.403  -8.904  0.00  0.00     0.043 C 
ATOM      4  C   UNL d   1      10.417   7.247  -7.455  0.00  0.00     0.066 C 
ATOM      5  C   UNL d   1       8.906   6.978  -7.411  0.00  0.00     0.043 C 
ATOM      6  C   UNL d   1       8.546   5.777  -8.307  0.00  0.00     0.251 C 
ENDROOT
BRANCH   1   7
ATOM      7  C   UNL d   1       8.564   4.896 -10.539  0.00  0.00     0.251 C 
BRANCH   7   8
ATOM      8  C   UNL d   1       8.753   5.203 -12.036  0.00  0.00     0.043 C 
BRANCH   8   9
ATOM      9  C   UNL d   1       8.955   3.925 -12.887  0.00  0.00     0.064 C 
ATOM     10  C   UNL d   1      10.159   4.000 -13.867  0.00  0.00     0.172 C 
ATOM     11  C   UNL d   1      10.143   3.062 -15.020  0.00  0.00     0.032 A 
ATOM     12  O   UNL d   1      11.070   4.788 -13.655  0.00  0.00    -0.291 OA
ATOM     13  C   UNL d   1       9.038   2.214 -15.299  0.00  0.00    -0.019 A 
ATOM     14  C   UNL d   1      11.266   3.029 -15.889  0.00  0.00     0.024 A 
ATOM     15  C   UNL d   1       9.073   1.346 -16.409  0.00  0.00    -0.003 A 
ATOM     16  C   UNL d   1       7.809   2.214 -14.407  0.00  0.00     0.027 C 
ATOM     17  C   UNL d   1      10.194   1.324 -17.256  0.00  0.00     0.021 A 
ATOM     18  C   UNL d   1      11.296   2.168 -17.007  0.00  0.00     0.103 A 
ATOM     19  N   UNL d   1      12.391   2.163 -17.846  0.00  0.00    -0.148 N 
ATOM     20  C   UNL d   1       7.659   3.517 -13.612  0.00  0.00     0.012 C 
ENDBRANCH   8   9
ENDBRANCH   7   8
ENDBRANCH   1   7
BRANCH   4  21
ATOM     21  C   UNL d   1      10.785   8.489  -6.646  0.00  0.00     0.175 C 
ATOM     22  O   UNL d   1      10.668   9.598  -7.194  0.00  0.00    -0.291 OA
BRANCH  21  23
ATOM     23  C   UNL d   1      11.249   8.352  -5.237  0.00  0.00     0.060 A 
ATOM     24  C   UNL d   1      11.383   9.501  -4.411  0.00  0.00     0.136 A 
ATOM     25  C   UNL d   1      11.864   9.377  -3.096  0.00  0.00     0.057 A 
ATOM     26  O   UNL d   1      11.024  10.748  -4.844  0.00  0.00    -0.190 OA
ATOM     27  C   UNL d   1      12.211   8.117  -2.587  0.00  0.00     0.142 A 
ATOM     28  C   UNL d   1      12.071   6.970  -3.389  0.00  0.00     0.030 A 
ATOM     29  F   UNL d   1      12.659   8.014  -1.312  0.00  0.00    -0.204 F 
ATOM     30  C   UNL d   1      11.586   7.090  -4.704  0.00  0.00     0.007 A 
ENDBRANCH  21  23
ENDBRANCH   4  21
TORSDOF 5
