REMARK  2 active torsions:
REMARK  status: ('A' for Active; 'I' for Inactive)
REMARK    1  A    between atoms: N_5  and  C_6 
REMARK    2  A    between atoms: C_18  and  C_19 
ROOT
ATOM      1  C   UNL d   1       9.652   3.977 -15.700  0.00  0.00     0.246 C 
ATOM      2  C   UNL d   1      10.897   4.809 -16.138  0.00  0.00     0.065 C 
ATOM      3  C   UNL d   1      11.354   4.633 -17.558  0.00  0.00    -0.014 A 
ATOM      4  C   UNL d   1      11.181   5.655 -18.524  0.00  0.00    -0.004 A 
ATOM      5  C   UNL d   1      11.709   5.487 -19.821  0.00  0.00    -0.000 A 
ATOM      6  C   UNL d   1      12.406   4.308 -20.151  0.00  0.00     0.001 A 
ATOM      7  C   UNL d   1      12.578   3.290 -19.197  0.00  0.00     0.006 A 
ATOM      8  C   UNL d   1      12.046   3.457 -17.909  0.00  0.00     0.025 A 
ATOM      9  S   UNL d   1      12.232   2.222 -16.689  0.00  0.00    -0.087 SA
ATOM     10  C   UNL d   1      10.574   1.672 -16.594  0.00  0.00     0.027 A 
ATOM     11  C   UNL d   1      10.338   0.334 -16.964  0.00  0.00     0.006 A 
ATOM     12  C   UNL d   1       9.041  -0.187 -16.969  0.00  0.00     0.004 A 
ATOM     13  C   UNL d   1       7.950   0.632 -16.604  0.00  0.00     0.037 A 
ATOM     14  C   UNL d   1       8.180   1.981 -16.266  0.00  0.00     0.001 A 
ATOM     15  C   UNL d   1       9.493   2.522 -16.218  0.00  0.00     0.015 A 
ENDROOT
BRANCH   1  16
ATOM     16  N   UNL d   1       9.377   4.023 -14.253  0.00  0.00     0.144 N 
ATOM     17  C   UNL d   1       7.943   4.247 -13.947  0.00  0.00     0.286 C 
ATOM     18  C   UNL d   1       7.669   4.321 -12.441  0.00  0.00     0.286 C 
ATOM     19  N   UNL d   1       8.459   5.355 -11.785  0.00  0.00     0.143 N 
ATOM     20  C   UNL d   1       8.230   5.368 -10.347  0.00  0.00     0.285 C 
ATOM     21  C   UNL d   1       9.860   5.115 -12.053  0.00  0.00     0.286 C 
ATOM     22  C   UNL d   1      10.150   5.053 -13.545  0.00  0.00     0.286 C 
ENDBRANCH   1  16
BRANCH  13  23
ATOM     23  C   UNL d   1       6.606   0.095 -16.593  0.00  0.00     0.184 A 
ATOM     24  N   UNL d   1       5.868  -0.200 -15.508  0.00  0.00    -0.211 N 
ATOM     25  N   UNL d   1       4.671  -0.672 -15.934  0.00  0.00    -0.043 NA
ATOM     26  C   UNL d   1       6.144  -0.091 -14.089  0.00  0.00     0.158 C 
ATOM     27  N   UNL d   1       4.709  -0.661 -17.233  0.00  0.00    -0.023 NA
ATOM     28  N   UNL d   1       5.913  -0.169 -17.694  0.00  0.00    -0.108 NA
ENDBRANCH  13  23
TORSDOF 2
