REMARK  4 active torsions:
REMARK  status: ('A' for Active; 'I' for Inactive)
REMARK    1  A    between atoms: C_8  and  O_9 
REMARK    2  A    between atoms: O_9  and  C_10 
REMARK    3  A    between atoms: N_13  and  C_14 
REMARK    4  A    between atoms: C_14  and  C_15 
ROOT
ATOM      1  C   UNL d   1       9.299   3.704 -14.157  0.00  0.00     0.125 C 
ATOM      2  C   UNL d   1       9.255   5.192 -14.455  0.00  0.00     0.066 C 
ATOM      3  C   UNL d   1       8.563   5.878 -13.257  0.00  0.00     0.253 C 
ATOM      4  N   UNL d   1       9.339   5.667 -12.034  0.00  0.00     0.140 N 
ATOM      5  C   UNL d   1       9.370   4.236 -11.739  0.00  0.00     0.253 C 
ATOM      6  C   UNL d   1      10.089   3.495 -12.882  0.00  0.00     0.066 C 
ENDROOT
BRANCH   4   7
ATOM      7  C   UNL d   1       8.700   6.402 -10.942  0.00  0.00     0.283 C 
BRANCH   7   8
ATOM      8  C   UNL d   1       9.609   6.521  -9.710  0.00  0.00     0.185 C 
ATOM      9  O   UNL d   1       9.914   7.895  -9.440  0.00  0.00    -0.327 OA
ATOM     10  C   UNL d   1      10.453   8.127  -8.210  0.00  0.00     0.116 A 
ATOM     11  C   UNL d   1      10.406   7.140  -7.197  0.00  0.00     0.114 A 
ATOM     12  C   UNL d   1      11.086   9.348  -7.914  0.00  0.00     0.028 A 
ATOM     13  O   UNL d   1       9.817   5.938  -7.393  0.00  0.00    -0.326 OA
ATOM     14  C   UNL d   1      11.008   7.434  -5.968  0.00  0.00     0.029 A 
ATOM     15  C   UNL d   1       8.927   5.901  -8.474  0.00  0.00     0.181 C 
ATOM     16  C   UNL d   1      11.593   8.647  -5.717  0.00  0.00     0.083 A 
ATOM     17  C   UNL d   1      11.095   6.509  -4.810  0.00  0.00     0.120 A 
ATOM     18  C   UNL d   1      11.666   9.650  -6.669  0.00  0.00     0.021 A 
ATOM     19  N   UNL d   1      12.122   8.617  -4.409  0.00  0.00    -0.212 NA
ATOM     20  C   UNL d   1      11.872   7.428  -3.851  0.00  0.00     0.260 A 
ATOM     21  O   UNL d   1      12.200   7.099  -2.729  0.00  0.00    -0.270 OA
ENDBRANCH   7   8
ENDBRANCH   4   7
BRANCH   1  22
ATOM     22  O   UNL d   1       9.837   2.936 -15.252  0.00  0.00    -0.333 OA
BRANCH  22  23
ATOM     23  C   UNL d   1       9.017   2.092 -15.985  0.00  0.00     0.095 A 
ATOM     24  C   UNL d   1       7.652   1.836 -15.665  0.00  0.00     0.024 A 
ATOM     25  C   UNL d   1       6.863   0.990 -16.455  0.00  0.00    -0.001 A 
ATOM     26  C   UNL d   1       7.408   0.363 -17.575  0.00  0.00    -0.004 A 
ATOM     27  C   UNL d   1       6.529  -0.519 -18.438  0.00  0.00     0.038 C 
ATOM     28  C   UNL d   1       8.760   0.567 -17.906  0.00  0.00     0.082 A 
ATOM     29  C   UNL d   1       7.351  -1.630 -19.111  0.00  0.00     0.095 C 
ATOM     30  C   UNL d   1       8.668  -1.098 -19.701  0.00  0.00     0.256 C 
ATOM     31  O   UNL d   1       9.126  -1.597 -20.723  0.00  0.00    -0.270 OA
ATOM     32  N   UNL d   1       9.291  -0.097 -19.049  0.00  0.00    -0.212 NA
ATOM     33  C   UNL d   1       9.560   1.432 -17.121  0.00  0.00     0.043 A 
ENDBRANCH  22  23
ENDBRANCH   1  22
TORSDOF 4
