REMARK  9 active torsions:
REMARK  status: ('A' for Active; 'I' for Inactive)
REMARK    1  A    between atoms: O_2  and  C_3 
REMARK    2  A    between atoms: C_5  and  C_6 
REMARK    3  A    between atoms: C_6  and  N_7 
REMARK    4  A    between atoms: N_10  and  C_11 
REMARK    5  A    between atoms: C_16  and  O_17 
REMARK    6  A    between atoms: C_21  and  O_22 
REMARK    7  A    between atoms: O_22  and  C_23 
REMARK    8  A    between atoms: C_23  and  C_24 
REMARK    9  A    between atoms: C_27  and  O_28 
ROOT
ATOM      1  C   UNL d   1      11.121   1.653 -16.345  0.00  0.00     0.279 C 
ENDROOT
BRANCH   1   2
ATOM      2  C   UNL d   1      12.146   2.355 -17.233  0.00  0.00     0.035 A 
ATOM      3  C   UNL d   1      12.655   3.612 -16.847  0.00  0.00     0.026 A 
ATOM      4  C   UNL d   1      13.602   4.298 -17.653  0.00  0.00     0.116 A 
ATOM      5  C   UNL d   1      14.015   3.725 -18.875  0.00  0.00     0.118 A 
ATOM      6  C   UNL d   1      13.472   2.487 -19.275  0.00  0.00     0.050 A 
ATOM      7  C   UNL d   1      12.576   1.770 -18.444  0.00  0.00     0.094 A 
BRANCH   4   8
ATOM      8  O   UNL d   1      14.183   5.495 -17.296  0.00  0.00    -0.326 OA
ATOM      9  C   UNL d   1      13.516   6.293 -16.335  0.00  0.00     0.181 C 
ENDBRANCH   4   8
BRANCH   5  10
ATOM     10  O   UNL d   1      14.951   4.418 -19.619  0.00  0.00    -0.326 OA
ATOM     11  C   UNL d   1      15.352   3.877 -20.873  0.00  0.00     0.181 C 
ENDBRANCH   5  10
BRANCH   7  12
ATOM     12  O   UNL d   1      12.091   0.518 -18.760  0.00  0.00    -0.328 OA
BRANCH  12  13
ATOM     13  C   UNL d   1      12.380  -0.040 -20.024  0.00  0.00     0.187 C 
BRANCH  13  14
ATOM     14  C   UNL d   1      13.812  -0.597 -20.050  0.00  0.00     0.226 C 
ATOM     15  F   UNL d   1      13.863  -1.669 -19.278  0.00  0.00    -0.232 F 
ENDBRANCH  13  14
ENDBRANCH  12  13
ENDBRANCH   7  12
ENDBRANCH   1   2
BRANCH   1  16
ATOM     16  N   UNL d   1       9.727   1.863 -16.743  0.00  0.00     0.145 N 
ATOM     17  C   UNL d   1       8.829   1.429 -15.665  0.00  0.00     0.275 C 
ATOM     18  C   UNL d   1       7.351   1.642 -16.072  0.00  0.00     0.137 C 
ATOM     19  N   UNL d   1       7.072   0.971 -17.327  0.00  0.00    -0.343 N 
ATOM     20  C   UNL d   1       7.995   1.251 -18.408  0.00  0.00     0.137 C 
ATOM     21  C   UNL d   1       9.432   1.077 -17.947  0.00  0.00     0.275 C 
BRANCH  19  22
ATOM     22  C   UNL d   1       5.995   0.061 -17.483  0.00  0.00     0.079 A 
ATOM     23  C   UNL d   1       5.242   0.028 -18.684  0.00  0.00     0.110 A 
ATOM     24  C   UNL d   1       4.180  -0.903 -18.803  0.00  0.00     0.026 A 
ATOM     25  C   UNL d   1       3.869  -1.771 -17.741  0.00  0.00     0.002 A 
ATOM     26  C   UNL d   1       4.619  -1.732 -16.554  0.00  0.00     0.002 A 
ATOM     27  C   UNL d   1       5.681  -0.818 -16.429  0.00  0.00     0.019 A 
BRANCH  23  28
ATOM     28  O   UNL d   1       5.558   0.930 -19.681  0.00  0.00    -0.327 OA
ATOM     29  C   UNL d   1       4.849   0.891 -20.899  0.00  0.00     0.181 C 
ENDBRANCH  23  28
ENDBRANCH  19  22
ENDBRANCH   1  16
TORSDOF 9
