REMARK  4 active torsions:
REMARK  status: ('A' for Active; 'I' for Inactive)
REMARK    1  A    between atoms: C_5  and  N_6 
REMARK    2  A    between atoms: N_9  and  C_10 
REMARK    3  A    between atoms: C_10  and  C_11 
REMARK    4  A    between atoms: C_11  and  C_12 
ROOT
ATOM      1  N   UNL d   1       8.599   4.620 -12.496  0.00  0.00    -0.344 N 
ATOM      2  C   UNL d   1       8.367   6.037 -12.633  0.00  0.00     0.137 C 
ATOM      3  C   UNL d   1       8.396   6.708 -11.255  0.00  0.00     0.274 C 
ATOM      4  N   UNL d   1       9.638   6.423 -10.532  0.00  0.00     0.141 N 
ATOM      5  C   UNL d   1       9.707   4.974 -10.320  0.00  0.00     0.274 C 
ATOM      6  C   UNL d   1       9.757   4.245 -11.698  0.00  0.00     0.137 C 
ENDROOT
BRANCH   4   7
ATOM      7  C   UNL d   1       9.637   7.086  -9.228  0.00  0.00     0.255 C 
BRANCH   7   8
ATOM      8  C   UNL d   1      10.981   7.787  -8.964  0.00  0.00     0.062 C 
BRANCH   8   9
ATOM      9  C   UNL d   1      11.197   8.068  -7.483  0.00  0.00    -0.018 A 
ATOM     10  C   UNL d   1      11.215   6.990  -6.574  0.00  0.00     0.018 A 
ATOM     11  C   UNL d   1      11.451   7.253  -5.214  0.00  0.00     0.124 A 
ATOM     12  C   UNL d   1      11.662   8.556  -4.715  0.00  0.00     0.124 A 
ATOM     13  N   UNL d   1      11.579   6.502  -4.067  0.00  0.00    -0.127 NA
ATOM     14  C   UNL d   1      11.616   9.627  -5.630  0.00  0.00     0.022 A 
ATOM     15  N   UNL d   1      11.914   8.505  -3.353  0.00  0.00    -0.127 NA
ATOM     16  C   UNL d   1      11.398   9.383  -7.003  0.00  0.00    -0.003 A 
ATOM     17  N   UNL d   1      11.877   7.260  -2.981  0.00  0.00    -0.042 NA
ENDBRANCH   8   9
ENDBRANCH   7   8
ENDBRANCH   4   7
BRANCH   1  18
ATOM     18  C   UNL d   1       7.729   3.693 -13.091  0.00  0.00     0.056 A 
ATOM     19  C   UNL d   1       8.178   2.763 -14.067  0.00  0.00     0.015 A 
ATOM     20  C   UNL d   1       9.516   2.765 -14.539  0.00  0.00     0.001 A 
ATOM     21  C   UNL d   1       7.269   1.805 -14.588  0.00  0.00     0.001 A 
ATOM     22  C   UNL d   1       9.931   1.835 -15.508  0.00  0.00     0.000 A 
ATOM     23  C   UNL d   1       9.025   0.908 -16.042  0.00  0.00     0.000 A 
ATOM     24  C   UNL d   1       7.695   0.892 -15.578  0.00  0.00     0.000 A 
ATOM     25  C   UNL d   1       5.950   1.756 -14.112  0.00  0.00     0.000 A 
ATOM     26  C   UNL d   1       5.498   2.685 -13.160  0.00  0.00     0.002 A 
ATOM     27  C   UNL d   1       6.383   3.660 -12.654  0.00  0.00     0.017 A 
ENDBRANCH   1  18
TORSDOF 4
