REMARK  0 active torsions:
REMARK  status: ('A' for Active; 'I' for Inactive)
ROOT
ATOM      1  N   UNL d   1      10.845   6.862  -7.037  0.00  0.00    -0.021 N 
ATOM      2  N   UNL d   1      11.018   7.966  -6.194  0.00  0.00    -0.109 N 
ATOM      3  N   UNL d   1      10.772   9.246  -6.566  0.00  0.00    -0.041 NA
ATOM      4  N   UNL d   1      11.041  10.004  -5.542  0.00  0.00    -0.127 NA
ATOM      5  C   UNL d   1      11.462   9.191  -4.498  0.00  0.00     0.124 A 
ATOM      6  C   UNL d   1      11.867   9.489  -3.179  0.00  0.00     0.023 A 
ATOM      7  C   UNL d   1      12.262   8.454  -2.303  0.00  0.00     0.002 A 
ATOM      8  C   UNL d   1      12.248   7.110  -2.728  0.00  0.00     0.002 A 
ATOM      9  C   UNL d   1      11.845   6.791  -4.039  0.00  0.00     0.023 A 
ATOM     10  C   UNL d   1      11.459   7.835  -4.896  0.00  0.00     0.126 A 
ENDROOT
TORSDOF 0
