REMARK  7 active torsions:
REMARK  status: ('A' for Active; 'I' for Inactive)
REMARK       I    between atoms: C_2  and  N_3 
REMARK    1  A    between atoms: C_2  and  C_21 
REMARK    2  A    between atoms: N_3  and  C_4 
REMARK    3  A    between atoms: N_7  and  C_8 
REMARK    4  A    between atoms: C_8  and  C_9 
REMARK    5  A    between atoms: C_12  and  O_13 
REMARK    6  A    between atoms: O_13  and  C_14 
REMARK    7  A    between atoms: C_25  and  C_26 
ROOT
ATOM      1  C   UNL d   1       8.240   4.963 -11.084  0.00  0.00     0.142 C 
ATOM      2  C   UNL d   1       7.378   5.530 -12.206  0.00  0.00     0.062 C 
ATOM      3  C   UNL d   1       8.144   5.161 -13.475  0.00  0.00     0.253 C 
ATOM      4  N   UNL d   1       8.917   3.988 -13.105  0.00  0.00     0.143 N 
ATOM      5  C   UNL d   1       9.456   4.367 -11.815  0.00  0.00     0.275 C 
ENDROOT
BRANCH   1   6
ATOM      6  N   UNL d   1       8.654   5.990 -10.146  0.00  0.00    -0.234 NA
ATOM      7  C   UNL d   1       9.308   5.760  -8.999  0.00  0.00     0.275 C 
ATOM      8  O   UNL d   1       9.402   4.642  -8.502  0.00  0.00    -0.266 OA
BRANCH   7   9
ATOM      9  C   UNL d   1       9.958   6.958  -8.363  0.00  0.00     0.058 A 
ATOM     10  C   UNL d   1      10.373   6.911  -7.012  0.00  0.00     0.005 A 
ATOM     11  C   UNL d   1      11.043   8.002  -6.406  0.00  0.00     0.006 A 
ATOM     12  C   UNL d   1      11.324   9.141  -7.198  0.00  0.00     0.001 A 
ATOM     13  C   UNL d   1      10.941   9.183  -8.552  0.00  0.00     0.000 A 
ATOM     14  C   UNL d   1      10.266   8.101  -9.131  0.00  0.00     0.005 A 
BRANCH  11  15
ATOM     15  C   UNL d   1      11.455   7.923  -4.998  0.00  0.00     0.029 A 
ATOM     16  S   UNL d   1      11.860   9.375  -4.116  0.00  0.00    -0.086 SA
ATOM     17  C   UNL d   1      12.195   8.468  -2.670  0.00  0.00     0.035 A 
ATOM     18  C   UNL d   1      11.992   7.127  -2.862  0.00  0.00     0.007 A 
ATOM     19  C   UNL d   1      11.577   6.816  -4.193  0.00  0.00     0.007 A 
ENDBRANCH  11  15
ENDBRANCH   7   9
ENDBRANCH   1   6
BRANCH   4  20
ATOM     20  C   UNL d   1       9.971   3.679 -14.068  0.00  0.00     0.277 C 
BRANCH  20  21
ATOM     21  C   UNL d   1       9.446   3.116 -15.375  0.00  0.00     0.011 A 
ATOM     22  C   UNL d   1       9.806   3.697 -16.607  0.00  0.00    -0.000 A 
ATOM     23  C   UNL d   1       9.313   3.160 -17.815  0.00  0.00     0.024 A 
ATOM     24  C   UNL d   1       8.461   2.034 -17.814  0.00  0.00     0.102 A 
ATOM     25  C   UNL d   1       8.108   1.451 -16.573  0.00  0.00     0.024 A 
ATOM     26  C   UNL d   1       8.601   1.986 -15.366  0.00  0.00    -0.000 A 
BRANCH  24  27
ATOM     27  O   UNL d   1       8.021   1.587 -19.044  0.00  0.00    -0.253 OA
BRANCH  27  28
ATOM     28  C   UNL d   1       7.204   0.504 -19.148  0.00  0.00     0.530 C 
ATOM     29  F   UNL d   1       6.940   0.264 -20.455  0.00  0.00    -0.144 F 
ATOM     30  F   UNL d   1       7.783  -0.617 -18.650  0.00  0.00    -0.144 F 
ATOM     31  F   UNL d   1       6.011   0.711 -18.536  0.00  0.00    -0.144 F 
ENDBRANCH  27  28
ENDBRANCH  24  27
ENDBRANCH  20  21
ENDBRANCH   4  20
TORSDOF 7
