REMARK  11 active torsions:
REMARK  status: ('A' for Active; 'I' for Inactive)
REMARK    1  A    between atoms: C_4  and  N_5 
REMARK    2  A    between atoms: N_5  and  C_6 
REMARK    3  A    between atoms: C_6  and  C_7 
REMARK    4  A    between atoms: C_7  and  C_8 
REMARK    5  A    between atoms: C_8  and  C_9 
REMARK    6  A    between atoms: C_9  and  N_10 
REMARK    7  A    between atoms: N_13  and  C_14 
REMARK    8  A    between atoms: C_23  and  N_24 
REMARK    9  A    between atoms: N_24  and  C_25 
REMARK   10  A    between atoms: C_25  and  C_26 
REMARK   11  A    between atoms: C_26  and  C_27 
ROOT
ATOM      1  N   UNL d   1      12.956   4.416 -14.696  0.00  0.00     0.063 N 
ATOM      2  C   UNL d   1      11.624   4.166 -14.753  0.00  0.00     0.799 A 
ATOM      3  N   UNL d   1      10.900   4.741 -13.801  0.00  0.00     0.136 NA
ATOM      4  C   UNL d   1       9.599   4.486 -13.952  0.00  0.00     0.776 A 
ATOM      5  N   UNL d   1       9.035   3.776 -14.911  0.00  0.00     0.134 NA
ATOM      6  C   UNL d   1       9.916   3.250 -15.751  0.00  0.00     0.776 A 
ATOM      7  N   UNL d   1      11.231   3.403 -15.757  0.00  0.00     0.136 NA
ENDROOT
BRANCH   4   8
ATOM      8  N   UNL d   1       8.704   4.937 -13.014  0.00  0.00    -0.085 NA
BRANCH   8   9
ATOM      9  C   UNL d   1       9.032   5.800 -11.893  0.00  0.00     0.145 C 
BRANCH   9  10
ATOM     10  C   UNL d   1       9.346   7.231 -12.342  0.00  0.00     0.029 C 
BRANCH  10  11
ATOM     11  C   UNL d   1       9.569   8.169 -11.170  0.00  0.00     0.037 C 
BRANCH  11  12
ATOM     12  C   UNL d   1      10.797   7.874 -10.278  0.00  0.00     0.251 C 
BRANCH  12  13
ATOM     13  N   UNL d   1      10.736   8.551  -8.994  0.00  0.00     0.141 N 
ATOM     14  C   UNL d   1       9.874   7.793  -8.065  0.00  0.00     0.274 C 
ATOM     15  C   UNL d   1       9.828   8.480  -6.700  0.00  0.00     0.137 C 
ATOM     16  N   UNL d   1      11.174   8.655  -6.190  0.00  0.00    -0.344 N 
ATOM     17  C   UNL d   1      12.109   9.312  -7.082  0.00  0.00     0.137 C 
ATOM     18  C   UNL d   1      12.100   8.589  -8.434  0.00  0.00     0.274 C 
BRANCH  16  19
ATOM     19  C   UNL d   1      11.550   8.239  -4.915  0.00  0.00     0.056 A 
ATOM     20  C   UNL d   1      12.336   9.081  -4.099  0.00  0.00     0.017 A 
ATOM     21  C   UNL d   1      12.681   8.707  -2.794  0.00  0.00     0.002 A 
ATOM     22  C   UNL d   1      12.315   7.460  -2.301  0.00  0.00     0.000 A 
ATOM     23  C   UNL d   1      11.585   6.597  -3.119  0.00  0.00     0.002 A 
ATOM     24  C   UNL d   1      11.185   6.966  -4.419  0.00  0.00     0.017 A 
ENDBRANCH  16  19
ENDBRANCH  12  13
ENDBRANCH  11  12
ENDBRANCH  10  11
ENDBRANCH   9  10
ENDBRANCH   8   9
ENDBRANCH   4   8
BRANCH   6  25
ATOM     25  N   UNL d   1       9.444   2.374 -16.698  0.00  0.00    -0.085 NA
BRANCH  25  26
ATOM     26  C   UNL d   1       8.136   1.744 -16.674  0.00  0.00     0.150 C 
BRANCH  26  27
ATOM     27  C   UNL d   1       7.867   0.923 -15.383  0.00  0.00     0.055 C 
BRANCH  27  28
ATOM     28  C   UNL d   1       6.532   0.250 -15.367  0.00  0.00     0.000 A 
ATOM     29  C   UNL d   1       5.852  -0.417 -16.451  0.00  0.00     0.015 A 
ATOM     30  C   UNL d   1       4.600  -0.875 -15.944  0.00  0.00     0.081 A 
ATOM     31  C   UNL d   1       6.134  -0.705 -17.814  0.00  0.00     0.001 A 
ATOM     32  N   UNL d   1       4.553  -0.501 -14.617  0.00  0.00    -0.244 NA
ATOM     33  C   UNL d   1       3.681  -1.560 -16.751  0.00  0.00     0.019 A 
ATOM     34  C   UNL d   1       5.712   0.171 -14.264  0.00  0.00     0.095 A 
ATOM     35  C   UNL d   1       3.973  -1.790 -18.108  0.00  0.00     0.002 A 
ATOM     36  C   UNL d   1       5.203  -1.359 -18.633  0.00  0.00     0.000 A 
ENDBRANCH  27  28
ENDBRANCH  26  27
ENDBRANCH  25  26
ENDBRANCH   6  25
TORSDOF 11
