REMARK  11 active torsions:
REMARK  status: ('A' for Active; 'I' for Inactive)
REMARK    1  A    between atoms: C_2  and  C_3 
REMARK    2  A    between atoms: C_3  and  N_4 
REMARK    3  A    between atoms: N_4  and  C_5 
REMARK    4  A    between atoms: N_4  and  C_22 
REMARK    5  A    between atoms: C_5  and  C_6 
REMARK    6  A    between atoms: C_6  and  C_7 
REMARK    7  A    between atoms: C_7  and  C_8 
REMARK    8  A    between atoms: C_8  and  N_9 
REMARK       I    between atoms: N_9  and  C_10 
REMARK    9  A    between atoms: C_10  and  C_12 
REMARK   10  A    between atoms: C_22  and  C_23 
REMARK   11  A    between atoms: C_25  and  C_26 
ROOT
ATOM      1  C   UNL d   1       9.807   4.734 -13.452  0.00  0.00     0.250 C 
ENDROOT
BRANCH   1   2
ATOM      2  N   UNL d   1       9.185   4.327 -14.706  0.00  0.00     0.137 N 
BRANCH   2   3
ATOM      3  C   UNL d   1      10.132   4.502 -15.818  0.00  0.00     0.250 C 
BRANCH   3   4
ATOM      4  C   UNL d   1       9.471   4.373 -17.210  0.00  0.00     0.035 C 
ATOM      5  C   UNL d   1      10.500   4.040 -18.296  0.00  0.00     0.002 C 
ENDBRANCH   3   4
ENDBRANCH   2   3
BRANCH   2   6
ATOM      6  C   UNL d   1       8.657   2.954 -14.625  0.00  0.00     0.251 C 
BRANCH   6   7
ATOM      7  C   UNL d   1       9.745   1.880 -14.686  0.00  0.00     0.038 A 
ATOM      8  C   UNL d   1       9.341   0.436 -14.897  0.00  0.00     0.024 A 
ATOM      9  C   UNL d   1      10.048   1.199 -15.997  0.00  0.00     0.007 A 
BRANCH   8  10
ATOM     10  C   UNL d   1       7.875   0.117 -15.009  0.00  0.00    -0.022 A 
ATOM     11  C   UNL d   1       7.236   0.025 -16.255  0.00  0.00    -0.003 A 
ATOM     12  C   UNL d   1       5.860  -0.255 -16.336  0.00  0.00     0.011 A 
ATOM     13  C   UNL d   1       5.119  -0.443 -15.149  0.00  0.00     0.058 A 
ATOM     14  C   UNL d   1       5.750  -0.330 -13.901  0.00  0.00     0.011 A 
ATOM     15 CL   UNL d   1       3.446  -0.829 -15.201  0.00  0.00    -0.082 Cl
ATOM     16  C   UNL d   1       7.129  -0.067 -13.828  0.00  0.00    -0.003 A 
ENDBRANCH   8  10
ENDBRANCH   6   7
ENDBRANCH   2   6
ENDBRANCH   1   2
BRANCH   1  17
ATOM     17  C   UNL d   1       8.815   4.798 -12.277  0.00  0.00     0.037 C 
BRANCH  17  18
ATOM     18  C   UNL d   1       9.531   5.269 -11.020  0.00  0.00     0.029 C 
BRANCH  18  19
ATOM     19  C   UNL d   1       8.587   5.573  -9.862  0.00  0.00     0.129 C 
BRANCH  19  20
ATOM     20  N   UNL d   1       9.284   6.096  -8.700  0.00  0.00    -0.234 NA
ATOM     21  C   UNL d   1      10.123   7.139  -8.715  0.00  0.00     0.275 C 
ATOM     22  O   UNL d   1      10.545   7.674  -9.749  0.00  0.00    -0.266 OA
BRANCH  21  23
ATOM     23  C   UNL d   1      10.487   7.697  -7.378  0.00  0.00     0.058 A 
ATOM     24  C   UNL d   1      10.998   6.886  -6.351  0.00  0.00     0.005 A 
ATOM     25  C   UNL d   1      11.355   7.464  -5.118  0.00  0.00     0.000 A 
ATOM     26  C   UNL d   1      11.220   8.861  -4.911  0.00  0.00     0.000 A 
ATOM     27  C   UNL d   1      11.865   6.659  -4.086  0.00  0.00     0.000 A 
ATOM     28  C   UNL d   1      10.714   9.670  -5.944  0.00  0.00     0.000 A 
ATOM     29  C   UNL d   1      11.575   9.429  -3.668  0.00  0.00     0.000 A 
ATOM     30  C   UNL d   1      10.347   9.075  -7.169  0.00  0.00     0.005 A 
ATOM     31  C   UNL d   1      12.078   8.614  -2.639  0.00  0.00     0.000 A 
ATOM     32  C   UNL d   1      12.227   7.227  -2.845  0.00  0.00     0.000 A 
ENDBRANCH  21  23
ENDBRANCH  19  20
ENDBRANCH  18  19
ENDBRANCH  17  18
ENDBRANCH   1  17
TORSDOF 11
