REMARK  5 active torsions:
REMARK  status: ('A' for Active; 'I' for Inactive)
REMARK    1  A    between atoms: O_2  and  C_3 
REMARK    2  A    between atoms: C_3  and  C_5 
REMARK    3  A    between atoms: C_13  and  C_14 
REMARK    4  A    between atoms: C_14  and  N_15 
REMARK    5  A    between atoms: C_18  and  C_19 
ROOT
ATOM      1  N   UNL d   1       8.170   2.595 -14.805  0.00  0.00     0.137 N 
ATOM      2  C   UNL d   1       9.328   2.435 -13.931  0.00  0.00     0.251 C 
ATOM      3  C   UNL d   1       9.708   3.755 -13.236  0.00  0.00     0.041 C 
ATOM      4  C   UNL d   1       8.530   4.371 -12.468  0.00  0.00     0.047 C 
ATOM      5  C   UNL d   1       7.283   4.407 -13.353  0.00  0.00     0.041 C 
ATOM      6  C   UNL d   1       7.006   3.049 -14.021  0.00  0.00     0.251 C 
ENDROOT
BRANCH   1   7
ATOM      7  C   UNL d   1       7.873   1.296 -15.424  0.00  0.00     0.251 C 
BRANCH   7   8
ATOM      8  C   UNL d   1       7.339   1.490 -16.858  0.00  0.00     0.048 C 
ATOM      9  C   UNL d   1       8.528   1.802 -17.816  0.00  0.00     0.072 C 
ATOM     10  C   UNL d   1       8.167   1.923 -19.297  0.00  0.00     0.175 C 
ATOM     11  C   UNL d   1       7.063   1.035 -19.758  0.00  0.00     0.060 A 
ATOM     12  O   UNL d   1       8.751   2.729 -20.009  0.00  0.00    -0.291 OA
ATOM     13  C   UNL d   1       6.450   0.708 -21.008  0.00  0.00     0.092 A 
ATOM     14  C   UNL d   1       6.376   0.329 -18.809  0.00  0.00     0.081 A 
ATOM     15  C   UNL d   1       5.487  -0.219 -20.709  0.00  0.00     0.128 A 
ATOM     16  O   UNL d   1       5.419  -0.457 -19.376  0.00  0.00    -0.309 OA
ATOM     17  C   UNL d   1       6.523   0.283 -17.325  0.00  0.00     0.054 C 
BRANCH  13  18
ATOM     18  C   UNL d   1       6.689   1.177 -22.398  0.00  0.00     0.298 C 
ATOM     19  O   UNL d   1       6.241   0.595 -23.387  0.00  0.00    -0.259 OA
BRANCH  18  20
ATOM     20  O   UNL d   1       7.417   2.291 -22.421  0.00  0.00    -0.296 OA
ATOM     21  C   UNL d   1       7.806   2.893 -23.637  0.00  0.00     0.185 C 
ENDBRANCH  18  20
ENDBRANCH  13  18
ENDBRANCH   7   8
ENDBRANCH   1   7
BRANCH   4  22
ATOM     22  C   UNL d   1       8.886   5.746 -11.930  0.00  0.00     0.087 A 
ATOM     23  C   UNL d   1       9.241   6.203 -10.641  0.00  0.00     0.041 A 
ATOM     24  C   UNL d   1       9.515   7.572 -10.712  0.00  0.00     0.129 A 
ATOM     25  C   UNL d   1       9.346   5.539  -9.400  0.00  0.00     0.006 A 
ATOM     26  O   UNL d   1       9.333   7.923 -12.035  0.00  0.00    -0.211 OA
ATOM     27  C   UNL d   1       9.877   8.341  -9.605  0.00  0.00     0.057 A 
ATOM     28  N   UNL d   1       8.970   6.772 -12.776  0.00  0.00    -0.131 NA
ATOM     29  C   UNL d   1       9.971   7.689  -8.361  0.00  0.00     0.142 A 
ATOM     30  F   UNL d   1      10.310   8.400  -7.256  0.00  0.00    -0.204 F 
ATOM     31  C   UNL d   1       9.712   6.295  -8.262  0.00  0.00     0.030 A 
ENDBRANCH   4  22
TORSDOF 5
