REMARK  7 active torsions:
REMARK  status: ('A' for Active; 'I' for Inactive)
REMARK    1  A    between atoms: C_2  and  C_3 
REMARK       I    between atoms: C_2  and  N_11 
REMARK    2  A    between atoms: C_3  and  C_4 
REMARK    3  A    between atoms: N_11  and  C_12 
REMARK    4  A    between atoms: C_15  and  C_16 
REMARK    5  A    between atoms: C_16  and  C_17 
REMARK    6  A    between atoms: C_17  and  N_18 
REMARK    7  A    between atoms: N_21  and  C_22 
ROOT
ATOM      1  C   UNL d   1       9.504   6.753 -10.928  0.00  0.00     0.106 C 
ATOM      2  C   UNL d   1       9.703   5.341 -10.351  0.00  0.00     0.024 C 
ATOM      3  C   UNL d   1       9.756   4.306 -11.497  0.00  0.00     0.002 C 
ATOM      4  C   UNL d   1       8.459   4.305 -12.297  0.00  0.00     0.002 C 
ATOM      5  C   UNL d   1       8.247   5.714 -12.884  0.00  0.00     0.002 C 
ATOM      6  C   UNL d   1       8.226   6.772 -11.783  0.00  0.00     0.024 C 
ENDROOT
BRANCH   4   7
ATOM      7  C   UNL d   1       8.529   3.253 -13.417  0.00  0.00     0.035 C 
BRANCH   7   8
ATOM      8  C   UNL d   1       7.146   2.685 -13.793  0.00  0.00     0.250 C 
BRANCH   8   9
ATOM      9  N   UNL d   1       7.298   1.465 -14.577  0.00  0.00     0.141 N 
ATOM     10  C   UNL d   1       7.828   1.790 -15.911  0.00  0.00     0.274 C 
ATOM     11  C   UNL d   1       7.967   0.537 -16.772  0.00  0.00     0.138 C 
ATOM     12  N   UNL d   1       6.673  -0.115 -16.869  0.00  0.00    -0.330 N 
ATOM     13  C   UNL d   1       6.029  -0.424 -15.596  0.00  0.00     0.138 C 
ATOM     14  C   UNL d   1       5.980   0.837 -14.720  0.00  0.00     0.274 C 
BRANCH  12  15
ATOM     15  C   UNL d   1       6.119  -0.477 -18.109  0.00  0.00     0.142 A 
ATOM     16  C   UNL d   1       5.412  -1.695 -18.314  0.00  0.00     0.059 A 
ATOM     17  C   UNL d   1       4.888  -1.929 -19.608  0.00  0.00     0.104 A 
ATOM     18  C   UNL d   1       5.059  -2.855 -17.544  0.00  0.00     0.032 A 
ATOM     19  C   UNL d   1       5.076  -1.028 -20.654  0.00  0.00     0.045 A 
ATOM     20  O   UNL d   1       4.222  -3.132 -19.638  0.00  0.00    -0.305 OA
ATOM     21  C   UNL d   1       5.795   0.131 -20.363  0.00  0.00     0.103 A 
ATOM     22  N   UNL d   1       6.297   0.398 -19.139  0.00  0.00    -0.227 NA
ATOM     23  C   UNL d   1       4.340  -3.667 -18.385  0.00  0.00     0.123 A 
ENDBRANCH  12  15
ENDBRANCH   8   9
ENDBRANCH   7   8
ENDBRANCH   4   7
BRANCH   1  24
ATOM     24  N   UNL d   1       9.461   7.729  -9.850  0.00  0.00    -0.240 NA
ATOM     25  C   UNL d   1      10.477   8.102  -9.054  0.00  0.00     0.251 C 
ATOM     26  O   UNL d   1      11.656   7.952  -9.365  0.00  0.00    -0.271 OA
BRANCH  25  27
ATOM     27  C   UNL d   1      10.080   8.668  -7.684  0.00  0.00     0.090 C 
BRANCH  27  28
ATOM     28  C   UNL d   1      11.094   8.336  -6.564  0.00  0.00     0.009 C 
ATOM     29  C   UNL d   1      10.676   7.071  -5.786  0.00  0.00     0.003 C 
ATOM     30  C   UNL d   1      11.707   6.712  -4.704  0.00  0.00     0.033 C 
ATOM     31  C   UNL d   1      11.970   7.901  -3.764  0.00  0.00     0.152 C 
ATOM     32  C   UNL d   1      12.375   9.170  -4.521  0.00  0.00     0.033 C 
ATOM     33  O   UNL d   1      12.964   7.556  -2.849  0.00  0.00    -0.224 OA
ATOM     34  C   UNL d   1      11.332   9.521  -5.605  0.00  0.00     0.003 C 
ENDBRANCH  27  28
ENDBRANCH  25  27
ENDBRANCH   1  24
TORSDOF 7
