REMARK  7 active torsions:
REMARK  status: ('A' for Active; 'I' for Inactive)
REMARK    1  A    between atoms: O_2  and  N_3 
REMARK    2  A    between atoms: C_4  and  C_5 
REMARK    3  A    between atoms: C_4  and  C_20 
REMARK    4  A    between atoms: C_5  and  C_6 
REMARK    5  A    between atoms: C_6  and  C_7 
REMARK    6  A    between atoms: C_7  and  N_8 
REMARK    7  A    between atoms: N_11  and  C_12 
ROOT
ATOM      1  C   UNL d   1       8.999   4.869 -11.190  0.00  0.00     0.042 C 
ENDROOT
BRANCH   1   2
ATOM      2  C   UNL d   1       9.327   4.953 -12.701  0.00  0.00     0.050 C 
BRANCH   2   3
ATOM      3  C   UNL d   1       8.537   3.991 -13.599  0.00  0.00     0.085 C 
ATOM      4  N   UNL d   1       7.262   3.960 -13.637  0.00  0.00    -0.136 NA
BRANCH   4   5
ATOM      5  O   UNL d   1       6.654   4.939 -12.837  0.00  0.00    -0.234 OA
ATOM      6  C   UNL d   1       5.514   4.355 -12.232  0.00  0.00     0.211 C 
ENDBRANCH   4   5
BRANCH   3   7
ATOM      7  C   UNL d   1       9.328   3.053 -14.445  0.00  0.00     0.016 A 
ATOM      8  C   UNL d   1      10.588   3.411 -14.984  0.00  0.00     0.004 A 
ATOM      9  C   UNL d   1      11.308   2.508 -15.790  0.00  0.00     0.030 A 
ATOM     10  C   UNL d   1      10.770   1.245 -16.089  0.00  0.00     0.140 A 
ATOM     11  C   UNL d   1       9.512   0.881 -15.578  0.00  0.00     0.030 A 
ATOM     12  F   UNL d   1      11.460   0.388 -16.877  0.00  0.00    -0.204 F 
ATOM     13  C   UNL d   1       8.796   1.781 -14.767  0.00  0.00     0.004 A 
ENDBRANCH   3   7
ENDBRANCH   2   3
ENDBRANCH   1   2
BRANCH   1  14
ATOM     14  C   UNL d   1       8.953   6.263 -10.539  0.00  0.00     0.251 C 
BRANCH  14  15
ATOM     15  N   UNL d   1      10.061   6.441  -9.602  0.00  0.00     0.141 N 
ATOM     16  C   UNL d   1       9.648   5.921  -8.298  0.00  0.00     0.274 C 
ATOM     17  C   UNL d   1      10.795   6.062  -7.284  0.00  0.00     0.138 C 
ATOM     18  N   UNL d   1      11.250   7.440  -7.221  0.00  0.00    -0.330 N 
ATOM     19  C   UNL d   1      11.551   8.066  -8.506  0.00  0.00     0.138 C 
ATOM     20  C   UNL d   1      10.371   7.867  -9.479  0.00  0.00     0.274 C 
BRANCH  18  21
ATOM     21  C   UNL d   1      11.301   8.121  -6.003  0.00  0.00     0.140 A 
ATOM     22  N   UNL d   1      11.704   7.427  -4.909  0.00  0.00    -0.227 NA
ATOM     23  C   UNL d   1      11.856   8.080  -3.740  0.00  0.00     0.101 A 
ATOM     24  C   UNL d   1      11.525   9.438  -3.582  0.00  0.00     0.021 A 
ATOM     25  C   UNL d   1      11.060  10.146  -4.701  0.00  0.00     0.005 A 
ATOM     26  C   UNL d   1      10.963   9.488  -5.936  0.00  0.00     0.037 A 
ENDBRANCH  18  21
ENDBRANCH  14  15
ENDBRANCH   1  14
TORSDOF 7
