REMARK  8 active torsions:
REMARK  status: ('A' for Active; 'I' for Inactive)
REMARK    1  A    between atoms: O_2  and  C_3 
REMARK    2  A    between atoms: C_8  and  N_9 
REMARK    3  A    between atoms: N_12  and  C_13 
REMARK    4  A    between atoms: C_13  and  C_14 
REMARK    5  A    between atoms: C_14  and  C_16 
REMARK    6  A    between atoms: C_16  and  C_17 
REMARK    7  A    between atoms: C_17  and  N_18 
REMARK       I    between atoms: N_18  and  C_19 
REMARK    8  A    between atoms: C_19  and  C_21 
ROOT
ATOM      1  C   UNL d   1       9.102   7.685 -12.184  0.00  0.00     0.188 C 
ATOM      2  O   UNL d   1       8.184   8.731 -12.406  0.00  0.00    -0.221 OA
ENDROOT
BRANCH   1   3
ATOM      3  C   UNL d   1       8.418   6.369 -12.625  0.00  0.00     0.283 C 
BRANCH   3   4
ATOM      4  N   UNL d   1       9.311   5.239 -12.886  0.00  0.00     0.144 N 
ATOM      5  C   UNL d   1       8.552   3.997 -13.037  0.00  0.00     0.274 C 
ATOM      6  C   UNL d   1       9.494   2.811 -13.288  0.00  0.00     0.137 C 
ATOM      7  N   UNL d   1      10.304   3.052 -14.478  0.00  0.00    -0.343 N 
ATOM      8  C   UNL d   1      11.057   4.296 -14.431  0.00  0.00     0.137 C 
ATOM      9  C   UNL d   1      10.090   5.441 -14.111  0.00  0.00     0.274 C 
BRANCH   7  10
ATOM     10  C   UNL d   1      10.420   2.155 -15.558  0.00  0.00     0.079 A 
ATOM     11  C   UNL d   1       9.316   1.396 -16.038  0.00  0.00     0.110 A 
ATOM     12  C   UNL d   1       9.516   0.508 -17.125  0.00  0.00     0.026 A 
ATOM     13  C   UNL d   1      10.772   0.396 -17.752  0.00  0.00     0.002 A 
ATOM     14  C   UNL d   1      11.852   1.162 -17.290  0.00  0.00     0.002 A 
ATOM     15  C   UNL d   1      11.675   2.024 -16.194  0.00  0.00     0.019 A 
BRANCH  11  16
ATOM     16  O   UNL d   1       8.073   1.583 -15.454  0.00  0.00    -0.327 OA
ATOM     17  C   UNL d   1       6.993   0.757 -15.858  0.00  0.00     0.181 C 
ENDBRANCH  11  16
ENDBRANCH   7  10
ENDBRANCH   3   4
ENDBRANCH   1   3
BRANCH   1  18
ATOM     18  C   UNL d   1       9.458   7.689 -10.681  0.00  0.00     0.061 C 
BRANCH  18  19
ATOM     19  C   UNL d   1      10.951   7.655 -10.360  0.00  0.00     0.132 C 
BRANCH  19  20
ATOM     20  N   UNL d   1      11.258   7.950  -8.975  0.00  0.00    -0.233 NA
ATOM     21  C   UNL d   1      10.731   7.330  -7.910  0.00  0.00     0.293 C 
ATOM     22  O   UNL d   1      10.036   6.320  -7.966  0.00  0.00    -0.264 OA
BRANCH  21  23
ATOM     23  C   UNL d   1      11.061   7.968  -6.605  0.00  0.00     0.139 A 
ATOM     24  N   UNL d   1      11.428   7.143  -5.608  0.00  0.00    -0.241 NA
ATOM     25  C   UNL d   1      11.690   7.663  -4.402  0.00  0.00     0.082 A 
ATOM     26  C   UNL d   1      11.581   9.059  -4.146  0.00  0.00     0.018 A 
ATOM     27  C   UNL d   1      12.072   6.803  -3.359  0.00  0.00     0.019 A 
ATOM     28  C   UNL d   1      11.185   9.923  -5.186  0.00  0.00     0.003 A 
ATOM     29  C   UNL d   1      11.860   9.570  -2.875  0.00  0.00     0.002 A 
ATOM     30  C   UNL d   1      10.922   9.365  -6.447  0.00  0.00     0.024 A 
ATOM     31  C   UNL d   1      12.263   8.695  -1.850  0.00  0.00     0.000 A 
ATOM     32  C   UNL d   1      12.346   7.315  -2.085  0.00  0.00     0.002 A 
ENDBRANCH  21  23
ENDBRANCH  19  20
ENDBRANCH  18  19
ENDBRANCH   1  18
TORSDOF 8
