REMARK  8 active torsions:
REMARK  status: ('A' for Active; 'I' for Inactive)
REMARK    1  A    between atoms: C_3  and  S_4 
REMARK    2  A    between atoms: S_4  and  C_5 
REMARK    3  A    between atoms: C_5  and  C_6 
REMARK    4  A    between atoms: C_6  and  C_7 
REMARK    5  A    between atoms: C_7  and  N_8 
REMARK    6  A    between atoms: C_13  and  C_14 
REMARK    7  A    between atoms: C_17  and  C_18 
REMARK    8  A    between atoms: C_28  and  C_29 
ROOT
ATOM      1  N   UNL d   1      13.259   1.327 -20.257  0.00  0.00     0.137 N 
ATOM      2  C   UNL d   1      12.045   0.772 -20.853  0.00  0.00     0.250 C 
ATOM      3  C   UNL d   1      10.781   1.566 -20.496  0.00  0.00     0.036 C 
ATOM      4  C   UNL d   1      10.197   1.323 -19.117  0.00  0.00     0.006 A 
ATOM      5  C   UNL d   1      10.451   0.083 -18.286  0.00  0.00     0.004 A 
ATOM      6  C   UNL d   1      11.021   1.429 -17.855  0.00  0.00     0.021 A 
ATOM      7  C   UNL d   1      12.516   1.742 -17.904  0.00  0.00     0.039 C 
ATOM      8  C   UNL d   1      13.385   0.908 -18.864  0.00  0.00     0.251 C 
ENDROOT
BRANCH   1   9
ATOM      9  C   UNL d   1      14.416   0.847 -21.006  0.00  0.00     0.251 C 
BRANCH   9  10
ATOM     10  C   UNL d   1      14.575   1.653 -22.308  0.00  0.00     0.047 C 
BRANCH  10  11
ATOM     11  C   UNL d   1      15.704   1.114 -23.205  0.00  0.00     0.067 C 
BRANCH  11  12
ATOM     12  S   UNL d   1      17.367   1.245 -22.489  0.00  0.00    -0.075 SA
BRANCH  12  13
ATOM     13  C   UNL d   1      17.501   2.990 -22.271  0.00  0.00     0.193 A 
ATOM     14  N   UNL d   1      18.594   3.553 -21.702  0.00  0.00    -0.289 N 
ATOM     15  C   UNL d   1      19.814   2.903 -21.232  0.00  0.00     0.134 C 
ATOM     16  C   UNL d   1      18.225   4.850 -21.602  0.00  0.00     0.169 A 
ATOM     17  N   UNL d   1      16.990   5.080 -22.083  0.00  0.00    -0.128 NA
ATOM     18  N   UNL d   1      16.526   3.852 -22.564  0.00  0.00    -0.122 NA
BRANCH  16  19
ATOM     19  C   UNL d   1      19.037   5.920 -21.071  0.00  0.00     0.059 A 
ATOM     20  C   UNL d   1      18.607   6.764 -20.027  0.00  0.00     0.125 A 
ATOM     21  N   UNL d   1      19.361   7.793 -19.569  0.00  0.00    -0.146 NA
ATOM     22  N   UNL d   1      20.562   8.044 -20.104  0.00  0.00    -0.146 NA
ATOM     23  C   UNL d   1      21.026   7.270 -21.120  0.00  0.00     0.122 A 
ATOM     24  C   UNL d   1      20.294   6.187 -21.643  0.00  0.00     0.027 A 
ENDBRANCH  16  19
ENDBRANCH  12  13
ENDBRANCH  11  12
ENDBRANCH  10  11
ENDBRANCH   9  10
ENDBRANCH   1   9
BRANCH   6  25
ATOM     25  C   UNL d   1      10.405   2.153 -16.693  0.00  0.00    -0.023 A 
ATOM     26  C   UNL d   1      10.243   3.557 -16.728  0.00  0.00    -0.004 A 
ATOM     27  C   UNL d   1       9.671   4.239 -15.640  0.00  0.00     0.004 A 
ATOM     28  C   UNL d   1       9.236   3.527 -14.500  0.00  0.00     0.071 A 
ATOM     29  C   UNL d   1       9.392   2.128 -14.469  0.00  0.00     0.004 A 
ATOM     30  C   UNL d   1       9.981   1.447 -15.550  0.00  0.00    -0.004 A 
BRANCH  28  31
ATOM     31  C   UNL d   1       8.601   4.240 -13.319  0.00  0.00     0.419 C 
ATOM     32  F   UNL d   1       8.550   5.559 -13.500  0.00  0.00    -0.166 F 
ATOM     33  F   UNL d   1       7.357   3.790 -13.147  0.00  0.00    -0.166 F 
ATOM     34  F   UNL d   1       9.313   3.992 -12.220  0.00  0.00    -0.166 F 
ENDBRANCH  28  31
ENDBRANCH   6  25
TORSDOF 8
