REMARK  5 active torsions:
REMARK  status: ('A' for Active; 'I' for Inactive)
REMARK    1  A    between atoms: C_2  and  C_3 
REMARK    2  A    between atoms: C_3  and  N_4 
REMARK    3  A    between atoms: N_4  and  C_5 
REMARK    4  A    between atoms: N_4  and  C_8 
REMARK    5  A    between atoms: C_5  and  C_6 
ROOT
ATOM      1  C   UNL d   1       7.340   4.032 -12.275  0.00  0.00     0.224 C 
ATOM      2  C   UNL d   1       5.862   4.133 -12.595  0.00  0.00     0.038 C 
ATOM      3  C   UNL d   1       5.286   2.705 -12.803  0.00  0.00     0.029 C 
ATOM      4  C   UNL d   1       6.135   1.800 -13.726  0.00  0.00    -0.014 C 
ATOM      5  C   UNL d   1       7.400   2.151 -14.064  0.00  0.00    -0.045 C 
ATOM      6  C   UNL d   1       8.299   1.334 -14.974  0.00  0.00     0.022 C 
ATOM      7  C   UNL d   1       7.480   0.454 -15.915  0.00  0.00     0.011 C 
ATOM      8  C   UNL d   1       6.402  -0.345 -15.175  0.00  0.00     0.048 C 
ATOM      9  C   UNL d   1       5.557   0.494 -14.197  0.00  0.00     0.084 C 
ATOM     10  N   UNL d   1       4.410   0.128 -13.776  0.00  0.00    -0.101 NA
ATOM     11  O   UNL d   1       3.981  -1.108 -14.377  0.00  0.00    -0.061 OA
ATOM     12  C   UNL d   1       8.099   3.366 -13.472  0.00  0.00     0.055 C 
ENDROOT
BRANCH   1  13
ATOM     13  N   UNL d   1       7.940   5.293 -11.801  0.00  0.00     0.135 N 
BRANCH  13  14
ATOM     14  C   UNL d   1       8.298   6.208 -12.868  0.00  0.00     0.250 C 
BRANCH  14  15
ATOM     15  C   UNL d   1       8.351   7.638 -12.346  0.00  0.00     0.035 C 
ATOM     16  C   UNL d   1       7.003   8.321 -12.524  0.00  0.00     0.002 C 
ENDBRANCH  14  15
ENDBRANCH  13  14
BRANCH  13  17
ATOM     17  C   UNL d   1       9.091   5.038 -10.953  0.00  0.00     0.250 C 
BRANCH  17  18
ATOM     18  C   UNL d   1       8.775   5.358  -9.478  0.00  0.00     0.035 C 
ATOM     19  C   UNL d   1      10.039   5.414  -8.599  0.00  0.00     0.002 C 
ENDBRANCH  17  18
ENDBRANCH  13  17
ENDBRANCH   1  13
TORSDOF 5
