REMARK  7 active torsions:
REMARK  status: ('A' for Active; 'I' for Inactive)
REMARK    1  A    between atoms: C_2  and  C_3 
REMARK    2  A    between atoms: C_6  and  C_7 
REMARK    3  A    between atoms: C_7  and  O_9 
REMARK    4  A    between atoms: O_9  and  C_10 
REMARK    5  A    between atoms: C_13  and  C_14 
REMARK    6  A    between atoms: C_14  and  C_15 
REMARK    7  A    between atoms: C_15  and  C_16 
ROOT
ATOM      1  C   UNL d   1       8.810   4.812 -11.520  0.00  0.00     0.103 A 
ATOM      2  C   UNL d   1       7.411   4.932 -11.623  0.00  0.00     0.025 A 
ATOM      3  C   UNL d   1       6.732   4.312 -12.680  0.00  0.00    -0.002 A 
ATOM      4  C   UNL d   1       7.460   3.581 -13.645  0.00  0.00    -0.021 A 
ATOM      5  C   UNL d   1       8.867   3.495 -13.563  0.00  0.00    -0.002 A 
ATOM      6  C   UNL d   1       9.534   4.087 -12.486  0.00  0.00     0.025 A 
ENDROOT
BRANCH   1   7
ATOM      7  O   UNL d   1       9.458   5.357 -10.449  0.00  0.00    -0.276 OA
BRANCH   7   8
ATOM      8  C   UNL d   1       9.716   6.678 -10.464  0.00  0.00     0.276 C 
ATOM      9  O   UNL d   1       9.458   7.440 -11.403  0.00  0.00    -0.264 OA
BRANCH   8  10
ATOM     10  C   UNL d   1      10.441   7.148  -9.192  0.00  0.00     0.087 C 
ATOM     11  C   UNL d   1      10.457   8.683  -9.064  0.00  0.00     0.010 C 
ATOM     12  C   UNL d   1      11.163   9.129  -7.771  0.00  0.00     0.003 C 
ATOM     13  C   UNL d   1      10.524   8.506  -6.523  0.00  0.00     0.039 C 
ATOM     14  C   UNL d   1      10.544   6.979  -6.639  0.00  0.00     0.003 C 
ATOM     15  C   UNL d   1       9.846   6.498  -7.921  0.00  0.00     0.010 C 
BRANCH  13  16
ATOM     16  C   UNL d   1      11.254   8.968  -5.252  0.00  0.00     0.338 C 
ATOM     17  N   UNL d   1      10.906  10.337  -4.937  0.00  0.00     0.618 N 
ENDBRANCH  13  16
ENDBRANCH   8  10
ENDBRANCH   7   8
ENDBRANCH   1   7
BRANCH   4  18
ATOM     18  C   UNL d   1       6.717   2.870 -14.748  0.00  0.00     0.038 C 
BRANCH  18  19
ATOM     19  C   UNL d   1       6.188   1.489 -14.347  0.00  0.00     0.102 C 
BRANCH  19  20
ATOM     20  C   UNL d   1       7.228   0.376 -14.454  0.00  0.00     0.186 C 
ATOM     21  O   UNL d   1       8.449   0.531 -14.493  0.00  0.00    -0.647 OA
ATOM     22  O   UNL d   1       6.606  -0.819 -14.589  0.00  0.00    -0.647 OA
ENDBRANCH  19  20
ENDBRANCH  18  19
ENDBRANCH   4  18
TORSDOF 7
