REMARK  8 active torsions:
REMARK  status: ('A' for Active; 'I' for Inactive)
REMARK    1  A    between atoms: C_4  and  N_5 
REMARK    2  A    between atoms: N_5  and  C_6 
REMARK    3  A    between atoms: C_6  and  C_7 
REMARK    4  A    between atoms: C_7  and  C_8 
REMARK    5  A    between atoms: C_17  and  N_18 
REMARK    6  A    between atoms: N_18  and  C_19 
REMARK    7  A    between atoms: C_19  and  C_20 
REMARK    8  A    between atoms: C_20  and  C_21 
ROOT
ATOM      1  N   UNL d   1       8.705   4.275  -8.772  0.00  0.00     0.063 N 
ATOM      2  C   UNL d   1       8.862   5.152  -9.799  0.00  0.00     0.799 A 
ATOM      3  N   UNL d   1       8.386   4.787 -10.961  0.00  0.00     0.136 NA
ATOM      4  C   UNL d   1       8.693   5.656 -11.928  0.00  0.00     0.776 A 
ATOM      5  N   UNL d   1       9.420   6.774 -11.800  0.00  0.00     0.134 NA
ATOM      6  C   UNL d   1       9.788   7.005 -10.538  0.00  0.00     0.776 A 
ATOM      7  N   UNL d   1       9.559   6.214  -9.495  0.00  0.00     0.136 NA
ENDROOT
BRANCH   6   8
ATOM      8  N   UNL d   1      10.547   8.141 -10.313  0.00  0.00    -0.085 NA
BRANCH   8   9
ATOM      9  C   UNL d   1      10.621   8.858  -9.043  0.00  0.00     0.150 C 
BRANCH   9  10
ATOM     10  C   UNL d   1      11.056   7.995  -7.824  0.00  0.00     0.055 C 
BRANCH  10  11
ATOM     11  C   UNL d   1      11.277   8.746  -6.572  0.00  0.00     0.000 A 
ATOM     12  C   UNL d   1      11.472   8.169  -5.274  0.00  0.00     0.015 A 
ATOM     13  C   UNL d   1      11.596   9.237  -4.342  0.00  0.00     0.081 A 
ATOM     14  C   UNL d   1      11.580   6.849  -4.778  0.00  0.00     0.001 A 
ATOM     15  N   UNL d   1      11.395  10.390  -5.072  0.00  0.00    -0.244 NA
ATOM     16  C   UNL d   1      11.866   9.014  -2.983  0.00  0.00     0.019 A 
ATOM     17  C   UNL d   1      11.249  10.100  -6.404  0.00  0.00     0.095 A 
ATOM     18  C   UNL d   1      12.008   7.695  -2.522  0.00  0.00     0.002 A 
ATOM     19  C   UNL d   1      11.863   6.620  -3.414  0.00  0.00     0.000 A 
ENDBRANCH  10  11
ENDBRANCH   9  10
ENDBRANCH   8   9
ENDBRANCH   6   8
BRANCH   4  20
ATOM     20  N   UNL d   1       8.287   5.352 -13.209  0.00  0.00    -0.085 NA
BRANCH  20  21
ATOM     21  C   UNL d   1       7.435   4.210 -13.541  0.00  0.00     0.150 C 
BRANCH  21  22
ATOM     22  C   UNL d   1       8.269   3.034 -14.082  0.00  0.00     0.054 C 
BRANCH  22  23
ATOM     23  C   UNL d   1       7.418   1.978 -14.778  0.00  0.00    -0.009 A 
ATOM     24  C   UNL d   1       7.607   1.665 -16.147  0.00  0.00     0.064 A 
ATOM     25  C   UNL d   1       6.781   0.703 -16.765  0.00  0.00     0.068 A 
ATOM     26 CL   UNL d   1       8.838   2.439 -17.088  0.00  0.00    -0.082 Cl
ATOM     27  C   UNL d   1       5.788   0.038 -16.024  0.00  0.00     0.012 A 
ATOM     28 CL   UNL d   1       6.965   0.341 -18.443  0.00  0.00    -0.082 Cl
ATOM     29  C   UNL d   1       5.606   0.334 -14.664  0.00  0.00     0.001 A 
ATOM     30  C   UNL d   1       6.415   1.306 -14.040  0.00  0.00    -0.003 A 
ENDBRANCH  22  23
ENDBRANCH  21  22
ENDBRANCH  20  21
ENDBRANCH   4  20
TORSDOF 8
