REMARK  5 active torsions:
REMARK  status: ('A' for Active; 'I' for Inactive)
REMARK    1  A    between atoms: C_2  and  C_3 
REMARK    2  A    between atoms: C_8  and  C_9 
REMARK    3  A    between atoms: N_11  and  S_12 
REMARK    4  A    between atoms: S_12  and  C_15 
REMARK    5  A    between atoms: C_24  and  O_25 
ROOT
ATOM      1  C   UNL d   1      10.783   3.691 -15.751  0.00  0.00     0.039 A 
ATOM      2  C   UNL d   1      10.527   2.424 -16.204  0.00  0.00     0.093 A 
ATOM      3  N   UNL d   1       9.369   1.938 -15.634  0.00  0.00    -0.231 N 
ATOM      4  C   UNL d   1       8.813   2.892 -14.806  0.00  0.00     0.075 A 
ATOM      5  C   UNL d   1       7.630   2.909 -14.043  0.00  0.00     0.020 A 
ATOM      6  C   UNL d   1       7.339   4.023 -13.236  0.00  0.00     0.026 A 
ATOM      7  C   UNL d   1       8.213   5.129 -13.207  0.00  0.00     0.094 A 
ATOM      8  C   UNL d   1       9.393   5.094 -13.988  0.00  0.00     0.026 A 
ATOM      9  C   UNL d   1       9.715   3.999 -14.822  0.00  0.00     0.022 A 
ENDROOT
BRANCH   3  10
ATOM     10  S   UNL d   1       8.773   0.364 -15.938  0.00  0.00     0.271 S 
ATOM     11  O   UNL d   1       9.946  -0.420 -16.340  0.00  0.00    -0.200 OA
ATOM     12  O   UNL d   1       7.982  -0.008 -14.755  0.00  0.00    -0.200 OA
BRANCH  10  13
ATOM     13  C   UNL d   1       7.703   0.588 -17.349  0.00  0.00     0.104 A 
ATOM     14  C   UNL d   1       6.317   0.356 -17.240  0.00  0.00     0.013 A 
ATOM     15  C   UNL d   1       5.493   0.529 -18.369  0.00  0.00     0.001 A 
ATOM     16  C   UNL d   1       6.053   0.942 -19.596  0.00  0.00     0.000 A 
ATOM     17  C   UNL d   1       7.438   1.179 -19.698  0.00  0.00     0.001 A 
ATOM     18  C   UNL d   1       8.267   0.998 -18.572  0.00  0.00     0.013 A 
ENDBRANCH  10  13
ENDBRANCH   3  10
BRANCH   1  19
ATOM     19  C   UNL d   1      11.881   4.595 -16.127  0.00  0.00     0.116 A 
ATOM     20  C   UNL d   1      12.989   4.381 -16.928  0.00  0.00     0.096 A 
ATOM     21  N   UNL d   1      13.680   5.581 -16.966  0.00  0.00    -0.061 NA
ATOM     22  C   UNL d   1      13.003   6.447 -16.220  0.00  0.00     0.768 A 
ATOM     23  N   UNL d   1      11.911   5.925 -15.688  0.00  0.00    -0.057 NA
ATOM     24  N   UNL d   1      13.452   7.736 -16.043  0.00  0.00     0.062 N 
BRANCH  20  25
ATOM     25  C   UNL d   1      13.473   3.180 -17.670  0.00  0.00     0.048 C 
ATOM     26  C   UNL d   1      12.974   3.126 -19.119  0.00  0.00     0.007 C 
ENDBRANCH  20  25
ENDBRANCH   1  19
BRANCH   7  27
ATOM     27  O   UNL d   1       7.862   6.201 -12.417  0.00  0.00    -0.328 OA
ATOM     28  C   UNL d   1       8.880   7.118 -12.041  0.00  0.00     0.181 C 
ENDBRANCH   7  27
TORSDOF 5
