REMARK  8 active torsions:
REMARK  status: ('A' for Active; 'I' for Inactive)
REMARK    1  A    between atoms: O_2  and  C_3 
REMARK    2  A    between atoms: C_6  and  C_7 
REMARK    3  A    between atoms: N_11  and  C_12 
REMARK    4  A    between atoms: C_12  and  C_13 
REMARK    5  A    between atoms: C_13  and  C_14 
REMARK    6  A    between atoms: C_14  and  S_15 
REMARK    7  A    between atoms: S_15  and  C_16 
REMARK    8  A    between atoms: C_19  and  C_20 
ROOT
ATOM      1  S   UNL d   1      13.891   1.449 -21.621  0.00  0.00    -0.075 SA
ENDROOT
BRANCH   1   2
ATOM      2  C   UNL d   1      13.105   0.180 -20.562  0.00  0.00     0.067 C 
BRANCH   2   3
ATOM      3  C   UNL d   1      11.616   0.508 -20.255  0.00  0.00     0.047 C 
BRANCH   3   4
ATOM      4  C   UNL d   1      11.013  -0.434 -19.208  0.00  0.00     0.251 C 
BRANCH   4   5
ATOM      5  N   UNL d   1       9.560  -0.301 -19.161  0.00  0.00     0.137 N 
ATOM      6  C   UNL d   1       9.097   0.996 -18.655  0.00  0.00     0.251 C 
ATOM      7  C   UNL d   1       7.682   0.726 -18.216  0.00  0.00     0.039 A 
ATOM      8  C   UNL d   1       7.584  -0.745 -17.979  0.00  0.00     0.052 A 
ATOM      9  C   UNL d   1       7.338   0.212 -16.837  0.00  0.00     0.008 A 
ATOM     10  C   UNL d   1       8.964  -1.304 -18.271  0.00  0.00     0.254 C 
BRANCH   8  11
ATOM     11  C   UNL d   1       6.464  -1.527 -18.582  0.00  0.00    -0.021 A 
ATOM     12  C   UNL d   1       6.160  -1.435 -19.962  0.00  0.00    -0.002 A 
ATOM     13  C   UNL d   1       5.074  -2.140 -20.505  0.00  0.00     0.024 A 
ATOM     14  C   UNL d   1       4.261  -2.960 -19.691  0.00  0.00     0.094 A 
ATOM     15  C   UNL d   1       4.565  -3.049 -18.310  0.00  0.00     0.024 A 
ATOM     16  C   UNL d   1       5.651  -2.345 -17.769  0.00  0.00    -0.002 A 
BRANCH  14  17
ATOM     17  O   UNL d   1       3.222  -3.627 -20.303  0.00  0.00    -0.328 OA
ATOM     18  C   UNL d   1       2.364  -4.420 -19.493  0.00  0.00     0.181 C 
ENDBRANCH  14  17
ENDBRANCH   8  11
ENDBRANCH   4   5
ENDBRANCH   3   4
ENDBRANCH   2   3
ENDBRANCH   1   2
BRANCH   1  19
ATOM     19  C   UNL d   1      13.284   2.944 -20.884  0.00  0.00     0.193 A 
ATOM     20  N   UNL d   1      13.475   3.279 -19.585  0.00  0.00    -0.289 N 
ATOM     21  C   UNL d   1      12.798   4.447 -19.503  0.00  0.00     0.167 A 
ATOM     22  C   UNL d   1      14.176   2.551 -18.528  0.00  0.00     0.134 C 
ATOM     23  N   UNL d   1      12.231   4.811 -20.652  0.00  0.00    -0.128 NA
ATOM     24  N   UNL d   1      12.579   3.843 -21.564  0.00  0.00    -0.122 NA
BRANCH  21  25
ATOM     25  C   UNL d   1      12.692   5.252 -18.297  0.00  0.00     0.037 A 
ATOM     26  C   UNL d   1      12.052   4.785 -17.110  0.00  0.00     0.021 A 
ATOM     27  C   UNL d   1      12.039   5.600 -15.943  0.00  0.00     0.081 A 
ATOM     28  C   UNL d   1      11.444   3.510 -17.036  0.00  0.00     0.003 A 
ATOM     29  C   UNL d   1      12.645   6.867 -15.995  0.00  0.00     0.019 A 
ATOM     30  N   UNL d   1      11.460   5.182 -14.783  0.00  0.00    -0.250 NA
ATOM     31  C   UNL d   1      13.277   7.333 -17.163  0.00  0.00     0.002 A 
ATOM     32  C   UNL d   1      13.300   6.519 -18.307  0.00  0.00     0.003 A 
ATOM     33  C   UNL d   1      10.883   3.969 -14.737  0.00  0.00     0.059 A 
ATOM     34  C   UNL d   1      10.231   3.574 -13.429  0.00  0.00     0.052 C 
ATOM     35  C   UNL d   1      10.857   3.087 -15.832  0.00  0.00     0.015 A 
ENDBRANCH  21  25
ENDBRANCH   1  19
TORSDOF 8
