REMARK  2 active torsions:
REMARK  status: ('A' for Active; 'I' for Inactive)
REMARK    1  A    between atoms: N_5  and  C_6 
REMARK    2  A    between atoms: C_18  and  C_19 
ROOT
ATOM      1  C   UNL d   1       9.765   1.940 -15.374  0.00  0.00     0.246 C 
ATOM      2  C   UNL d   1       8.425   2.019 -14.595  0.00  0.00     0.065 C 
ATOM      3  C   UNL d   1       7.436   0.883 -14.799  0.00  0.00    -0.014 A 
ATOM      4  C   UNL d   1       7.192  -0.064 -13.801  0.00  0.00    -0.004 A 
ATOM      5  C   UNL d   1       6.271  -1.109 -14.032  0.00  0.00    -0.000 A 
ATOM      6  C   UNL d   1       5.567  -1.206 -15.246  0.00  0.00     0.001 A 
ATOM      7  C   UNL d   1       5.811  -0.250 -16.250  0.00  0.00     0.006 A 
ATOM      8  C   UNL d   1       6.741   0.783 -16.015  0.00  0.00     0.025 A 
ATOM      9  S   UNL d   1       7.090   1.952 -17.258  0.00  0.00    -0.087 SA
ATOM     10  C   UNL d   1       8.686   1.406 -17.721  0.00  0.00     0.027 C 
ATOM     11  C   UNL d   1       8.843   0.999 -19.062  0.00  0.00     0.006 C 
ATOM     12  C   UNL d   1      10.098   0.600 -19.535  0.00  0.00     0.001 C 
ATOM     13  C   UNL d   1      11.197   0.558 -18.642  0.00  0.00     0.003 C 
ATOM     14  C   UNL d   1      11.014   0.860 -17.279  0.00  0.00    -0.002 C 
ATOM     15  C   UNL d   1       9.783   1.367 -16.807  0.00  0.00     0.015 C 
ENDROOT
BRANCH   1  16
ATOM     16  N   UNL d   1      10.492   3.217 -15.274  0.00  0.00     0.144 N 
ATOM     17  C   UNL d   1      10.121   4.176 -16.327  0.00  0.00     0.286 C 
ATOM     18  C   UNL d   1      10.841   5.518 -16.189  0.00  0.00     0.286 C 
ATOM     19  N   UNL d   1      12.287   5.364 -16.154  0.00  0.00     0.143 N 
ATOM     20  C   UNL d   1      12.946   6.646 -16.047  0.00  0.00     0.285 C 
ATOM     21  C   UNL d   1      12.641   4.479 -15.050  0.00  0.00     0.286 C 
ATOM     22  C   UNL d   1      11.955   3.103 -15.240  0.00  0.00     0.286 C 
ENDBRANCH   1  16
BRANCH  13  23
ATOM     23  C   UNL d   1      12.526   0.195 -19.126  0.00  0.00     0.038 A 
ATOM     24  C   UNL d   1      13.604   1.090 -19.313  0.00  0.00     0.102 A 
ATOM     25  N   UNL d   1      14.822   0.661 -19.738  0.00  0.00    -0.223 NA
ATOM     26  C   UNL d   1      14.938  -0.640 -20.006  0.00  0.00     0.199 A 
ATOM     27  N   UNL d   1      13.988  -1.563 -19.866  0.00  0.00    -0.223 NA
ATOM     28  C   UNL d   1      12.805  -1.137 -19.409  0.00  0.00     0.102 A 
ENDBRANCH  13  23
TORSDOF 2
