REMARK  10 active torsions:
REMARK  status: ('A' for Active; 'I' for Inactive)
REMARK    1  A    between atoms: C_2  and  C_3 
REMARK    2  A    between atoms: C_3  and  N_4 
REMARK    3  A    between atoms: N_4  and  C_5 
REMARK    4  A    between atoms: N_4  and  C_24 
REMARK    5  A    between atoms: C_5  and  C_6 
REMARK    6  A    between atoms: C_6  and  C_7 
REMARK    7  A    between atoms: C_7  and  C_8 
REMARK    8  A    between atoms: C_8  and  N_9 
REMARK       I    between atoms: N_9  and  C_10 
REMARK    9  A    between atoms: C_10  and  C_12 
REMARK   10  A    between atoms: C_15  and  C_16 
ROOT
ATOM      1  C   UNL d   1       6.969   3.241 -13.827  0.00  0.00     0.037 C 
ENDROOT
BRANCH   1   2
ATOM      2  C   UNL d   1       7.909   2.278 -14.578  0.00  0.00     0.250 C 
BRANCH   2   3
ATOM      3  N   UNL d   1       7.253   1.790 -15.790  0.00  0.00     0.136 N 
BRANCH   3   4
ATOM      4  C   UNL d   1       6.442   0.623 -15.420  0.00  0.00     0.250 C 
BRANCH   4   5
ATOM      5  C   UNL d   1       5.641   0.005 -16.586  0.00  0.00     0.035 C 
ATOM      6  C   UNL d   1       4.727  -1.143 -16.129  0.00  0.00     0.002 C 
ENDBRANCH   4   5
ENDBRANCH   3   4
BRANCH   3   7
ATOM      7  C   UNL d   1       8.205   1.551 -16.887  0.00  0.00     0.228 C 
ATOM      8  C   UNL d   1       9.151   0.338 -16.586  0.00  0.00     0.063 C 
ATOM      9  C   UNL d   1      10.212   0.097 -17.617  0.00  0.00     0.018 A 
ATOM     10  C   UNL d   1      11.016  -0.957 -18.041  0.00  0.00     0.118 A 
ATOM     11  C   UNL d   1      10.438   1.256 -18.308  0.00  0.00     0.077 A 
ATOM     12  N   UNL d   1      11.804  -0.507 -19.006  0.00  0.00    -0.164 NA
ATOM     13  N   UNL d   1      11.451   0.849 -19.166  0.00  0.00    -0.229 N 
ATOM     14  C   UNL d   1      12.049   1.671 -20.076  0.00  0.00     0.100 A 
ATOM     15  C   UNL d   1      11.637   2.986 -20.157  0.00  0.00     0.020 A 
ATOM     16  C   UNL d   1      10.601   3.459 -19.314  0.00  0.00    -0.001 A 
ATOM     17  C   UNL d   1      10.020   2.584 -18.428  0.00  0.00    -0.003 A 
ATOM     18  C   UNL d   1       8.937   2.853 -17.397  0.00  0.00     0.061 C 
ENDBRANCH   3   7
ENDBRANCH   2   3
ENDBRANCH   1   2
BRANCH   1  19
ATOM     19  C   UNL d   1       7.803   4.166 -12.944  0.00  0.00     0.029 C 
BRANCH  19  20
ATOM     20  C   UNL d   1       7.014   5.306 -12.276  0.00  0.00     0.129 C 
BRANCH  20  21
ATOM     21  N   UNL d   1       7.733   5.977 -11.194  0.00  0.00    -0.234 NA
ATOM     22  C   UNL d   1       9.060   6.011 -11.003  0.00  0.00     0.275 C 
ATOM     23  O   UNL d   1       9.859   5.689 -11.874  0.00  0.00    -0.266 OA
BRANCH  22  24
ATOM     24  C   UNL d   1       9.528   6.493  -9.668  0.00  0.00     0.058 A 
ATOM     25  C   UNL d   1      10.650   7.349  -9.582  0.00  0.00     0.005 A 
ATOM     26  C   UNL d   1      11.128   7.786  -8.334  0.00  0.00     0.000 A 
ATOM     27  C   UNL d   1      10.498   7.364  -7.146  0.00  0.00     0.000 A 
ATOM     28  C   UNL d   1       9.390   6.493  -7.226  0.00  0.00     0.000 A 
ATOM     29  C   UNL d   1       8.913   6.048  -8.475  0.00  0.00     0.005 A 
BRANCH  27  30
ATOM     30  C   UNL d   1      10.989   7.833  -5.840  0.00  0.00     0.000 A 
ATOM     31  C   UNL d   1      10.998   9.209  -5.538  0.00  0.00     0.000 A 
ATOM     32  C   UNL d   1      11.459   9.655  -4.287  0.00  0.00     0.000 A 
ATOM     33  C   UNL d   1      11.933   8.739  -3.331  0.00  0.00     0.000 A 
ATOM     34  C   UNL d   1      11.932   7.364  -3.627  0.00  0.00     0.000 A 
ATOM     35  C   UNL d   1      11.463   6.918  -4.876  0.00  0.00     0.000 A 
ENDBRANCH  27  30
ENDBRANCH  22  24
ENDBRANCH  20  21
ENDBRANCH  19  20
ENDBRANCH   1  19
TORSDOF 10
