REMARK  10 active torsions:
REMARK  status: ('A' for Active; 'I' for Inactive)
REMARK    1  A    between atoms: C_9  and  C_10 
REMARK    2  A    between atoms: C_10  and  C_12 
REMARK    3  A    between atoms: C_12  and  N_13 
REMARK    4  A    between atoms: N_13  and  C_14 
REMARK    5  A    between atoms: C_14  and  C_15 
REMARK    6  A    between atoms: C_15  and  C_16 
REMARK    7  A    between atoms: C_20  and  C_21 
REMARK    8  A    between atoms: C_21  and  N_22 
REMARK    9  A    between atoms: N_22  and  C_23 
REMARK   10  A    between atoms: C_23  and  C_24 
ROOT
ATOM      1  C   UNL d   1       9.672   6.404 -12.346  0.00  0.00     0.052 C 
ENDROOT
BRANCH   1   2
ATOM      2  C   UNL d   1       8.263   5.953 -12.591  0.00  0.00     0.125 C 
BRANCH   2   3
ATOM      3  N   UNL d   1       7.959   4.784 -11.770  0.00  0.00    -0.292 NA
BRANCH   3   4
ATOM      4  C   UNL d   1       6.612   4.281 -11.902  0.00  0.00     0.157 C 
BRANCH   4   5
ATOM      5  C   UNL d   1       6.241   3.962 -13.370  0.00  0.00     0.199 C 
ATOM      6  O   UNL d   1       5.017   4.586 -13.614  0.00  0.00    -0.216 OA
BRANCH   5   7
ATOM      7  C   UNL d   1       6.179   2.487 -13.641  0.00  0.00     0.018 A 
ATOM      8  C   UNL d   1       5.088   1.729 -13.163  0.00  0.00     0.001 A 
ATOM      9  C   UNL d   1       4.969   0.359 -13.490  0.00  0.00     0.029 A 
ATOM     10  C   UNL d   1       5.959  -0.289 -14.253  0.00  0.00     0.149 A 
ATOM     11  C   UNL d   1       7.061   0.476 -14.699  0.00  0.00     0.116 A 
ATOM     12  O   UNL d   1       5.821  -1.610 -14.534  0.00  0.00    -0.189 OA
ATOM     13  N   UNL d   1       8.150   0.015 -15.445  0.00  0.00    -0.200 NA
ATOM     14  C   UNL d   1       7.171   1.827 -14.408  0.00  0.00     0.052 A 
ATOM     15  C   UNL d   1       9.143   0.930 -15.750  0.00  0.00     0.311 A 
ATOM     16  O   UNL d   1      10.184   0.737 -16.368  0.00  0.00    -0.258 OA
ATOM     17  S   UNL d   1       8.644   2.526 -15.050  0.00  0.00    -0.024 SA
ENDBRANCH   5   7
ENDBRANCH   4   5
ENDBRANCH   3   4
ENDBRANCH   2   3
ENDBRANCH   1   2
BRANCH   1  18
ATOM     18  C   UNL d   1       9.860   7.069 -11.014  0.00  0.00    -0.020 A 
ATOM     19  C   UNL d   1      10.136   6.315  -9.858  0.00  0.00    -0.006 A 
ATOM     20  C   UNL d   1      10.283   6.962  -8.621  0.00  0.00     0.013 A 
ATOM     21  C   UNL d   1      10.146   8.365  -8.550  0.00  0.00    -0.002 A 
ATOM     22  C   UNL d   1       9.897   9.100  -9.709  0.00  0.00    -0.001 A 
ATOM     23  C   UNL d   1       9.730   8.462 -10.944  0.00  0.00    -0.004 A 
BRANCH  20  24
ATOM     24  C   UNL d   1      10.533   6.131  -7.387  0.00  0.00     0.317 C 
BRANCH  24  25
ATOM     25  N   UNL d   1      11.313   6.863  -6.403  0.00  0.00     0.349 N 
BRANCH  25  26
ATOM     26  C   UNL d   1      10.845   6.595  -5.065  0.00  0.00     0.318 C 
BRANCH  26  27
ATOM     27  C   UNL d   1      11.498   7.445  -4.014  0.00  0.00     0.024 A 
ATOM     28  C   UNL d   1      11.482   8.865  -4.069  0.00  0.00     0.056 A 
ATOM     29  C   UNL d   1      12.024   9.591  -3.014  0.00  0.00     0.011 A 
ATOM     30 CL   UNL d   1      10.738   9.804  -5.313  0.00  0.00    -0.083 Cl
ATOM     31  C   UNL d   1      12.606   8.938  -1.916  0.00  0.00     0.001 A 
ATOM     32  C   UNL d   1      12.620   7.548  -1.851  0.00  0.00    -0.000 A 
ATOM     33  C   UNL d   1      12.051   6.792  -2.882  0.00  0.00    -0.001 A 
ENDBRANCH  26  27
ENDBRANCH  25  26
ENDBRANCH  24  25
ENDBRANCH  20  24
ENDBRANCH   1  18
TORSDOF 10
