REMARK  3 active torsions:
REMARK  status: ('A' for Active; 'I' for Inactive)
REMARK    1  A    between atoms: C_6  and  S_7 
REMARK    2  A    between atoms: S_7  and  C_8 
REMARK    3  A    between atoms: C_15  and  N_16 
ROOT
ATOM      1  C   UNL d   1       8.750   3.248 -21.388  0.00  0.00     0.074 C 
ATOM      2  C   UNL d   1       9.216   2.743 -20.038  0.00  0.00     0.142 A 
ATOM      3  N   UNL d   1      10.526   2.647 -19.848  0.00  0.00    -0.219 NA
ATOM      4  C   UNL d   1      10.951   2.204 -18.646  0.00  0.00     0.149 A 
ATOM      5 CL   UNL d   1      12.653   2.081 -18.377  0.00  0.00    -0.061 Cl
ATOM      6  C   UNL d   1      10.037   1.839 -17.634  0.00  0.00     0.092 A 
ATOM      7  C   UNL d   1       8.660   1.952 -17.952  0.00  0.00     0.150 A 
ATOM      8  N   UNL d   1       8.257   2.426 -19.155  0.00  0.00    -0.213 NA
ENDROOT
BRANCH   6   9
ATOM      9  S   UNL d   1      10.618   1.350 -16.029  0.00  0.00    -0.082 SA
BRANCH   9  10
ATOM     10  C   UNL d   1      10.345   2.848 -15.095  0.00  0.00     0.030 C 
ATOM     11  C   UNL d   1      10.489   2.793 -13.690  0.00  0.00     0.007 C 
ATOM     12  C   UNL d   1      10.030   3.858 -12.892  0.00  0.00     0.012 C 
ATOM     13  C   UNL d   1       9.284   4.896 -13.459  0.00  0.00     0.058 C 
ATOM     14  C   UNL d   1       9.013   4.893 -14.832  0.00  0.00     0.012 C 
ATOM     15 CL   UNL d   1       8.774   6.227 -12.490  0.00  0.00    -0.082 Cl
ATOM     16  C   UNL d   1       9.646   3.951 -15.662  0.00  0.00     0.007 C 
ENDBRANCH   9  10
ENDBRANCH   6   9
BRANCH   7  17
ATOM     17  N   UNL d   1       7.617   1.639 -17.046  0.00  0.00    -0.329 N 
ATOM     18  C   UNL d   1       7.447   2.019 -15.659  0.00  0.00     0.138 C 
ATOM     19  C   UNL d   1       7.491   0.897 -14.655  0.00  0.00     0.274 C 
ATOM     20  N   UNL d   1       6.304   0.150 -14.974  0.00  0.00     0.143 N 
ATOM     21  C   UNL d   1       6.422  -0.355 -16.349  0.00  0.00     0.274 C 
ATOM     22  C   UNL d   1       6.193  -0.941 -14.036  0.00  0.00     0.286 C 
ATOM     23  C   UNL d   1       6.519   0.790 -17.382  0.00  0.00     0.138 C 
ENDBRANCH   7  17
TORSDOF 3
