REMARK  2 active torsions:
REMARK  status: ('A' for Active; 'I' for Inactive)
REMARK    1  A    between atoms: O_2  and  C_3 
REMARK    2  A    between atoms: C_17  and  O_18 
ROOT
ATOM      1  C   UNL d   1       6.759   0.238 -19.538  0.00  0.00     0.094 A 
ATOM      2  C   UNL d   1       5.666   0.416 -18.658  0.00  0.00     0.024 A 
ATOM      3  C   UNL d   1       5.860   0.334 -17.269  0.00  0.00    -0.002 A 
ATOM      4  C   UNL d   1       7.132   0.076 -16.721  0.00  0.00    -0.022 A 
ATOM      5  C   UNL d   1       8.242  -0.108 -17.597  0.00  0.00    -0.022 A 
ATOM      6  C   UNL d   1       8.029  -0.025 -18.991  0.00  0.00     0.020 A 
ATOM      7  C   UNL d   1       9.677  -0.373 -17.133  0.00  0.00     0.061 C 
ATOM      8  C   UNL d   1      10.595   0.864 -17.306  0.00  0.00     0.255 C 
ATOM      9  N   UNL d   1      11.097   1.461 -16.063  0.00  0.00     0.140 N 
ATOM     10  C   UNL d   1      11.870   2.658 -16.373  0.00  0.00     0.285 C 
ATOM     11  C   UNL d   1      10.094   1.736 -15.034  0.00  0.00     0.255 C 
ATOM     12  C   UNL d   1       8.885   2.554 -15.523  0.00  0.00     0.061 C 
ATOM     13  C   UNL d   1       7.697   2.456 -14.584  0.00  0.00    -0.022 A 
ATOM     14  C   UNL d   1       7.368   3.605 -13.842  0.00  0.00     0.020 A 
ATOM     15  C   UNL d   1       6.270   3.619 -12.955  0.00  0.00     0.094 A 
ATOM     16  C   UNL d   1       5.468   2.466 -12.848  0.00  0.00     0.024 A 
ATOM     17  C   UNL d   1       5.791   1.306 -13.581  0.00  0.00    -0.002 A 
ATOM     18  C   UNL d   1       6.905   1.284 -14.454  0.00  0.00    -0.022 A 
ATOM     19  C   UNL d   1       7.217  -0.013 -15.200  0.00  0.00     0.052 C 
ENDROOT
BRANCH   1  20
ATOM     20  O   UNL d   1       6.667   0.307 -20.911  0.00  0.00    -0.328 OA
ATOM     21  C   UNL d   1       5.389   0.548 -21.484  0.00  0.00     0.181 C 
ENDBRANCH   1  20
BRANCH  15  22
ATOM     22  O   UNL d   1       5.941   4.723 -12.208  0.00  0.00    -0.328 OA
ATOM     23  C   UNL d   1       7.025   5.502 -11.703  0.00  0.00     0.181 C 
ENDBRANCH  15  22
TORSDOF 2
