REMARK  3 active torsions:
REMARK  status: ('A' for Active; 'I' for Inactive)
REMARK    1  A    between atoms: C_5  and  N_6 
REMARK    2  A    between atoms: N_9  and  C_10 
REMARK    3  A    between atoms: C_10  and  C_11 
ROOT
ATOM      1  N   UNL d   1      10.591   6.962  -8.737  0.00  0.00    -0.344 N 
ATOM      2  C   UNL d   1       9.909   5.671  -8.859  0.00  0.00     0.137 C 
ATOM      3  C   UNL d   1       8.759   5.757  -9.876  0.00  0.00     0.275 C 
ATOM      4  N   UNL d   1       9.234   6.304 -11.162  0.00  0.00     0.146 N 
ATOM      5  C   UNL d   1       9.797   7.648 -10.945  0.00  0.00     0.275 C 
ATOM      6  C   UNL d   1      10.994   7.582  -9.992  0.00  0.00     0.137 C 
ENDROOT
BRANCH   4   7
ATOM      7  C   UNL d   1       8.122   6.383 -12.097  0.00  0.00     0.280 C 
BRANCH   7   8
ATOM      8  C   UNL d   1       7.521   5.120 -12.627  0.00  0.00     0.050 A 
ATOM      9  C   UNL d   1       8.063   4.213 -13.492  0.00  0.00     0.082 A 
ATOM     10  N   UNL d   1       7.106   3.198 -13.664  0.00  0.00    -0.229 N 
ATOM     11  C   UNL d   1       9.290   4.101 -14.198  0.00  0.00     0.019 A 
ATOM     12  N   UNL d   1       5.974   3.445 -12.930  0.00  0.00    -0.164 NA
ATOM     13  C   UNL d   1       7.318   2.110 -14.455  0.00  0.00     0.100 A 
ATOM     14  C   UNL d   1       6.247   4.575 -12.316  0.00  0.00     0.120 A 
ATOM     15  C   UNL d   1       8.512   2.005 -15.135  0.00  0.00     0.021 A 
ATOM     16  C   UNL d   1       9.504   3.010 -15.008  0.00  0.00     0.003 A 
ENDBRANCH   7   8
ENDBRANCH   4   7
BRANCH   1  17
ATOM     17  C   UNL d   1      10.820   7.590  -7.494  0.00  0.00     0.056 A 
ATOM     18  C   UNL d   1      11.064   6.820  -6.338  0.00  0.00     0.019 A 
ATOM     19  C   UNL d   1      11.287   7.437  -5.090  0.00  0.00     0.029 A 
ATOM     20  C   UNL d   1      11.282   8.838  -4.984  0.00  0.00     0.131 A 
ATOM     21  O   UNL d   1      11.474   9.448  -3.781  0.00  0.00    -0.190 OA
ATOM     22  C   UNL d   1      11.052   9.616  -6.127  0.00  0.00     0.029 A 
ATOM     23  C   UNL d   1      10.812   8.997  -7.369  0.00  0.00     0.019 A 
ENDBRANCH   1  17
TORSDOF 3
