REMARK  6 active torsions:
REMARK  status: ('A' for Active; 'I' for Inactive)
REMARK    1  A    between atoms: S_2  and  N_4 
REMARK    2  A    between atoms: S_2  and  C_23 
REMARK    3  A    between atoms: N_4  and  C_5 
REMARK    4  A    between atoms: C_5  and  C_6 
REMARK    5  A    between atoms: C_6  and  N_7 
REMARK    6  A    between atoms: C_10  and  C_11 
ROOT
ATOM      1  N   UNL d   1      10.284   0.875 -17.362  0.00  0.00     0.144 N 
ATOM      2  C   UNL d   1       9.584  -0.170 -16.623  0.00  0.00     0.276 C 
ATOM      3  C   UNL d   1       8.534   0.373 -15.653  0.00  0.00     0.005 C 
ATOM      4  C   UNL d   1       8.462   1.668 -15.273  0.00  0.00    -0.021 C 
ATOM      5  C   UNL d   1       9.476   2.611 -15.850  0.00  0.00     0.061 C 
ATOM      6  C   UNL d   1      10.673   1.893 -16.390  0.00  0.00     0.255 C 
ENDROOT
BRANCH   1   7
ATOM      7  C   UNL d   1      11.430   0.308 -18.083  0.00  0.00     0.278 C 
BRANCH   7   8
ATOM      8  C   UNL d   1      11.891   1.145 -19.310  0.00  0.00     0.174 C 
BRANCH   8   9
ATOM      9  N   UNL d   1      13.383   1.112 -19.375  0.00  0.00    -0.183 NA
BRANCH   9  10
ATOM     10  S   UNL d   1      14.327   2.404 -20.059  0.00  0.00     0.281 S 
ATOM     11  O   UNL d   1      15.728   1.980 -20.042  0.00  0.00    -0.199 OA
ATOM     12  O   UNL d   1      13.680   2.776 -21.339  0.00  0.00    -0.199 OA
BRANCH  10  13
ATOM     13  C   UNL d   1      14.168   3.800 -18.915  0.00  0.00     0.105 C 
ATOM     14  C   UNL d   1      13.157   3.769 -17.941  0.00  0.00     0.014 C 
ATOM     15  C   UNL d   1      12.871   4.853 -17.095  0.00  0.00     0.012 C 
ATOM     16  C   UNL d   1      13.733   5.941 -17.131  0.00  0.00     0.058 C 
ATOM     17  C   UNL d   1      14.832   5.943 -18.024  0.00  0.00     0.012 C 
ATOM     18 CL   UNL d   1      13.459   7.263 -16.036  0.00  0.00    -0.082 Cl
ATOM     19  C   UNL d   1      15.041   4.882 -18.937  0.00  0.00     0.014 C 
ENDBRANCH  10  13
ENDBRANCH   9  10
ENDBRANCH   8   9
ENDBRANCH   7   8
ENDBRANCH   1   7
BRANCH   4  20
ATOM     20  C   UNL d   1       7.408   2.161 -14.395  0.00  0.00     0.017 A 
ATOM     21  C   UNL d   1       7.413   3.411 -13.643  0.00  0.00     0.020 A 
ATOM     22  C   UNL d   1       6.191   3.426 -12.932  0.00  0.00     0.082 A 
ATOM     23  C   UNL d   1       8.292   4.514 -13.444  0.00  0.00     0.013 A 
ATOM     24  N   UNL d   1       5.523   2.243 -13.229  0.00  0.00    -0.244 NA
ATOM     25  C   UNL d   1       5.840   4.497 -12.091  0.00  0.00     0.020 A 
ATOM     26  C   UNL d   1       6.253   1.478 -14.107  0.00  0.00     0.099 A 
ATOM     27  C   UNL d   1       6.717   5.583 -11.937  0.00  0.00     0.013 A 
ATOM     28  C   UNL d   1       7.944   5.586 -12.604  0.00  0.00     0.058 A 
ATOM     29 CL   UNL d   1       9.053   6.887 -12.416  0.00  0.00    -0.082 Cl
ENDBRANCH   4  20
TORSDOF 6
