REMARK  4 active torsions:
REMARK  status: ('A' for Active; 'I' for Inactive)
REMARK    1  A    between atoms: C_16  and  C_17 
REMARK       I    between atoms: C_17  and  N_19 
REMARK    2  A    between atoms: N_19  and  C_20 
REMARK    3  A    between atoms: C_20  and  C_21 
REMARK    4  A    between atoms: C_21  and  N_22 
ROOT
ATOM      1  C   UNL d   1       9.071   4.966 -18.746  0.00  0.00     0.134 C 
ATOM      2  N   UNL d   1       9.676   3.636 -18.545  0.00  0.00    -0.293 N 
ATOM      3  C   UNL d   1      10.445   3.161 -19.564  0.00  0.00     0.261 C 
ATOM      4  O   UNL d   1      10.569   3.758 -20.634  0.00  0.00    -0.267 OA
ATOM      5  C   UNL d   1      11.297   1.939 -19.387  0.00  0.00     0.065 A 
ATOM      6  C   UNL d   1      12.643   1.989 -19.806  0.00  0.00     0.005 A 
ATOM      7  C   UNL d   1      13.470   0.855 -19.725  0.00  0.00     0.000 A 
ATOM      8  C   UNL d   1      12.953  -0.358 -19.239  0.00  0.00     0.001 A 
ATOM      9  C   UNL d   1      11.608  -0.433 -18.833  0.00  0.00     0.009 A 
ATOM     10  C   UNL d   1      10.787   0.713 -18.916  0.00  0.00     0.065 A 
ATOM     11  S   UNL d   1       9.048   0.572 -18.403  0.00  0.00     0.090 S 
ATOM     12  O   UNL d   1       8.928  -0.823 -17.795  0.00  0.00    -0.247 OA
ATOM     13  C   UNL d   1       9.265   1.712 -16.999  0.00  0.00     0.076 A 
ATOM     14  C   UNL d   1       9.093   1.202 -15.687  0.00  0.00     0.011 A 
ATOM     15  C   UNL d   1       9.225   2.067 -14.591  0.00  0.00     0.005 A 
ATOM     16  C   UNL d   1       9.545   3.420 -14.805  0.00  0.00     0.059 A 
ATOM     17  C   UNL d   1       9.739   3.905 -16.110  0.00  0.00     0.023 A 
ATOM     18  C   UNL d   1       9.583   3.068 -17.234  0.00  0.00     0.071 A 
ENDROOT
BRANCH  16  19
ATOM     19  C   UNL d   1       9.702   4.358 -13.655  0.00  0.00     0.275 C 
ATOM     20  O   UNL d   1      10.643   5.164 -13.638  0.00  0.00    -0.266 OA
ATOM     21  N   UNL d   1       8.723   4.297 -12.733  0.00  0.00    -0.232 NA
BRANCH  21  22
ATOM     22  C   UNL d   1       8.625   5.260 -11.639  0.00  0.00     0.164 C 
BRANCH  22  23
ATOM     23  C   UNL d   1       9.361   4.735 -10.371  0.00  0.00     0.276 C 
BRANCH  23  24
ATOM     24  N   UNL d   1       9.736   5.774  -9.403  0.00  0.00     0.139 N 
ATOM     25  C   UNL d   1       8.674   6.069  -8.460  0.00  0.00     0.250 C 
ATOM     26  C   UNL d   1       9.126   7.387  -7.817  0.00  0.00     0.037 C 
ATOM     27  C   UNL d   1      10.061   8.044  -8.832  0.00  0.00     0.037 C 
ATOM     28  C   UNL d   1      10.063   7.067  -9.993  0.00  0.00     0.250 C 
ENDBRANCH  23  24
ENDBRANCH  22  23
ENDBRANCH  21  22
ENDBRANCH  16  19
TORSDOF 4
