REMARK  3 active torsions:
REMARK  status: ('A' for Active; 'I' for Inactive)
REMARK    1  A    between atoms: C_2  and  C_3 
REMARK       I    between atoms: C_3  and  N_5 
REMARK    2  A    between atoms: C_8  and  C_9 
REMARK    3  A    between atoms: C_8  and  C_15 
ROOT
ATOM      1  C   UNL d   1      10.932   2.942 -15.299  0.00  0.00     0.234 C 
ATOM      2  O   UNL d   1      11.189   3.159 -16.479  0.00  0.00    -0.272 OA
ATOM      3  N   UNL d   1      10.377   3.859 -14.503  0.00  0.00    -0.320 N 
ATOM      4  C   UNL d   1       9.710   5.031 -15.030  0.00  0.00     0.105 C 
ATOM      5  C   UNL d   1       9.240   5.748 -13.785  0.00  0.00     0.034 C 
ATOM      6  C   UNL d   1       9.117   4.818 -12.662  0.00  0.00     0.060 C 
ATOM      7  C   UNL d   1      10.201   3.784 -13.052  0.00  0.00     0.112 C 
ENDROOT
BRANCH   6   8
ATOM      8  C   UNL d   1       9.384   5.521 -11.304  0.00  0.00    -0.017 A 
ATOM      9  C   UNL d   1       9.450   6.927 -11.102  0.00  0.00    -0.004 A 
ATOM     10  C   UNL d   1       9.737   7.482  -9.836  0.00  0.00    -0.000 A 
ATOM     11  C   UNL d   1       9.867   6.631  -8.728  0.00  0.00    -0.000 A 
ATOM     12  C   UNL d   1       9.729   5.247  -8.896  0.00  0.00    -0.000 A 
ATOM     13  C   UNL d   1       9.519   4.714 -10.178  0.00  0.00    -0.004 A 
ENDBRANCH   6   8
BRANCH   6  14
ATOM     14  C   UNL d   1       7.701   4.279 -12.777  0.00  0.00    -0.017 C 
ATOM     15  C   UNL d   1       6.700   4.859 -11.969  0.00  0.00    -0.004 C 
ATOM     16  C   UNL d   1       5.437   4.327 -12.004  0.00  0.00    -0.000 C 
ATOM     17  C   UNL d   1       5.090   3.217 -12.811  0.00  0.00    -0.000 C 
ATOM     18  C   UNL d   1       6.058   2.689 -13.670  0.00  0.00    -0.000 C 
ATOM     19  C   UNL d   1       7.333   3.257 -13.691  0.00  0.00    -0.004 C 
ENDBRANCH   6  14
BRANCH   1  20
ATOM     20  C   UNL d   1      11.204   1.580 -14.705  0.00  0.00     0.088 C 
ATOM     21  C   UNL d   1       9.977   0.664 -14.617  0.00  0.00     0.010 C 
ENDBRANCH   1  20
TORSDOF 3
