REMARK  13 active torsions:
REMARK  status: ('A' for Active; 'I' for Inactive)
REMARK    1  A    between atoms: C_9  and  C_10 
REMARK    2  A    between atoms: C_10  and  C_12 
REMARK    3  A    between atoms: C_12  and  N_13 
REMARK    4  A    between atoms: N_13  and  C_14 
REMARK    5  A    between atoms: C_14  and  C_15 
REMARK    6  A    between atoms: C_15  and  C_16 
REMARK    7  A    between atoms: C_16  and  S_17 
REMARK    8  A    between atoms: S_17  and  C_18 
REMARK    9  A    between atoms: C_18  and  C_19 
REMARK   10  A    between atoms: C_19  and  O_20 
REMARK   11  A    between atoms: O_20  and  C_21 
REMARK   12  A    between atoms: C_21  and  C_22 
REMARK   13  A    between atoms: C_22  and  C_23 
ROOT
ATOM      1  C   UNL d   1       6.226   4.854 -12.591  0.00  0.00     0.037 C 
ENDROOT
BRANCH   1   2
ATOM      2  C   UNL d   1       5.290   3.641 -12.469  0.00  0.00     0.121 C 
BRANCH   2   3
ATOM      3  N   UNL d   1       5.817   2.509 -13.222  0.00  0.00    -0.292 NA
BRANCH   3   4
ATOM      4  C   UNL d   1       5.195   1.208 -13.029  0.00  0.00     0.157 C 
BRANCH   4   5
ATOM      5  C   UNL d   1       5.834   0.096 -13.903  0.00  0.00     0.199 C 
ATOM      6  O   UNL d   1       6.977  -0.410 -13.254  0.00  0.00    -0.216 OA
BRANCH   5   7
ATOM      7  C   UNL d   1       6.137   0.441 -15.372  0.00  0.00     0.018 A 
ATOM      8  C   UNL d   1       7.121   1.401 -15.690  0.00  0.00     0.001 A 
ATOM      9  C   UNL d   1       7.382   1.783 -17.014  0.00  0.00     0.029 A 
ATOM     10  C   UNL d   1       6.745   1.150 -18.091  0.00  0.00     0.149 A 
ATOM     11  C   UNL d   1       5.799   0.162 -17.799  0.00  0.00     0.116 A 
ATOM     12  O   UNL d   1       7.072   1.538 -19.363  0.00  0.00    -0.189 OA
ATOM     13  N   UNL d   1       5.057  -0.557 -18.743  0.00  0.00    -0.200 NA
ATOM     14  C   UNL d   1       5.487  -0.174 -16.473  0.00  0.00     0.052 A 
ATOM     15  C   UNL d   1       4.162  -1.471 -18.219  0.00  0.00     0.311 A 
ATOM     16  O   UNL d   1       3.435  -2.225 -18.848  0.00  0.00    -0.258 OA
ATOM     17  S   UNL d   1       4.244  -1.408 -16.411  0.00  0.00    -0.024 SA
ENDBRANCH   5   7
ENDBRANCH   4   5
ENDBRANCH   3   4
ENDBRANCH   2   3
ENDBRANCH   1   2
BRANCH   1  18
ATOM     18  C   UNL d   1       7.478   4.719 -11.710  0.00  0.00     0.060 C 
BRANCH  18  19
ATOM     19  S   UNL d   1       8.807   5.892 -12.107  0.00  0.00    -0.138 SA
BRANCH  19  20
ATOM     20  C   UNL d   1       9.458   5.166 -13.639  0.00  0.00     0.090 C 
BRANCH  20  21
ATOM     21  C   UNL d   1      10.048   3.757 -13.438  0.00  0.00     0.154 C 
BRANCH  21  22
ATOM     22  O   UNL d   1      10.913   3.442 -14.520  0.00  0.00    -0.353 OA
BRANCH  22  23
ATOM     23  C   UNL d   1      10.187   2.997 -15.653  0.00  0.00     0.147 C 
BRANCH  23  24
ATOM     24  C   UNL d   1      11.028   2.838 -16.906  0.00  0.00     0.058 C 
BRANCH  24  25
ATOM     25  C   UNL d   1      11.683   4.145 -17.304  0.00  0.00    -0.020 A 
ATOM     26  C   UNL d   1      11.032   5.145 -18.084  0.00  0.00    -0.004 A 
ATOM     27  C   UNL d   1      11.755   6.318 -18.435  0.00  0.00    -0.000 A 
ATOM     28  C   UNL d   1       9.691   5.021 -18.526  0.00  0.00    -0.000 A 
ATOM     29  C   UNL d   1      13.079   6.495 -17.987  0.00  0.00    -0.000 A 
ATOM     30  C   UNL d   1      11.153   7.313 -19.240  0.00  0.00    -0.000 A 
ATOM     31  C   UNL d   1      13.696   5.516 -17.185  0.00  0.00    -0.000 A 
ATOM     32  C   UNL d   1      12.995   4.349 -16.847  0.00  0.00    -0.004 A 
ATOM     33  C   UNL d   1       9.822   7.170 -19.671  0.00  0.00    -0.000 A 
ATOM     34  C   UNL d   1       9.087   6.029 -19.307  0.00  0.00    -0.000 A 
ENDBRANCH  24  25
ENDBRANCH  23  24
ENDBRANCH  22  23
ENDBRANCH  21  22
ENDBRANCH  20  21
ENDBRANCH  19  20
ENDBRANCH  18  19
ENDBRANCH   1  18
TORSDOF 13
