REMARK  13 active torsions:
REMARK  status: ('A' for Active; 'I' for Inactive)
REMARK    1  A    between atoms: C_2  and  C_3 
REMARK    2  A    between atoms: C_3  and  C_4 
REMARK    3  A    between atoms: C_5  and  C_6 
REMARK       I    between atoms: C_6  and  N_8 
REMARK    4  A    between atoms: N_8  and  C_9 
REMARK    5  A    between atoms: C_9  and  C_10 
REMARK    6  A    between atoms: C_10  and  C_11 
REMARK    7  A    between atoms: C_11  and  C_12 
REMARK    8  A    between atoms: C_12  and  N_13 
REMARK    9  A    between atoms: N_16  and  C_17 
REMARK   10  A    between atoms: C_22  and  O_23 
REMARK   11  A    between atoms: N_29  and  C_30 
REMARK   12  A    between atoms: C_30  and  C_31 
REMARK   13  A    between atoms: C_34  and  O_35 
ROOT
ATOM      1  C   UNL d   1       9.527   4.580 -14.525  0.00  0.00     0.296 C 
ATOM      2  O   UNL d   1       8.386   5.025 -14.426  0.00  0.00    -0.264 OA
ATOM      3  N   UNL d   1      10.172   4.059 -13.479  0.00  0.00    -0.233 NA
ENDROOT
BRANCH   1   4
ATOM      4  C   UNL d   1      10.330   4.616 -15.781  0.00  0.00     0.175 A 
ATOM      5  C   UNL d   1      11.298   3.727 -16.186  0.00  0.00     0.082 A 
ATOM      6  N   UNL d   1      11.680   4.214 -17.422  0.00  0.00    -0.231 N 
ATOM      7  N   UNL d   1      10.973   5.320 -17.758  0.00  0.00    -0.064 NA
ATOM      8  N   UNL d   1      10.154   5.561 -16.790  0.00  0.00    -0.124 NA
BRANCH   5   9
ATOM      9  C   UNL d   1      11.866   2.485 -15.565  0.00  0.00     0.047 C 
BRANCH   9  10
ATOM     10  C   UNL d   1      11.059   1.205 -15.834  0.00  0.00     0.006 C 
ATOM     11  C   UNL d   1      11.137   0.732 -17.290  0.00  0.00     0.000 C 
ENDBRANCH   9  10
ENDBRANCH   5   9
BRANCH   6  12
ATOM     12  C   UNL d   1      12.659   3.693 -18.363  0.00  0.00     0.155 C 
BRANCH  12  13
ATOM     13  C   UNL d   1      13.800   4.665 -18.566  0.00  0.00     0.002 A 
ATOM     14  C   UNL d   1      14.893   4.701 -17.679  0.00  0.00    -0.000 A 
ATOM     15  C   UNL d   1      15.948   5.617 -17.887  0.00  0.00     0.024 A 
ATOM     16  C   UNL d   1      15.912   6.510 -18.987  0.00  0.00     0.094 A 
ATOM     17  C   UNL d   1      14.799   6.457 -19.862  0.00  0.00     0.024 A 
ATOM     18  C   UNL d   1      13.759   5.548 -19.656  0.00  0.00    -0.000 A 
BRANCH  16  19
ATOM     19  O   UNL d   1      16.956   7.395 -19.172  0.00  0.00    -0.328 OA
ATOM     20  C   UNL d   1      16.862   8.281 -20.288  0.00  0.00     0.181 C 
ENDBRANCH  16  19
ENDBRANCH  12  13
ENDBRANCH   6  12
ENDBRANCH   1   4
BRANCH   3  21
ATOM     21  C   UNL d   1       9.559   3.808 -12.186  0.00  0.00     0.129 C 
BRANCH  21  22
ATOM     22  C   UNL d   1       9.355   5.093 -11.385  0.00  0.00     0.029 C 
BRANCH  22  23
ATOM     23  C   UNL d   1       9.149   4.776  -9.899  0.00  0.00     0.037 C 
BRANCH  23  24
ATOM     24  C   UNL d   1       8.691   6.029  -9.139  0.00  0.00     0.251 C 
BRANCH  24  25
ATOM     25  N   UNL d   1       9.747   6.789  -8.506  0.00  0.00     0.141 N 
ATOM     26  C   UNL d   1       9.102   7.843  -7.701  0.00  0.00     0.274 C 
ATOM     27  C   UNL d   1      10.189   8.682  -7.056  0.00  0.00     0.137 C 
ATOM     28  N   UNL d   1      11.098   7.848  -6.250  0.00  0.00    -0.343 N 
ATOM     29  C   UNL d   1      11.669   6.741  -6.993  0.00  0.00     0.137 C 
ATOM     30  C   UNL d   1      10.530   5.954  -7.603  0.00  0.00     0.274 C 
BRANCH  28  31
ATOM     31  C   UNL d   1      11.456   8.079  -4.919  0.00  0.00     0.079 A 
ATOM     32  C   UNL d   1      11.525   9.381  -4.361  0.00  0.00     0.110 A 
ATOM     33  C   UNL d   1      11.863   9.519  -2.994  0.00  0.00     0.026 A 
ATOM     34  C   UNL d   1      12.186   8.398  -2.196  0.00  0.00     0.002 A 
ATOM     35  C   UNL d   1      12.139   7.116  -2.756  0.00  0.00     0.002 A 
ATOM     36  C   UNL d   1      11.773   6.959  -4.093  0.00  0.00     0.019 A 
BRANCH  32  37
ATOM     37  O   UNL d   1      11.260  10.511  -5.116  0.00  0.00    -0.327 OA
ATOM     38  C   UNL d   1      12.091  10.785  -6.241  0.00  0.00     0.181 C 
ENDBRANCH  32  37
ENDBRANCH  28  31
ENDBRANCH  24  25
ENDBRANCH  23  24
ENDBRANCH  22  23
ENDBRANCH  21  22
ENDBRANCH   3  21
TORSDOF 13
