REMARK  7 active torsions:
REMARK  status: ('A' for Active; 'I' for Inactive)
REMARK    1  A    between atoms: O_2  and  C_3 
REMARK    2  A    between atoms: C_3  and  C_6 
REMARK       I    between atoms: C_6  and  N_8 
REMARK    3  A    between atoms: N_8  and  C_9 
REMARK    4  A    between atoms: C_12  and  C_13 
REMARK    5  A    between atoms: C_13  and  C_14 
REMARK    6  A    between atoms: C_14  and  N_15 
REMARK    7  A    between atoms: N_18  and  C_19 
ROOT
ATOM      1  C   UNL d   1       8.898   2.658 -14.758  0.00  0.00     0.250 C 
ENDROOT
BRANCH   1   2
ATOM      2  C   UNL d   1       8.202   3.946 -14.319  0.00  0.00     0.035 C 
BRANCH   2   3
ATOM      3  C   UNL d   1       8.501   4.319 -12.869  0.00  0.00     0.002 C 
ATOM      4  C   UNL d   1       9.759   5.191 -12.753  0.00  0.00     0.002 C 
ATOM      5  C   UNL d   1       9.961   5.641 -11.305  0.00  0.00     0.024 C 
ATOM      6  C   UNL d   1       8.783   6.357 -10.689  0.00  0.00     0.106 C 
ATOM      7  C   UNL d   1       7.544   5.463 -10.813  0.00  0.00     0.024 C 
ATOM      8  C   UNL d   1       7.291   5.040 -12.260  0.00  0.00     0.002 C 
BRANCH   6   9
ATOM      9  N   UNL d   1       9.092   6.657  -9.292  0.00  0.00    -0.238 NA
ATOM     10  C   UNL d   1       9.973   7.585  -8.843  0.00  0.00     0.276 C 
ATOM     11  O   UNL d   1      10.673   8.252  -9.601  0.00  0.00    -0.268 OA
BRANCH  10  12
ATOM     12  C   UNL d   1      10.065   7.787  -7.309  0.00  0.00     0.165 C 
ATOM     13  C   UNL d   1       8.655   7.642  -6.715  0.00  0.00     0.039 C 
ATOM     14  C   UNL d   1      10.635   9.199  -6.998  0.00  0.00     0.039 C 
BRANCH  12  15
ATOM     15  O   UNL d   1      10.950   6.778  -6.795  0.00  0.00    -0.347 OA
ATOM     16  C   UNL d   1      11.187   6.737  -5.390  0.00  0.00     0.175 C 
ENDBRANCH  12  15
ENDBRANCH  10  12
ENDBRANCH   6   9
ENDBRANCH   2   3
ENDBRANCH   1   2
BRANCH   1  17
ATOM     17  N   UNL d   1       8.567   2.338 -16.145  0.00  0.00     0.141 N 
ATOM     18  C   UNL d   1       9.262   3.189 -17.125  0.00  0.00     0.274 C 
ATOM     19  C   UNL d   1      10.786   2.999 -17.067  0.00  0.00     0.137 C 
ATOM     20  N   UNL d   1      11.113   1.580 -17.197  0.00  0.00    -0.343 N 
ATOM     21  C   UNL d   1      10.373   0.650 -16.339  0.00  0.00     0.137 C 
ATOM     22  C   UNL d   1       8.858   0.933 -16.457  0.00  0.00     0.274 C 
BRANCH  20  23
ATOM     23  C   UNL d   1      12.089   1.146 -18.104  0.00  0.00     0.081 A 
ATOM     24  C   UNL d   1      13.176   1.975 -18.463  0.00  0.00     0.135 A 
ATOM     25  C   UNL d   1      14.137   1.574 -19.363  0.00  0.00     0.121 A 
ATOM     26  O   UNL d   1      13.493   3.213 -17.997  0.00  0.00    -0.298 OA
ATOM     27  C   UNL d   1      14.099   0.312 -19.976  0.00  0.00     0.026 A 
ATOM     28  O   UNL d   1      15.068   2.554 -19.502  0.00  0.00    -0.299 OA
ATOM     29  C   UNL d   1      13.030  -0.550 -19.633  0.00  0.00     0.004 A 
ATOM     30  C   UNL d   1      12.038  -0.135 -18.713  0.00  0.00     0.019 A 
ATOM     31  C   UNL d   1      14.665   3.594 -18.650  0.00  0.00     0.304 A 
ENDBRANCH  20  23
ENDBRANCH   1  17
TORSDOF 7
