REMARK  6 active torsions:
REMARK  status: ('A' for Active; 'I' for Inactive)
REMARK       I    between atoms: C_2  and  N_3 
REMARK    1  A    between atoms: C_2  and  C_27 
REMARK    2  A    between atoms: N_3  and  C_4 
REMARK    3  A    between atoms: C_7  and  C_8 
REMARK    4  A    between atoms: C_8  and  C_9 
REMARK    5  A    between atoms: C_9  and  N_10 
REMARK    6  A    between atoms: N_13  and  C_14 
ROOT
ATOM      1  C   UNL d   1       8.459   4.672 -12.229  0.00  0.00     0.035 C 
ENDROOT
BRANCH   1   2
ATOM      2  C   UNL d   1       9.074   5.001 -10.860  0.00  0.00     0.002 C 
ATOM      3  C   UNL d   1       9.821   6.336 -10.913  0.00  0.00     0.002 C 
ATOM      4  C   UNL d   1      10.378   6.720  -9.547  0.00  0.00     0.024 C 
ATOM      5  C   UNL d   1       9.301   6.793  -8.466  0.00  0.00     0.107 C 
ATOM      6  C   UNL d   1       8.541   5.454  -8.409  0.00  0.00     0.024 C 
ATOM      7  C   UNL d   1       7.994   5.070  -9.788  0.00  0.00     0.002 C 
BRANCH   5   8
ATOM      8  N   UNL d   1       9.887   7.063  -7.160  0.00  0.00    -0.236 NA
ATOM      9  C   UNL d   1      10.482   8.221  -6.828  0.00  0.00     0.275 C 
ATOM     10  O   UNL d   1      10.551   9.189  -7.572  0.00  0.00    -0.266 OA
BRANCH   9  11
ATOM     11  C   UNL d   1      11.055   8.276  -5.444  0.00  0.00     0.058 A 
ATOM     12  C   UNL d   1      11.464   7.095  -4.788  0.00  0.00     0.007 A 
ATOM     13  C   UNL d   1      12.009   7.157  -3.494  0.00  0.00     0.030 A 
ATOM     14  C   UNL d   1      12.159   8.401  -2.856  0.00  0.00     0.140 A 
ATOM     15  C   UNL d   1      11.761   9.583  -3.505  0.00  0.00     0.030 A 
ATOM     16  F   UNL d   1      12.672   8.455  -1.607  0.00  0.00    -0.204 F 
ATOM     17  C   UNL d   1      11.215   9.527  -4.802  0.00  0.00     0.007 A 
ENDBRANCH   9  11
ENDBRANCH   5   8
ENDBRANCH   1   2
BRANCH   1  18
ATOM     18  C   UNL d   1       9.446   3.943 -13.155  0.00  0.00     0.250 C 
BRANCH  18  19
ATOM     19  N   UNL d   1       8.813   3.555 -14.412  0.00  0.00     0.141 N 
ATOM     20  C   UNL d   1       7.933   2.400 -14.190  0.00  0.00     0.274 C 
ATOM     21  C   UNL d   1       7.239   1.987 -15.485  0.00  0.00     0.138 C 
ATOM     22  N   UNL d   1       8.217   1.741 -16.530  0.00  0.00    -0.330 N 
ATOM     23  C   UNL d   1       9.218   2.779 -16.724  0.00  0.00     0.138 C 
ATOM     24  C   UNL d   1       9.853   3.156 -15.368  0.00  0.00     0.274 C 
BRANCH  22  25
ATOM     25  C   UNL d   1       8.205   0.550 -17.275  0.00  0.00     0.138 A 
ATOM     26  C   UNL d   1       6.999  -0.054 -17.700  0.00  0.00     0.036 A 
ATOM     27  C   UNL d   1       7.025  -1.225 -18.431  0.00  0.00     0.095 A 
ATOM     28  C   UNL d   1       5.575   0.376 -17.538  0.00  0.00     0.064 C 
ATOM     29  C   UNL d   1       8.252  -1.828 -18.741  0.00  0.00     0.045 A 
ATOM     30  O   UNL d   1       5.785  -1.663 -18.798  0.00  0.00    -0.331 OA
ATOM     31  C   UNL d   1       9.416  -1.172 -18.285  0.00  0.00     0.103 A 
ATOM     32  N   UNL d   1       9.399  -0.014 -17.580  0.00  0.00    -0.228 NA
ATOM     33  C   UNL d   1       4.831  -0.660 -18.403  0.00  0.00     0.154 C 
ENDBRANCH  22  25
ENDBRANCH  18  19
ENDBRANCH   1  18
TORSDOF 6
