REMARK  5 active torsions:
REMARK  status: ('A' for Active; 'I' for Inactive)
REMARK    1  A    between atoms: C_2  and  C_3 
REMARK       I    between atoms: C_2  and  N_12 
REMARK    2  A    between atoms: N_15  and  C_16 
REMARK    3  A    between atoms: C_16  and  C_17 
REMARK    4  A    between atoms: C_17  and  O_18 
REMARK    5  A    between atoms: O_18  and  C_19 
ROOT
ATOM      1  O   UNL d   1       6.965   0.972 -14.397  0.00  0.00    -0.266 OA
ATOM      2  C   UNL d   1       7.722   1.889 -14.643  0.00  0.00     0.275 C 
ATOM      3  N   UNL d   1       7.548   3.131 -14.106  0.00  0.00    -0.311 N 
ATOM      4  C   UNL d   1       6.280   3.516 -13.438  0.00  0.00     0.140 C 
ATOM      5  C   UNL d   1       6.587   4.079 -12.035  0.00  0.00     0.274 C 
ATOM      6  N   UNL d   1       7.521   5.202 -12.121  0.00  0.00     0.144 N 
ATOM      7  C   UNL d   1       8.767   4.776 -12.738  0.00  0.00     0.274 C 
ATOM      8  C   UNL d   1       8.569   4.215 -14.144  0.00  0.00     0.140 C 
ENDROOT
BRANCH   6   9
ATOM      9  C   UNL d   1       7.776   5.812 -10.829  0.00  0.00     0.283 C 
BRANCH   9  10
ATOM     10  C   UNL d   1       8.219   4.779  -9.718  0.00  0.00     0.184 C 
BRANCH  10  11
ATOM     11  O   UNL d   1       8.372   5.350  -8.431  0.00  0.00    -0.329 OA
BRANCH  11  12
ATOM     12  C   UNL d   1       9.380   6.266  -8.249  0.00  0.00     0.094 A 
ATOM     13  C   UNL d   1       9.471   6.889  -6.984  0.00  0.00     0.026 A 
ATOM     14  C   UNL d   1      10.452   7.876  -6.744  0.00  0.00     0.021 A 
ATOM     15  C   UNL d   1      11.282   8.229  -7.860  0.00  0.00     0.082 A 
ATOM     16  C   UNL d   1      10.902   8.644  -5.615  0.00  0.00     0.022 A 
ATOM     17  C   UNL d   1      11.164   7.630  -9.120  0.00  0.00     0.021 A 
ATOM     18  N   UNL d   1      12.151   9.181  -7.392  0.00  0.00    -0.244 NA
ATOM     19  C   UNL d   1      10.253   6.616  -9.310  0.00  0.00     0.026 A 
ATOM     20  C   UNL d   1      11.927   9.428  -6.049  0.00  0.00     0.099 A 
ENDBRANCH  11  12
ENDBRANCH  10  11
ENDBRANCH   9  10
ENDBRANCH   6   9
BRANCH   2  21
ATOM     21  C   UNL d   1       8.835   1.641 -15.595  0.00  0.00     0.137 A 
ATOM     22  N   UNL d   1       9.037   0.335 -16.036  0.00  0.00    -0.241 NA
ATOM     23  C   UNL d   1      10.085   0.255 -16.925  0.00  0.00     0.082 A 
ATOM     24  C   UNL d   1      10.576   1.594 -17.035  0.00  0.00     0.019 A 
ATOM     25  C   UNL d   1      10.655  -0.813 -17.657  0.00  0.00     0.019 A 
ATOM     26  C   UNL d   1       9.761   2.449 -16.253  0.00  0.00     0.025 A 
ATOM     27  C   UNL d   1      11.706   1.813 -17.856  0.00  0.00     0.002 A 
ATOM     28  C   UNL d   1      12.304   0.760 -18.588  0.00  0.00     0.000 A 
ATOM     29  C   UNL d   1      11.767  -0.541 -18.489  0.00  0.00     0.002 A 
ENDBRANCH   2  21
TORSDOF 5
