REMARK  5 active torsions:
REMARK  status: ('A' for Active; 'I' for Inactive)
REMARK    1  A    between atoms: C_2  and  C_3 
REMARK    2  A    between atoms: C_3  and  O_4 
REMARK    3  A    between atoms: O_4  and  C_5 
REMARK    4  A    between atoms: C_12  and  C_13 
REMARK    5  A    between atoms: C_15  and  C_16 
ROOT
ATOM      1  C   UNL d   1      11.296   7.265  -5.744  0.00  0.00     0.093 A 
ATOM      2  C   UNL d   1      11.345   6.494  -4.586  0.00  0.00     0.056 A 
ATOM      3  C   UNL d   1      11.881   6.934  -3.378  0.00  0.00     0.169 A 
ATOM      4  F   UNL d   1      11.902   6.118  -2.302  0.00  0.00    -0.202 F 
ATOM      5  C   UNL d   1      12.407   8.230  -3.302  0.00  0.00     0.167 A 
ATOM      6  F   UNL d   1      12.982   8.666  -2.159  0.00  0.00    -0.202 F 
ATOM      7  C   UNL d   1      12.370   9.038  -4.446  0.00  0.00     0.030 A 
ATOM      8  C   UNL d   1      11.815   8.559  -5.650  0.00  0.00     0.002 A 
ENDROOT
BRANCH   8   9
ATOM      9  C   UNL d   1      11.897   9.400  -6.832  0.00  0.00     0.026 A 
ATOM     10  C   UNL d   1      10.736   9.544  -7.774  0.00  0.00     0.044 A 
ATOM     11  C   UNL d   1      11.109  10.653  -6.772  0.00  0.00     0.007 A 
BRANCH  10  12
ATOM     12  C   UNL d   1      10.957   9.543  -9.290  0.00  0.00     0.339 C 
ATOM     13  N   UNL d   1      10.365   8.403  -9.961  0.00  0.00     0.618 N 
ENDBRANCH  10  12
ENDBRANCH   8   9
BRANCH   1  14
ATOM     14  O   UNL d   1      10.891   6.725  -6.943  0.00  0.00    -0.326 OA
BRANCH  14  15
ATOM     15  C   UNL d   1       9.508   6.391  -7.050  0.00  0.00     0.175 C 
BRANCH  15  16
ATOM     16  C   UNL d   1       9.286   5.429  -8.207  0.00  0.00     0.006 C 
ATOM     17  C   UNL d   1       8.659   5.722  -9.355  0.00  0.00    -0.002 C 
ENDBRANCH  15  16
ENDBRANCH  14  15
ENDBRANCH   1  14
TORSDOF 5
