REMARK  9 active torsions:
REMARK  status: ('A' for Active; 'I' for Inactive)
REMARK    1  A    between atoms: C_2  and  C_4 
REMARK    2  A    between atoms: C_9  and  N_10 
REMARK    3  A    between atoms: N_13  and  C_14 
REMARK    4  A    between atoms: C_14  and  C_15 
REMARK    5  A    between atoms: C_15  and  C_16 
REMARK    6  A    between atoms: C_16  and  C_17 
REMARK    7  A    between atoms: C_17  and  C_18 
REMARK    8  A    between atoms: C_18  and  C_19 
REMARK       I    between atoms: C_19  and  N_21 
REMARK    9  A    between atoms: N_21  and  C_22 
ROOT
ATOM      1  C   UNL d   1       6.303   2.457 -13.922  0.00  0.00     0.035 C 
ENDROOT
BRANCH   1   2
ATOM      2  C   UNL d   1       5.538   1.337 -13.138  0.00  0.00     0.250 C 
BRANCH   2   3
ATOM      3  N   UNL d   1       5.324   0.072 -13.834  0.00  0.00     0.141 N 
ATOM      4  C   UNL d   1       6.396  -0.165 -14.806  0.00  0.00     0.274 C 
ATOM      5  C   UNL d   1       6.134  -1.396 -15.595  0.00  0.00     0.137 C 
ATOM      6  N   UNL d   1       4.843  -1.420 -16.220  0.00  0.00    -0.344 N 
ATOM      7  C   UNL d   1       3.752  -1.182 -15.292  0.00  0.00     0.137 C 
ATOM      8  C   UNL d   1       4.049   0.084 -14.529  0.00  0.00     0.274 C 
BRANCH   6   9
ATOM      9  C   UNL d   1       4.684  -1.832 -17.523  0.00  0.00     0.059 A 
ATOM     10  C   UNL d   1       5.134  -3.091 -18.069  0.00  0.00     0.050 A 
ATOM     11  C   UNL d   1       4.936  -3.332 -19.442  0.00  0.00     0.004 A 
ATOM     12  C   UNL d   1       4.337  -2.375 -20.271  0.00  0.00     0.000 A 
ATOM     13  C   UNL d   1       3.967  -1.135 -19.746  0.00  0.00     0.002 A 
ATOM     14  C   UNL d   1       4.142  -0.865 -18.399  0.00  0.00     0.017 A 
BRANCH  10  15
ATOM     15  C   UNL d   1       5.838  -4.178 -17.319  0.00  0.00     0.175 C 
ATOM     16  C   UNL d   1       5.250  -4.604 -15.984  0.00  0.00     0.077 C 
ATOM     17  O   UNL d   1       6.810  -4.790 -17.769  0.00  0.00    -0.291 OA
ENDBRANCH  10  15
ENDBRANCH   6   9
ENDBRANCH   2   3
ENDBRANCH   1   2
BRANCH   1  18
ATOM     18  C   UNL d   1       6.711   3.643 -13.062  0.00  0.00     0.003 C 
BRANCH  18  19
ATOM     19  C   UNL d   1       7.737   4.466 -13.851  0.00  0.00     0.010 C 
BRANCH  19  20
ATOM     20  C   UNL d   1       8.201   5.719 -13.112  0.00  0.00     0.090 C 
BRANCH  20  21
ATOM     21  C   UNL d   1       9.169   5.369 -11.990  0.00  0.00     0.252 C 
ATOM     22  O   UNL d   1       9.724   4.272 -11.968  0.00  0.00    -0.271 OA
ATOM     23  N   UNL d   1       9.354   6.294 -11.046  0.00  0.00    -0.235 NA
BRANCH  23  24
ATOM     24  C   UNL d   1       9.755   5.947  -9.683  0.00  0.00     0.128 C 
ATOM     25  C   UNL d   1      10.590   7.027  -9.009  0.00  0.00    -0.004 A 
ATOM     26  C   UNL d   1      10.465   7.402  -7.650  0.00  0.00    -0.024 A 
ATOM     27  C   UNL d   1      11.576   7.621  -9.773  0.00  0.00    -0.003 A 
ATOM     28  C   UNL d   1       9.342   6.869  -6.795  0.00  0.00     0.026 C 
ATOM     29  C   UNL d   1      11.397   8.271  -7.067  0.00  0.00    -0.004 A 
ATOM     30  C   UNL d   1       8.708   5.649  -7.458  0.00  0.00     0.007 C 
ATOM     31  C   UNL d   1       8.476   5.726  -8.918  0.00  0.00     0.029 C 
ATOM     32  C   UNL d   1      12.436   8.782  -7.850  0.00  0.00    -0.000 A 
ATOM     33  C   UNL d   1      12.542   8.457  -9.200  0.00  0.00    -0.000 A 
ENDBRANCH  23  24
ENDBRANCH  20  21
ENDBRANCH  19  20
ENDBRANCH  18  19
ENDBRANCH   1  18
TORSDOF 9
