REMARK  8 active torsions:
REMARK  status: ('A' for Active; 'I' for Inactive)
REMARK    1  A    between atoms: C_2  and  C_3 
REMARK    2  A    between atoms: N_13  and  C_14 
REMARK    3  A    between atoms: C_14  and  C_15 
REMARK    4  A    between atoms: C_15  and  C_17 
REMARK    5  A    between atoms: C_17  and  N_18 
REMARK    6  A    between atoms: N_21  and  C_22 
REMARK    7  A    between atoms: C_22  and  C_23 
REMARK    8  A    between atoms: C_22  and  C_29 
ROOT
ATOM      1  N   UNL d   1      11.255   2.627 -17.072  0.00  0.00     0.144 N 
ATOM      2  C   UNL d   1      10.571   1.372 -17.419  0.00  0.00     0.286 C 
ATOM      3  C   UNL d   1       9.035   1.504 -17.297  0.00  0.00     0.286 C 
ATOM      4  N   UNL d   1       8.622   1.883 -15.931  0.00  0.00     0.147 N 
ATOM      5  C   UNL d   1       9.345   3.111 -15.616  0.00  0.00     0.286 C 
ATOM      6  C   UNL d   1      10.835   2.976 -15.721  0.00  0.00     0.286 C 
ENDROOT
BRANCH   1   7
ATOM      7  C   UNL d   1      12.713   2.502 -17.169  0.00  0.00     0.285 C 
BRANCH   7   8
ATOM      8  C   UNL d   1      13.540   3.822 -17.069  0.00  0.00     0.208 C 
ATOM      9  O   UNL d   1      13.331   4.495 -15.851  0.00  0.00    -0.219 OA
BRANCH   8  10
ATOM     10  C   UNL d   1      13.304   4.858 -18.183  0.00  0.00     0.148 C 
BRANCH  10  11
ATOM     11  N   UNL d   1      13.691   4.360 -19.505  0.00  0.00    -0.247 N 
ATOM     12  C   UNL d   1      14.895   4.558 -20.067  0.00  0.00     0.348 A 
ATOM     13  N   UNL d   1      14.906   3.947 -21.257  0.00  0.00    -0.209 NA
ATOM     14  O   UNL d   1      15.836   5.191 -19.592  0.00  0.00    -0.245 OA
ATOM     15  C   UNL d   1      13.686   3.210 -21.531  0.00  0.00     0.179 A 
ATOM     16  C   UNL d   1      13.042   3.726 -22.835  0.00  0.00     0.039 C 
ATOM     17  C   UNL d   1      12.893   3.642 -20.306  0.00  0.00     0.265 A 
ATOM     18  O   UNL d   1      11.713   3.349 -20.113  0.00  0.00    -0.269 OA
BRANCH  15  19
ATOM     19  C   UNL d   1      13.873   1.683 -21.501  0.00  0.00     0.006 A 
ATOM     20  C   UNL d   1      12.812   0.834 -21.896  0.00  0.00     0.000 A 
ATOM     21  C   UNL d   1      12.956  -0.565 -21.865  0.00  0.00     0.029 A 
ATOM     22  C   UNL d   1      14.162  -1.140 -21.431  0.00  0.00     0.140 A 
ATOM     23  C   UNL d   1      15.227  -0.314 -21.025  0.00  0.00     0.029 A 
ATOM     24  F   UNL d   1      14.287  -2.486 -21.411  0.00  0.00    -0.204 F 
ATOM     25  C   UNL d   1      15.084   1.088 -21.061  0.00  0.00     0.000 A 
ENDBRANCH  15  19
ENDBRANCH  10  11
ENDBRANCH   8  10
ENDBRANCH   7   8
ENDBRANCH   1   7
BRANCH   4  26
ATOM     26  C   UNL d   1       7.151   2.021 -15.798  0.00  0.00     0.264 C 
BRANCH  26  27
ATOM     27  C   UNL d   1       6.646   2.604 -14.441  0.00  0.00     0.013 A 
ATOM     28  C   UNL d   1       7.039   3.909 -14.012  0.00  0.00    -0.002 A 
ATOM     29  C   UNL d   1       6.664   4.436 -12.754  0.00  0.00    -0.000 A 
ATOM     30  C   UNL d   1       5.856   3.660 -11.907  0.00  0.00    -0.000 A 
ATOM     31  C   UNL d   1       5.422   2.396 -12.337  0.00  0.00    -0.000 A 
ATOM     32  C   UNL d   1       5.759   1.900 -13.594  0.00  0.00    -0.002 A 
ENDBRANCH  26  27
BRANCH  26  33
ATOM     33  C   UNL d   1       6.447   0.703 -16.174  0.00  0.00     0.013 C 
ATOM     34  C   UNL d   1       5.900   0.528 -17.458  0.00  0.00    -0.002 C 
ATOM     35  C   UNL d   1       5.166  -0.639 -17.773  0.00  0.00    -0.000 C 
ATOM     36  C   UNL d   1       4.939  -1.621 -16.778  0.00  0.00    -0.000 C 
ATOM     37  C   UNL d   1       5.460  -1.456 -15.506  0.00  0.00    -0.000 C 
ATOM     38  C   UNL d   1       6.338  -0.360 -15.243  0.00  0.00    -0.002 C 
ENDBRANCH  26  33
ENDBRANCH   4  26
TORSDOF 8
