REMARK  4 active torsions:
REMARK  status: ('A' for Active; 'I' for Inactive)
REMARK    1  A    between atoms: C_4  and  C_5 
REMARK    2  A    between atoms: C_5  and  N_6 
REMARK    3  A    between atoms: C_9  and  C_10 
REMARK    4  A    between atoms: C_25  and  N_26 
ROOT
ATOM      1  N   UNL d   1       9.024   5.185  -8.048  0.00  0.00     0.142 N 
ATOM      2  C   UNL d   1       8.149   6.292  -7.757  0.00  0.00     0.276 C 
ATOM      3  C   UNL d   1       8.767   7.341  -6.886  0.00  0.00     0.005 C 
ATOM      4  C   UNL d   1      10.048   7.332  -6.566  0.00  0.00    -0.021 C 
ATOM      5  C   UNL d   1      10.983   6.311  -7.139  0.00  0.00     0.061 C 
ATOM      6  C   UNL d   1      10.359   5.622  -8.320  0.00  0.00     0.255 C 
ENDROOT
BRANCH   1   7
ATOM      7  C   UNL d   1       8.494   4.207  -8.980  0.00  0.00     0.252 C 
BRANCH   7   8
ATOM      8  C   UNL d   1       8.451   4.701 -10.452  0.00  0.00     0.047 C 
ATOM      9  C   UNL d   1       7.239   4.271 -11.271  0.00  0.00     0.072 C 
ATOM     10  C   UNL d   1       7.321   4.636 -12.747  0.00  0.00     0.180 C 
ATOM     11  O   UNL d   1       6.274   4.744 -13.377  0.00  0.00    -0.291 OA
ATOM     12  C   UNL d   1       8.671   4.755 -13.308  0.00  0.00     0.080 C 
ATOM     13  C   UNL d   1       9.808   4.618 -12.591  0.00  0.00     0.070 C 
ATOM     14  S   UNL d   1       9.046   4.894 -14.986  0.00  0.00    -0.046 SA
ATOM     15  C   UNL d   1       9.759   4.346 -11.143  0.00  0.00     0.049 C 
ATOM     16  N   UNL d   1      10.990   4.711 -13.331  0.00  0.00    -0.227 NA
ATOM     17  C   UNL d   1      10.751   4.966 -14.607  0.00  0.00     0.171 C 
BRANCH  17  18
ATOM     18  N   UNL d   1      11.686   5.213 -15.585  0.00  0.00    -0.329 N 
ATOM     19  C   UNL d   1      11.525   6.040 -16.782  0.00  0.00     0.103 C 
ATOM     20  C   UNL d   1      12.716   5.758 -17.702  0.00  0.00     0.026 C 
ATOM     21  C   UNL d   1      13.793   5.300 -16.736  0.00  0.00     0.026 C 
ATOM     22  C   UNL d   1      12.999   4.613 -15.629  0.00  0.00     0.103 C 
ENDBRANCH  17  18
ENDBRANCH   7   8
ENDBRANCH   1   7
BRANCH   4  23
ATOM     23  C   UNL d   1      10.662   8.328  -5.761  0.00  0.00     0.016 C 
ATOM     24  C   UNL d   1      11.351   8.083  -4.559  0.00  0.00     0.019 A 
ATOM     25  C   UNL d   1      11.598   9.363  -4.036  0.00  0.00     0.084 A 
ATOM     26  C   UNL d   1      11.718   6.934  -3.785  0.00  0.00     0.004 A 
ATOM     27  N   UNL d   1      11.157  10.287  -4.938  0.00  0.00    -0.244 NA
ATOM     28  C   UNL d   1      12.223   9.507  -2.798  0.00  0.00     0.049 A 
ATOM     29  C   UNL d   1      10.649   9.675  -6.053  0.00  0.00     0.099 C 
ATOM     30  C   UNL d   1      12.652   8.398  -2.090  0.00  0.00     0.142 A 
ATOM     31  F   UNL d   1      13.420   8.612  -0.991  0.00  0.00    -0.204 F 
ATOM     32  C   UNL d   1      12.388   7.095  -2.553  0.00  0.00     0.030 A 
ENDBRANCH   4  23
TORSDOF 4
