REMARK  8 active torsions:
REMARK  status: ('A' for Active; 'I' for Inactive)
REMARK    1  A    between atoms: C_3  and  S_4 
REMARK    2  A    between atoms: S_4  and  C_5 
REMARK    3  A    between atoms: C_5  and  C_6 
REMARK    4  A    between atoms: C_6  and  C_7 
REMARK    5  A    between atoms: C_7  and  N_8 
REMARK    6  A    between atoms: N_16  and  C_17 
REMARK    7  A    between atoms: C_20  and  C_21 
REMARK    8  A    between atoms: C_32  and  C_33 
ROOT
ATOM      1  N   UNL d   1       8.565   2.734 -15.373  0.00  0.00     0.137 N 
ATOM      2  C   UNL d   1       7.958   2.717 -14.045  0.00  0.00     0.250 C 
ATOM      3  C   UNL d   1       7.719   4.146 -13.553  0.00  0.00     0.035 C 
ATOM      4  C   UNL d   1       9.046   4.923 -13.491  0.00  0.00     0.008 C 
ATOM      5  C   UNL d   1       9.708   4.851 -14.889  0.00  0.00     0.035 C 
ATOM      6  C   UNL d   1       9.870   3.399 -15.359  0.00  0.00     0.250 C 
ATOM      7  C   UNL d   1      10.009   4.360 -12.422  0.00  0.00     0.024 C 
ATOM      8  C   UNL d   1       9.457   4.557 -10.995  0.00  0.00     0.102 C 
ATOM      9  N   UNL d   1       9.201   5.960 -10.795  0.00  0.00    -0.346 N 
ATOM     10  C   UNL d   1       8.264   6.583 -11.706  0.00  0.00     0.102 C 
ATOM     11  C   UNL d   1       8.748   6.388 -13.128  0.00  0.00     0.024 C 
ENDROOT
BRANCH   1  12
ATOM     12  C   UNL d   1       8.720   1.364 -15.830  0.00  0.00     0.251 C 
BRANCH  12  13
ATOM     13  C   UNL d   1       8.328   1.315 -17.308  0.00  0.00     0.047 C 
BRANCH  13  14
ATOM     14  C   UNL d   1       6.808   1.164 -17.514  0.00  0.00     0.067 C 
BRANCH  14  15
ATOM     15  S   UNL d   1       6.397   0.788 -19.244  0.00  0.00    -0.075 SA
BRANCH  15  16
ATOM     16  C   UNL d   1       5.445  -0.663 -18.981  0.00  0.00     0.193 A 
ATOM     17  N   UNL d   1       5.999  -1.871 -18.755  0.00  0.00    -0.289 N 
ATOM     18  C   UNL d   1       7.429  -2.186 -18.727  0.00  0.00     0.134 C 
ATOM     19  C   UNL d   1       4.905  -2.664 -18.628  0.00  0.00     0.167 A 
ATOM     20  N   UNL d   1       3.768  -1.983 -18.795  0.00  0.00    -0.128 NA
ATOM     21  N   UNL d   1       4.119  -0.678 -19.014  0.00  0.00    -0.122 NA
BRANCH  19  22
ATOM     22  C   UNL d   1       4.903  -4.114 -18.397  0.00  0.00     0.036 A 
ATOM     23  C   UNL d   1       4.004  -4.950 -19.099  0.00  0.00     0.003 A 
ATOM     24  C   UNL d   1       4.014  -6.349 -18.892  0.00  0.00     0.000 A 
ATOM     25  C   UNL d   1       4.948  -6.930 -18.013  0.00  0.00     0.000 A 
ATOM     26  C   UNL d   1       5.843  -6.108 -17.306  0.00  0.00     0.000 A 
ATOM     27  C   UNL d   1       5.782  -4.707 -17.455  0.00  0.00     0.003 A 
ENDBRANCH  19  22
ENDBRANCH  15  16
ENDBRANCH  14  15
ENDBRANCH  13  14
ENDBRANCH  12  13
ENDBRANCH   1  12
BRANCH   9  28
ATOM     28  C   UNL d   1       9.638   6.636  -9.647  0.00  0.00     0.084 A 
ATOM     29  C   UNL d   1       9.580   6.041  -8.366  0.00  0.00     0.155 A 
ATOM     30  C   UNL d   1      10.075   6.736  -7.249  0.00  0.00     0.035 A 
ATOM     31  F   UNL d   1       9.057   4.798  -8.206  0.00  0.00    -0.203 F 
ATOM     32  C   UNL d   1      10.637   8.026  -7.386  0.00  0.00     0.074 A 
ATOM     33  C   UNL d   1      10.668   8.619  -8.673  0.00  0.00     0.005 A 
ATOM     34  C   UNL d   1      10.169   7.928  -9.788  0.00  0.00     0.019 A 
BRANCH  32  35
ATOM     35  C   UNL d   1      11.193   8.765  -6.185  0.00  0.00     0.419 C 
ATOM     36  F   UNL d   1      10.267   9.576  -5.693  0.00  0.00    -0.166 F 
ATOM     37  F   UNL d   1      11.563   7.918  -5.226  0.00  0.00    -0.166 F 
ATOM     38  F   UNL d   1      12.254   9.490  -6.530  0.00  0.00    -0.166 F 
ENDBRANCH  32  35
ENDBRANCH   9  28
TORSDOF 8
