REMARK  4 active torsions:
REMARK  status: ('A' for Active; 'I' for Inactive)
REMARK    1  A    between atoms: C_8  and  O_9 
REMARK    2  A    between atoms: O_9  and  C_10 
REMARK    3  A    between atoms: C_10  and  C_11 
REMARK    4  A    between atoms: C_16  and  N_17 
ROOT
ATOM      1  C   UNL d   1      10.356   7.655  -9.462  0.00  0.00     0.206 C 
ATOM      2  N   UNL d   1      11.549   7.818 -10.015  0.00  0.00    -0.039 NA
ATOM      3  C   UNL d   1      12.490   8.092  -9.144  0.00  0.00     0.785 C 
ATOM      4  N   UNL d   1      13.749   7.973  -9.644  0.00  0.00     0.063 N 
ATOM      5  N   UNL d   1      12.347   8.336  -7.850  0.00  0.00     0.134 NA
ATOM      6  C   UNL d   1      11.112   8.098  -7.431  0.00  0.00     0.744 C 
ATOM      7  N   UNL d   1      10.070   7.709  -8.165  0.00  0.00    -0.043 NA
ENDROOT
BRANCH   1   8
ATOM      8  C   UNL d   1       9.260   7.238 -10.401  0.00  0.00     0.215 C 
BRANCH   8   9
ATOM      9  O   UNL d   1       9.669   6.403 -11.477  0.00  0.00    -0.323 OA
BRANCH   9  10
ATOM     10  C   UNL d   1       8.759   5.554 -12.076  0.00  0.00     0.091 A 
ATOM     11  C   UNL d   1       9.207   4.810 -13.197  0.00  0.00     0.001 A 
ATOM     12  C   UNL d   1      10.582   5.027 -13.788  0.00  0.00     0.033 C 
ATOM     13  C   UNL d   1       8.384   3.835 -13.790  0.00  0.00     0.009 A 
ATOM     14  C   UNL d   1       7.106   3.583 -13.275  0.00  0.00     0.058 A 
ATOM     15 CL   UNL d   1       6.194   2.280 -13.943  0.00  0.00    -0.082 Cl
ATOM     16  C   UNL d   1       6.628   4.335 -12.184  0.00  0.00     0.013 A 
ATOM     17  C   UNL d   1       7.437   5.330 -11.606  0.00  0.00     0.025 A 
ENDBRANCH   9  10
ENDBRANCH   8   9
ENDBRANCH   1   8
BRANCH   6  18
ATOM     18  N   UNL d   1      10.897   8.180  -6.073  0.00  0.00    -0.178 N 
ATOM     19  C   UNL d   1      10.652   7.023  -5.213  0.00  0.00     0.155 C 
ATOM     20  C   UNL d   1      11.603   7.074  -3.987  0.00  0.00     0.275 C 
ATOM     21  N   UNL d   1      11.501   8.366  -3.301  0.00  0.00     0.143 N 
ATOM     22  C   UNL d   1      11.860   9.452  -4.203  0.00  0.00     0.275 C 
ATOM     23  C   UNL d   1      12.379   8.394  -2.141  0.00  0.00     0.286 C 
ATOM     24  C   UNL d   1      10.908   9.475  -5.414  0.00  0.00     0.155 C 
ENDBRANCH   6  18
TORSDOF 4
