REMARK  2 active torsions:
REMARK  status: ('A' for Active; 'I' for Inactive)
REMARK    1  A    between atoms: N_2  and  C_4 
REMARK    2  A    between atoms: C_4  and  C_5 
ROOT
ATOM      1  C   UNL d   1       8.712   4.043 -14.521  0.00  0.00     0.149 C 
ATOM      2  C   UNL d   1       9.618   4.934 -15.383  0.00  0.00     0.039 C 
ATOM      3  C   UNL d   1      10.347   3.920 -16.238  0.00  0.00     0.057 C 
ATOM      4  C   UNL d   1      11.008   4.414 -17.512  0.00  0.00    -0.014 A 
ATOM      5  C   UNL d   1      10.741   5.687 -18.078  0.00  0.00    -0.004 A 
ATOM      6  C   UNL d   1      11.357   6.064 -19.286  0.00  0.00    -0.000 A 
ATOM      7  C   UNL d   1      12.234   5.178 -19.939  0.00  0.00     0.001 A 
ATOM      8  C   UNL d   1      12.504   3.913 -19.382  0.00  0.00     0.006 A 
ATOM      9  C   UNL d   1      11.890   3.540 -18.173  0.00  0.00     0.025 A 
ATOM     10  S   UNL d   1      12.257   1.976 -17.456  0.00  0.00    -0.087 SA
ATOM     11  C   UNL d   1      10.741   1.097 -17.642  0.00  0.00     0.028 A 
ATOM     12  C   UNL d   1      10.815  -0.157 -18.274  0.00  0.00     0.009 A 
ATOM     13  C   UNL d   1       9.661  -0.944 -18.448  0.00  0.00     0.030 A 
ATOM     14  C   UNL d   1       8.420  -0.479 -17.985  0.00  0.00     0.140 A 
ATOM     15  F   UNL d   1       7.304  -1.224 -18.168  0.00  0.00    -0.204 F 
ATOM     16  C   UNL d   1       8.340   0.765 -17.339  0.00  0.00     0.028 A 
ATOM     17  C   UNL d   1       9.489   1.573 -17.162  0.00  0.00     0.013 A 
ATOM     18  C   UNL d   1       9.226   2.923 -16.501  0.00  0.00     0.142 C 
ATOM     19  O   UNL d   1       8.651   2.793 -15.210  0.00  0.00    -0.352 OA
ENDROOT
BRANCH   1  20
ATOM     20  C   UNL d   1       9.237   3.805 -13.101  0.00  0.00     0.280 C 
BRANCH  20  21
ATOM     21  N   UNL d   1       8.702   4.705 -12.071  0.00  0.00     0.144 N 
ATOM     22  C   UNL d   1       9.154   6.072 -12.208  0.00  0.00     0.286 C 
ATOM     23  C   UNL d   1       7.256   4.617 -11.867  0.00  0.00     0.286 C 
ENDBRANCH  20  21
ENDBRANCH   1  20
TORSDOF 2
