REMARK  7 active torsions:
REMARK  status: ('A' for Active; 'I' for Inactive)
REMARK    1  A    between atoms: O_2  and  C_3 
REMARK    2  A    between atoms: C_6  and  N_7 
REMARK    3  A    between atoms: N_10  and  C_11 
REMARK    4  A    between atoms: C_11  and  C_12 
REMARK    5  A    between atoms: C_12  and  C_13 
REMARK    6  A    between atoms: C_16  and  N_17 
REMARK    7  A    between atoms: N_17  and  C_18 
ROOT
ATOM      1  C   UNL d   1       9.577   5.240 -11.744  0.00  0.00     0.250 C 
ENDROOT
BRANCH   1   2
ATOM      2  N   UNL d   1       9.258   6.161 -10.652  0.00  0.00     0.141 N 
ATOM      3  C   UNL d   1       9.228   5.445  -9.369  0.00  0.00     0.274 C 
ATOM      4  C   UNL d   1       8.870   6.406  -8.216  0.00  0.00     0.137 C 
ATOM      5  N   UNL d   1       9.815   7.526  -8.182  0.00  0.00    -0.344 N 
ATOM      6  C   UNL d   1       9.954   8.234  -9.455  0.00  0.00     0.137 C 
ATOM      7  C   UNL d   1      10.255   7.233 -10.581  0.00  0.00     0.274 C 
BRANCH   5   8
ATOM      8  C   UNL d   1      10.517   7.918  -7.024  0.00  0.00     0.056 A 
ATOM      9  C   UNL d   1      11.009   9.233  -6.873  0.00  0.00     0.019 A 
ATOM     10  C   UNL d   1      11.719   9.615  -5.717  0.00  0.00     0.026 A 
ATOM     11  C   UNL d   1      11.938   8.699  -4.669  0.00  0.00     0.094 A 
ATOM     12  C   UNL d   1      11.457   7.380  -4.820  0.00  0.00     0.026 A 
ATOM     13  C   UNL d   1      10.761   7.003  -5.978  0.00  0.00     0.019 A 
BRANCH  11  14
ATOM     14  O   UNL d   1      12.641   9.144  -3.577  0.00  0.00    -0.328 OA
ATOM     15  C   UNL d   1      12.639   8.313  -2.429  0.00  0.00     0.181 C 
ENDBRANCH  11  14
ENDBRANCH   5   8
ENDBRANCH   1   2
BRANCH   1  16
ATOM     16  C   UNL d   1       8.299   4.783 -12.457  0.00  0.00     0.035 C 
BRANCH  16  17
ATOM     17  C   UNL d   1       8.534   3.586 -13.399  0.00  0.00     0.002 C 
ATOM     18  C   UNL d   1       9.389   3.936 -14.636  0.00  0.00     0.002 C 
ATOM     19  C   UNL d   1       9.595   2.708 -15.544  0.00  0.00     0.025 C 
ATOM     20  C   UNL d   1       8.252   2.069 -15.955  0.00  0.00     0.122 C 
ATOM     21  C   UNL d   1       7.401   1.736 -14.721  0.00  0.00     0.025 C 
ATOM     22  C   UNL d   1       7.190   2.978 -13.845  0.00  0.00     0.002 C 
BRANCH  20  23
ATOM     23  N   UNL d   1       8.456   0.878 -16.772  0.00  0.00    -0.088 NA
BRANCH  23  24
ATOM     24  C   UNL d   1       8.529   0.860 -18.148  0.00  0.00     0.746 A 
ATOM     25  N   UNL d   1       8.919  -0.303 -18.666  0.00  0.00    -0.058 NA
ATOM     26  C   UNL d   1       8.985  -0.386 -20.011  0.00  0.00     0.120 A 
ATOM     27  C   UNL d   1       8.666   0.711 -20.834  0.00  0.00     0.043 A 
ATOM     28  C   UNL d   1       8.278   1.892 -20.174  0.00  0.00     0.120 A 
ATOM     29  N   UNL d   1       8.202   1.963 -18.828  0.00  0.00    -0.058 NA
ENDBRANCH  23  24
ENDBRANCH  20  23
ENDBRANCH  16  17
ENDBRANCH   1  16
TORSDOF 7
