REMARK  8 active torsions:
REMARK  status: ('A' for Active; 'I' for Inactive)
REMARK    1  A    between atoms: C_3  and  S_4 
REMARK    2  A    between atoms: S_4  and  C_5 
REMARK    3  A    between atoms: C_5  and  C_6 
REMARK    4  A    between atoms: C_6  and  C_7 
REMARK    5  A    between atoms: C_7  and  N_8 
REMARK    6  A    between atoms: C_13  and  C_14 
REMARK    7  A    between atoms: C_17  and  C_18 
REMARK    8  A    between atoms: C_27  and  C_28 
ROOT
ATOM      1  N   UNL d   1       9.334   5.441 -10.481  0.00  0.00     0.137 N 
ATOM      2  C   UNL d   1       8.257   5.889  -9.653  0.00  0.00     0.250 C 
ATOM      3  C   UNL d   1       8.925   6.881  -8.750  0.00  0.00     0.038 C 
ATOM      4  C   UNL d   1      10.089   7.444  -9.517  0.00  0.00     0.037 A 
ATOM      5  C   UNL d   1      10.487   8.925  -9.505  0.00  0.00     0.007 A 
ATOM      6  C   UNL d   1      11.378   7.907  -8.844  0.00  0.00     0.024 A 
ATOM      7  C   UNL d   1      10.034   6.679 -10.794  0.00  0.00     0.251 C 
ENDROOT
BRANCH   1   8
ATOM      8  C   UNL d   1       8.787   4.774 -11.665  0.00  0.00     0.251 C 
BRANCH   8   9
ATOM      9  C   UNL d   1       9.956   4.176 -12.441  0.00  0.00     0.047 C 
BRANCH   9  10
ATOM     10  C   UNL d   1       9.565   3.352 -13.687  0.00  0.00     0.067 C 
BRANCH  10  11
ATOM     11  S   UNL d   1      10.966   2.585 -14.565  0.00  0.00    -0.075 SA
BRANCH  11  12
ATOM     12  C   UNL d   1      11.691   3.966 -15.391  0.00  0.00     0.193 A 
ATOM     13  N   UNL d   1      12.345   3.868 -16.562  0.00  0.00    -0.289 N 
ATOM     14  C   UNL d   1      12.532   2.690 -17.391  0.00  0.00     0.134 C 
ATOM     15  C   UNL d   1      12.761   5.151 -16.753  0.00  0.00     0.169 A 
ATOM     16  N   UNL d   1      12.382   5.967 -15.777  0.00  0.00    -0.128 NA
ATOM     17  N   UNL d   1      11.682   5.197 -14.895  0.00  0.00    -0.122 NA
BRANCH  15  18
ATOM     18  C   UNL d   1      13.543   5.654 -17.875  0.00  0.00     0.059 A 
ATOM     19  C   UNL d   1      13.282   6.936 -18.409  0.00  0.00     0.125 A 
ATOM     20  N   UNL d   1      13.976   7.437 -19.460  0.00  0.00    -0.146 NA
ATOM     21  N   UNL d   1      14.940   6.707 -20.034  0.00  0.00    -0.146 NA
ATOM     22  C   UNL d   1      15.247   5.478 -19.554  0.00  0.00     0.122 A 
ATOM     23  C   UNL d   1      14.581   4.906 -18.452  0.00  0.00     0.027 A 
ENDBRANCH  15  18
ENDBRANCH  11  12
ENDBRANCH  10  11
ENDBRANCH   9  10
ENDBRANCH   8   9
ENDBRANCH   1   8
BRANCH   6  24
ATOM     24  C   UNL d   1      11.514   7.865  -7.361  0.00  0.00    -0.022 A 
ATOM     25  C   UNL d   1      11.457   6.636  -6.682  0.00  0.00    -0.004 A 
ATOM     26  C   UNL d   1      11.495   6.607  -5.273  0.00  0.00     0.004 A 
ATOM     27  C   UNL d   1      11.668   7.795  -4.543  0.00  0.00     0.071 A 
ATOM     28  C   UNL d   1      11.775   9.025  -5.231  0.00  0.00     0.004 A 
ATOM     29  C   UNL d   1      11.696   9.058  -6.639  0.00  0.00    -0.004 A 
BRANCH  27  30
ATOM     30  C   UNL d   1      11.803   7.734  -3.042  0.00  0.00     0.419 C 
ATOM     31  F   UNL d   1      11.480   8.907  -2.522  0.00  0.00    -0.166 F 
ATOM     32  F   UNL d   1      11.109   6.779  -2.441  0.00  0.00    -0.166 F 
ATOM     33  F   UNL d   1      13.069   7.479  -2.800  0.00  0.00    -0.166 F 
ENDBRANCH  27  30
ENDBRANCH   6  24
TORSDOF 8
