REMARK  4 active torsions:
REMARK  status: ('A' for Active; 'I' for Inactive)
REMARK    1  A    between atoms: C_8  and  N_9 
REMARK    2  A    between atoms: N_9  and  C_10 
REMARK    3  A    between atoms: C_10  and  C_11 
REMARK    4  A    between atoms: C_11  and  C_12 
ROOT
ATOM      1 CL   UNL d   1       6.260   0.735 -14.732  0.00  0.00    -0.082 Cl
ATOM      2  C   UNL d   1       7.880   1.298 -14.919  0.00  0.00     0.058 A 
ATOM      3  C   UNL d   1       8.827   0.524 -15.611  0.00  0.00     0.013 A 
ATOM      4  C   UNL d   1      10.146   0.993 -15.758  0.00  0.00     0.020 A 
ATOM      5  C   UNL d   1      10.526   2.235 -15.212  0.00  0.00     0.086 A 
ATOM      6  C   UNL d   1       9.588   3.002 -14.476  0.00  0.00     0.054 A 
ATOM      7  C   UNL d   1       8.259   2.530 -14.366  0.00  0.00     0.016 A 
ATOM      8  C   UNL d   1       9.940   4.259 -13.739  0.00  0.00     0.160 C 
ATOM      9  N   UNL d   1      10.759   5.170 -14.169  0.00  0.00    -0.224 NA
ATOM     10  C   UNL d   1      11.518   5.123 -15.349  0.00  0.00     0.119 A 
ATOM     11  C   UNL d   1      11.860   6.359 -15.938  0.00  0.00     0.024 A 
ATOM     12  C   UNL d   1      12.700   6.393 -17.069  0.00  0.00     0.022 A 
ATOM     13  C   UNL d   1      13.206   5.178 -17.557  0.00  0.00     0.101 A 
ATOM     14  N   UNL d   1      12.914   3.988 -16.999  0.00  0.00    -0.224 NA
ATOM     15  C   UNL d   1      12.085   3.961 -15.934  0.00  0.00     0.180 A 
ATOM     16  N   UNL d   1      11.822   2.680 -15.466  0.00  0.00    -0.225 NA
ENDROOT
BRANCH   8  17
ATOM     17  N   UNL d   1       9.325   4.359 -12.495  0.00  0.00    -0.253 NA
BRANCH  17  18
ATOM     18  C   UNL d   1       9.444   5.520 -11.621  0.00  0.00     0.134 C 
BRANCH  18  19
ATOM     19  C   UNL d   1       9.225   5.171 -10.142  0.00  0.00     0.072 C 
BRANCH  19  20
ATOM     20  C   UNL d   1       9.533   6.327  -9.195  0.00  0.00     0.061 A 
ATOM     21  N   UNL d   1       9.085   6.168  -7.930  0.00  0.00    -0.248 NA
ATOM     22  C   UNL d   1       9.303   7.160  -7.040  0.00  0.00     0.099 A 
ATOM     23  C   UNL d   1      10.016   8.335  -7.351  0.00  0.00     0.021 A 
ATOM     24  C   UNL d   1      10.507   8.485  -8.660  0.00  0.00     0.003 A 
ATOM     25  C   UNL d   1      10.269   7.466  -9.600  0.00  0.00     0.015 A 
ENDBRANCH  19  20
ENDBRANCH  18  19
ENDBRANCH  17  18
ENDBRANCH   8  17
TORSDOF 4
