REMARK  8 active torsions:
REMARK  status: ('A' for Active; 'I' for Inactive)
REMARK    1  A    between atoms: C_2  and  C_5 
REMARK       I    between atoms: C_5  and  N_7 
REMARK    2  A    between atoms: N_7  and  C_8 
REMARK    3  A    between atoms: C_8  and  C_9 
REMARK    4  A    between atoms: C_9  and  C_10 
REMARK    5  A    between atoms: C_10  and  C_11 
REMARK    6  A    between atoms: C_11  and  N_12 
REMARK    7  A    between atoms: N_15  and  C_16 
REMARK    8  A    between atoms: C_19  and  C_20 
ROOT
ATOM      1  N   UNL d   1       9.662   7.733 -10.754  0.00  0.00     0.141 N 
ATOM      2  C   UNL d   1       9.186   6.946  -9.615  0.00  0.00     0.274 C 
ATOM      3  C   UNL d   1       9.061   7.893  -8.401  0.00  0.00     0.137 C 
ATOM      4  N   UNL d   1      10.353   8.421  -8.092  0.00  0.00    -0.344 N 
ATOM      5  C   UNL d   1      11.004   9.106  -9.201  0.00  0.00     0.137 C 
ATOM      6  C   UNL d   1      11.022   8.194 -10.436  0.00  0.00     0.274 C 
ENDROOT
BRANCH   1   7
ATOM      7  C   UNL d   1       9.674   6.902 -11.964  0.00  0.00     0.251 C 
BRANCH   7   8
ATOM      8  C   UNL d   1       8.316   6.441 -12.527  0.00  0.00     0.037 C 
BRANCH   8   9
ATOM      9  C   UNL d   1       8.479   5.317 -13.578  0.00  0.00     0.029 C 
BRANCH   9  10
ATOM     10  C   UNL d   1       8.891   3.982 -12.946  0.00  0.00     0.129 C 
BRANCH  10  11
ATOM     11  N   UNL d   1       9.057   2.962 -13.965  0.00  0.00    -0.238 NA
ATOM     12  C   UNL d   1      10.200   2.700 -14.610  0.00  0.00     0.250 C 
ATOM     13  O   UNL d   1      11.248   3.311 -14.376  0.00  0.00    -0.271 OA
BRANCH  12  14
ATOM     14  C   UNL d   1      10.150   1.577 -15.675  0.00  0.00     0.073 C 
ATOM     15  C   UNL d   1      11.376   1.663 -16.606  0.00  0.00     0.009 C 
ATOM     16  C   UNL d   1       8.874   1.705 -16.540  0.00  0.00     0.009 C 
ATOM     17  C   UNL d   1      10.154   0.208 -14.964  0.00  0.00     0.009 C 
ENDBRANCH  12  14
ENDBRANCH  10  11
ENDBRANCH   9  10
ENDBRANCH   8   9
ENDBRANCH   7   8
ENDBRANCH   1   7
BRANCH   4  18
ATOM     18  C   UNL d   1      10.868   8.314  -6.797  0.00  0.00     0.056 A 
ATOM     19  C   UNL d   1      10.563   7.148  -6.048  0.00  0.00     0.017 A 
ATOM     20  C   UNL d   1      11.089   7.012  -4.762  0.00  0.00     0.005 A 
ATOM     21  C   UNL d   1      11.867   8.049  -4.202  0.00  0.00     0.072 A 
ATOM     22  C   UNL d   1      12.176   9.196  -4.951  0.00  0.00     0.005 A 
ATOM     23  C   UNL d   1      11.652   9.330  -6.270  0.00  0.00     0.017 A 
BRANCH  21  24
ATOM     24  C   UNL d   1      12.348   7.826  -2.811  0.00  0.00     0.419 C 
ATOM     25  F   UNL d   1      13.100   6.746  -2.818  0.00  0.00    -0.166 F 
ATOM     26  F   UNL d   1      13.034   8.857  -2.305  0.00  0.00    -0.166 F 
ATOM     27  F   UNL d   1      11.308   7.544  -2.036  0.00  0.00    -0.166 F 
ENDBRANCH  21  24
ENDBRANCH   4  18
TORSDOF 8
