REMARK  9 active torsions:
REMARK  status: ('A' for Active; 'I' for Inactive)
REMARK    1  A    between atoms: C_2  and  C_3 
REMARK    2  A    between atoms: C_3  and  N_4 
REMARK    3  A    between atoms: N_4  and  C_5 
REMARK    4  A    between atoms: N_4  and  C_19 
REMARK    5  A    between atoms: C_5  and  C_6 
REMARK    6  A    between atoms: C_6  and  C_7 
REMARK    7  A    between atoms: C_7  and  C_8 
REMARK    8  A    between atoms: C_8  and  O_9 
REMARK    9  A    between atoms: O_9  and  C_10 
ROOT
ATOM      1  N   UNL d   1       8.129   4.567 -12.841  0.00  0.00     0.135 N 
ENDROOT
BRANCH   1   2
ATOM      2  C   UNL d   1       6.709   4.344 -12.503  0.00  0.00     0.250 C 
BRANCH   2   3
ATOM      3  C   UNL d   1       6.032   5.453 -11.696  0.00  0.00     0.035 C 
ATOM      4  C   UNL d   1       5.827   6.741 -12.490  0.00  0.00     0.002 C 
ENDBRANCH   2   3
ENDBRANCH   1   2
BRANCH   1   5
ATOM      5  C   UNL d   1       8.930   4.932 -11.668  0.00  0.00     0.250 C 
BRANCH   5   6
ATOM      6  C   UNL d   1       8.976   6.463 -11.466  0.00  0.00     0.038 C 
BRANCH   6   7
ATOM      7  C   UNL d   1       9.874   6.932 -10.306  0.00  0.00     0.035 C 
BRANCH   7   8
ATOM      8  C   UNL d   1       9.411   6.396  -8.922  0.00  0.00     0.149 C 
BRANCH   8   9
ATOM      9  O   UNL d   1      10.474   6.181  -8.013  0.00  0.00    -0.331 OA
BRANCH   9  10
ATOM     10  C   UNL d   1      10.768   7.186  -7.122  0.00  0.00     0.097 A 
ATOM     11  C   UNL d   1      11.249   6.813  -5.902  0.00  0.00     0.043 A 
ATOM     12  C   UNL d   1      11.459   7.795  -4.893  0.00  0.00     0.086 A 
ATOM     13  N   UNL d   1      11.212   9.134  -5.247  0.00  0.00    -0.228 N 
ATOM     14  C   UNL d   1      11.880   7.803  -3.598  0.00  0.00     0.042 A 
ATOM     15  C   UNL d   1      10.803   9.533  -6.466  0.00  0.00     0.102 A 
ATOM     16  N   UNL d   1      11.441   9.970  -4.182  0.00  0.00    -0.164 NA
ATOM     17  C   UNL d   1      10.576   8.567  -7.431  0.00  0.00     0.045 A 
ATOM     18  C   UNL d   1      11.862   9.178  -3.237  0.00  0.00     0.122 A 
ENDBRANCH   9  10
ENDBRANCH   8   9
ENDBRANCH   7   8
ENDBRANCH   6   7
ENDBRANCH   5   6
ENDBRANCH   1   5
BRANCH   1  19
ATOM     19  C   UNL d   1       8.754   3.422 -13.541  0.00  0.00     0.224 C 
ATOM     20  C   UNL d   1       9.879   3.924 -14.480  0.00  0.00     0.059 C 
ATOM     21  C   UNL d   1      10.427   2.862 -15.436  0.00  0.00    -0.022 A 
ATOM     22  C   UNL d   1       9.733   1.648 -15.677  0.00  0.00    -0.001 A 
ATOM     23  C   UNL d   1      11.636   3.114 -16.117  0.00  0.00    -0.004 A 
ATOM     24  C   UNL d   1       8.437   1.331 -14.960  0.00  0.00     0.030 C 
ATOM     25  C   UNL d   1      10.259   0.706 -16.588  0.00  0.00     0.127 A 
ATOM     26  C   UNL d   1       7.768   2.541 -14.336  0.00  0.00     0.038 C 
ATOM     27  O   UNL d   1       9.614  -0.474 -16.831  0.00  0.00    -0.191 OA
ATOM     28  C   UNL d   1      11.461   0.969 -17.265  0.00  0.00     0.027 A 
ATOM     29  C   UNL d   1      12.149   2.172 -17.026  0.00  0.00     0.002 A 
ENDBRANCH   1  19
TORSDOF 9
