REMARK  5 active torsions:
REMARK  status: ('A' for Active; 'I' for Inactive)
REMARK    1  A    between atoms: N_11  and  C_12 
REMARK    2  A    between atoms: C_12  and  C_13 
REMARK    3  A    between atoms: C_13  and  C_14 
REMARK    4  A    between atoms: C_14  and  N_15 
REMARK    5  A    between atoms: C_18  and  N_19 
ROOT
ATOM      1  N   UNL d   1       9.261   6.390  -9.185  0.00  0.00     0.137 N 
ATOM      2  C   UNL d   1      10.711   6.353  -9.122  0.00  0.00     0.252 C 
ATOM      3  C   UNL d   1      11.249   7.319  -8.084  0.00  0.00     0.058 C 
ATOM      4  C   UNL d   1      10.659   7.043  -6.687  0.00  0.00     0.095 C 
ATOM      5  C   UNL d   1       9.124   6.945  -6.803  0.00  0.00     0.058 C 
ATOM      6  C   UNL d   1       8.695   5.974  -7.913  0.00  0.00     0.252 C 
ENDROOT
BRANCH   1   7
ATOM      7  C   UNL d   1       8.744   5.540 -10.251  0.00  0.00     0.252 C 
BRANCH   7   8
ATOM      8  C   UNL d   1       9.261   6.023 -11.618  0.00  0.00     0.060 C 
BRANCH   8   9
ATOM      9  C   UNL d   1       8.300   5.753 -12.793  0.00  0.00     0.111 C 
BRANCH   9  10
ATOM     10  N   UNL d   1       8.585   4.525 -13.571  0.00  0.00    -0.295 N 
ATOM     11  C   UNL d   1       9.752   4.451 -14.265  0.00  0.00     0.268 C 
ATOM     12  O   UNL d   1      10.657   5.280 -14.211  0.00  0.00    -0.269 OA
ATOM     13  C   UNL d   1       9.965   3.259 -15.208  0.00  0.00     0.236 C 
ATOM     14  O   UNL d   1       9.340   2.074 -14.737  0.00  0.00    -0.319 OA
ATOM     15  C   UNL d   1       8.054   2.228 -14.280  0.00  0.00     0.110 A 
ATOM     16  C   UNL d   1       7.632   3.455 -13.696  0.00  0.00     0.085 A 
ATOM     17  C   UNL d   1       7.200   1.111 -14.328  0.00  0.00     0.026 A 
ATOM     18  C   UNL d   1       6.306   3.539 -13.203  0.00  0.00     0.019 A 
ATOM     19  C   UNL d   1       5.459   2.410 -13.226  0.00  0.00     0.002 A 
ATOM     20  C   UNL d   1       5.898   1.201 -13.801  0.00  0.00     0.002 A 
ENDBRANCH   9  10
ENDBRANCH   8   9
ENDBRANCH   7   8
ENDBRANCH   1   7
BRANCH   4  21
ATOM     21  N   UNL d   1      11.074   8.040  -5.697  0.00  0.00    -0.266 N 
ATOM     22  C   UNL d   1      11.573   7.741  -4.417  0.00  0.00     0.165 A 
ATOM     23  C   UNL d   1      11.787   8.947  -3.806  0.00  0.00     0.120 A 
ATOM     24  N   UNL d   1      11.805   6.548  -3.824  0.00  0.00    -0.225 NA
ATOM     25  N   UNL d   1      11.443   9.952  -4.681  0.00  0.00    -0.189 NA
ATOM     26  C   UNL d   1      12.255   9.041  -2.497  0.00  0.00     0.024 A 
ATOM     27  C   UNL d   1      11.026   9.395  -5.809  0.00  0.00     0.351 A 
ATOM     28  O   UNL d   1      10.665  10.023  -6.792  0.00  0.00    -0.244 OA
ATOM     29  C   UNL d   1      12.527   7.818  -1.861  0.00  0.00     0.022 A 
ATOM     30  C   UNL d   1      12.258   6.609  -2.547  0.00  0.00     0.101 A 
ENDBRANCH   4  21
TORSDOF 5
