REMARK  3 active torsions:
REMARK  status: ('A' for Active; 'I' for Inactive)
REMARK    1  A    between atoms: C_5  and  S_6 
REMARK    2  A    between atoms: S_6  and  N_9 
REMARK       I    between atoms: N_9  and  C_10 
REMARK       I    between atoms: C_10  and  N_12 
REMARK    3  A    between atoms: N_12  and  N_13 
ROOT
ATOM      1  N   UNL d   1       9.708   7.767  -9.258  0.00  0.00    -0.099 NA
ATOM      2  C   UNL d   1       9.558   6.513  -9.819  0.00  0.00     0.390 C 
ATOM      3  O   UNL d   1      10.248   5.583  -9.473  0.00  0.00    -0.241 OA
ATOM      4  N   UNL d   1       8.664   6.491 -10.808  0.00  0.00    -0.137 NA
ENDROOT
BRANCH   1   5
ATOM      5  S   UNL d   1      11.240   8.479  -8.963  0.00  0.00     0.289 S 
ATOM      6  O   UNL d   1      11.058   9.899  -9.271  0.00  0.00    -0.198 OA
ATOM      7  O   UNL d   1      12.304   7.716  -9.627  0.00  0.00    -0.198 OA
BRANCH   5   8
ATOM      8  C   UNL d   1      11.440   8.288  -7.194  0.00  0.00     0.105 A 
ATOM      9  C   UNL d   1      11.825   9.378  -6.384  0.00  0.00     0.013 A 
ATOM     10  C   UNL d   1      11.998   9.184  -4.994  0.00  0.00    -0.004 A 
ATOM     11  C   UNL d   1      11.784   7.908  -4.424  0.00  0.00    -0.022 A 
ATOM     12  C   UNL d   1      11.980   7.677  -2.944  0.00  0.00     0.031 C 
ATOM     13  C   UNL d   1      11.387   6.832  -5.241  0.00  0.00    -0.004 A 
ATOM     14  C   UNL d   1      11.216   7.022  -6.622  0.00  0.00     0.013 A 
ENDBRANCH   5   8
ENDBRANCH   1   5
BRANCH   4  15
ATOM     15  N   UNL d   1       8.548   5.435 -11.695  0.00  0.00    -0.174 NA
ATOM     16  C   UNL d   1       9.408   5.667 -12.871  0.00  0.00     0.096 C 
ATOM     17  C   UNL d   1      10.015   4.403 -13.499  0.00  0.00     0.019 C 
ATOM     18  C   UNL d   1       9.045   3.223 -13.701  0.00  0.00     0.002 C 
ATOM     19  C   UNL d   1       7.568   3.606 -13.938  0.00  0.00     0.002 C 
ATOM     20  C   UNL d   1       6.762   3.958 -12.676  0.00  0.00     0.019 C 
ATOM     21  C   UNL d   1       7.135   5.309 -12.069  0.00  0.00     0.096 C 
ENDBRANCH   4  15
TORSDOF 3
