REMARK  10 active torsions:
REMARK  status: ('A' for Active; 'I' for Inactive)
REMARK    1  A    between atoms: C_6  and  N_7 
REMARK    2  A    between atoms: N_7  and  C_8 
REMARK    3  A    between atoms: N_7  and  C_11 
REMARK    4  A    between atoms: C_8  and  C_9 
REMARK    5  A    between atoms: C_11  and  C_12 
REMARK    6  A    between atoms: C_12  and  C_13 
REMARK    7  A    between atoms: C_13  and  C_14 
REMARK    8  A    between atoms: C_14  and  N_15 
REMARK    9  A    between atoms: C_17  and  C_18 
REMARK   10  A    between atoms: C_21  and  C_22 
ROOT
ATOM      1  C   UNL d   1       3.815  -1.186 -18.876  0.00  0.00    -0.009 C 
ATOM      2  C   UNL d   1       4.879  -0.704 -18.528  0.00  0.00    -0.056 C 
ATOM      3  C   UNL d   1       6.086  -0.122 -18.077  0.00  0.00     0.016 C 
ATOM      4  C   UNL d   1       6.363   1.155 -18.387  0.00  0.00    -0.020 C 
ATOM      5  C   UNL d   1       7.642   1.869 -18.001  0.00  0.00     0.059 C 
ATOM      6  C   UNL d   1       8.444   1.091 -16.950  0.00  0.00     0.224 C 
ATOM      7  C   UNL d   1       8.489  -0.408 -17.252  0.00  0.00     0.039 C 
ATOM      8  C   UNL d   1       7.060  -1.002 -17.294  0.00  0.00     0.036 C 
ENDROOT
BRANCH   6   9
ATOM      9  N   UNL d   1       9.802   1.658 -16.692  0.00  0.00     0.135 N 
BRANCH   9  10
ATOM     10  C   UNL d   1      10.689   1.580 -17.851  0.00  0.00     0.250 C 
BRANCH  10  11
ATOM     11  C   UNL d   1      12.169   1.853 -17.531  0.00  0.00     0.035 C 
ATOM     12  C   UNL d   1      13.066   1.629 -18.749  0.00  0.00     0.002 C 
ENDBRANCH  10  11
ENDBRANCH   9  10
BRANCH   9  13
ATOM     13  C   UNL d   1       9.756   3.023 -16.151  0.00  0.00     0.250 C 
BRANCH  13  14
ATOM     14  C   UNL d   1       8.896   3.160 -14.883  0.00  0.00     0.037 C 
BRANCH  14  15
ATOM     15  C   UNL d   1       9.389   4.291 -13.961  0.00  0.00     0.029 C 
BRANCH  15  16
ATOM     16  C   UNL d   1       8.285   4.761 -13.016  0.00  0.00     0.129 C 
BRANCH  16  17
ATOM     17  N   UNL d   1       8.790   5.663 -12.007  0.00  0.00    -0.231 N 
ATOM     18  N   UNL d   1       9.013   6.960 -12.314  0.00  0.00    -0.064 NA
ATOM     19  N   UNL d   1       9.477   7.528 -11.250  0.00  0.00    -0.129 NA
ATOM     20  C   UNL d   1       9.556   6.598 -10.215  0.00  0.00     0.123 A 
ATOM     21  C   UNL d   1       9.102   5.397 -10.696  0.00  0.00     0.118 A 
BRANCH  20  22
ATOM     22  C   UNL d   1      10.026   6.976  -8.885  0.00  0.00     0.021 A 
ATOM     23  C   UNL d   1      11.124   7.848  -8.722  0.00  0.00     0.002 A 
ATOM     24  C   UNL d   1      11.571   8.198  -7.435  0.00  0.00     0.000 A 
ATOM     25  C   UNL d   1      10.949   7.671  -6.282  0.00  0.00     0.000 A 
ATOM     26  C   UNL d   1       9.852   6.796  -6.455  0.00  0.00     0.000 A 
ATOM     27  C   UNL d   1       9.400   6.444  -7.740  0.00  0.00     0.002 A 
BRANCH  25  28
ATOM     28  C   UNL d   1      11.428   8.026  -4.938  0.00  0.00     0.000 A 
ATOM     29  C   UNL d   1      11.448   9.376  -4.529  0.00  0.00     0.000 A 
ATOM     30  C   UNL d   1      11.859   9.722  -3.226  0.00  0.00     0.000 A 
ATOM     31  C   UNL d   1      12.278   8.725  -2.327  0.00  0.00     0.000 A 
ATOM     32  C   UNL d   1      12.262   7.373  -2.724  0.00  0.00     0.000 A 
ATOM     33  C   UNL d   1      11.840   7.032  -4.022  0.00  0.00     0.000 A 
ENDBRANCH  25  28
ENDBRANCH  20  22
ENDBRANCH  16  17
ENDBRANCH  15  16
ENDBRANCH  14  15
ENDBRANCH  13  14
ENDBRANCH   9  13
ENDBRANCH   6   9
TORSDOF 10
