REMARK  5 active torsions:
REMARK  status: ('A' for Active; 'I' for Inactive)
REMARK    1  A    between atoms: C_2  and  C_3 
REMARK    2  A    between atoms: C_3  and  C_5 
REMARK    3  A    between atoms: C_5  and  C_7 
REMARK    4  A    between atoms: C_7  and  C_9 
REMARK    5  A    between atoms: C_9  and  C_11 
ROOT
ATOM      1  C   UNL d   1      11.285   8.319  -6.613  0.00  0.00     0.218 C 
ATOM      2  O   UNL d   1      12.270   9.257  -6.998  0.00  0.00    -0.218 OA
ENDROOT
BRANCH   1   3
ATOM      3  C   UNL d   1      10.066   8.375  -7.590  0.00  0.00     0.218 C 
ATOM      4  O   UNL d   1       9.082   7.465  -7.140  0.00  0.00    -0.218 OA
BRANCH   3   5
ATOM      5  C   UNL d   1      10.349   7.955  -9.054  0.00  0.00     0.218 C 
ATOM      6  O   UNL d   1      11.168   8.857  -9.769  0.00  0.00    -0.218 OA
ENDBRANCH   3   5
ENDBRANCH   1   3
BRANCH   1   7
ATOM      7  C   UNL d   1      10.968   8.634  -5.128  0.00  0.00     0.218 C 
ATOM      8  O   UNL d   1      10.660  10.013  -5.039  0.00  0.00    -0.218 OA
BRANCH   7   9
ATOM      9  C   UNL d   1      12.110   8.291  -4.139  0.00  0.00     0.218 C 
ATOM     10  O   UNL d   1      12.255   6.883  -4.120  0.00  0.00    -0.218 OA
BRANCH   9  11
ATOM     11  C   UNL d   1      11.834   8.726  -2.686  0.00  0.00     0.218 C 
ATOM     12  O   UNL d   1      13.026   8.777  -1.930  0.00  0.00    -0.218 OA
ENDBRANCH   9  11
ENDBRANCH   7   9
ENDBRANCH   1   7
TORSDOF 5
