REMARK  5 active torsions:
REMARK  status: ('A' for Active; 'I' for Inactive)
REMARK    1  A    between atoms: C_7  and  C_8 
REMARK    2  A    between atoms: C_8  and  C_9 
REMARK    3  A    between atoms: C_9  and  C_10 
REMARK    4  A    between atoms: C_10  and  C_11 
REMARK    5  A    between atoms: C_11  and  N_12 
ROOT
ATOM      1  C   UNL d   1       9.506   7.134 -10.875  0.00  0.00     0.009 C 
ENDROOT
BRANCH   1   2
ATOM      2  C   UNL d   1       9.052   5.690 -10.594  0.00  0.00     0.053 C 
BRANCH   2   3
ATOM      3  C   UNL d   1       8.812   4.888 -11.820  0.00  0.00     0.088 A 
ATOM      4  S   UNL d   1       7.198   4.545 -12.441  0.00  0.00    -0.071 SA
ATOM      5  C   UNL d   1       7.952   3.530 -13.661  0.00  0.00     0.048 A 
ATOM      6  C   UNL d   1       7.336   2.750 -14.656  0.00  0.00     0.009 A 
ATOM      7  C   UNL d   1       9.367   3.570 -13.527  0.00  0.00     0.088 A 
ATOM      8  C   UNL d   1       8.137   2.044 -15.575  0.00  0.00     0.012 A 
ATOM      9  C   UNL d   1       9.539   2.082 -15.464  0.00  0.00     0.059 A 
ATOM     10 CL   UNL d   1      10.520   1.209 -16.581  0.00  0.00    -0.082 Cl
ATOM     11  C   UNL d   1      10.148   2.833 -14.442  0.00  0.00     0.031 A 
ATOM     12  N   UNL d   1       9.844   4.366 -12.496  0.00  0.00    -0.243 NA
ENDBRANCH   2   3
ENDBRANCH   1   2
BRANCH   1  13
ATOM     13  C   UNL d   1      10.203   7.835  -9.697  0.00  0.00     0.036 C 
BRANCH  13  14
ATOM     14  C   UNL d   1       9.747   7.338  -8.318  0.00  0.00     0.251 C 
BRANCH  14  15
ATOM     15  N   UNL d   1      10.539   7.932  -7.233  0.00  0.00     0.142 N 
ATOM     16  C   UNL d   1      10.574   6.987  -6.122  0.00  0.00     0.276 C 
ATOM     17  C   UNL d   1      11.254   7.553  -4.883  0.00  0.00     0.007 A 
ATOM     18  C   UNL d   1      11.323   8.940  -4.686  0.00  0.00    -0.022 A 
ATOM     19  C   UNL d   1      11.722   6.670  -3.884  0.00  0.00    -0.003 A 
ATOM     20  C   UNL d   1      10.807   9.871  -5.775  0.00  0.00     0.061 C 
ATOM     21  C   UNL d   1      11.841   9.451  -3.478  0.00  0.00    -0.004 A 
ATOM     22  C   UNL d   1       9.889   9.151  -6.787  0.00  0.00     0.255 C 
ATOM     23  C   UNL d   1      12.336   8.577  -2.494  0.00  0.00    -0.000 A 
ATOM     24  C   UNL d   1      12.261   7.187  -2.689  0.00  0.00    -0.000 A 
ENDBRANCH  14  15
ENDBRANCH  13  14
ENDBRANCH   1  13
TORSDOF 5
