REMARK  7 active torsions:
REMARK  status: ('A' for Active; 'I' for Inactive)
REMARK    1  A    between atoms: O_2  and  C_3 
REMARK    2  A    between atoms: N_13  and  C_14 
REMARK    3  A    between atoms: C_14  and  C_15 
REMARK    4  A    between atoms: C_15  and  C_16 
REMARK    5  A    between atoms: C_16  and  C_17 
REMARK    6  A    between atoms: C_17  and  N_18 
REMARK       I    between atoms: N_18  and  C_19 
REMARK    7  A    between atoms: C_19  and  C_21 
ROOT
ATOM      1  C   UNL d   1       9.877   0.731 -17.456  0.00  0.00     0.094 A 
ATOM      2  C   UNL d   1      11.280   0.793 -17.299  0.00  0.00     0.026 A 
ATOM      3  C   UNL d   1      11.860   1.688 -16.383  0.00  0.00     0.026 A 
ATOM      4  C   UNL d   1      11.066   2.506 -15.574  0.00  0.00     0.092 A 
ATOM      5  C   UNL d   1       9.670   2.423 -15.698  0.00  0.00     0.031 A 
ATOM      6  C   UNL d   1       9.072   1.567 -16.654  0.00  0.00     0.024 A 
ATOM      7  C   UNL d   1       8.809   3.331 -14.853  0.00  0.00     0.173 C 
ATOM      8  O   UNL d   1       7.574   2.705 -14.516  0.00  0.00    -0.348 OA
ATOM      9  C   UNL d   1       6.685   3.556 -13.811  0.00  0.00     0.178 C 
ATOM     10  C   UNL d   1       7.376   4.170 -12.590  0.00  0.00     0.282 C 
ATOM     11  N   UNL d   1       8.659   4.798 -12.900  0.00  0.00     0.143 N 
ATOM     12  C   UNL d   1       9.527   3.833 -13.591  0.00  0.00     0.280 C 
ATOM     13  C   UNL d   1      10.897   4.369 -14.065  0.00  0.00     0.185 C 
ATOM     14  O   UNL d   1      11.686   3.342 -14.665  0.00  0.00    -0.329 OA
ENDROOT
BRANCH  11  15
ATOM     15  C   UNL d   1       9.287   5.280 -11.678  0.00  0.00     0.251 C 
BRANCH  15  16
ATOM     16  C   UNL d   1       8.370   6.106 -10.760  0.00  0.00     0.037 C 
BRANCH  16  17
ATOM     17  C   UNL d   1       9.082   6.726  -9.554  0.00  0.00     0.029 C 
BRANCH  17  18
ATOM     18  C   UNL d   1       9.839   5.714  -8.699  0.00  0.00     0.129 C 
BRANCH  18  19
ATOM     19  N   UNL d   1      10.358   6.291  -7.462  0.00  0.00    -0.234 NA
ATOM     20  C   UNL d   1      10.543   7.585  -7.146  0.00  0.00     0.275 C 
ATOM     21  O   UNL d   1      10.301   8.521  -7.912  0.00  0.00    -0.266 OA
BRANCH  20  22
ATOM     22  C   UNL d   1      11.037   7.832  -5.739  0.00  0.00     0.058 A 
ATOM     23  C   UNL d   1      11.481   6.783  -4.892  0.00  0.00     0.006 A 
ATOM     24  C   UNL d   1      11.989   7.068  -3.611  0.00  0.00     0.012 A 
ATOM     25  C   UNL d   1      12.041   8.401  -3.179  0.00  0.00     0.058 A 
ATOM     26  C   UNL d   1      11.580   9.448  -3.987  0.00  0.00     0.012 A 
ATOM     27 CL   UNL d   1      12.663   8.765  -1.634  0.00  0.00    -0.082 Cl
ATOM     28  C   UNL d   1      11.089   9.160  -5.272  0.00  0.00     0.006 A 
ENDBRANCH  20  22
ENDBRANCH  18  19
ENDBRANCH  17  18
ENDBRANCH  16  17
ENDBRANCH  15  16
ENDBRANCH  11  15
BRANCH   1  29
ATOM     29  O   UNL d   1       9.232  -0.105 -18.348  0.00  0.00    -0.328 OA
ATOM     30  C   UNL d   1      10.035  -1.010 -19.094  0.00  0.00     0.181 C 
ENDBRANCH   1  29
TORSDOF 7
