REMARK  7 active torsions:
REMARK  status: ('A' for Active; 'I' for Inactive)
REMARK    1  A    between atoms: C_6  and  C_7 
REMARK    2  A    between atoms: C_10  and  S_11 
REMARK    3  A    between atoms: S_11  and  C_12 
REMARK    4  A    between atoms: C_12  and  C_13 
REMARK    5  A    between atoms: C_13  and  C_14 
REMARK    6  A    between atoms: C_14  and  N_15 
REMARK    7  A    between atoms: C_21  and  C_22 
ROOT
ATOM      1  C   UNL d   1      12.938  -0.817 -20.111  0.00  0.00     0.047 C 
ENDROOT
BRANCH   1   2
ATOM      2  C   UNL d   1      13.890  -0.404 -21.263  0.00  0.00     0.067 C 
BRANCH   2   3
ATOM      3  S   UNL d   1      13.524   1.193 -22.100  0.00  0.00    -0.075 SA
BRANCH   3   4
ATOM      4  C   UNL d   1      13.954   2.277 -20.777  0.00  0.00     0.193 C 
ATOM      5  N   UNL d   1      15.153   2.296 -20.209  0.00  0.00    -0.122 NA
ATOM      6  N   UNL d   1      14.998   3.128 -19.127  0.00  0.00    -0.128 NA
ATOM      7  C   UNL d   1      13.816   3.703 -19.231  0.00  0.00     0.167 C 
ATOM      8  N   UNL d   1      13.087   3.164 -20.229  0.00  0.00    -0.289 N 
ATOM      9  C   UNL d   1      11.707   3.439 -20.574  0.00  0.00     0.134 C 
BRANCH   7  10
ATOM     10  C   UNL d   1      13.379   4.731 -18.295  0.00  0.00     0.037 A 
ATOM     11  C   UNL d   1      13.849   6.095 -18.432  0.00  0.00     0.021 A 
ATOM     12  C   UNL d   1      14.767   6.432 -19.446  0.00  0.00     0.003 A 
ATOM     13  C   UNL d   1      13.379   7.096 -17.533  0.00  0.00     0.081 A 
ATOM     14  C   UNL d   1      15.185   7.777 -19.536  0.00  0.00     0.015 A 
ATOM     15  C   UNL d   1      14.664   8.701 -18.607  0.00  0.00     0.059 A 
ATOM     16  C   UNL d   1      15.051  10.154 -18.660  0.00  0.00     0.052 C 
ATOM     17  N   UNL d   1      13.806   8.377 -17.633  0.00  0.00    -0.250 NA
ATOM     18  C   UNL d   1      12.458   6.761 -16.526  0.00  0.00     0.019 A 
ATOM     19  C   UNL d   1      12.030   5.409 -16.382  0.00  0.00     0.002 A 
ATOM     20  C   UNL d   1      12.536   4.444 -17.229  0.00  0.00     0.003 A 
ENDBRANCH   7  10
ENDBRANCH   3   4
ENDBRANCH   2   3
ENDBRANCH   1   2
BRANCH   1  21
ATOM     21  C   UNL d   1      12.614   0.313 -19.127  0.00  0.00     0.251 C 
BRANCH  21  22
ATOM     22  N   UNL d   1      11.759  -0.019 -18.014  0.00  0.00     0.138 N 
ATOM     23  C   UNL d   1      11.790   1.152 -17.153  0.00  0.00     0.255 C 
ATOM     24  C   UNL d   1      11.234   0.973 -15.746  0.00  0.00     0.061 C 
ATOM     25  C   UNL d   1       9.736   1.110 -15.685  0.00  0.00    -0.024 A 
ATOM     26  C   UNL d   1       8.906   0.304 -16.499  0.00  0.00    -0.024 A 
ATOM     27  C   UNL d   1       9.163   2.053 -14.812  0.00  0.00    -0.003 A 
ATOM     28  C   UNL d   1       9.477  -0.723 -17.458  0.00  0.00     0.061 C 
ATOM     29  C   UNL d   1       7.511   0.450 -16.418  0.00  0.00    -0.004 A 
ATOM     30  C   UNL d   1      10.384  -0.131 -18.524  0.00  0.00     0.255 C 
ATOM     31  C   UNL d   1       6.947   1.380 -15.535  0.00  0.00     0.001 A 
ATOM     32  C   UNL d   1       7.764   2.198 -14.723  0.00  0.00     0.017 A 
BRANCH  32  33
ATOM     33  C   UNL d   1       7.186   3.183 -13.831  0.00  0.00     0.079 A 
ATOM     34  N   UNL d   1       6.140   2.931 -12.959  0.00  0.00    -0.249 N 
ATOM     35  N   UNL d   1       5.817   4.018 -12.240  0.00  0.00    -0.174 NA
ATOM     36  C   UNL d   1       5.458   1.680 -12.676  0.00  0.00     0.154 C 
ATOM     37  C   UNL d   1       6.656   4.959 -12.636  0.00  0.00     0.081 A 
ATOM     38  C   UNL d   1       7.557   4.495 -13.631  0.00  0.00     0.035 A 
ATOM     39  C   UNL d   1       6.568   6.329 -12.041  0.00  0.00     0.054 C 
ENDBRANCH  32  33
ENDBRANCH  21  22
ENDBRANCH   1  21
TORSDOF 7
