REMARK  6 active torsions:
REMARK  status: ('A' for Active; 'I' for Inactive)
REMARK    1  A    between atoms: C_5  and  N_6 
REMARK    2  A    between atoms: N_9  and  C_10 
REMARK    3  A    between atoms: C_10  and  C_11 
REMARK    4  A    between atoms: C_11  and  C_12 
REMARK    5  A    between atoms: N_16  and  S_17 
REMARK    6  A    between atoms: S_17  and  C_20 
ROOT
ATOM      1  C   UNL d   1      10.283   2.315 -16.483  0.00  0.00     0.094 C 
ATOM      2  C   UNL d   1      10.839   1.973 -15.081  0.00  0.00     0.025 C 
ATOM      3  C   UNL d   1      10.386   0.542 -14.787  0.00  0.00     0.027 C 
ATOM      4  C   UNL d   1      10.227  -0.066 -16.172  0.00  0.00     0.113 C 
ATOM      5  N   UNL d   1       9.744   1.041 -16.992  0.00  0.00    -0.276 N 
ENDROOT
BRANCH   1   6
ATOM      6  C   UNL d   1      11.331   2.910 -17.421  0.00  0.00     0.058 C 
BRANCH   6   7
ATOM      7  C   UNL d   1      11.819   4.290 -16.920  0.00  0.00     0.252 C 
BRANCH   7   8
ATOM      8  N   UNL d   1      12.702   4.910 -17.905  0.00  0.00     0.141 N 
ATOM      9  C   UNL d   1      12.836   6.348 -17.637  0.00  0.00     0.274 C 
ATOM     10  C   UNL d   1      13.745   7.019 -18.692  0.00  0.00     0.137 C 
ATOM     11  N   UNL d   1      15.034   6.334 -18.744  0.00  0.00    -0.343 N 
ATOM     12  C   UNL d   1      14.961   4.885 -18.888  0.00  0.00     0.137 C 
ATOM     13  C   UNL d   1      14.027   4.285 -17.829  0.00  0.00     0.274 C 
BRANCH  11  14
ATOM     14  C   UNL d   1      16.252   6.990 -18.576  0.00  0.00     0.076 A 
ATOM     15  C   UNL d   1      16.561   8.213 -19.225  0.00  0.00     0.125 A 
ATOM     16  N   UNL d   1      15.823   8.982 -20.116  0.00  0.00    -0.182 NA
ATOM     17  C   UNL d   1      17.771   8.851 -19.090  0.00  0.00     0.124 A 
ATOM     18  C   UNL d   1      16.573  10.079 -20.506  0.00  0.00     0.392 A 
ATOM     19  O   UNL d   1      16.239  10.986 -21.264  0.00  0.00    -0.236 OA
ATOM     20  O   UNL d   1      17.780   9.983 -19.861  0.00  0.00    -0.256 OA
ATOM     21  C   UNL d   1      18.792   8.326 -18.277  0.00  0.00     0.026 A 
ATOM     22  C   UNL d   1      18.527   7.110 -17.604  0.00  0.00     0.004 A 
ATOM     23  C   UNL d   1      17.282   6.452 -17.755  0.00  0.00     0.019 A 
ENDBRANCH  11  14
ENDBRANCH   7   8
ENDBRANCH   6   7
ENDBRANCH   1   6
BRANCH   5  24
ATOM     24  S   UNL d   1       8.151   0.912 -17.653  0.00  0.00     0.266 S 
ATOM     25  O   UNL d   1       7.889   2.128 -18.435  0.00  0.00    -0.200 OA
ATOM     26  O   UNL d   1       8.129  -0.406 -18.311  0.00  0.00    -0.200 OA
BRANCH  24  27
ATOM     27  C   UNL d   1       7.038   0.929 -16.209  0.00  0.00     0.122 A 
ATOM     28  C   UNL d   1       5.882   0.108 -16.064  0.00  0.00     0.015 A 
ATOM     29  C   UNL d   1       5.135   0.220 -14.848  0.00  0.00     0.020 A 
ATOM     30  C   UNL d   1       5.404  -0.787 -17.055  0.00  0.00     0.001 A 
ATOM     31  C   UNL d   1       5.547   1.133 -13.861  0.00  0.00     0.099 A 
ATOM     32  C   UNL d   1       3.964  -0.522 -14.632  0.00  0.00     0.002 A 
ATOM     33  N   UNL d   1       6.590   1.951 -14.033  0.00  0.00    -0.242 NA
ATOM     34  C   UNL d   1       7.303   1.834 -15.155  0.00  0.00     0.112 A 
ATOM     35  C   UNL d   1       3.535  -1.411 -15.628  0.00  0.00     0.000 A 
ATOM     36  C   UNL d   1       4.256  -1.557 -16.823  0.00  0.00     0.000 A 
ENDBRANCH  24  27
ENDBRANCH   5  24
TORSDOF 6
