REMARK  7 active torsions:
REMARK  status: ('A' for Active; 'I' for Inactive)
REMARK    1  A    between atoms: C_10  and  S_11 
REMARK    2  A    between atoms: S_11  and  C_12 
REMARK    3  A    between atoms: C_12  and  C_13 
REMARK    4  A    between atoms: C_13  and  C_14 
REMARK    5  A    between atoms: C_14  and  N_15 
REMARK    6  A    between atoms: C_19  and  C_20 
REMARK    7  A    between atoms: C_23  and  C_24 
ROOT
ATOM      1  C   UNL d   1      11.469   1.924 -16.263  0.00  0.00     0.067 C 
ENDROOT
BRANCH   1   2
ATOM      2  S   UNL d   1      11.210   2.037 -18.063  0.00  0.00    -0.075 SA
BRANCH   2   3
ATOM      3  C   UNL d   1       9.496   1.645 -18.110  0.00  0.00     0.193 A 
ATOM      4  N   UNL d   1       8.539   2.564 -18.247  0.00  0.00    -0.122 NA
ATOM      5  N   UNL d   1       7.348   1.855 -18.185  0.00  0.00    -0.128 NA
ATOM      6  C   UNL d   1       7.694   0.571 -18.067  0.00  0.00     0.167 A 
ATOM      7  C   UNL d   1       6.708  -0.487 -18.041  0.00  0.00     0.037 A 
ATOM      8  N   UNL d   1       9.030   0.388 -17.994  0.00  0.00    -0.289 N 
ATOM      9  C   UNL d   1       5.796  -0.617 -16.953  0.00  0.00     0.021 A 
ATOM     10  C   UNL d   1       6.659  -1.403 -19.115  0.00  0.00     0.003 A 
ATOM     11  C   UNL d   1       5.817   0.254 -15.829  0.00  0.00     0.003 A 
ATOM     12  C   UNL d   1       4.819  -1.656 -16.973  0.00  0.00     0.081 A 
ATOM     13  C   UNL d   1       4.912   0.043 -14.777  0.00  0.00     0.015 A 
ATOM     14  C   UNL d   1       3.982  -1.001 -14.889  0.00  0.00     0.059 A 
ATOM     15  C   UNL d   1       2.925  -1.222 -13.823  0.00  0.00     0.052 C 
ATOM     16  N   UNL d   1       3.914  -1.803 -15.970  0.00  0.00    -0.250 NA
ATOM     17  C   UNL d   1       4.805  -2.567 -18.057  0.00  0.00     0.019 A 
ATOM     18  C   UNL d   1       5.723  -2.449 -19.122  0.00  0.00     0.002 A 
ATOM     19  C   UNL d   1       9.759  -0.858 -17.850  0.00  0.00     0.134 C 
ENDBRANCH   2   3
ENDBRANCH   1   2
BRANCH   1  20
ATOM     20  C   UNL d   1      10.722   3.034 -15.528  0.00  0.00     0.047 C 
BRANCH  20  21
ATOM     21  C   UNL d   1      10.787   2.937 -14.001  0.00  0.00     0.251 C 
BRANCH  21  22
ATOM     22  N   UNL d   1      10.223   4.130 -13.329  0.00  0.00     0.137 N 
ATOM     23  C   UNL d   1       9.802   3.716 -11.982  0.00  0.00     0.254 C 
ATOM     24  C   UNL d   1       8.751   4.686 -11.508  0.00  0.00     0.052 A 
ATOM     25  C   UNL d   1       8.224   5.265 -12.784  0.00  0.00     0.039 A 
ATOM     26  C   UNL d   1       7.285   4.561 -11.826  0.00  0.00     0.008 A 
ATOM     27  C   UNL d   1       8.941   4.542 -13.903  0.00  0.00     0.251 C 
BRANCH  24  28
ATOM     28  C   UNL d   1       9.155   5.568 -10.352  0.00  0.00    -0.021 A 
ATOM     29  C   UNL d   1      10.033   6.620 -10.647  0.00  0.00    -0.005 A 
ATOM     30  C   UNL d   1      10.531   7.483  -9.671  0.00  0.00    -0.005 A 
ATOM     31  C   UNL d   1      10.114   7.317  -8.333  0.00  0.00    -0.023 A 
ATOM     32  C   UNL d   1       9.154   6.308  -8.025  0.00  0.00    -0.005 A 
ATOM     33  C   UNL d   1       8.699   5.427  -9.026  0.00  0.00    -0.005 A 
BRANCH  31  34
ATOM     34  C   UNL d   1      10.594   8.254  -7.257  0.00  0.00     0.019 C 
ATOM     35  C   UNL d   1       9.373   8.894  -6.634  0.00  0.00     0.004 C 
ATOM     36  C   UNL d   1      11.508   9.381  -7.794  0.00  0.00     0.004 C 
ATOM     37  C   UNL d   1      11.287   7.515  -6.131  0.00  0.00     0.004 C 
ENDBRANCH  31  34
ENDBRANCH  24  28
ENDBRANCH  21  22
ENDBRANCH  20  21
ENDBRANCH   1  20
TORSDOF 7
