REMARK  6 active torsions:
REMARK  status: ('A' for Active; 'I' for Inactive)
REMARK    1  A    between atoms: C_5  and  C_6 
REMARK       I    between atoms: C_6  and  N_8 
REMARK    2  A    between atoms: N_8  and  C_9 
REMARK    3  A    between atoms: C_12  and  C_13 
REMARK    4  A    between atoms: C_13  and  C_14 
REMARK    5  A    between atoms: C_14  and  N_15 
REMARK    6  A    between atoms: N_18  and  C_19 
ROOT
ATOM      1  C   UNL d   1       7.912   5.382 -12.369  0.00  0.00     0.035 C 
ENDROOT
BRANCH   1   2
ATOM      2  C   UNL d   1       8.223   5.897 -10.958  0.00  0.00     0.002 C 
ATOM      3  C   UNL d   1       8.719   4.788 -10.019  0.00  0.00     0.002 C 
ATOM      4  C   UNL d   1       9.059   5.321  -8.621  0.00  0.00     0.024 C 
ATOM      5  C   UNL d   1      10.062   6.489  -8.686  0.00  0.00     0.107 C 
ATOM      6  C   UNL d   1       9.531   7.609  -9.586  0.00  0.00     0.024 C 
ATOM      7  C   UNL d   1       9.195   7.089 -10.979  0.00  0.00     0.002 C 
BRANCH   5   8
ATOM      8  N   UNL d   1      10.313   6.981  -7.340  0.00  0.00    -0.236 NA
ATOM      9  C   UNL d   1      11.114   8.005  -7.005  0.00  0.00     0.276 C 
ATOM     10  O   UNL d   1      11.592   8.809  -7.805  0.00  0.00    -0.266 OA
BRANCH   9  11
ATOM     11  C   UNL d   1      11.423   8.124  -5.545  0.00  0.00     0.077 A 
ATOM     12  C   UNL d   1      11.458   6.983  -4.709  0.00  0.00     0.008 A 
ATOM     13  C   UNL d   1      11.862   7.135  -3.374  0.00  0.00     0.015 A 
ATOM     14  C   UNL d   1      12.238   8.421  -2.936  0.00  0.00     0.059 A 
ATOM     15  C   UNL d   1      12.630   8.655  -1.512  0.00  0.00     0.052 C 
ATOM     16  N   UNL d   1      12.227   9.512  -3.725  0.00  0.00    -0.248 NA
ATOM     17  C   UNL d   1      11.837   9.357  -5.005  0.00  0.00     0.103 A 
ENDBRANCH   9  11
ENDBRANCH   5   8
ENDBRANCH   1   2
BRANCH   1  18
ATOM     18  C   UNL d   1       9.194   5.078 -13.171  0.00  0.00     0.250 C 
BRANCH  18  19
ATOM     19  N   UNL d   1       8.910   4.443 -14.443  0.00  0.00     0.141 N 
ATOM     20  C   UNL d   1       8.586   3.036 -14.206  0.00  0.00     0.274 C 
ATOM     21  C   UNL d   1       8.261   2.350 -15.522  0.00  0.00     0.138 C 
ATOM     22  N   UNL d   1       9.355   2.508 -16.473  0.00  0.00    -0.330 N 
ATOM     23  C   UNL d   1       9.848   3.883 -16.644  0.00  0.00     0.138 C 
ATOM     24  C   UNL d   1      10.121   4.516 -15.269  0.00  0.00     0.274 C 
BRANCH  22  25
ATOM     25  C   UNL d   1       9.922   1.423 -17.129  0.00  0.00     0.138 A 
ATOM     26  C   UNL d   1       9.160   0.301 -17.542  0.00  0.00     0.036 A 
ATOM     27  C   UNL d   1       9.757  -0.759 -18.193  0.00  0.00     0.095 A 
ATOM     28  C   UNL d   1       7.691   0.036 -17.445  0.00  0.00     0.064 C 
ATOM     29  C   UNL d   1      11.141  -0.740 -18.435  0.00  0.00     0.045 A 
ATOM     30  O   UNL d   1       8.875  -1.731 -18.560  0.00  0.00    -0.331 OA
ATOM     31  C   UNL d   1      11.846   0.406 -18.005  0.00  0.00     0.103 A 
ATOM     32  N   UNL d   1      11.258   1.453 -17.379  0.00  0.00    -0.228 NA
ATOM     33  C   UNL d   1       7.548  -1.259 -18.264  0.00  0.00     0.154 C 
ENDBRANCH  22  25
ENDBRANCH  18  19
ENDBRANCH   1  18
TORSDOF 6
