REMARK  4 active torsions:
REMARK  status: ('A' for Active; 'I' for Inactive)
REMARK    1  A    between atoms: C_8  and  O_9 
REMARK    2  A    between atoms: O_9  and  C_10 
REMARK    3  A    between atoms: C_10  and  C_11 
REMARK    4  A    between atoms: C_10  and  C_17 
ROOT
ATOM      1  C   UNL d   1       9.829   3.955 -14.401  0.00  0.00     0.160 C 
ENDROOT
BRANCH   1   2
ATOM      2  O   UNL d   1      10.070   4.881 -15.459  0.00  0.00    -0.350 OA
BRANCH   2   3
ATOM      3  C   UNL d   1      11.175   4.585 -16.308  0.00  0.00     0.120 C 
ATOM      4  C   UNL d   1      12.521   4.887 -15.612  0.00  0.00     0.063 C 
ATOM      5  C   UNL d   1      13.691   4.882 -16.626  0.00  0.00     0.222 C 
ATOM      6  N   UNL d   1      13.465   5.871 -17.676  0.00  0.00     0.135 N 
ATOM      7  C   UNL d   1      13.736   3.588 -17.453  0.00  0.00     0.035 C 
ATOM      8  C   UNL d   1      13.322   7.260 -17.247  0.00  0.00     0.285 C 
ATOM      9  C   UNL d   1      12.355   5.318 -18.450  0.00  0.00     0.222 C 
ATOM     10  C   UNL d   1      11.034   5.367 -17.631  0.00  0.00     0.063 C 
ATOM     11  C   UNL d   1      12.850   3.878 -18.673  0.00  0.00     0.035 C 
ENDBRANCH   2   3
ENDBRANCH   1   2
BRANCH   1  12
ATOM     12  C   UNL d   1       9.353   4.681 -13.147  0.00  0.00     0.009 A 
ATOM     13  C   UNL d   1       9.645   4.150 -11.882  0.00  0.00    -0.002 A 
ATOM     14  C   UNL d   1       9.188   4.786 -10.709  0.00  0.00    -0.000 A 
ATOM     15  C   UNL d   1       8.383   5.926 -10.803  0.00  0.00    -0.000 A 
ATOM     16  C   UNL d   1       8.054   6.448 -12.065  0.00  0.00    -0.000 A 
ATOM     17  C   UNL d   1       8.537   5.827 -13.230  0.00  0.00    -0.002 A 
ENDBRANCH   1  12
BRANCH   1  18
ATOM     18  C   UNL d   1       8.877   2.839 -14.822  0.00  0.00     0.009 A 
ATOM     19  C   UNL d   1       9.335   1.763 -15.617  0.00  0.00    -0.001 A 
ATOM     20  C   UNL d   1       8.450   0.750 -16.029  0.00  0.00     0.011 A 
ATOM     21  C   UNL d   1       7.102   0.783 -15.616  0.00  0.00     0.058 A 
ATOM     22  C   UNL d   1       6.656   1.817 -14.781  0.00  0.00     0.011 A 
ATOM     23 CL   UNL d   1       5.982  -0.421 -16.125  0.00  0.00    -0.082 Cl
ATOM     24  C   UNL d   1       7.522   2.849 -14.405  0.00  0.00    -0.001 A 
ENDBRANCH   1  18
TORSDOF 4
