REMARK  6 active torsions:
REMARK  status: ('A' for Active; 'I' for Inactive)
REMARK    1  A    between atoms: C_9  and  O_10 
REMARK    2  A    between atoms: O_10  and  C_11 
REMARK    3  A    between atoms: C_11  and  C_12 
REMARK    4  A    between atoms: C_12  and  C_13 
REMARK    5  A    between atoms: C_13  and  N_14 
REMARK    6  A    between atoms: N_17  and  C_18 
ROOT
ATOM      1  C   UNL d   1       9.059   6.061 -11.611  0.00  0.00     0.151 C 
ENDROOT
BRANCH   1   2
ATOM      2  O   UNL d   1       9.825   5.479 -12.671  0.00  0.00    -0.331 OA
BRANCH   2   3
ATOM      3  C   UNL d   1       9.325   4.397 -13.358  0.00  0.00     0.096 A 
ATOM      4  C   UNL d   1      10.224   3.682 -14.179  0.00  0.00     0.049 A 
ATOM      5  C   UNL d   1       9.800   2.569 -14.928  0.00  0.00     0.105 A 
ATOM      6  O   UNL d   1      10.718   1.906 -15.717  0.00  0.00    -0.273 OA
ATOM      7  C   UNL d   1       8.448   2.159 -14.869  0.00  0.00     0.019 A 
ATOM      8  C   UNL d   1      10.390   0.838 -16.512  0.00  0.00     0.300 A 
ATOM      9  C   UNL d   1       8.979   0.390 -16.451  0.00  0.00     0.065 A 
ATOM     10  O   UNL d   1      11.216   0.286 -17.237  0.00  0.00    -0.259 OA
ATOM     11  C   UNL d   1       8.057   1.000 -15.683  0.00  0.00    -0.015 A 
ATOM     12  C   UNL d   1       6.617   0.518 -15.638  0.00  0.00     0.031 C 
ATOM     13  C   UNL d   1       7.542   2.869 -14.050  0.00  0.00     0.004 A 
ATOM     14  C   UNL d   1       7.972   3.974 -13.298  0.00  0.00     0.024 A 
ENDBRANCH   2   3
ENDBRANCH   1   2
BRANCH   1  15
ATOM     15  C   UNL d   1       9.085   5.137 -10.376  0.00  0.00     0.068 C 
BRANCH  15  16
ATOM     16  C   UNL d   1       8.555   5.828  -9.108  0.00  0.00     0.253 C 
BRANCH  16  17
ATOM     17  N   UNL d   1       9.531   6.747  -8.527  0.00  0.00     0.141 N 
ATOM     18  C   UNL d   1      10.561   5.987  -7.826  0.00  0.00     0.274 C 
ATOM     19  C   UNL d   1      11.632   6.922  -7.247  0.00  0.00     0.137 C 
ATOM     20  N   UNL d   1      11.026   7.888  -6.351  0.00  0.00    -0.344 N 
ATOM     21  C   UNL d   1       9.879   8.591  -6.899  0.00  0.00     0.137 C 
ATOM     22  C   UNL d   1       8.884   7.594  -7.523  0.00  0.00     0.274 C 
BRANCH  20  23
ATOM     23  C   UNL d   1      11.431   8.041  -5.014  0.00  0.00     0.056 A 
ATOM     24  C   UNL d   1      11.858   6.928  -4.256  0.00  0.00     0.017 A 
ATOM     25  C   UNL d   1      12.283   7.081  -2.927  0.00  0.00     0.002 A 
ATOM     26  C   UNL d   1      12.290   8.359  -2.336  0.00  0.00     0.000 A 
ATOM     27  C   UNL d   1      11.864   9.474  -3.082  0.00  0.00     0.002 A 
ATOM     28  C   UNL d   1      11.425   9.319  -4.408  0.00  0.00     0.017 A 
ENDBRANCH  20  23
ENDBRANCH  16  17
ENDBRANCH  15  16
ENDBRANCH   1  15
TORSDOF 6
