REMARK  5 active torsions:
REMARK  status: ('A' for Active; 'I' for Inactive)
REMARK    1  A    between atoms: C_2  and  C_3 
REMARK       I    between atoms: C_3  and  N_5 
REMARK    2  A    between atoms: N_5  and  C_6 
REMARK    3  A    between atoms: C_6  and  C_7 
REMARK    4  A    between atoms: C_7  and  N_8 
REMARK    5  A    between atoms: N_11  and  C_12 
ROOT
ATOM      1  N   UNL d   1       9.215   6.404  -9.569  0.00  0.00     0.143 N 
ATOM      2  C   UNL d   1      10.529   7.028  -9.411  0.00  0.00     0.274 C 
ATOM      3  C   UNL d   1      10.492   8.249  -8.472  0.00  0.00     0.137 C 
ATOM      4  N   UNL d   1       9.911   7.863  -7.201  0.00  0.00    -0.344 N 
ATOM      5  C   UNL d   1       8.649   7.158  -7.266  0.00  0.00     0.137 C 
ATOM      6  C   UNL d   1       8.723   5.974  -8.260  0.00  0.00     0.274 C 
ENDROOT
BRANCH   1   7
ATOM      7  C   UNL d   1       9.258   5.258 -10.486  0.00  0.00     0.277 C 
BRANCH   7   8
ATOM      8  C   UNL d   1       9.329   5.719 -11.950  0.00  0.00     0.164 C 
BRANCH   8   9
ATOM      9  N   UNL d   1       9.288   4.580 -12.863  0.00  0.00    -0.236 NA
ATOM     10  C   UNL d   1      10.258   4.232 -13.731  0.00  0.00     0.251 C 
ATOM     11  O   UNL d   1      11.356   4.788 -13.727  0.00  0.00    -0.271 OA
BRANCH  10  12
ATOM     12  C   UNL d   1       9.958   3.167 -14.811  0.00  0.00     0.073 C 
ATOM     13  C   UNL d   1      10.119   3.865 -16.190  0.00  0.00     0.009 C 
ATOM     14  C   UNL d   1      10.996   2.013 -14.664  0.00  0.00     0.009 C 
ATOM     15  C   UNL d   1      10.753   0.862 -15.664  0.00  0.00     0.001 C 
ATOM     16  C   UNL d   1       9.315   0.316 -15.571  0.00  0.00     0.000 C 
ATOM     17  C   UNL d   1       8.248   1.418 -15.671  0.00  0.00     0.001 C 
ATOM     18  C   UNL d   1       8.528   2.553 -14.667  0.00  0.00     0.009 C 
ENDBRANCH  10  12
ENDBRANCH   8   9
ENDBRANCH   7   8
ENDBRANCH   1   7
BRANCH   4  19
ATOM     19  C   UNL d   1      10.579   8.072  -5.993  0.00  0.00     0.056 A 
ATOM     20  C   UNL d   1      11.066   6.982  -5.259  0.00  0.00     0.018 A 
ATOM     21  C   UNL d   1      11.732   7.184  -4.023  0.00  0.00     0.013 A 
ATOM     22  C   UNL d   1      11.865   8.486  -3.523  0.00  0.00     0.058 A 
ATOM     23  C   UNL d   1      11.376   9.581  -4.250  0.00  0.00     0.013 A 
ATOM     24 CL   UNL d   1      12.635   8.730  -1.997  0.00  0.00    -0.082 Cl
ATOM     25  C   UNL d   1      10.739   9.375  -5.500  0.00  0.00     0.018 A 
ENDBRANCH   4  19
TORSDOF 5
