REMARK  7 active torsions:
REMARK  status: ('A' for Active; 'I' for Inactive)
REMARK    1  A    between atoms: C_5  and  N_6 
REMARK       I    between atoms: N_6  and  C_7 
REMARK    2  A    between atoms: C_7  and  C_9 
REMARK    3  A    between atoms: C_13  and  C_14 
REMARK    4  A    between atoms: N_17  and  C_18 
REMARK    5  A    between atoms: C_18  and  C_19 
REMARK    6  A    between atoms: C_22  and  O_23 
REMARK    7  A    between atoms: O_23  and  C_24 
ROOT
ATOM      1  C   UNL d   1       9.297   3.695 -14.792  0.00  0.00     0.026 C 
ATOM      2  C   UNL d   1      10.391   2.682 -14.429  0.00  0.00     0.040 C 
ATOM      3  C   UNL d   1      11.060   2.137 -15.691  0.00  0.00     0.251 C 
ATOM      4  N   UNL d   1      11.600   3.220 -16.522  0.00  0.00     0.141 N 
ATOM      5  C   UNL d   1      10.538   4.125 -16.962  0.00  0.00     0.251 C 
ATOM      6  C   UNL d   1       9.864   4.766 -15.745  0.00  0.00     0.040 C 
ENDROOT
BRANCH   4   7
ATOM      7  C   UNL d   1      12.344   2.693 -17.674  0.00  0.00     0.277 C 
BRANCH   7   8
ATOM      8  C   UNL d   1      11.584   1.656 -18.490  0.00  0.00     0.011 A 
ATOM      9  C   UNL d   1      10.759   2.047 -19.564  0.00  0.00    -0.000 A 
ATOM     10  C   UNL d   1      10.000   1.085 -20.261  0.00  0.00     0.024 A 
ATOM     11  C   UNL d   1      10.060  -0.271 -19.883  0.00  0.00     0.100 A 
ATOM     12  C   UNL d   1      10.891  -0.665 -18.813  0.00  0.00     0.024 A 
ATOM     13  C   UNL d   1      11.657   0.294 -18.128  0.00  0.00    -0.000 A 
BRANCH  11  14
ATOM     14  O   UNL d   1       9.335  -1.218 -20.554  0.00  0.00    -0.307 OA
BRANCH  14  15
ATOM     15  C   UNL d   1       7.983  -1.241 -20.343  0.00  0.00     0.102 A 
ATOM     16  C   UNL d   1       7.449  -1.525 -19.067  0.00  0.00     0.057 A 
ATOM     17  C   UNL d   1       6.053  -1.559 -18.878  0.00  0.00     0.169 A 
ATOM     18  C   UNL d   1       5.189  -1.317 -19.964  0.00  0.00     0.168 A 
ATOM     19  F   UNL d   1       5.547  -1.826 -17.651  0.00  0.00    -0.202 F 
ATOM     20  C   UNL d   1       5.722  -1.042 -21.240  0.00  0.00     0.034 A 
ATOM     21  F   UNL d   1       3.848  -1.351 -19.786  0.00  0.00    -0.202 F 
ATOM     22  C   UNL d   1       7.117  -1.007 -21.429  0.00  0.00     0.027 A 
ENDBRANCH  14  15
ENDBRANCH  11  14
ENDBRANCH   7   8
ENDBRANCH   4   7
BRANCH   1  23
ATOM     23  C   UNL d   1       8.702   4.314 -13.528  0.00  0.00    -0.025 A 
ATOM     24  C   UNL d   1       7.377   4.034 -13.091  0.00  0.00    -0.026 A 
ATOM     25  C   UNL d   1       6.452   3.080 -13.829  0.00  0.00     0.031 C 
ATOM     26  C   UNL d   1       6.896   4.639 -11.913  0.00  0.00    -0.003 A 
ATOM     27  C   UNL d   1       7.709   5.508 -11.166  0.00  0.00     0.019 A 
ATOM     28  C   UNL d   1       9.030   5.779 -11.578  0.00  0.00     0.084 A 
ATOM     29  C   UNL d   1       9.512   5.181 -12.759  0.00  0.00     0.015 A 
BRANCH  28  30
ATOM     30  N   UNL d   1       9.847   6.697 -10.869  0.00  0.00    -0.212 NA
ATOM     31  C   UNL d   1       9.918   6.809  -9.530  0.00  0.00     0.255 C 
ATOM     32  O   UNL d   1       9.575   5.913  -8.755  0.00  0.00    -0.270 OA
BRANCH  31  33
ATOM     33  C   UNL d   1      10.512   8.113  -8.982  0.00  0.00     0.081 C 
ATOM     34  C   UNL d   1      11.998   7.950  -8.625  0.00  0.00     0.010 C 
ATOM     35  C   UNL d   1       9.702   8.618  -7.774  0.00  0.00     0.010 C 
ENDBRANCH  31  33
ENDBRANCH  28  30
ENDBRANCH   1  23
TORSDOF 7
