REMARK  8 active torsions:
REMARK  status: ('A' for Active; 'I' for Inactive)
REMARK    1  A    between atoms: O_2  and  C_3 
REMARK    2  A    between atoms: C_8  and  C_9 
REMARK       I    between atoms: C_9  and  N_11 
REMARK    3  A    between atoms: N_11  and  C_12 
REMARK    4  A    between atoms: C_12  and  C_13 
REMARK    5  A    between atoms: C_13  and  C_14 
REMARK    6  A    between atoms: C_14  and  C_16 
REMARK    7  A    between atoms: C_16  and  N_17 
REMARK    8  A    between atoms: N_20  and  C_21 
ROOT
ATOM      1  C   UNL d   1       6.550   4.128 -12.576  0.00  0.00     0.196 C 
ATOM      2  F   UNL d   1       5.249   4.379 -12.600  0.00  0.00    -0.235 F 
ENDROOT
BRANCH   1   3
ATOM      3  C   UNL d   1       7.239   5.260 -11.809  0.00  0.00     0.064 C 
BRANCH   3   4
ATOM      4  C   UNL d   1       8.757   5.038 -11.667  0.00  0.00     0.132 C 
BRANCH   4   5
ATOM      5  N   UNL d   1       9.301   5.701 -10.500  0.00  0.00    -0.233 NA
ATOM      6  C   UNL d   1       9.593   7.005 -10.451  0.00  0.00     0.293 C 
ATOM      7  O   UNL d   1       9.518   7.758 -11.419  0.00  0.00    -0.264 OA
BRANCH   6   8
ATOM      8  C   UNL d   1       9.991   7.503  -9.136  0.00  0.00     0.139 A 
ATOM      9  N   UNL d   1      10.372   6.609  -8.157  0.00  0.00    -0.241 NA
ATOM     10  C   UNL d   1      10.709   7.268  -7.013  0.00  0.00     0.082 A 
ATOM     11  C   UNL d   1      11.171   6.788  -5.788  0.00  0.00     0.021 A 
ATOM     12  C   UNL d   1      10.529   8.654  -7.260  0.00  0.00     0.021 A 
ATOM     13  C   UNL d   1      11.460   7.670  -4.757  0.00  0.00     0.026 A 
ATOM     14  C   UNL d   1      11.284   9.062  -4.943  0.00  0.00     0.094 A 
ATOM     15  C   UNL d   1      10.825   9.538  -6.195  0.00  0.00     0.026 A 
ATOM     16  C   UNL d   1      10.059   8.776  -8.624  0.00  0.00     0.026 A 
BRANCH  14  17
ATOM     17  O   UNL d   1      11.533   9.958  -3.931  0.00  0.00    -0.328 OA
ATOM     18  C   UNL d   1      12.050   9.432  -2.720  0.00  0.00     0.181 C 
ENDBRANCH  14  17
ENDBRANCH   6   8
ENDBRANCH   4   5
ENDBRANCH   3   4
ENDBRANCH   1   3
BRANCH   1  19
ATOM     19  C   UNL d   1       7.014   3.998 -14.031  0.00  0.00     0.285 C 
BRANCH  19  20
ATOM     20  N   UNL d   1       7.980   2.911 -14.247  0.00  0.00     0.144 N 
ATOM     21  C   UNL d   1       9.322   3.485 -14.463  0.00  0.00     0.274 C 
ATOM     22  C   UNL d   1      10.365   2.375 -14.619  0.00  0.00     0.137 C 
ATOM     23  N   UNL d   1      10.005   1.523 -15.727  0.00  0.00    -0.344 N 
ATOM     24  C   UNL d   1       8.644   0.980 -15.662  0.00  0.00     0.137 C 
ATOM     25  C   UNL d   1       7.619   2.123 -15.431  0.00  0.00     0.274 C 
BRANCH  23  26
ATOM     26  C   UNL d   1      10.852   1.332 -16.821  0.00  0.00     0.068 A 
ATOM     27  C   UNL d   1      11.570   2.383 -17.461  0.00  0.00     0.084 A 
ATOM     28  C   UNL d   1      12.479   2.089 -18.514  0.00  0.00     0.070 A 
ATOM     29 CL   UNL d   1      11.356   4.053 -17.053  0.00  0.00    -0.080 Cl
ATOM     30  C   UNL d   1      12.649   0.769 -18.950  0.00  0.00     0.012 A 
ATOM     31 CL   UNL d   1      13.375   3.350 -19.292  0.00  0.00    -0.081 Cl
ATOM     32  C   UNL d   1      11.926  -0.269 -18.354  0.00  0.00     0.002 A 
ATOM     33  C   UNL d   1      11.031   0.011 -17.291  0.00  0.00     0.018 A 
ENDBRANCH  23  26
ENDBRANCH  19  20
ENDBRANCH   1  19
TORSDOF 8
