REMARK  6 active torsions:
REMARK  status: ('A' for Active; 'I' for Inactive)
REMARK    1  A    between atoms: N_3  and  C_4 
REMARK    2  A    between atoms: C_4  and  C_5 
REMARK    3  A    between atoms: C_5  and  C_6 
REMARK    4  A    between atoms: C_6  and  C_7 
REMARK    5  A    between atoms: C_7  and  N_8 
REMARK    6  A    between atoms: N_11  and  C_12 
ROOT
ATOM      1  N   UNL d   1       8.068   4.679 -13.171  0.00  0.00     0.141 N 
ATOM      2  C   UNL d   1       7.448   5.859 -12.549  0.00  0.00     0.274 C 
ATOM      3  C   UNL d   1       8.517   6.752 -11.919  0.00  0.00     0.137 C 
ATOM      4  N   UNL d   1       9.195   5.989 -10.896  0.00  0.00    -0.343 N 
ATOM      5  C   UNL d   1       9.737   4.740 -11.348  0.00  0.00     0.137 C 
ATOM      6  C   UNL d   1       8.655   3.939 -12.057  0.00  0.00     0.274 C 
ENDROOT
BRANCH   1   7
ATOM      7  C   UNL d   1       7.063   3.827 -13.802  0.00  0.00     0.251 C 
BRANCH   7   8
ATOM      8  C   UNL d   1       7.714   2.708 -14.656  0.00  0.00     0.037 C 
BRANCH   8   9
ATOM      9  C   UNL d   1       6.700   1.892 -15.470  0.00  0.00     0.029 C 
BRANCH   9  10
ATOM     10  C   UNL d   1       7.271   0.602 -16.087  0.00  0.00     0.133 C 
BRANCH  10  11
ATOM     11  N   UNL d   1       8.393   0.870 -16.981  0.00  0.00    -0.201 N 
ATOM     12  C   UNL d   1       8.332   1.325 -18.240  0.00  0.00     0.352 A 
ATOM     13  O   UNL d   1       7.327   1.597 -18.901  0.00  0.00    -0.244 OA
ATOM     14  N   UNL d   1       9.603   1.431 -18.602  0.00  0.00    -0.241 N 
ATOM     15  C   UNL d   1      10.386   1.036 -17.528  0.00  0.00     0.171 A 
ATOM     16  C   UNL d   1      10.117   1.860 -19.831  0.00  0.00     0.086 A 
ATOM     17  N   UNL d   1       9.661   0.682 -16.524  0.00  0.00    -0.147 NA
ATOM     18  C   UNL d   1      11.821   1.095 -17.727  0.00  0.00     0.039 A 
ATOM     19  C   UNL d   1      12.322   1.506 -18.915  0.00  0.00     0.005 A 
ATOM     20  C   UNL d   1      11.450   1.905 -20.011  0.00  0.00     0.019 A 
ENDBRANCH  10  11
ENDBRANCH   9  10
ENDBRANCH   8   9
ENDBRANCH   7   8
ENDBRANCH   1   7
BRANCH   4  21
ATOM     21  C   UNL d   1       9.318   6.397  -9.558  0.00  0.00     0.075 A 
ATOM     22  C   UNL d   1      10.131   7.496  -9.210  0.00  0.00     0.103 A 
ATOM     23  C   UNL d   1      10.252   7.871  -7.839  0.00  0.00     0.050 A 
ATOM     24  N   UNL d   1      10.855   8.270 -10.097  0.00  0.00    -0.235 NA
ATOM     25  C   UNL d   1       9.493   7.242  -6.853  0.00  0.00     0.008 A 
ATOM     26  S   UNL d   1      11.425   9.166  -7.661  0.00  0.00    -0.064 SA
ATOM     27  C   UNL d   1       8.631   6.202  -7.236  0.00  0.00     0.002 A 
ATOM     28  C   UNL d   1       8.587   5.731  -8.561  0.00  0.00     0.018 A 
ATOM     29  C   UNL d   1      11.506   9.196  -9.420  0.00  0.00     0.135 A 
ENDBRANCH   4  21
TORSDOF 6
