REMARK  5 active torsions:
REMARK  status: ('A' for Active; 'I' for Inactive)
REMARK    1  A    between atoms: C_8  and  O_9 
REMARK    2  A    between atoms: O_9  and  C_10 
REMARK    3  A    between atoms: C_10  and  C_11 
REMARK    4  A    between atoms: N_14  and  C_15 
REMARK    5  A    between atoms: C_15  and  C_16 
ROOT
ATOM      1  C   UNL d   1       7.019   4.192 -12.809  0.00  0.00     0.034 C 
ATOM      2  C   UNL d   1       8.156   4.129 -13.830  0.00  0.00     0.038 C 
ATOM      3  C   UNL d   1       8.403   2.659 -14.213  0.00  0.00     0.250 C 
ATOM      4  N   UNL d   1       7.168   2.071 -14.748  0.00  0.00     0.137 N 
ATOM      5  C   UNL d   1       6.103   2.075 -13.731  0.00  0.00     0.250 C 
ATOM      6  C   UNL d   1       5.752   3.517 -13.327  0.00  0.00     0.038 C 
ENDROOT
BRANCH   4   7
ATOM      7  C   UNL d   1       7.454   0.713 -15.200  0.00  0.00     0.251 C 
BRANCH   7   8
ATOM      8  C   UNL d   1       6.291   0.118 -16.017  0.00  0.00     0.038 C 
ATOM      9  C   UNL d   1       6.782  -0.479 -17.384  0.00  0.00     0.030 C 
ATOM     10  C   UNL d   1       5.711  -1.325 -18.040  0.00  0.00    -0.007 A 
ATOM     11  C   UNL d   1       4.635  -1.745 -17.332  0.00  0.00     0.055 A 
ATOM     12  C   UNL d   1       5.550  -1.863 -19.401  0.00  0.00     0.017 A 
ATOM     13  C   UNL d   1       4.316  -1.486 -15.902  0.00  0.00     0.046 C 
ATOM     14  N   UNL d   1       3.811  -2.475 -18.128  0.00  0.00    -0.250 NA
ATOM     15  C   UNL d   1       5.507  -0.903 -15.147  0.00  0.00     0.009 C 
ATOM     16  C   UNL d   1       4.314  -2.602 -19.373  0.00  0.00     0.081 A 
ATOM     17  C   UNL d   1       3.813  -3.291 -20.495  0.00  0.00     0.021 A 
ATOM     18  C   UNL d   1       4.508  -3.243 -21.695  0.00  0.00     0.031 A 
ATOM     19  C   UNL d   1       5.724  -2.525 -21.772  0.00  0.00     0.140 A 
ATOM     20  F   UNL d   1       6.422  -2.467 -22.913  0.00  0.00    -0.204 F 
ATOM     21  C   UNL d   1       6.238  -1.845 -20.615  0.00  0.00     0.031 A 
ENDBRANCH   7   8
ENDBRANCH   4   7
BRANCH   1  22
ATOM     22  C   UNL d   1       6.736   5.641 -12.342  0.00  0.00     0.149 C 
BRANCH  22  23
ATOM     23  O   UNL d   1       7.910   6.334 -11.959  0.00  0.00    -0.329 OA
BRANCH  23  24
ATOM     24  C   UNL d   1       8.532   5.987 -10.782  0.00  0.00     0.118 A 
ATOM     25  C   UNL d   1       8.242   4.830  -9.993  0.00  0.00     0.026 A 
ATOM     26  C   UNL d   1       8.966   4.554  -8.812  0.00  0.00     0.004 A 
ATOM     27  C   UNL d   1       9.916   5.462  -8.323  0.00  0.00     0.021 A 
ATOM     28  C   UNL d   1      10.141   6.595  -9.096  0.00  0.00     0.111 A 
ATOM     29  N   UNL d   1      10.986   7.655  -8.861  0.00  0.00    -0.184 NA
ATOM     30  C   UNL d   1       9.513   6.849 -10.286  0.00  0.00     0.145 A 
ATOM     31  C   UNL d   1      10.852   8.553  -9.893  0.00  0.00     0.392 A 
ATOM     32  O   UNL d   1      11.421   9.602 -10.015  0.00  0.00    -0.236 OA
ATOM     33  O   UNL d   1       9.930   8.042 -10.771  0.00  0.00    -0.254 OA
ENDBRANCH  23  24
ENDBRANCH  22  23
ENDBRANCH   1  22
TORSDOF 5
