REMARK  4 active torsions:
REMARK  status: ('A' for Active; 'I' for Inactive)
REMARK    1  A    between atoms: C_8  and  C_9 
REMARK    2  A    between atoms: C_9  and  C_10 
REMARK    3  A    between atoms: C_10  and  N_11 
REMARK    4  A    between atoms: N_14  and  C_15 
ROOT
ATOM      1  N   UNL d   1       8.232   2.897 -14.330  0.00  0.00     0.141 N 
ATOM      2  C   UNL d   1       7.371   3.476 -13.304  0.00  0.00     0.274 C 
ATOM      3  C   UNL d   1       8.239   3.981 -12.161  0.00  0.00     0.138 C 
ATOM      4  N   UNL d   1       9.186   4.958 -12.599  0.00  0.00    -0.329 N 
ATOM      5  C   UNL d   1      10.011   4.502 -13.717  0.00  0.00     0.138 C 
ATOM      6  C   UNL d   1       9.121   3.953 -14.838  0.00  0.00     0.274 C 
ENDROOT
BRANCH   1   7
ATOM      7  C   UNL d   1       7.384   2.384 -15.397  0.00  0.00     0.255 C 
BRANCH   7   8
ATOM      8  C   UNL d   1       7.354   0.847 -15.380  0.00  0.00     0.063 C 
BRANCH   8   9
ATOM      9  C   UNL d   1       6.542   0.279 -16.536  0.00  0.00    -0.001 A 
ATOM     10  C   UNL d   1       6.949   0.440 -17.888  0.00  0.00     0.076 A 
ATOM     11  N   UNL d   1       8.168   1.101 -18.197  0.00  0.00    -0.212 NA
ATOM     12  C   UNL d   1       6.150  -0.074 -18.942  0.00  0.00    -0.002 A 
ATOM     13  C   UNL d   1       8.513   1.559 -19.416  0.00  0.00     0.256 C 
ATOM     14  C   UNL d   1       7.487   1.382 -20.544  0.00  0.00     0.094 C 
ATOM     15  O   UNL d   1       9.561   2.157 -19.620  0.00  0.00    -0.270 OA
ATOM     16  C   UNL d   1       6.622   0.111 -20.393  0.00  0.00     0.033 C 
ATOM     17  C   UNL d   1       5.471   0.132 -21.420  0.00  0.00     0.005 C 
ATOM     18  C   UNL d   1       4.971  -0.775 -18.633  0.00  0.00     0.027 A 
ATOM     19  C   UNL d   1       4.571  -0.947 -17.292  0.00  0.00     0.140 A 
ATOM     20  C   UNL d   1       5.348  -0.414 -16.251  0.00  0.00     0.027 A 
ATOM     21  F   UNL d   1       3.428  -1.606 -17.019  0.00  0.00    -0.204 F 
ENDBRANCH   8   9
ENDBRANCH   7   8
ENDBRANCH   1   7
BRANCH   4  22
ATOM     22  C   UNL d   1       9.307   6.175 -11.998  0.00  0.00     0.151 A 
ATOM     23  C   UNL d   1       9.405   6.341 -10.536  0.00  0.00     0.044 A 
ATOM     24  C   UNL d   1       9.479   7.673 -10.207  0.00  0.00     0.081 A 
ATOM     25  C   UNL d   1       9.455   5.362  -9.531  0.00  0.00     0.004 A 
ATOM     26  S   UNL d   1       9.455   8.581 -11.692  0.00  0.00     0.176 S 
ATOM     27  C   UNL d   1       9.589   8.163  -8.901  0.00  0.00     0.011 A 
ATOM     28  N   UNL d   1       9.354   7.288 -12.641  0.00  0.00    -0.164 NA
ATOM     29  O   UNL d   1       8.147   9.318 -11.938  0.00  0.00    -0.228 OA
ATOM     30  C   UNL d   1       9.600   7.195  -7.868  0.00  0.00     0.001 A 
ATOM     31  C   UNL d   1       9.531   5.819  -8.195  0.00  0.00     0.000 A 
ENDBRANCH   4  22
TORSDOF 4
