REMARK  6 active torsions:
REMARK  status: ('A' for Active; 'I' for Inactive)
REMARK    1  A    between atoms: O_2  and  C_3 
REMARK       I    between atoms: C_3  and  N_5 
REMARK    2  A    between atoms: N_5  and  C_6 
REMARK    3  A    between atoms: C_9  and  C_10 
REMARK    4  A    between atoms: C_10  and  C_11 
REMARK    5  A    between atoms: C_11  and  N_12 
REMARK    6  A    between atoms: C_15  and  C_16 
ROOT
ATOM      1  N   UNL d   1       8.994   6.048 -11.864  0.00  0.00     0.137 N 
ATOM      2  C   UNL d   1       7.624   6.032 -12.412  0.00  0.00     0.251 C 
ATOM      3  C   UNL d   1       7.551   5.060 -13.614  0.00  0.00     0.040 C 
ATOM      4  C   UNL d   1       7.991   3.655 -13.233  0.00  0.00     0.028 C 
ATOM      5  C   UNL d   1       9.334   3.741 -12.507  0.00  0.00     0.040 C 
ATOM      6  C   UNL d   1       9.264   4.709 -11.345  0.00  0.00     0.251 C 
ENDROOT
BRANCH   1   7
ATOM      7  C   UNL d   1       9.047   7.023 -10.783  0.00  0.00     0.250 C 
BRANCH   7   8
ATOM      8  C   UNL d   1      10.432   7.230 -10.140  0.00  0.00     0.035 C 
BRANCH   8   9
ATOM      9  C   UNL d   1      10.417   8.017  -8.835  0.00  0.00     0.002 C 
ATOM     10  C   UNL d   1       9.757   7.199  -7.703  0.00  0.00     0.002 C 
ATOM     11  C   UNL d   1       9.853   7.913  -6.354  0.00  0.00     0.025 C 
ATOM     12  C   UNL d   1      11.308   8.236  -5.996  0.00  0.00     0.109 C 
ATOM     13  C   UNL d   1      11.982   9.055  -7.106  0.00  0.00     0.025 C 
ATOM     14  C   UNL d   1      11.875   8.355  -8.461  0.00  0.00     0.002 C 
BRANCH  12  15
ATOM     15  N   UNL d   1      11.381   8.969  -4.756  0.00  0.00    -0.214 NA
ATOM     16  C   UNL d   1      11.914   8.483  -3.591  0.00  0.00     0.384 C 
ATOM     17  O   UNL d   1      12.358   7.335  -3.402  0.00  0.00    -0.236 OA
BRANCH  16  18
ATOM     18  O   UNL d   1      11.889   9.442  -2.691  0.00  0.00    -0.281 OA
ATOM     19  C   UNL d   1      12.389   9.187  -1.398  0.00  0.00     0.186 C 
ENDBRANCH  16  18
ENDBRANCH  12  15
ENDBRANCH   8   9
ENDBRANCH   7   8
ENDBRANCH   1   7
BRANCH   4  20
ATOM     20  C   UNL d   1       8.053   2.733 -14.442  0.00  0.00     0.002 A 
ATOM     21  C   UNL d   1       7.140   1.671 -14.604  0.00  0.00     0.115 A 
ATOM     22  C   UNL d   1       7.199   0.835 -15.702  0.00  0.00     0.119 A 
ATOM     23  O   UNL d   1       6.116   1.288 -13.799  0.00  0.00    -0.300 OA
ATOM     24  C   UNL d   1       8.165   0.999 -16.708  0.00  0.00     0.026 A 
ATOM     25  O   UNL d   1       6.211  -0.091 -15.617  0.00  0.00    -0.300 OA
ATOM     26  C   UNL d   1       9.092   2.057 -16.570  0.00  0.00     0.002 A 
ATOM     27  C   UNL d   1       9.034   2.914 -15.445  0.00  0.00    -0.002 A 
ATOM     28  C   UNL d   1       5.532   0.173 -14.419  0.00  0.00     0.304 A 
ENDBRANCH   4  20
TORSDOF 6
