REMARK  8 active torsions:
REMARK  status: ('A' for Active; 'I' for Inactive)
REMARK    1  A    between atoms: O_2  and  C_3 
REMARK    2  A    between atoms: C_8  and  N_9 
REMARK    3  A    between atoms: N_12  and  C_13 
REMARK    4  A    between atoms: C_13  and  C_14 
REMARK    5  A    between atoms: C_14  and  C_15 
REMARK    6  A    between atoms: C_15  and  C_16 
REMARK    7  A    between atoms: C_16  and  O_17 
REMARK    8  A    between atoms: O_17  and  C_18 
ROOT
ATOM      1  C   UNL d   1       8.439   4.845 -12.086  0.00  0.00     0.251 C 
ENDROOT
BRANCH   1   2
ATOM      2  N   UNL d   1       8.820   3.994 -13.198  0.00  0.00     0.141 N 
ATOM      3  C   UNL d   1      10.160   3.420 -12.973  0.00  0.00     0.274 C 
ATOM      4  C   UNL d   1      10.513   2.449 -14.110  0.00  0.00     0.137 C 
ATOM      5  N   UNL d   1      10.346   3.128 -15.389  0.00  0.00    -0.343 N 
ATOM      6  C   UNL d   1       9.075   3.812 -15.610  0.00  0.00     0.137 C 
ATOM      7  C   UNL d   1       8.762   4.747 -14.437  0.00  0.00     0.274 C 
BRANCH   5   8
ATOM      8  C   UNL d   1      11.374   3.201 -16.313  0.00  0.00     0.079 A 
ATOM      9  C   UNL d   1      12.057   4.426 -16.575  0.00  0.00     0.110 A 
ATOM     10  C   UNL d   1      13.101   4.443 -17.520  0.00  0.00     0.026 A 
ATOM     11  C   UNL d   1      13.463   3.272 -18.222  0.00  0.00     0.002 A 
ATOM     12  C   UNL d   1      12.773   2.069 -17.975  0.00  0.00     0.002 A 
ATOM     13  C   UNL d   1      11.751   2.033 -17.021  0.00  0.00     0.019 A 
BRANCH   9  14
ATOM     14  O   UNL d   1      11.656   5.540 -15.855  0.00  0.00    -0.327 OA
ATOM     15  C   UNL d   1      12.339   6.763 -16.083  0.00  0.00     0.181 C 
ENDBRANCH   9  14
ENDBRANCH   5   8
ENDBRANCH   1   2
BRANCH   1  16
ATOM     16  C   UNL d   1       9.345   6.112 -11.980  0.00  0.00     0.038 C 
BRANCH  16  17
ATOM     17  C   UNL d   1       9.880   6.452 -10.596  0.00  0.00     0.035 C 
BRANCH  17  18
ATOM     18  C   UNL d   1       9.341   5.604  -9.391  0.00  0.00     0.149 C 
BRANCH  18  19
ATOM     19  O   UNL d   1      10.252   5.544  -8.313  0.00  0.00    -0.331 OA
BRANCH  19  20
ATOM     20  C   UNL d   1      10.362   6.652  -7.554  0.00  0.00     0.096 A 
ATOM     21  C   UNL d   1      11.123   6.563  -6.331  0.00  0.00     0.043 A 
ATOM     22  C   UNL d   1      11.204   7.687  -5.508  0.00  0.00     0.087 A 
ATOM     23  C   UNL d   1      10.639   8.905  -5.913  0.00  0.00     0.018 A 
ATOM     24  N   UNL d   1      11.862   7.612  -4.258  0.00  0.00    -0.208 NA
ATOM     25  C   UNL d   1       9.934   8.987  -7.127  0.00  0.00     0.004 A 
ATOM     26  C   UNL d   1      10.768  10.026  -5.035  0.00  0.00     0.006 A 
ATOM     27  C   UNL d   1       9.742   7.871  -7.896  0.00  0.00     0.024 A 
ATOM     28  C   UNL d   1      11.418   9.910  -3.861  0.00  0.00     0.063 A 
ATOM     29  C   UNL d   1      12.018   8.644  -3.430  0.00  0.00     0.279 A 
ATOM     30  O   UNL d   1      12.613   8.515  -2.380  0.00  0.00    -0.265 OA
ENDBRANCH  19  20
ENDBRANCH  18  19
ENDBRANCH  17  18
ENDBRANCH  16  17
ENDBRANCH   1  16
TORSDOF 8
