REMARK  6 active torsions:
REMARK  status: ('A' for Active; 'I' for Inactive)
REMARK    1  A    between atoms: O_2  and  C_3 
REMARK    2  A    between atoms: C_3  and  C_4 
REMARK    3  A    between atoms: N_10  and  C_11 
REMARK    4  A    between atoms: C_11  and  C_12 
REMARK    5  A    between atoms: C_12  and  N_13 
REMARK    6  A    between atoms: N_16  and  C_17 
ROOT
ATOM      1  N   UNL d   1       9.232   6.590 -10.863  0.00  0.00    -0.298 N 
ATOM      2  C   UNL d   1       9.508   7.958 -11.268  0.00  0.00     0.131 A 
ATOM      3  C   UNL d   1      10.080   8.549  -9.984  0.00  0.00     0.135 A 
ATOM      4  N   UNL d   1      10.053   7.431  -9.055  0.00  0.00    -0.280 N 
ATOM      5  C   UNL d   1       9.505   6.338  -9.597  0.00  0.00     0.328 A 
ATOM      6  O   UNL d   1       9.291   5.242  -9.053  0.00  0.00    -0.247 OA
ENDROOT
BRANCH   1   7
ATOM      7  C   UNL d   1       8.615   5.628 -11.756  0.00  0.00     0.141 C 
BRANCH   7   8
ATOM      8  C   UNL d   1       9.713   4.720 -12.350  0.00  0.00     0.274 C 
BRANCH   8   9
ATOM      9  N   UNL d   1       9.169   3.839 -13.378  0.00  0.00     0.139 N 
ATOM     10  C   UNL d   1      10.056   2.707 -13.682  0.00  0.00     0.250 C 
ATOM     11  C   UNL d   1      10.945   2.879 -14.955  0.00  0.00     0.036 C 
ATOM     12  C   UNL d   1      10.047   3.160 -16.165  0.00  0.00     0.034 C 
ATOM     13  C   UNL d   1      11.852   4.092 -14.872  0.00  0.00     0.002 C 
ATOM     14  C   UNL d   1       9.632   4.584 -15.771  0.00  0.00     0.036 C 
ATOM     15  C   UNL d   1       8.660   4.537 -14.565  0.00  0.00     0.250 C 
ATOM     16  C   UNL d   1      10.981   5.244 -15.410  0.00  0.00     0.002 C 
BRANCH  12  17
ATOM     17  C   UNL d   1       8.893   2.155 -16.453  0.00  0.00     0.142 C 
BRANCH  17  18
ATOM     18  O   UNL d   1       9.419   0.863 -16.767  0.00  0.00    -0.352 OA
ATOM     19  C   UNL d   1       9.814   0.064 -15.630  0.00  0.00     0.174 C 
ENDBRANCH  17  18
ENDBRANCH  12  17
ENDBRANCH   8   9
ENDBRANCH   7   8
ENDBRANCH   1   7
BRANCH   4  20
ATOM     20  C   UNL d   1      10.495   7.551  -7.704  0.00  0.00     0.065 A 
ATOM     21  C   UNL d   1      10.375   8.786  -7.029  0.00  0.00     0.029 A 
ATOM     22  C   UNL d   1      10.813   8.892  -5.688  0.00  0.00     0.059 A 
ATOM     23  C   UNL d   1      11.357   7.790  -5.026  0.00  0.00     0.011 A 
ATOM     24 CL   UNL d   1      10.660  10.386  -4.841  0.00  0.00    -0.082 Cl
ATOM     25  C   UNL d   1      11.491   6.557  -5.695  0.00  0.00     0.002 A 
ATOM     26  C   UNL d   1      11.053   6.460  -7.043  0.00  0.00     0.017 A 
ENDBRANCH   4  20
TORSDOF 6
