REMARK  7 active torsions:
REMARK  status: ('A' for Active; 'I' for Inactive)
REMARK    1  A    between atoms: C_2  and  C_3 
REMARK    2  A    between atoms: C_3  and  C_4 
REMARK    3  A    between atoms: C_4  and  O_5 
REMARK    4  A    between atoms: O_5  and  C_6 
REMARK    5  A    between atoms: C_8  and  C_9 
REMARK    6  A    between atoms: C_9  and  C_10 
REMARK    7  A    between atoms: C_18  and  O_19 
ROOT
ATOM      1  C   UNL d   1       9.644   7.002 -10.992  0.00  0.00     0.116 A 
ATOM      2  C   UNL d   1       9.702   7.803  -9.820  0.00  0.00     0.022 A 
ATOM      3  C   UNL d   1       9.665   7.192  -8.556  0.00  0.00    -0.018 A 
ATOM      4  C   UNL d   1       9.607   5.793  -8.461  0.00  0.00    -0.002 A 
ATOM      5  C   UNL d   1       9.568   5.006  -9.627  0.00  0.00     0.026 A 
ATOM      6  C   UNL d   1       9.606   5.611 -10.908  0.00  0.00     0.116 A 
ENDROOT
BRANCH   3   7
ATOM      7  C   UNL d   1       9.614   8.068  -7.333  0.00  0.00     0.053 C 
BRANCH   7   8
ATOM      8  C   UNL d   1      11.007   8.242  -6.700  0.00  0.00     0.137 A 
ATOM      9  N   UNL d   1      11.314   7.141  -5.807  0.00  0.00    -0.217 NA
ATOM     10  C   UNL d   1      11.547   7.525  -4.555  0.00  0.00     0.360 A 
ATOM     11  N   UNL d   1      11.466   8.858  -4.516  0.00  0.00    -0.215 NA
ATOM     12  O   UNL d   1      11.789   6.795  -3.608  0.00  0.00    -0.243 OA
ATOM     13  C   UNL d   1      11.111   9.460  -5.777  0.00  0.00     0.155 A 
ENDBRANCH   7   8
ENDBRANCH   3   7
BRANCH   1  14
ATOM     14  O   UNL d   1       9.589   7.449 -12.282  0.00  0.00    -0.329 OA
BRANCH  14  15
ATOM     15  C   UNL d   1       9.258   8.790 -12.457  0.00  0.00     0.149 C 
BRANCH  15  16
ATOM     16  C   UNL d   1       7.847   9.070 -12.236  0.00  0.00     0.033 C 
BRANCH  16  17
ATOM     17  C   UNL d   1       6.924   7.891 -12.633  0.00  0.00     0.003 C 
ATOM     18  C   UNL d   1       5.435   8.010 -12.377  0.00  0.00     0.000 C 
ENDBRANCH  16  17
ENDBRANCH  15  16
ENDBRANCH  14  15
ENDBRANCH   1  14
BRANCH   6  19
ATOM     19  O   UNL d   1       9.678   4.960 -12.117  0.00  0.00    -0.326 OA
ATOM     20  C   UNL d   1       9.232   3.636 -12.136  0.00  0.00     0.181 C 
ENDBRANCH   6  19
TORSDOF 7
