REMARK  2 active torsions:
REMARK  status: ('A' for Active; 'I' for Inactive)
REMARK    1  A    between atoms: N_13  and  C_14 
REMARK    2  A    between atoms: C_14  and  C_15 
ROOT
ATOM      1  O   UNL d   1       8.414   6.197  -6.838  0.00  0.00    -0.192 OA
ATOM      2  C   UNL d   1       9.562   6.915  -7.218  0.00  0.00     0.315 C 
ATOM      3  C   UNL d   1       9.203   8.083  -8.114  0.00  0.00     0.061 C 
ATOM      4  C   UNL d   1       9.456   7.608  -9.577  0.00  0.00     0.004 C 
ATOM      5  C   UNL d   1      10.009   8.865 -10.200  0.00  0.00     0.000 C 
ATOM      6  C   UNL d   1      11.122   9.065  -9.188  0.00  0.00     0.002 C 
ATOM      7  C   UNL d   1      11.792   7.701  -9.156  0.00  0.00     0.002 A 
ATOM      8  C   UNL d   1      10.654   6.721  -9.423  0.00  0.00     0.005 A 
ATOM      9  C   UNL d   1      10.664   6.245  -7.990  0.00  0.00     0.061 A 
ATOM     10  C   UNL d   1      11.817   7.205  -7.728  0.00  0.00     0.036 A 
ATOM     11  C   UNL d   1      11.232   8.280  -6.858  0.00  0.00     0.223 C 
ATOM     12  C   UNL d   1      10.367   9.063  -7.837  0.00  0.00     0.036 C 
ATOM     13  N   UNL d   1      10.224   7.574  -6.079  0.00  0.00     0.163 N 
ENDROOT
BRANCH  13  14
ATOM     14  C   UNL d   1      10.846   6.711  -5.063  0.00  0.00     0.280 C 
BRANCH  14  15
ATOM     15  C   UNL d   1      11.461   7.473  -3.925  0.00  0.00     0.014 A 
ATOM     16  C   UNL d   1      11.494   8.884  -3.858  0.00  0.00     0.018 A 
ATOM     17  C   UNL d   1      12.159   9.489  -2.777  0.00  0.00     0.099 A 
ATOM     18  N   UNL d   1      12.689   8.802  -1.760  0.00  0.00    -0.243 NA
ATOM     19  C   UNL d   1      12.628   7.465  -1.803  0.00  0.00     0.099 A 
ATOM     20  C   UNL d   1      12.023   6.748  -2.835  0.00  0.00     0.018 A 
ENDBRANCH  14  15
ENDBRANCH  13  14
TORSDOF 2
