REMARK  9 active torsions:
REMARK  status: ('A' for Active; 'I' for Inactive)
REMARK    1  A    between atoms: C_4  and  N_5 
REMARK    2  A    between atoms: N_5  and  C_6 
REMARK    3  A    between atoms: C_6  and  C_7 
REMARK    4  A    between atoms: C_7  and  N_8 
REMARK    5  A    between atoms: N_8  and  C_9 
REMARK    6  A    between atoms: C_16  and  N_17 
REMARK    7  A    between atoms: N_17  and  C_18 
REMARK    8  A    between atoms: C_18  and  C_19 
REMARK    9  A    between atoms: C_19  and  C_20 
ROOT
ATOM      1  N   UNL d   1       9.410   8.156 -12.124  0.00  0.00     0.063 N 
ATOM      2  C   UNL d   1       9.429   6.899 -11.607  0.00  0.00     0.799 A 
ATOM      3  N   UNL d   1       9.417   5.919 -12.504  0.00  0.00     0.136 NA
ATOM      4  C   UNL d   1       9.399   4.718 -11.915  0.00  0.00     0.776 A 
ATOM      5  N   UNL d   1       9.425   4.448 -10.609  0.00  0.00     0.134 NA
ATOM      6  C   UNL d   1       9.429   5.553  -9.861  0.00  0.00     0.776 A 
ATOM      7  N   UNL d   1       9.463   6.815 -10.285  0.00  0.00     0.136 NA
ENDROOT
BRANCH   6   8
ATOM      8  N   UNL d   1       9.388   5.331  -8.504  0.00  0.00    -0.085 NA
BRANCH   8   9
ATOM      9  C   UNL d   1       9.473   6.381  -7.494  0.00  0.00     0.150 C 
BRANCH   9  10
ATOM     10  C   UNL d   1      10.928   6.824  -7.278  0.00  0.00     0.055 C 
BRANCH  10  11
ATOM     11  C   UNL d   1      11.052   7.951  -6.303  0.00  0.00     0.000 A 
ATOM     12  C   UNL d   1      11.460   7.884  -4.928  0.00  0.00     0.015 A 
ATOM     13  C   UNL d   1      11.481   9.210  -4.406  0.00  0.00     0.081 A 
ATOM     14  C   UNL d   1      11.847   6.841  -4.052  0.00  0.00     0.001 A 
ATOM     15  N   UNL d   1      11.081  10.024  -5.447  0.00  0.00    -0.244 NA
ATOM     16  C   UNL d   1      11.861   9.486  -3.084  0.00  0.00     0.019 A 
ATOM     17  C   UNL d   1      10.833   9.274  -6.583  0.00  0.00     0.095 A 
ATOM     18  C   UNL d   1      12.255   8.428  -2.242  0.00  0.00     0.002 A 
ATOM     19  C   UNL d   1      12.237   7.107  -2.725  0.00  0.00     0.000 A 
ENDBRANCH  10  11
ENDBRANCH   9  10
ENDBRANCH   8   9
ENDBRANCH   6   8
BRANCH   4  20
ATOM     20  N   UNL d   1       9.439   3.621 -12.751  0.00  0.00    -0.083 NA
BRANCH  20  21
ATOM     21  C   UNL d   1       9.427   3.713 -14.203  0.00  0.00     0.171 C 
BRANCH  21  22
ATOM     22  C   UNL d   1      10.843   3.832 -14.774  0.00  0.00     0.153 C 
BRANCH  22  23
ATOM     23  N   UNL d   1      11.201   5.207 -15.075  0.00  0.00    -0.269 NA
BRANCH  23  24
ATOM     24  C   UNL d   1      12.316   5.501 -15.877  0.00  0.00     0.076 A 
ATOM     25  C   UNL d   1      13.115   4.484 -16.445  0.00  0.00     0.019 A 
ATOM     26  C   UNL d   1      14.215   4.808 -17.260  0.00  0.00     0.002 A 
ATOM     27  C   UNL d   1      14.542   6.152 -17.508  0.00  0.00     0.000 A 
ATOM     28  C   UNL d   1      13.760   7.175 -16.936  0.00  0.00     0.002 A 
ATOM     29  C   UNL d   1      12.652   6.852 -16.124  0.00  0.00     0.019 A 
ENDBRANCH  23  24
ENDBRANCH  22  23
ENDBRANCH  21  22
ENDBRANCH  20  21
ENDBRANCH   4  20
TORSDOF 9
