REMARK  7 active torsions:
REMARK  status: ('A' for Active; 'I' for Inactive)
REMARK       I    between atoms: C_2  and  N_3 
REMARK    1  A    between atoms: C_2  and  C_21 
REMARK    2  A    between atoms: N_3  and  C_4 
REMARK    3  A    between atoms: C_4  and  C_5 
REMARK    4  A    between atoms: C_5  and  C_6 
REMARK    5  A    between atoms: C_6  and  C_7 
REMARK    6  A    between atoms: C_7  and  N_8 
REMARK    7  A    between atoms: N_11  and  C_12 
ROOT
ATOM      1  C   UNL d   1       8.475   6.533 -12.078  0.00  0.00     0.029 C 
ENDROOT
BRANCH   1   2
ATOM      2  C   UNL d   1       9.807   6.920 -11.424  0.00  0.00     0.129 C 
BRANCH   2   3
ATOM      3  N   UNL d   1       9.746   7.009  -9.973  0.00  0.00    -0.234 NA
ATOM      4  C   UNL d   1      10.005   8.129  -9.278  0.00  0.00     0.275 C 
ATOM      5  O   UNL d   1       9.981   9.253  -9.764  0.00  0.00    -0.266 OA
BRANCH   4   6
ATOM      6  C   UNL d   1      10.438   7.925  -7.858  0.00  0.00     0.058 A 
ATOM      7  C   UNL d   1      10.463   9.003  -6.944  0.00  0.00     0.005 A 
ATOM      8  C   UNL d   1      10.969   8.822  -5.638  0.00  0.00     0.000 A 
ATOM      9  C   UNL d   1      11.451   7.553  -5.241  0.00  0.00     0.000 A 
ATOM     10  C   UNL d   1      11.007   9.884  -4.720  0.00  0.00     0.000 A 
ATOM     11  C   UNL d   1      11.464   6.503  -6.161  0.00  0.00     0.000 A 
ATOM     12  C   UNL d   1      11.934   7.333  -3.936  0.00  0.00     0.000 A 
ATOM     13  C   UNL d   1      10.957   6.674  -7.454  0.00  0.00     0.005 A 
ATOM     14  C   UNL d   1      11.950   8.391  -3.015  0.00  0.00     0.000 A 
ATOM     15  C   UNL d   1      11.491   9.661  -3.414  0.00  0.00     0.000 A 
ENDBRANCH   4   6
ENDBRANCH   2   3
ENDBRANCH   1   2
BRANCH   1  16
ATOM     16  C   UNL d   1       8.222   5.021 -12.024  0.00  0.00     0.037 C 
BRANCH  16  17
ATOM     17  C   UNL d   1       6.824   4.678 -12.580  0.00  0.00     0.251 C 
BRANCH  17  18
ATOM     18  N   UNL d   1       6.662   3.251 -12.842  0.00  0.00     0.141 N 
ATOM     19  C   UNL d   1       7.449   2.800 -13.998  0.00  0.00     0.274 C 
ATOM     20  C   UNL d   1       7.319   1.278 -14.223  0.00  0.00     0.137 C 
ATOM     21  N   UNL d   1       5.917   0.902 -14.315  0.00  0.00    -0.343 N 
ATOM     22  C   UNL d   1       5.077   1.405 -13.230  0.00  0.00     0.137 C 
ATOM     23  C   UNL d   1       5.258   2.932 -13.034  0.00  0.00     0.274 C 
BRANCH  21  24
ATOM     24  C   UNL d   1       5.425   0.149 -15.397  0.00  0.00     0.084 A 
ATOM     25  C   UNL d   1       4.327  -0.736 -15.246  0.00  0.00     0.155 A 
ATOM     26  C   UNL d   1       3.814  -1.413 -16.363  0.00  0.00     0.031 A 
ATOM     27  F   UNL d   1       3.735  -0.942 -14.043  0.00  0.00    -0.203 F 
ATOM     28  C   UNL d   1       4.399  -1.276 -17.631  0.00  0.00     0.002 A 
ATOM     29  C   UNL d   1       5.499  -0.424 -17.796  0.00  0.00     0.002 A 
ATOM     30  C   UNL d   1       6.002   0.293 -16.692  0.00  0.00     0.019 A 
ENDBRANCH  21  24
ENDBRANCH  17  18
ENDBRANCH  16  17
ENDBRANCH   1  16
TORSDOF 7
