REMARK  4 active torsions:
REMARK  status: ('A' for Active; 'I' for Inactive)
REMARK    1  A    between atoms: P_2  and  C_5 
REMARK    2  A    between atoms: C_5  and  C_7 
REMARK    3  A    between atoms: C_5  and  P_14 
REMARK    4  A    between atoms: C_7  and  C_8 
ROOT
ATOM      1  C   UNL d   1       9.784   7.372  -7.868  0.00  0.00     0.332 C 
ATOM      2  O   UNL d   1       8.660   8.015  -7.300  0.00  0.00    -0.196 OA
ENDROOT
BRANCH   1   3
ATOM      3  P   UNL d   1       9.182   5.857  -8.744  0.00  0.00     0.314 P 
ATOM      4  O   UNL d   1      10.151   4.719  -8.823  0.00  0.00    -0.637 OA
ATOM      5  O   UNL d   1       8.604   6.363 -10.166  0.00  0.00    -0.637 OA
ATOM      6  O   UNL d   1       7.848   5.562  -7.877  0.00  0.00    -0.637 OA
ENDBRANCH   1   3
BRANCH   1   7
ATOM      7  C   UNL d   1      10.778   7.005  -6.734  0.00  0.00     0.087 C 
BRANCH   7   8
ATOM      8  C   UNL d   1      11.082   8.067  -5.656  0.00  0.00     0.001 A 
ATOM      9  C   UNL d   1      10.628   9.408  -5.752  0.00  0.00     0.095 A 
ATOM     10  N   UNL d   1      10.788  10.323  -4.773  0.00  0.00    -0.243 NA
ATOM     11  C   UNL d   1      11.472   9.974  -3.666  0.00  0.00     0.099 A 
ATOM     12  C   UNL d   1      12.051   8.703  -3.504  0.00  0.00     0.020 A 
ATOM     13  C   UNL d   1      11.827   7.723  -4.500  0.00  0.00    -0.001 A 
ENDBRANCH   7   8
ENDBRANCH   1   7
BRANCH   1  14
ATOM     14  P   UNL d   1      10.608   8.373  -9.199  0.00  0.00     0.314 P 
ATOM     15  O   UNL d   1      11.394   9.520  -8.653  0.00  0.00    -0.637 OA
ATOM     16  O   UNL d   1      11.504   7.309 -10.054  0.00  0.00    -0.637 OA
ATOM     17  O   UNL d   1       9.465   8.786 -10.268  0.00  0.00    -0.637 OA
ENDBRANCH   1  14
TORSDOF 4
