REMARK  9 active torsions:
REMARK  status: ('A' for Active; 'I' for Inactive)
REMARK    1  A    between atoms: N_3  and  C_4 
REMARK    2  A    between atoms: C_4  and  C_5 
REMARK    3  A    between atoms: C_5  and  C_6 
REMARK    4  A    between atoms: C_6  and  C_7 
REMARK    5  A    between atoms: C_7  and  C_8 
REMARK    6  A    between atoms: C_8  and  C_9 
REMARK    7  A    between atoms: C_9  and  N_10 
REMARK    8  A    between atoms: N_13  and  C_14 
REMARK    9  A    between atoms: C_18  and  C_19 
ROOT
ATOM      1  N   UNL d   1       9.307   6.746  -9.792  0.00  0.00     0.141 N 
ATOM      2  C   UNL d   1      10.290   5.997  -9.014  0.00  0.00     0.274 C 
ATOM      3  C   UNL d   1      10.074   6.203  -7.510  0.00  0.00     0.137 C 
ATOM      4  N   UNL d   1      10.117   7.616  -7.195  0.00  0.00    -0.344 N 
ATOM      5  C   UNL d   1       9.267   8.466  -8.014  0.00  0.00     0.137 C 
ATOM      6  C   UNL d   1       9.518   8.180  -9.514  0.00  0.00     0.274 C 
ENDROOT
BRANCH   1   7
ATOM      7  C   UNL d   1       9.452   6.521 -11.222  0.00  0.00     0.250 C 
BRANCH   7   8
ATOM      8  C   UNL d   1       9.133   5.079 -11.661  0.00  0.00     0.035 C 
BRANCH   8   9
ATOM      9  C   UNL d   1       9.378   4.840 -13.162  0.00  0.00     0.002 C 
BRANCH   9  10
ATOM     10  C   UNL d   1       9.616   3.351 -13.505  0.00  0.00     0.002 C 
BRANCH  10  11
ATOM     11  C   UNL d   1       8.434   2.687 -14.219  0.00  0.00     0.027 C 
BRANCH  11  12
ATOM     12  C   UNL d   1       8.705   1.210 -14.546  0.00  0.00     0.132 C 
BRANCH  12  13
ATOM     13  N   UNL d   1       7.559   0.605 -15.213  0.00  0.00    -0.201 N 
ATOM     14  C   UNL d   1       6.577  -0.106 -14.640  0.00  0.00     0.352 A 
ATOM     15  O   UNL d   1       6.443  -0.392 -13.449  0.00  0.00    -0.244 OA
ATOM     16  N   UNL d   1       5.789  -0.434 -15.657  0.00  0.00    -0.241 N 
ATOM     17  C   UNL d   1       6.336   0.095 -16.816  0.00  0.00     0.171 A 
ATOM     18  C   UNL d   1       4.625  -1.211 -15.625  0.00  0.00     0.086 A 
ATOM     19  N   UNL d   1       7.423   0.746 -16.562  0.00  0.00    -0.147 NA
ATOM     20  C   UNL d   1       5.613  -0.171 -18.047  0.00  0.00     0.039 A 
ATOM     21  C   UNL d   1       4.480  -0.914 -18.016  0.00  0.00     0.005 A 
ATOM     22  C   UNL d   1       3.963  -1.456 -16.769  0.00  0.00     0.019 A 
ENDBRANCH  12  13
ENDBRANCH  11  12
ENDBRANCH  10  11
ENDBRANCH   9  10
ENDBRANCH   8   9
ENDBRANCH   7   8
ENDBRANCH   1   7
BRANCH   4  23
ATOM     23  C   UNL d   1      10.946   8.119  -6.195  0.00  0.00     0.056 A 
ATOM     24  C   UNL d   1      11.119   7.437  -4.967  0.00  0.00     0.021 A 
ATOM     25  C   UNL d   1      11.947   7.977  -3.958  0.00  0.00     0.073 A 
ATOM     26  C   UNL d   1      12.633   9.183  -4.215  0.00  0.00     0.004 A 
ATOM     27  C   UNL d   1      12.487   9.835  -5.447  0.00  0.00     0.001 A 
ATOM     28  C   UNL d   1      11.639   9.327  -6.430  0.00  0.00     0.017 A 
BRANCH  25  29
ATOM     29  C   UNL d   1      12.139   7.257  -2.627  0.00  0.00     0.419 C 
ATOM     30  F   UNL d   1      11.002   6.791  -2.126  0.00  0.00    -0.166 F 
ATOM     31  F   UNL d   1      12.945   6.225  -2.821  0.00  0.00    -0.166 F 
ATOM     32  F   UNL d   1      12.671   8.048  -1.703  0.00  0.00    -0.166 F 
ENDBRANCH  25  29
ENDBRANCH   4  23
TORSDOF 9
