REMARK  3 active torsions:
REMARK  status: ('A' for Active; 'I' for Inactive)
REMARK    1  A    between atoms: C_5  and  N_6 
REMARK    2  A    between atoms: N_9  and  C_10 
REMARK    3  A    between atoms: C_10  and  C_11 
ROOT
ATOM      1  N   UNL d   1      10.602   6.968  -8.723  0.00  0.00    -0.344 N 
ATOM      2  C   UNL d   1      11.013   7.597  -9.967  0.00  0.00     0.137 C 
ATOM      3  C   UNL d   1       9.816   7.653 -10.930  0.00  0.00     0.275 C 
ATOM      4  N   UNL d   1       9.273   6.303 -11.157  0.00  0.00     0.145 N 
ATOM      5  C   UNL d   1       8.794   5.747  -9.879  0.00  0.00     0.275 C 
ATOM      6  C   UNL d   1       9.939   5.670  -8.861  0.00  0.00     0.137 C 
ENDROOT
BRANCH   4   7
ATOM      7  C   UNL d   1       8.156   6.408 -12.088  0.00  0.00     0.279 C 
BRANCH   7   8
ATOM      8  C   UNL d   1       7.452   5.179 -12.561  0.00  0.00     0.033 A 
ATOM      9  C   UNL d   1       7.959   4.207 -13.488  0.00  0.00     0.035 A 
ATOM     10  C   UNL d   1       6.967   3.200 -13.659  0.00  0.00     0.162 A 
ATOM     11  C   UNL d   1       9.144   4.030 -14.226  0.00  0.00     0.004 A 
ATOM     12  N   UNL d   1       5.911   3.569 -12.856  0.00  0.00    -0.226 NA
ATOM     13  N   UNL d   1       7.045   2.093 -14.447  0.00  0.00    -0.225 NA
ATOM     14  C   UNL d   1       6.203   4.752 -12.192  0.00  0.00     0.098 A 
ATOM     15  C   UNL d   1       8.209   1.974 -15.125  0.00  0.00     0.101 A 
ATOM     16  C   UNL d   1       9.271   2.900 -15.059  0.00  0.00     0.021 A 
ENDBRANCH   7   8
ENDBRANCH   4   7
BRANCH   1  17
ATOM     17  C   UNL d   1      10.876   7.544  -7.472  0.00  0.00     0.056 A 
ATOM     18  C   UNL d   1      10.848   8.944  -7.288  0.00  0.00     0.018 A 
ATOM     19  C   UNL d   1      11.108   9.504  -6.020  0.00  0.00     0.013 A 
ATOM     20  C   UNL d   1      11.409   8.674  -4.925  0.00  0.00     0.058 A 
ATOM     21 CL   UNL d   1      11.777   9.355  -3.387  0.00  0.00    -0.082 Cl
ATOM     22  C   UNL d   1      11.419   7.280  -5.093  0.00  0.00     0.013 A 
ATOM     23  C   UNL d   1      11.178   6.728  -6.362  0.00  0.00     0.018 A 
ENDBRANCH   1  17
TORSDOF 3
