REMARK  2 active torsions:
REMARK  status: ('A' for Active; 'I' for Inactive)
REMARK    1  A    between atoms: C_2  and  N_3 
REMARK    2  A    between atoms: C_7  and  C_8 
ROOT
ATOM      1  C   UNL d   1      10.743   8.454  -6.214  0.00  0.00     0.040 A 
ATOM      2  C   UNL d   1      10.672   9.788  -6.404  0.00  0.00     0.101 A 
ATOM      3  N   UNL d   1      11.060  10.477  -5.288  0.00  0.00    -0.244 NA
ATOM      4  C   UNL d   1      11.474   9.602  -4.334  0.00  0.00     0.084 A 
ATOM      5  C   UNL d   1      11.993   9.790  -3.047  0.00  0.00     0.020 A 
ATOM      6  C   UNL d   1      12.403   8.690  -2.295  0.00  0.00     0.015 A 
ATOM      7  C   UNL d   1      12.210   7.423  -2.865  0.00  0.00     0.085 A 
ATOM      8 CL   UNL d   1      12.659   6.033  -2.046  0.00  0.00    -0.080 Cl
ATOM      9  C   UNL d   1      11.657   7.232  -4.131  0.00  0.00     0.152 A 
ATOM     10  F   UNL d   1      11.492   5.989  -4.623  0.00  0.00    -0.203 F 
ATOM     11  C   UNL d   1      11.298   8.322  -4.910  0.00  0.00     0.049 A 
ENDROOT
BRANCH   1  12
ATOM     12  C   UNL d   1      10.317   7.429  -7.137  0.00  0.00     0.082 A 
ATOM     13  N   UNL d   1      10.808   7.355  -8.430  0.00  0.00    -0.309 N 
ATOM     14  C   UNL d   1      10.224   6.269  -8.951  0.00  0.00     0.179 A 
ATOM     15  N   UNL d   1       9.388   5.634  -8.142  0.00  0.00    -0.223 NA
ATOM     16  C   UNL d   1       9.407   6.410  -6.985  0.00  0.00     0.118 A 
BRANCH  13  17
ATOM     17  C   UNL d   1      11.794   8.210  -9.073  0.00  0.00     0.108 C 
ATOM     18  C   UNL d   1      11.126   9.193 -10.037  0.00  0.00     0.027 C 
ENDBRANCH  13  17
ENDBRANCH   1  12
TORSDOF 2
