REMARK  2 active torsions:
REMARK  status: ('A' for Active; 'I' for Inactive)
REMARK    1  A    between atoms: C_2  and  C_3 
REMARK    2  A    between atoms: C_3  and  C_4 
ROOT
ATOM      1  C   UNL d   1       6.514   2.589 -13.658  0.00  0.00     0.007 A 
ATOM      2  C   UNL d   1       6.878   2.178 -14.915  0.00  0.00    -0.002 A 
ATOM      3  C   UNL d   1       6.341   0.909 -15.296  0.00  0.00    -0.012 A 
ATOM      4  C   UNL d   1       5.489   0.419 -14.344  0.00  0.00     0.039 A 
ATOM      5  S   UNL d   1       5.460   1.413 -12.915  0.00  0.00    -0.094 SA
ATOM      6  C   UNL d   1       4.619  -0.774 -14.542  0.00  0.00     0.323 C 
ATOM      7  N   UNL d   1       4.380  -1.020 -15.961  0.00  0.00     0.343 N 
ATOM      8  C   UNL d   1       5.669  -1.115 -16.649  0.00  0.00     0.265 C 
ATOM      9  C   UNL d   1       5.473  -1.565 -18.097  0.00  0.00     0.041 C 
ATOM     10  C   UNL d   1       6.819  -1.778 -18.814  0.00  0.00     0.028 C 
ATOM     11  C   UNL d   1       7.997  -0.956 -18.292  0.00  0.00    -0.024 A 
ATOM     12  C   UNL d   1       9.264  -1.204 -18.858  0.00  0.00     0.025 A 
ATOM     13  C   UNL d   1      10.409  -0.560 -18.361  0.00  0.00     0.156 A 
ATOM     14  O   UNL d   1      11.634  -0.809 -18.903  0.00  0.00    -0.188 OA
ATOM     15  C   UNL d   1      10.295   0.339 -17.291  0.00  0.00     0.156 A 
ATOM     16  O   UNL d   1      11.415   0.953 -16.810  0.00  0.00    -0.188 OA
ATOM     17  C   UNL d   1       9.034   0.597 -16.720  0.00  0.00     0.025 A 
ATOM     18  C   UNL d   1       7.862  -0.028 -17.220  0.00  0.00    -0.018 A 
ATOM     19  C   UNL d   1       6.458   0.223 -16.639  0.00  0.00     0.079 C 
ENDROOT
BRANCH   1  20
ATOM     20  C   UNL d   1       6.955   3.826 -12.935  0.00  0.00     0.033 C 
BRANCH  20  21
ATOM     21  C   UNL d   1       8.334   4.364 -13.376  0.00  0.00     0.005 C 
ATOM     22  C   UNL d   1       9.502   3.394 -13.115  0.00  0.00     0.000 C 
ENDBRANCH  20  21
ENDBRANCH   1  20
TORSDOF 2
