REMARK  8 active torsions:
REMARK  status: ('A' for Active; 'I' for Inactive)
REMARK    1  A    between atoms: O_2  and  C_3 
REMARK    2  A    between atoms: C_6  and  C_7 
REMARK    3  A    between atoms: C_7  and  C_8 
REMARK    4  A    between atoms: C_8  and  C_9 
REMARK    5  A    between atoms: C_9  and  C_10 
REMARK    6  A    between atoms: C_10  and  N_11 
REMARK    7  A    between atoms: N_14  and  C_15 
REMARK    8  A    between atoms: C_15  and  C_16 
ROOT
ATOM      1  N   UNL d   1      10.738   4.668 -15.508  0.00  0.00     0.141 N 
ATOM      2  C   UNL d   1      11.736   3.620 -15.743  0.00  0.00     0.285 C 
ATOM      3  C   UNL d   1      13.119   4.222 -16.032  0.00  0.00     0.286 C 
ATOM      4  N   UNL d   1      13.112   5.119 -17.183  0.00  0.00     0.148 N 
ATOM      5  C   UNL d   1      12.115   6.163 -16.942  0.00  0.00     0.286 C 
ATOM      6  C   UNL d   1      10.730   5.551 -16.678  0.00  0.00     0.285 C 
ENDROOT
BRANCH   1   7
ATOM      7  C   UNL d   1       9.399   4.123 -15.252  0.00  0.00     0.250 C 
BRANCH   7   8
ATOM      8  C   UNL d   1       9.270   3.241 -13.993  0.00  0.00     0.036 C 
BRANCH   8   9
ATOM      9  C   UNL d   1       9.646   3.976 -12.698  0.00  0.00     0.007 C 
BRANCH   9  10
ATOM     10  C   UNL d   1       8.553   4.957 -12.243  0.00  0.00     0.026 C 
BRANCH  10  11
ATOM     11  C   UNL d   1       8.986   5.743 -11.034  0.00  0.00    -0.022 A 
ATOM     12  C   UNL d   1       8.889   5.152  -9.765  0.00  0.00    -0.002 A 
ATOM     13  C   UNL d   1       9.286   5.859  -8.615  0.00  0.00     0.024 A 
ATOM     14  C   UNL d   1       9.781   7.181  -8.715  0.00  0.00     0.094 A 
ATOM     15  C   UNL d   1       9.870   7.773 -10.001  0.00  0.00     0.024 A 
ATOM     16  C   UNL d   1       9.465   7.063 -11.151  0.00  0.00    -0.002 A 
BRANCH  14  17
ATOM     17  O   UNL d   1      10.164   7.928  -7.630  0.00  0.00    -0.328 OA
ATOM     18  C   UNL d   1      10.045   7.344  -6.349  0.00  0.00     0.181 C 
ENDBRANCH  14  17
ENDBRANCH  10  11
ENDBRANCH   9  10
ENDBRANCH   8   9
ENDBRANCH   7   8
ENDBRANCH   1   7
BRANCH   4  19
ATOM     19  C   UNL d   1      14.455   5.654 -17.425  0.00  0.00     0.301 C 
BRANCH  19  20
ATOM     20  C   UNL d   1      14.518   6.561 -18.609  0.00  0.00     0.111 A 
ATOM     21  O   UNL d   1      14.604   7.899 -18.341  0.00  0.00    -0.309 OA
ATOM     22  C   UNL d   1      14.604   8.549 -19.561  0.00  0.00     0.100 A 
ATOM     23  C   UNL d   1      14.530   7.586 -20.601  0.00  0.00     0.025 A 
ATOM     24  C   UNL d   1      14.666   9.931 -19.791  0.00  0.00     0.025 A 
ATOM     25  C   UNL d   1      14.472   6.306 -19.958  0.00  0.00     0.024 A 
ATOM     26  C   UNL d   1      14.524   8.078 -21.928  0.00  0.00     0.002 A 
ATOM     27  C   UNL d   1      14.599   9.466 -22.183  0.00  0.00     0.000 A 
ATOM     28  C   UNL d   1      14.673  10.390 -21.124  0.00  0.00     0.002 A 
ENDBRANCH  19  20
ENDBRANCH   4  19
TORSDOF 8
