REMARK  9 active torsions:
REMARK  status: ('A' for Active; 'I' for Inactive)
REMARK       I    between atoms: C_2  and  N_3 
REMARK    1  A    between atoms: C_2  and  C_28 
REMARK    2  A    between atoms: N_3  and  C_4 
REMARK    3  A    between atoms: C_4  and  C_5 
REMARK    4  A    between atoms: C_5  and  C_6 
REMARK    5  A    between atoms: C_6  and  C_7 
REMARK    6  A    between atoms: C_7  and  N_8 
REMARK    7  A    between atoms: N_11  and  C_12 
REMARK    8  A    between atoms: C_12  and  C_13 
REMARK    9  A    between atoms: C_12  and  C_19 
ROOT
ATOM      1  N   UNL d   1      10.230   6.102 -10.684  0.00  0.00     0.141 N 
ATOM      2  C   UNL d   1       9.404   6.947 -11.530  0.00  0.00     0.285 C 
ATOM      3  C   UNL d   1       9.023   6.240 -12.838  0.00  0.00     0.286 C 
ATOM      4  N   UNL d   1       8.344   4.970 -12.612  0.00  0.00     0.147 N 
ATOM      5  C   UNL d   1       9.190   4.141 -11.761  0.00  0.00     0.286 C 
ATOM      6  C   UNL d   1       9.547   4.839 -10.434  0.00  0.00     0.285 C 
ENDROOT
BRANCH   4   7
ATOM      7  C   UNL d   1       7.957   4.292 -13.856  0.00  0.00     0.264 C 
BRANCH   7   8
ATOM      8  C   UNL d   1       6.952   3.147 -13.693  0.00  0.00     0.013 A 
ATOM      9  C   UNL d   1       6.946   2.048 -14.591  0.00  0.00    -0.002 A 
ATOM     10  C   UNL d   1       6.051   0.973 -14.451  0.00  0.00    -0.000 A 
ATOM     11  C   UNL d   1       5.114   0.990 -13.409  0.00  0.00    -0.000 A 
ATOM     12  C   UNL d   1       5.093   2.108 -12.549  0.00  0.00    -0.000 A 
ATOM     13  C   UNL d   1       5.979   3.181 -12.677  0.00  0.00    -0.002 A 
ENDBRANCH   7   8
BRANCH   7  14
ATOM     14  C   UNL d   1       9.153   3.935 -14.741  0.00  0.00     0.013 A 
ATOM     15  C   UNL d   1       9.932   2.778 -14.511  0.00  0.00    -0.001 A 
ATOM     16  C   UNL d   1      11.020   2.477 -15.347  0.00  0.00     0.011 A 
ATOM     17  C   UNL d   1      11.348   3.339 -16.409  0.00  0.00     0.058 A 
ATOM     18  C   UNL d   1      10.588   4.498 -16.638  0.00  0.00     0.011 A 
ATOM     19 CL   UNL d   1      12.675   2.973 -17.440  0.00  0.00    -0.082 Cl
ATOM     20  C   UNL d   1       9.491   4.789 -15.810  0.00  0.00    -0.001 A 
ENDBRANCH   7  14
ENDBRANCH   4   7
BRANCH   1  21
ATOM     21  C   UNL d   1      10.620   6.749  -9.450  0.00  0.00     0.251 C 
BRANCH  21  22
ATOM     22  C   UNL d   1      11.564   7.930  -9.646  0.00  0.00     0.037 C 
BRANCH  22  23
ATOM     23  C   UNL d   1      11.693   8.697  -8.372  0.00  0.00     0.029 C 
BRANCH  23  24
ATOM     24  C   UNL d   1      10.377   9.252  -7.809  0.00  0.00     0.129 C 
BRANCH  24  25
ATOM     25  N   UNL d   1      10.703  10.224  -6.794  0.00  0.00    -0.238 NA
ATOM     26  C   UNL d   1      10.970  10.030  -5.527  0.00  0.00     0.251 C 
ATOM     27  O   UNL d   1      10.630  10.829  -4.690  0.00  0.00    -0.271 OA
BRANCH  26  28
ATOM     28  C   UNL d   1      11.713   8.804  -5.077  0.00  0.00     0.081 C 
ATOM     29  C   UNL d   1      12.224   8.907  -3.644  0.00  0.00     0.009 C 
ATOM     30  C   UNL d   1      12.960   7.626  -3.298  0.00  0.00     0.001 C 
ATOM     31  C   UNL d   1      12.081   6.396  -3.477  0.00  0.00     0.000 C 
ATOM     32  C   UNL d   1      11.559   6.345  -4.896  0.00  0.00     0.001 C 
ATOM     33  C   UNL d   1      10.845   7.576  -5.299  0.00  0.00     0.009 C 
ENDBRANCH  26  28
ENDBRANCH  24  25
ENDBRANCH  23  24
ENDBRANCH  22  23
ENDBRANCH  21  22
ENDBRANCH   1  21
TORSDOF 9
