REMARK  7 active torsions:
REMARK  status: ('A' for Active; 'I' for Inactive)
REMARK    1  A    between atoms: C_2  and  C_3 
REMARK       I    between atoms: C_2  and  N_11 
REMARK    2  A    between atoms: C_14  and  C_16 
REMARK    3  A    between atoms: C_16  and  N_17 
REMARK    4  A    between atoms: N_17  and  C_18 
REMARK    5  A    between atoms: C_18  and  C_19 
REMARK    6  A    between atoms: C_19  and  O_20 
REMARK    7  A    between atoms: O_20  and  C_21 
ROOT
ATOM      1  O   UNL d   1       5.458   2.335 -13.150  0.00  0.00    -0.267 OA
ATOM      2  C   UNL d   1       6.505   2.777 -13.640  0.00  0.00     0.257 C 
ATOM      3  N   UNL d   1       7.000   4.019 -13.344  0.00  0.00    -0.317 N 
ATOM      4  C   UNL d   1       6.362   4.872 -12.326  0.00  0.00     0.107 C 
ATOM      5  C   UNL d   1       7.381   5.301 -11.258  0.00  0.00     0.059 C 
ATOM      6  C   UNL d   1       8.624   5.954 -11.900  0.00  0.00     0.172 C 
ATOM      7  F   UNL d   1       8.259   7.091 -12.508  0.00  0.00    -0.238 F 
ATOM      8  C   UNL d   1       9.216   5.026 -12.966  0.00  0.00     0.059 C 
ATOM      9  C   UNL d   1       8.161   4.676 -13.999  0.00  0.00     0.107 C 
ENDROOT
BRANCH   6  10
ATOM     10  C   UNL d   1       9.690   6.241 -10.857  0.00  0.00     0.323 C 
BRANCH  10  11
ATOM     11  N   UNL d   1       9.479   7.508 -10.265  0.00  0.00     0.345 N 
BRANCH  11  12
ATOM     12  C   UNL d   1      10.233   7.636  -9.095  0.00  0.00     0.323 C 
BRANCH  12  13
ATOM     13  C   UNL d   1       9.717   6.754  -7.893  0.00  0.00     0.187 C 
BRANCH  13  14
ATOM     14  O   UNL d   1      10.710   6.477  -6.906  0.00  0.00    -0.329 OA
BRANCH  14  15
ATOM     15  C   UNL d   1      11.017   7.492  -6.033  0.00  0.00     0.095 A 
ATOM     16  C   UNL d   1      11.473   7.176  -4.731  0.00  0.00     0.036 A 
ATOM     17  C   UNL d   1      11.769   8.226  -3.826  0.00  0.00     0.060 A 
ATOM     18  C   UNL d   1      11.609   9.570  -4.215  0.00  0.00     0.011 A 
ATOM     19 CL   UNL d   1      12.277   7.877  -2.220  0.00  0.00    -0.082 Cl
ATOM     20  C   UNL d   1      11.173   9.879  -5.507  0.00  0.00     0.003 A 
ATOM     21  C   UNL d   1      10.893   8.852  -6.381  0.00  0.00     0.024 A 
ENDBRANCH  14  15
ENDBRANCH  13  14
ENDBRANCH  12  13
ENDBRANCH  11  12
ENDBRANCH  10  11
ENDBRANCH   6  10
BRANCH   2  22
ATOM     22  C   UNL d   1       7.232   1.919 -14.632  0.00  0.00     0.057 A 
ATOM     23  C   UNL d   1       8.639   1.789 -14.614  0.00  0.00     0.017 A 
ATOM     24  C   UNL d   1       9.340   1.087 -15.599  0.00  0.00     0.069 A 
ATOM     25  C   UNL d   1       8.620   0.363 -16.574  0.00  0.00     0.068 A 
ATOM     26 CL   UNL d   1      11.076   1.182 -15.627  0.00  0.00    -0.082 Cl
ATOM     27  C   UNL d   1       7.221   0.383 -16.558  0.00  0.00     0.012 A 
ATOM     28 CL   UNL d   1       9.463  -0.572 -17.756  0.00  0.00    -0.082 Cl
ATOM     29  C   UNL d   1       6.522   1.150 -15.597  0.00  0.00     0.006 A 
ENDBRANCH   2  22
TORSDOF 7
