REMARK  3 active torsions:
REMARK  status: ('A' for Active; 'I' for Inactive)
REMARK    1  A    between atoms: C_4  and  C_5 
REMARK    2  A    between atoms: C_8  and  C_9 
REMARK    3  A    between atoms: C_12  and  C_13 
REMARK       I    between atoms: C_13  and  N_15 
ROOT
ATOM      1  C   UNL d   1       7.814   2.114 -15.263  0.00  0.00     0.261 C 
ATOM      2  O   UNL d   1       6.871   1.385 -14.938  0.00  0.00    -0.267 OA
ATOM      3  N   UNL d   1       8.432   2.102 -16.477  0.00  0.00    -0.296 N 
ATOM      4  C   UNL d   1       9.335   3.185 -16.952  0.00  0.00     0.114 A 
ATOM      5  C   UNL d   1       9.378   3.071 -18.482  0.00  0.00     0.052 A 
ATOM      6  C   UNL d   1       8.498   1.891 -18.779  0.00  0.00    -0.002 A 
ATOM      7  C   UNL d   1       8.135   1.417 -20.042  0.00  0.00     0.021 A 
ATOM      8  C   UNL d   1       7.267   0.308 -20.088  0.00  0.00     0.090 A 
ATOM      9  C   UNL d   1       6.813  -0.313 -18.913  0.00  0.00     0.003 A 
ATOM     10  C   UNL d   1       7.194   0.149 -17.640  0.00  0.00     0.015 A 
ATOM     11  C   UNL d   1       8.011   1.311 -17.582  0.00  0.00     0.058 A 
ATOM     12  C   UNL d   1       5.871  -1.449 -19.283  0.00  0.00     0.053 A 
ATOM     13  C   UNL d   1       4.406  -1.211 -18.820  0.00  0.00     0.042 C 
ATOM     14  C   UNL d   1       3.497  -2.401 -19.205  0.00  0.00     0.251 C 
ATOM     15  N   UNL d   1       3.999  -3.643 -18.627  0.00  0.00     0.139 N 
ATOM     16  C   UNL d   1       3.080  -4.744 -18.912  0.00  0.00     0.285 C 
ATOM     17  C   UNL d   1       5.334  -3.948 -19.131  0.00  0.00     0.251 C 
ATOM     18  C   UNL d   1       6.324  -2.826 -18.736  0.00  0.00     0.042 C 
ATOM     19  C   UNL d   1       5.985  -1.379 -20.838  0.00  0.00     0.153 A 
ATOM     20  O   UNL d   1       6.788  -0.254 -21.225  0.00  0.00    -0.331 OA
ENDROOT
BRANCH   1  21
ATOM     21  C   UNL d   1       8.283   3.119 -14.258  0.00  0.00     0.056 A 
ATOM     22  C   UNL d   1       7.316   3.953 -13.644  0.00  0.00     0.005 A 
ATOM     23  C   UNL d   1       7.671   4.810 -12.601  0.00  0.00     0.000 A 
ATOM     24  C   UNL d   1       8.998   4.837 -12.132  0.00  0.00    -0.000 A 
ATOM     25  C   UNL d   1       9.974   4.038 -12.785  0.00  0.00     0.000 A 
ATOM     26  C   UNL d   1       9.622   3.183 -13.836  0.00  0.00     0.005 A 
BRANCH  24  27
ATOM     27  C   UNL d   1       9.335   5.639 -10.953  0.00  0.00    -0.004 A 
ATOM     28  C   UNL d   1       9.496   4.994  -9.712  0.00  0.00    -0.000 A 
ATOM     29  C   UNL d   1       9.836   5.718  -8.559  0.00  0.00     0.003 A 
ATOM     30  C   UNL d   1      10.015   7.110  -8.605  0.00  0.00     0.038 A 
ATOM     31  C   UNL d   1       9.859   7.759  -9.846  0.00  0.00    -0.001 A 
ATOM     32  C   UNL d   1       9.504   7.040 -11.007  0.00  0.00    -0.022 A 
ATOM     33  C   UNL d   1       9.320   7.787 -12.308  0.00  0.00     0.031 C 
BRANCH  30  34
ATOM     34  C   UNL d   1      10.345   7.851  -7.373  0.00  0.00     0.191 A 
ATOM     35  N   UNL d   1      11.050   7.279  -6.357  0.00  0.00    -0.203 NA
ATOM     36  C   UNL d   1      11.115   8.303  -5.510  0.00  0.00     0.185 A 
ATOM     37  C   UNL d   1      11.798   8.342  -4.186  0.00  0.00     0.083 C 
ATOM     38  O   UNL d   1      10.492   9.425  -5.946  0.00  0.00    -0.195 OA
ATOM     39  N   UNL d   1       9.974   9.110  -7.211  0.00  0.00    -0.105 NA
ENDBRANCH  30  34
ENDBRANCH  24  27
ENDBRANCH   1  21
TORSDOF 3
