REMARK  4 active torsions:
REMARK  status: ('A' for Active; 'I' for Inactive)
REMARK    1  A    between atoms: S_2  and  C_4 
REMARK    2  A    between atoms: S_2  and  C_10 
REMARK    3  A    between atoms: N_13  and  C_14 
REMARK    4  A    between atoms: C_14  and  C_15 
ROOT
ATOM      1  C   UNL d   1      10.496   7.403  -7.988  0.00  0.00     0.116 C 
ATOM      2  C   UNL d   1      10.365   8.018  -9.385  0.00  0.00     0.052 C 
ATOM      3  C   UNL d   1      10.421   6.890 -10.415  0.00  0.00     0.252 C 
ATOM      4  N   UNL d   1       9.393   5.863 -10.222  0.00  0.00     0.141 N 
ATOM      5  C   UNL d   1       9.547   5.243  -8.907  0.00  0.00     0.252 C 
ATOM      6  C   UNL d   1       9.391   6.314  -7.837  0.00  0.00     0.052 C 
ENDROOT
BRANCH   1   7
ATOM      7  S   UNL d   1      10.299   8.728  -6.744  0.00  0.00     0.189 S 
ATOM      8  O   UNL d   1       8.858   8.752  -6.474  0.00  0.00    -0.222 OA
ATOM      9  O   UNL d   1      10.972   9.957  -7.184  0.00  0.00    -0.222 OA
BRANCH   7  10
ATOM     10  C   UNL d   1      11.142   8.204  -5.297  0.00  0.00     0.084 A 
ATOM     11  C   UNL d   1      11.967   9.171  -4.695  0.00  0.00     0.011 A 
ATOM     12  C   UNL d   1      12.665   8.812  -3.512  0.00  0.00     0.001 A 
ATOM     13  C   UNL d   1      12.507   7.514  -2.972  0.00  0.00     0.000 A 
ATOM     14  C   UNL d   1      11.676   6.571  -3.607  0.00  0.00     0.001 A 
ATOM     15  C   UNL d   1      10.945   6.915  -4.770  0.00  0.00     0.011 A 
ENDBRANCH   7  10
ENDBRANCH   1   7
BRANCH   4  16
ATOM     16  C   UNL d   1       9.464   4.842 -11.271  0.00  0.00     0.277 C 
BRANCH  16  17
ATOM     17  C   UNL d   1       8.173   4.688 -12.043  0.00  0.00     0.011 A 
ATOM     18  C   UNL d   1       8.124   3.701 -13.043  0.00  0.00    -0.002 A 
ATOM     19  C   UNL d   1       6.929   3.474 -13.741  0.00  0.00    -0.000 A 
ATOM     20  C   UNL d   1       5.801   4.269 -13.463  0.00  0.00    -0.000 A 
ATOM     21  C   UNL d   1       5.868   5.291 -12.495  0.00  0.00    -0.000 A 
ATOM     22  C   UNL d   1       7.048   5.500 -11.781  0.00  0.00    -0.002 A 
ENDBRANCH  16  17
ENDBRANCH   4  16
TORSDOF 4
