REMARK  0 active torsions:
REMARK  status: ('A' for Active; 'I' for Inactive)
ROOT
ATOM      1  O   UNL d   1      10.219   7.175  -7.777  0.00  0.00    -0.190 OA
ATOM      2  C   UNL d   1      10.644   7.815  -6.651  0.00  0.00     0.131 A 
ATOM      3  C   UNL d   1      10.655   9.226  -6.597  0.00  0.00     0.029 A 
ATOM      4  C   UNL d   1      11.064   9.904  -5.428  0.00  0.00     0.021 A 
ATOM      5  C   UNL d   1      11.467   9.140  -4.320  0.00  0.00     0.072 A 
ATOM      6  C   UNL d   1      11.480   7.754  -4.382  0.00  0.00    -0.001 A 
ATOM      7  C   UNL d   1      11.065   7.066  -5.534  0.00  0.00     0.025 A 
ATOM      8  C   UNL d   1      11.969   7.181  -3.089  0.00  0.00     0.054 C 
ATOM      9  C   UNL d   1      12.323   8.461  -2.307  0.00  0.00     0.130 C 
ATOM     10  N   UNL d   1      11.872   9.619  -3.077  0.00  0.00    -0.271 NA
ENDROOT
TORSDOF 0
