REMARK  5 active torsions:
REMARK  status: ('A' for Active; 'I' for Inactive)
REMARK    1  A    between atoms: C_2  and  C_3 
REMARK    2  A    between atoms: C_3  and  C_4 
REMARK    3  A    between atoms: C_3  and  N_15 
REMARK    4  A    between atoms: C_4  and  C_5 
REMARK    5  A    between atoms: C_5  and  C_7 
ROOT
ATOM      1  C   UNL d   1      10.740   4.736 -14.491  0.00  0.00     0.175 C 
ATOM      2  O   UNL d   1      11.625   4.382 -13.708  0.00  0.00    -0.291 OA
ENDROOT
BRANCH   1   3
ATOM      3  C   UNL d   1       9.290   4.940 -14.022  0.00  0.00     0.102 C 
BRANCH   3   4
ATOM      4  C   UNL d   1       8.905   4.543 -12.576  0.00  0.00     0.227 C 
BRANCH   4   5
ATOM      5  C   UNL d   1       9.655   5.396 -11.498  0.00  0.00     0.034 C 
ATOM      6  C   UNL d   1       9.660   4.732 -10.108  0.00  0.00     0.002 C 
ENDBRANCH   4   5
BRANCH   4   7
ATOM      7  N   UNL d   1       7.446   4.640 -12.383  0.00  0.00     0.135 N 
ATOM      8  C   UNL d   1       6.967   5.977 -12.054  0.00  0.00     0.250 C 
ATOM      9  C   UNL d   1       5.485   5.891 -12.207  0.00  0.00     0.037 C 
ATOM     10  C   UNL d   1       5.211   4.734 -13.166  0.00  0.00     0.037 C 
ATOM     11  C   UNL d   1       6.603   4.228 -13.514  0.00  0.00     0.250 C 
ENDBRANCH   4   7
ENDBRANCH   3   4
ENDBRANCH   1   3
BRANCH   1  12
ATOM     12  C   UNL d   1      10.982   4.939 -15.951  0.00  0.00     0.036 A 
ATOM     13  C   UNL d   1       9.972   5.424 -16.818  0.00  0.00     0.015 A 
ATOM     14  C   UNL d   1      10.224   5.630 -18.187  0.00  0.00     0.068 A 
ATOM     15  C   UNL d   1      11.494   5.325 -18.710  0.00  0.00     0.068 A 
ATOM     16 CL   UNL d   1       8.966   6.268 -19.184  0.00  0.00    -0.082 Cl
ATOM     17  C   UNL d   1      12.503   4.829 -17.863  0.00  0.00     0.012 A 
ATOM     18 CL   UNL d   1      11.831   5.548 -20.391  0.00  0.00    -0.082 Cl
ATOM     19  C   UNL d   1      12.250   4.638 -16.486  0.00  0.00     0.004 A 
ENDBRANCH   1  12
TORSDOF 5
