REMARK  6 active torsions:
REMARK  status: ('A' for Active; 'I' for Inactive)
REMARK    1  A    between atoms: C_1  and  C_9 
REMARK    2  A    between atoms: C_2  and  C_3 
REMARK    3  A    between atoms: C_9  and  N_10 
REMARK    4  A    between atoms: N_13  and  C_14 
REMARK    5  A    between atoms: C_14  and  C_15 
REMARK    6  A    between atoms: C_14  and  C_21 
ROOT
ATOM      1  N   UNL d   1       8.542   4.368 -12.697  0.00  0.00     0.146 N 
ATOM      2  C   UNL d   1       7.516   3.602 -13.399  0.00  0.00     0.286 C 
ATOM      3  C   UNL d   1       8.134   2.479 -14.245  0.00  0.00     0.286 C 
ATOM      4  N   UNL d   1       9.043   3.019 -15.281  0.00  0.00     0.147 N 
ATOM      5  C   UNL d   1      10.075   3.778 -14.567  0.00  0.00     0.286 C 
ATOM      6  C   UNL d   1       9.473   4.886 -13.697  0.00  0.00     0.286 C 
ENDROOT
BRANCH   4   7
ATOM      7  C   UNL d   1       9.616   1.976 -16.161  0.00  0.00     0.264 C 
BRANCH   7   8
ATOM      8  C   UNL d   1      10.623   2.520 -17.176  0.00  0.00     0.013 A 
ATOM      9  C   UNL d   1      11.858   1.860 -17.365  0.00  0.00    -0.002 A 
ATOM     10  C   UNL d   1      12.784   2.332 -18.317  0.00  0.00    -0.000 A 
ATOM     11  C   UNL d   1      12.483   3.472 -19.084  0.00  0.00    -0.000 A 
ATOM     12  C   UNL d   1      11.254   4.136 -18.906  0.00  0.00    -0.000 A 
ATOM     13  C   UNL d   1      10.325   3.659 -17.959  0.00  0.00    -0.002 A 
ENDBRANCH   7   8
BRANCH   7  14
ATOM     14  C   UNL d   1       8.581   1.137 -16.916  0.00  0.00     0.013 A 
ATOM     15  C   UNL d   1       8.955  -0.137 -17.400  0.00  0.00    -0.002 A 
ATOM     16  C   UNL d   1       8.021  -0.943 -18.085  0.00  0.00    -0.000 A 
ATOM     17  C   UNL d   1       6.701  -0.495 -18.269  0.00  0.00    -0.000 A 
ATOM     18  C   UNL d   1       6.325   0.779 -17.800  0.00  0.00    -0.000 A 
ATOM     19  C   UNL d   1       7.266   1.598 -17.174  0.00  0.00    -0.002 A 
ENDBRANCH   7  14
ENDBRANCH   4   7
BRANCH   1  20
ATOM     20  C   UNL d   1       7.933   5.396 -11.844  0.00  0.00     0.277 C 
BRANCH  20  21
ATOM     21  C   UNL d   1       8.962   6.169 -11.036  0.00  0.00     0.009 C 
ATOM     22  C   UNL d   1       8.872   6.374  -9.704  0.00  0.00    -0.003 C 
BRANCH  22  23
ATOM     23  C   UNL d   1       9.831   7.127  -8.876  0.00  0.00    -0.000 A 
ATOM     24  C   UNL d   1       9.528   7.339  -7.512  0.00  0.00    -0.000 A 
ATOM     25  C   UNL d   1      10.409   8.063  -6.684  0.00  0.00    -0.000 A 
ATOM     26  C   UNL d   1      11.601   8.591  -7.215  0.00  0.00    -0.000 A 
ATOM     27  C   UNL d   1      11.912   8.387  -8.572  0.00  0.00    -0.000 A 
ATOM     28  C   UNL d   1      11.031   7.668  -9.397  0.00  0.00    -0.000 A 
ENDBRANCH  22  23
ENDBRANCH  20  21
ENDBRANCH   1  20
TORSDOF 6
