REMARK  8 active torsions:
REMARK  status: ('A' for Active; 'I' for Inactive)
REMARK    1  A    between atoms: O_2  and  C_3 
REMARK    2  A    between atoms: C_7  and  C_8 
REMARK    3  A    between atoms: C_8  and  C_10 
REMARK    4  A    between atoms: C_10  and  C_11 
REMARK    5  A    between atoms: C_11  and  C_12 
REMARK    6  A    between atoms: C_12  and  C_13 
REMARK    7  A    between atoms: C_13  and  N_14 
REMARK    8  A    between atoms: N_17  and  C_18 
ROOT
ATOM      1  C   UNL d   1       8.305   6.598 -11.601  0.00  0.00     0.250 C 
ENDROOT
BRANCH   1   2
ATOM      2  C   UNL d   1       8.582   5.779 -12.863  0.00  0.00     0.036 C 
BRANCH   2   3
ATOM      3  C   UNL d   1       8.555   4.250 -12.641  0.00  0.00     0.010 C 
BRANCH   3   4
ATOM      4  C   UNL d   1       9.810   3.549 -13.185  0.00  0.00     0.069 C 
BRANCH   4   5
ATOM      5  C   UNL d   1       9.889   3.610 -14.707  0.00  0.00     0.173 C 
ATOM      6  O   UNL d   1      10.537   4.522 -15.218  0.00  0.00    -0.291 OA
BRANCH   5   7
ATOM      7  C   UNL d   1       9.153   2.591 -15.497  0.00  0.00     0.037 A 
ATOM      8  C   UNL d   1       8.591   1.425 -14.922  0.00  0.00     0.003 A 
ATOM      9  C   UNL d   1       7.912   0.496 -15.733  0.00  0.00     0.002 A 
ATOM     10  C   UNL d   1       7.801   0.714 -17.120  0.00  0.00     0.024 A 
ATOM     11  C   UNL d   1       8.381   1.852 -17.714  0.00  0.00     0.094 A 
ATOM     12  C   UNL d   1       9.038   2.795 -16.892  0.00  0.00     0.027 A 
BRANCH  11  13
ATOM     13  O   UNL d   1       8.260   2.007 -19.075  0.00  0.00    -0.328 OA
ATOM     14  C   UNL d   1       9.372   2.583 -19.757  0.00  0.00     0.181 C 
ENDBRANCH  11  13
ENDBRANCH   5   7
ENDBRANCH   4   5
ENDBRANCH   3   4
ENDBRANCH   2   3
ENDBRANCH   1   2
BRANCH   1  15
ATOM     15  N   UNL d   1       9.460   6.516 -10.697  0.00  0.00     0.141 N 
ATOM     16  C   UNL d   1      10.024   7.856 -10.498  0.00  0.00     0.274 C 
ATOM     17  C   UNL d   1      11.241   7.803  -9.553  0.00  0.00     0.137 C 
ATOM     18  N   UNL d   1      10.856   7.188  -8.284  0.00  0.00    -0.344 N 
ATOM     19  C   UNL d   1      10.181   5.900  -8.417  0.00  0.00     0.137 C 
ATOM     20  C   UNL d   1       9.007   6.009  -9.397  0.00  0.00     0.274 C 
BRANCH  18  21
ATOM     21  C   UNL d   1      11.092   7.771  -7.024  0.00  0.00     0.056 A 
ATOM     22  C   UNL d   1      11.236   6.956  -5.875  0.00  0.00     0.018 A 
ATOM     23  C   UNL d   1      11.467   7.517  -4.610  0.00  0.00     0.013 A 
ATOM     24  C   UNL d   1      11.575   8.911  -4.470  0.00  0.00     0.058 A 
ATOM     25  C   UNL d   1      11.445   9.738  -5.601  0.00  0.00     0.013 A 
ATOM     26 CL   UNL d   1      11.863   9.592  -2.915  0.00  0.00    -0.082 Cl
ATOM     27  C   UNL d   1      11.204   9.174  -6.869  0.00  0.00     0.018 A 
ENDBRANCH  18  21
ENDBRANCH   1  15
TORSDOF 8
