REMARK  6 active torsions:
REMARK  status: ('A' for Active; 'I' for Inactive)
REMARK    1  A    between atoms: N_11  and  C_12 
REMARK    2  A    between atoms: C_12  and  C_13 
REMARK    3  A    between atoms: C_13  and  C_14 
REMARK    4  A    between atoms: C_14  and  C_15 
REMARK    5  A    between atoms: C_15  and  N_16 
REMARK    6  A    between atoms: N_19  and  C_20 
ROOT
ATOM      1  C   UNL d   1       8.628   5.747 -10.785  0.00  0.00     0.037 C 
ENDROOT
BRANCH   1   2
ATOM      2  C   UNL d   1       8.903   4.587 -11.755  0.00  0.00     0.027 C 
BRANCH   2   3
ATOM      3  C   UNL d   1       9.093   5.029 -13.224  0.00  0.00     0.109 C 
BRANCH   3   4
ATOM      4  N   UNL d   1       9.619   3.943 -14.079  0.00  0.00    -0.300 N 
ATOM      5  C   UNL d   1      10.947   3.917 -14.375  0.00  0.00     0.238 C 
ATOM      6  O   UNL d   1      11.744   4.784 -14.016  0.00  0.00    -0.272 OA
ATOM      7  C   UNL d   1      11.511   2.735 -15.160  0.00  0.00     0.093 C 
ATOM      8  C   UNL d   1      10.520   2.184 -16.189  0.00  0.00     0.038 C 
ATOM      9  C   UNL d   1       9.141   2.026 -15.587  0.00  0.00    -0.006 A 
ATOM     10  C   UNL d   1       8.720   2.924 -14.572  0.00  0.00     0.058 A 
ATOM     11  C   UNL d   1       8.273   1.020 -16.072  0.00  0.00    -0.003 A 
ATOM     12  C   UNL d   1       7.394   2.801 -14.073  0.00  0.00     0.017 A 
ATOM     13  C   UNL d   1       6.551   1.772 -14.530  0.00  0.00     0.002 A 
ATOM     14  C   UNL d   1       6.977   0.884 -15.534  0.00  0.00    -0.000 A 
ENDBRANCH   3   4
ENDBRANCH   2   3
ENDBRANCH   1   2
BRANCH   1  15
ATOM     15  C   UNL d   1       9.923   6.385 -10.243  0.00  0.00     0.251 C 
BRANCH  15  16
ATOM     16  N   UNL d   1       9.710   7.170  -9.030  0.00  0.00     0.141 N 
ATOM     17  C   UNL d   1       9.509   6.284  -7.873  0.00  0.00     0.274 C 
ATOM     18  C   UNL d   1       9.250   7.112  -6.606  0.00  0.00     0.137 C 
ATOM     19  N   UNL d   1      10.327   8.069  -6.400  0.00  0.00    -0.344 N 
ATOM     20  C   UNL d   1      10.654   8.901  -7.545  0.00  0.00     0.137 C 
ATOM     21  C   UNL d   1      10.881   8.019  -8.789  0.00  0.00     0.274 C 
BRANCH  19  22
ATOM     22  C   UNL d   1      11.061   8.128  -5.205  0.00  0.00     0.056 A 
ATOM     23  C   UNL d   1      11.457   6.944  -4.548  0.00  0.00     0.017 A 
ATOM     24  C   UNL d   1      12.167   7.000  -3.330  0.00  0.00     0.002 A 
ATOM     25  C   UNL d   1      12.468   8.244  -2.749  0.00  0.00     0.000 A 
ATOM     26  C   UNL d   1      12.059   9.428  -3.390  0.00  0.00     0.002 A 
ATOM     27  C   UNL d   1      11.377   9.373  -4.621  0.00  0.00     0.017 A 
ENDBRANCH  19  22
ENDBRANCH  15  16
ENDBRANCH   1  15
TORSDOF 6
