REMARK  12 active torsions:
REMARK  status: ('A' for Active; 'I' for Inactive)
REMARK    1  A    between atoms: N_2  and  C_3 
REMARK    2  A    between atoms: N_2  and  C_19 
REMARK    3  A    between atoms: C_3  and  C_4 
REMARK    4  A    between atoms: C_4  and  C_5 
REMARK    5  A    between atoms: C_5  and  S_6 
REMARK    6  A    between atoms: S_6  and  C_7 
REMARK    7  A    between atoms: C_10  and  C_11 
REMARK    8  A    between atoms: C_19  and  C_20 
REMARK    9  A    between atoms: C_22  and  C_23 
REMARK   10  A    between atoms: C_29  and  O_30 
REMARK   11  A    between atoms: O_30  and  C_31 
REMARK   12  A    between atoms: C_31  and  C_32 
ROOT
ATOM      1  C   UNL d   1      11.427   3.048 -16.274  0.00  0.00     0.285 C 
ATOM      2  N   UNL d   1       9.986   2.889 -16.054  0.00  0.00     0.139 N 
ENDROOT
BRANCH   2   3
ATOM      3  C   UNL d   1       9.738   2.575 -14.647  0.00  0.00     0.251 C 
BRANCH   3   4
ATOM      4  C   UNL d   1       9.742   3.853 -13.784  0.00  0.00     0.047 C 
BRANCH   4   5
ATOM      5  C   UNL d   1       8.363   4.550 -13.734  0.00  0.00     0.067 C 
BRANCH   5   6
ATOM      6  S   UNL d   1       7.680   4.633 -12.049  0.00  0.00    -0.075 SA
BRANCH   6   7
ATOM      7  C   UNL d   1       8.641   5.952 -11.382  0.00  0.00     0.193 A 
ATOM      8  N   UNL d   1       9.057   5.990 -10.099  0.00  0.00    -0.289 N 
ATOM      9  C   UNL d   1       9.675   7.189 -10.047  0.00  0.00     0.167 A 
ATOM     10  C   UNL d   1       8.835   5.032  -9.027  0.00  0.00     0.134 C 
ATOM     11  N   UNL d   1       9.684   7.831 -11.223  0.00  0.00    -0.128 NA
ATOM     12  N   UNL d   1       9.018   7.013 -12.096  0.00  0.00    -0.122 NA
BRANCH   9  13
ATOM     13  C   UNL d   1      10.287   7.777  -8.864  0.00  0.00     0.036 A 
ATOM     14  C   UNL d   1       9.542   7.958  -7.680  0.00  0.00     0.003 A 
ATOM     15  C   UNL d   1      10.152   8.529  -6.547  0.00  0.00     0.000 A 
ATOM     16  C   UNL d   1      11.502   8.929  -6.596  0.00  0.00     0.000 A 
ATOM     17  C   UNL d   1      12.243   8.755  -7.779  0.00  0.00     0.000 A 
ATOM     18  C   UNL d   1      11.636   8.184  -8.914  0.00  0.00     0.003 A 
ENDBRANCH   9  13
ENDBRANCH   6   7
ENDBRANCH   5   6
ENDBRANCH   4   5
ENDBRANCH   3   4
ENDBRANCH   2   3
BRANCH   2  19
ATOM     19  C   UNL d   1       9.525   1.832 -16.958  0.00  0.00     0.251 C 
BRANCH  19  20
ATOM     20  C   UNL d   1       8.018   1.630 -16.913  0.00  0.00     0.038 A 
ATOM     21  C   UNL d   1       7.441   0.226 -16.835  0.00  0.00     0.026 A 
ATOM     22  C   UNL d   1       7.290   1.033 -18.099  0.00  0.00     0.007 A 
BRANCH  21  23
ATOM     23  C   UNL d   1       6.266  -0.096 -15.960  0.00  0.00     0.002 A 
ATOM     24  C   UNL d   1       5.144  -0.753 -16.503  0.00  0.00     0.090 A 
ATOM     25  C   UNL d   1       4.035  -1.041 -15.661  0.00  0.00     0.026 A 
ATOM     26  C   UNL d   1       4.043  -0.625 -14.318  0.00  0.00     0.032 A 
ATOM     27  C   UNL d   1       5.176   0.010 -13.785  0.00  0.00     0.140 A 
ATOM     28  C   UNL d   1       6.289   0.274 -14.605  0.00  0.00     0.027 A 
ATOM     29  F   UNL d   1       5.211   0.388 -12.483  0.00  0.00    -0.204 F 
BRANCH  24  30
ATOM     30  O   UNL d   1       5.189  -1.081 -17.841  0.00  0.00    -0.328 OA
BRANCH  30  31
ATOM     31  C   UNL d   1       4.104  -1.784 -18.421  0.00  0.00     0.187 C 
BRANCH  31  32
ATOM     32  C   UNL d   1       4.325  -1.839 -19.935  0.00  0.00     0.226 C 
ATOM     33  F   UNL d   1       5.411  -2.552 -20.236  0.00  0.00    -0.232 F 
ENDBRANCH  31  32
ENDBRANCH  30  31
ENDBRANCH  24  30
ENDBRANCH  21  23
ENDBRANCH  19  20
ENDBRANCH   2  19
TORSDOF 12
