REMARK  6 active torsions:
REMARK  status: ('A' for Active; 'I' for Inactive)
REMARK    1  A    between atoms: N_10  and  C_11 
REMARK    2  A    between atoms: C_11  and  C_12 
REMARK    3  A    between atoms: C_14  and  C_15 
REMARK    4  A    between atoms: C_15  and  C_16 
REMARK    5  A    between atoms: C_16  and  N_17 
REMARK       I    between atoms: N_17  and  C_18 
REMARK    6  A    between atoms: C_18  and  C_20 
ROOT
ATOM      1  N   UNL d   1       3.273  -0.841 -14.416  0.00  0.00    -0.191 NA
ATOM      2  C   UNL d   1       4.320  -0.376 -14.587  0.00  0.00     0.101 C 
ATOM      3  C   UNL d   1       5.633   0.226 -14.802  0.00  0.00     0.068 A 
ATOM      4  C   UNL d   1       6.583  -0.401 -15.629  0.00  0.00     0.010 A 
ATOM      5  C   UNL d   1       7.855   0.175 -15.836  0.00  0.00    -0.004 A 
ATOM      6  C   UNL d   1       8.167   1.415 -15.255  0.00  0.00    -0.022 A 
ATOM      7  C   UNL d   1       7.189   2.081 -14.490  0.00  0.00     0.008 A 
ATOM      8  C   UNL d   1       5.953   1.469 -14.222  0.00  0.00     0.008 A 
ATOM      9  C   UNL d   1       7.502   3.423 -13.871  0.00  0.00     0.276 C 
ATOM     10  N   UNL d   1       8.682   4.106 -14.409  0.00  0.00     0.142 N 
ATOM     11  C   UNL d   1       9.824   3.193 -14.447  0.00  0.00     0.255 C 
ATOM     12  C   UNL d   1       9.527   2.064 -15.461  0.00  0.00     0.061 C 
ENDROOT
BRANCH  10  13
ATOM     13  C   UNL d   1       8.968   5.304 -13.617  0.00  0.00     0.251 C 
BRANCH  13  14
ATOM     14  C   UNL d   1       8.992   5.076 -12.109  0.00  0.00     0.034 A 
ATOM     15  C   UNL d   1       8.708   6.205 -11.145  0.00  0.00     0.004 A 
ATOM     16  C   UNL d   1       7.694   5.115 -11.312  0.00  0.00     0.002 A 
BRANCH  15  17
ATOM     17  C   UNL d   1       9.430   6.301  -9.837  0.00  0.00     0.026 C 
BRANCH  17  18
ATOM     18  C   UNL d   1      10.609   7.276  -9.910  0.00  0.00     0.129 C 
BRANCH  18  19
ATOM     19  N   UNL d   1      11.044   7.611  -8.568  0.00  0.00    -0.233 NA
ATOM     20  C   UNL d   1      10.400   8.459  -7.758  0.00  0.00     0.293 C 
ATOM     21  O   UNL d   1       9.472   9.181  -8.108  0.00  0.00    -0.264 OA
BRANCH  20  22
ATOM     22  C   UNL d   1      10.903   8.499  -6.384  0.00  0.00     0.140 A 
ATOM     23  N   UNL d   1      11.099   7.288  -5.739  0.00  0.00    -0.222 NA
ATOM     24  C   UNL d   1      11.559   7.500  -4.468  0.00  0.00     0.163 A 
ATOM     25  C   UNL d   1      11.643   8.910  -4.305  0.00  0.00     0.037 A 
ATOM     26  N   UNL d   1      11.860   6.543  -3.556  0.00  0.00    -0.225 NA
ATOM     27  C   UNL d   1      11.199   9.526  -5.522  0.00  0.00     0.027 A 
ATOM     28  C   UNL d   1      12.106   9.342  -3.048  0.00  0.00     0.005 A 
ATOM     29  C   UNL d   1      12.445   8.385  -2.075  0.00  0.00     0.021 A 
ATOM     30  C   UNL d   1      12.289   7.016  -2.373  0.00  0.00     0.101 A 
ENDBRANCH  20  22
ENDBRANCH  18  19
ENDBRANCH  17  18
ENDBRANCH  15  17
ENDBRANCH  13  14
ENDBRANCH  10  13
TORSDOF 6
