REMARK  8 active torsions:
REMARK  status: ('A' for Active; 'I' for Inactive)
REMARK    1  A    between atoms: O_2  and  C_3 
REMARK    2  A    between atoms: C_8  and  N_9 
REMARK    3  A    between atoms: N_12  and  C_13 
REMARK    4  A    between atoms: C_13  and  C_14 
REMARK    5  A    between atoms: C_14  and  C_16 
REMARK    6  A    between atoms: C_16  and  C_17 
REMARK    7  A    between atoms: C_17  and  N_18 
REMARK       I    between atoms: N_18  and  C_19 
REMARK    8  A    between atoms: C_19  and  C_21 
ROOT
ATOM      1  C   UNL d   1      12.505   1.587 -18.370  0.00  0.00     0.196 C 
ATOM      2  F   UNL d   1      13.348   2.503 -18.862  0.00  0.00    -0.235 F 
ENDROOT
BRANCH   1   3
ATOM      3  C   UNL d   1      12.376   1.740 -16.844  0.00  0.00     0.285 C 
BRANCH   3   4
ATOM      4  N   UNL d   1      11.418   2.766 -16.451  0.00  0.00     0.144 N 
ATOM      5  C   UNL d   1      11.525   2.929 -14.998  0.00  0.00     0.274 C 
ATOM      6  C   UNL d   1      10.591   4.037 -14.501  0.00  0.00     0.137 C 
ATOM      7  N   UNL d   1       9.220   3.749 -14.908  0.00  0.00    -0.343 N 
ATOM      8  C   UNL d   1       9.065   3.469 -16.330  0.00  0.00     0.137 C 
ATOM      9  C   UNL d   1      10.032   2.376 -16.759  0.00  0.00     0.274 C 
BRANCH   7  10
ATOM     10  C   UNL d   1       8.135   3.790 -14.026  0.00  0.00     0.079 A 
ATOM     11  C   UNL d   1       8.039   4.782 -12.999  0.00  0.00     0.110 A 
ATOM     12  C   UNL d   1       6.939   4.754 -12.112  0.00  0.00     0.026 A 
ATOM     13  C   UNL d   1       5.931   3.781 -12.238  0.00  0.00     0.002 A 
ATOM     14  C   UNL d   1       6.005   2.819 -13.259  0.00  0.00     0.002 A 
ATOM     15  C   UNL d   1       7.103   2.821 -14.138  0.00  0.00     0.019 A 
BRANCH  11  16
ATOM     16  O   UNL d   1       9.026   5.749 -12.943  0.00  0.00    -0.327 OA
ATOM     17  C   UNL d   1       8.952   6.752 -11.950  0.00  0.00     0.181 C 
ENDBRANCH  11  16
ENDBRANCH   7  10
ENDBRANCH   3   4
ENDBRANCH   1   3
BRANCH   1  18
ATOM     18  C   UNL d   1      12.944   0.170 -18.819  0.00  0.00     0.064 C 
BRANCH  18  19
ATOM     19  C   UNL d   1      12.311  -0.281 -20.156  0.00  0.00     0.132 C 
BRANCH  19  20
ATOM     20  N   UNL d   1      10.847  -0.399 -20.057  0.00  0.00    -0.233 NA
ATOM     21  C   UNL d   1       9.954   0.522 -20.445  0.00  0.00     0.298 C 
ATOM     22  O   UNL d   1      10.253   1.558 -21.039  0.00  0.00    -0.263 OA
BRANCH  21  23
ATOM     23  C   UNL d   1       8.553   0.273 -20.067  0.00  0.00     0.157 A 
ATOM     24  O   UNL d   1       8.271  -0.741 -19.181  0.00  0.00    -0.302 OA
ATOM     25  C   UNL d   1       6.904  -0.757 -19.014  0.00  0.00     0.100 A 
ATOM     26  C   UNL d   1       6.320   0.264 -19.805  0.00  0.00     0.025 A 
ATOM     27  C   UNL d   1       6.158  -1.636 -18.216  0.00  0.00     0.025 A 
ATOM     28  C   UNL d   1       7.408   0.929 -20.453  0.00  0.00     0.032 A 
ATOM     29  C   UNL d   1       4.913   0.378 -19.774  0.00  0.00     0.002 A 
ATOM     30  C   UNL d   1       4.139  -0.505 -18.987  0.00  0.00     0.000 A 
ATOM     31  C   UNL d   1       4.756  -1.508 -18.208  0.00  0.00     0.002 A 
ENDBRANCH  21  23
ENDBRANCH  19  20
ENDBRANCH  18  19
ENDBRANCH   1  18
TORSDOF 8
