REMARK  5 active torsions:
REMARK  status: ('A' for Active; 'I' for Inactive)
REMARK    1  A    between atoms: C_2  and  C_3 
REMARK    2  A    between atoms: C_2  and  S_19 
REMARK    3  A    between atoms: C_3  and  C_5 
REMARK    4  A    between atoms: C_3  and  C_11 
REMARK    5  A    between atoms: C_5  and  N_6 
ROOT
ATOM      1  C   UNL d   1      10.039   2.974 -15.197  0.00  0.00     0.184 C 
ATOM      2  O   UNL d   1      10.683   1.828 -14.661  0.00  0.00    -0.218 OA
ENDROOT
BRANCH   1   3
ATOM      3  C   UNL d   1      11.108   3.671 -16.115  0.00  0.00     0.142 C 
ATOM      4  C   UNL d   1      12.431   3.961 -15.381  0.00  0.00     0.020 C 
BRANCH   3   5
ATOM      5  S   UNL d   1      11.475   2.833 -17.745  0.00  0.00     0.173 S 
ATOM      6  C   UNL d   1      11.864   1.094 -17.290  0.00  0.00     0.140 C 
ATOM      7  O   UNL d   1      10.264   2.827 -18.579  0.00  0.00    -0.226 OA
ATOM      8  O   UNL d   1      12.716   3.416 -18.277  0.00  0.00    -0.226 OA
ENDBRANCH   3   5
ENDBRANCH   1   3
BRANCH   1   9
ATOM      9  C   UNL d   1       8.803   2.417 -15.981  0.00  0.00     0.165 C 
BRANCH   9  10
ATOM     10  N   UNL d   1       7.856   1.701 -15.150  0.00  0.00    -0.227 N 
ATOM     11  N   UNL d   1       8.037   0.388 -14.911  0.00  0.00    -0.145 NA
ATOM     12  C   UNL d   1       6.959   0.065 -14.203  0.00  0.00     0.221 A 
ATOM     13  N   UNL d   1       6.092   1.089 -13.940  0.00  0.00    -0.201 NA
ATOM     14  C   UNL d   1       6.722   2.080 -14.556  0.00  0.00     0.197 A 
ENDBRANCH   9  10
ENDBRANCH   1   9
BRANCH   1  15
ATOM     15  C   UNL d   1       9.592   3.923 -14.059  0.00  0.00     0.036 A 
ATOM     16  C   UNL d   1       8.923   5.143 -14.300  0.00  0.00     0.141 A 
ATOM     17  C   UNL d   1       8.520   5.976 -13.229  0.00  0.00     0.059 A 
ATOM     18  F   UNL d   1       8.681   5.526 -15.572  0.00  0.00    -0.204 F 
ATOM     19  C   UNL d   1       8.805   5.604 -11.898  0.00  0.00     0.142 A 
ATOM     20  C   UNL d   1       9.455   4.402 -11.640  0.00  0.00     0.030 A 
ATOM     21  F   UNL d   1       8.476   6.388 -10.856  0.00  0.00    -0.204 F 
ATOM     22  C   UNL d   1       9.832   3.586 -12.712  0.00  0.00     0.003 A 
ENDBRANCH   1  15
TORSDOF 5
