REMARK  8 active torsions:
REMARK  status: ('A' for Active; 'I' for Inactive)
REMARK    1  A    between atoms: C_2  and  C_4 
REMARK    2  A    between atoms: C_4  and  N_5 
REMARK    3  A    between atoms: N_8  and  C_9 
REMARK    4  A    between atoms: C_9  and  C_10 
REMARK    5  A    between atoms: C_10  and  S_11 
REMARK    6  A    between atoms: S_11  and  C_13 
REMARK    7  A    between atoms: C_13  and  C_14 
REMARK    8  A    between atoms: C_13  and  C_21 
ROOT
ATOM      1  C   UNL d   1       7.756   2.044 -14.294  0.00  0.00     0.124 C 
ENDROOT
BRANCH   1   2
ATOM      2  S   UNL d   1       6.687   3.185 -13.237  0.00  0.00     0.051 S 
ATOM      3  O   UNL d   1       5.749   4.069 -14.057  0.00  0.00    -0.256 OA
BRANCH   2   4
ATOM      4  C   UNL d   1       7.969   4.206 -12.373  0.00  0.00     0.128 C 
BRANCH   4   5
ATOM      5  C   UNL d   1       7.562   4.553 -10.908  0.00  0.00     0.265 C 
BRANCH   5   6
ATOM      6  N   UNL d   1       8.421   5.601 -10.313  0.00  0.00     0.142 N 
ATOM      7  C   UNL d   1       8.325   5.601  -8.875  0.00  0.00     0.285 C 
ATOM      8  C   UNL d   1       9.038   6.788  -8.236  0.00  0.00     0.286 C 
ATOM      9  N   UNL d   1      10.465   6.749  -8.510  0.00  0.00     0.144 N 
ATOM     10  C   UNL d   1      10.618   6.739  -9.970  0.00  0.00     0.286 C 
ATOM     11  C   UNL d   1       9.857   5.550 -10.628  0.00  0.00     0.285 C 
BRANCH   9  12
ATOM     12  C   UNL d   1      11.162   7.883  -7.907  0.00  0.00     0.283 C 
BRANCH  12  13
ATOM     13  C   UNL d   1      10.903   8.099  -6.403  0.00  0.00     0.186 C 
ATOM     14  C   UNL d   1      11.229   6.861  -5.538  0.00  0.00     0.038 C 
ATOM     15  O   UNL d   1      11.682   9.198  -5.971  0.00  0.00    -0.221 OA
ENDBRANCH  12  13
ENDBRANCH   9  12
ENDBRANCH   5   6
ENDBRANCH   4   5
ENDBRANCH   2   4
ENDBRANCH   1   2
BRANCH   1  16
ATOM     16  C   UNL d   1       9.062   2.708 -14.758  0.00  0.00    -0.006 A 
ATOM     17  C   UNL d   1       9.114   4.093 -15.030  0.00  0.00    -0.001 A 
ATOM     18  C   UNL d   1      10.338   4.665 -15.473  0.00  0.00     0.029 A 
ATOM     19  C   UNL d   1      11.515   3.890 -15.572  0.00  0.00     0.140 A 
ATOM     20  C   UNL d   1      11.464   2.519 -15.286  0.00  0.00     0.029 A 
ATOM     21  F   UNL d   1      12.698   4.487 -15.893  0.00  0.00    -0.204 F 
ATOM     22  C   UNL d   1      10.246   1.933 -14.867  0.00  0.00    -0.001 A 
ENDBRANCH   1  16
BRANCH   1  23
ATOM     23  C   UNL d   1       6.939   1.390 -15.393  0.00  0.00    -0.006 A 
ATOM     24  C   UNL d   1       6.003   0.372 -15.059  0.00  0.00    -0.001 A 
ATOM     25  C   UNL d   1       5.272  -0.250 -16.084  0.00  0.00     0.029 A 
ATOM     26  C   UNL d   1       5.466   0.147 -17.420  0.00  0.00     0.140 A 
ATOM     27  C   UNL d   1       6.395   1.155 -17.743  0.00  0.00     0.029 A 
ATOM     28  F   UNL d   1       4.744  -0.409 -18.412  0.00  0.00    -0.204 F 
ATOM     29  C   UNL d   1       7.126   1.776 -16.733  0.00  0.00    -0.001 A 
ENDBRANCH   1  23
TORSDOF 8
