REMARK  3 active torsions:
REMARK  status: ('A' for Active; 'I' for Inactive)
REMARK    1  A    between atoms: C_2  and  C_3 
REMARK    2  A    between atoms: C_3  and  N_4 
REMARK    3  A    between atoms: C_11  and  C_12 
ROOT
ATOM      1  N   UNL d   1      10.019   4.180 -13.705  0.00  0.00     0.140 N 
ATOM      2  C   UNL d   1       9.751   2.816 -13.288  0.00  0.00     0.282 C 
ATOM      3  C   UNL d   1       9.263   1.883 -14.413  0.00  0.00     0.178 C 
ATOM      4  O   UNL d   1      10.199   1.901 -15.484  0.00  0.00    -0.348 OA
ATOM      5  C   UNL d   1      10.450   3.212 -15.991  0.00  0.00     0.169 C 
ATOM      6  C   UNL d   1      11.418   3.212 -17.160  0.00  0.00     0.003 A 
ATOM      7  C   UNL d   1      11.742   2.029 -17.854  0.00  0.00     0.001 A 
ATOM      8  C   UNL d   1      12.639   2.058 -18.944  0.00  0.00     0.035 A 
ATOM      9  C   UNL d   1      13.204   3.300 -19.330  0.00  0.00     0.003 A 
ATOM     10  C   UNL d   1      12.876   4.482 -18.641  0.00  0.00    -0.004 A 
ATOM     11  C   UNL d   1      11.982   4.442 -17.556  0.00  0.00    -0.024 A 
ATOM     12  C   UNL d   1      11.605   5.701 -16.800  0.00  0.00     0.028 C 
ATOM     13  C   UNL d   1      11.565   5.474 -15.278  0.00  0.00     0.041 C 
ATOM     14  C   UNL d   1      10.963   4.114 -14.830  0.00  0.00     0.251 C 
ENDROOT
BRANCH   1  15
ATOM     15  C   UNL d   1       8.775   4.911 -13.977  0.00  0.00     0.250 C 
BRANCH  15  16
ATOM     16  C   UNL d   1       7.795   5.069 -12.799  0.00  0.00     0.035 C 
ATOM     17  C   UNL d   1       8.367   5.950 -11.681  0.00  0.00     0.002 C 
ENDBRANCH  15  16
ENDBRANCH   1  15
BRANCH   8  18
ATOM     18  C   UNL d   1      12.968   0.789 -19.651  0.00  0.00     0.173 C 
ATOM     19  C   UNL d   1      13.911   0.870 -20.850  0.00  0.00     0.077 C 
ATOM     20  O   UNL d   1      12.523  -0.311 -19.322  0.00  0.00    -0.291 OA
ENDBRANCH   8  18
TORSDOF 3
