REMARK  4 active torsions:
REMARK  status: ('A' for Active; 'I' for Inactive)
REMARK    1  A    between atoms: C_7  and  N_8 
REMARK    2  A    between atoms: N_11  and  C_12 
REMARK    3  A    between atoms: C_12  and  C_13 
REMARK    4  A    between atoms: C_17  and  C_18 
ROOT
ATOM      1  N   UNL d   1      11.583   3.220 -17.767  0.00  0.00    -0.343 N 
ATOM      2  C   UNL d   1      12.362   2.735 -16.627  0.00  0.00     0.137 C 
ATOM      3  C   UNL d   1      11.412   1.969 -15.711  0.00  0.00     0.275 C 
ATOM      4  N   UNL d   1      10.757   0.854 -16.398  0.00  0.00     0.145 N 
ATOM      5  C   UNL d   1       9.976   1.363 -17.535  0.00  0.00     0.275 C 
ATOM      6  C   UNL d   1      10.861   2.182 -18.496  0.00  0.00     0.137 C 
ENDROOT
BRANCH   4   7
ATOM      7  C   UNL d   1       9.908   0.086 -15.481  0.00  0.00     0.277 C 
BRANCH   7   8
ATOM      8  C   UNL d   1       8.626   0.778 -15.020  0.00  0.00     0.011 A 
ATOM      9  C   UNL d   1       8.685   2.011 -14.333  0.00  0.00    -0.002 A 
ATOM     10  C   UNL d   1       7.518   2.740 -14.039  0.00  0.00    -0.000 A 
ATOM     11  C   UNL d   1       6.266   2.127 -14.290  0.00  0.00    -0.000 A 
ATOM     12  C   UNL d   1       6.191   0.849 -14.894  0.00  0.00    -0.000 A 
ATOM     13  C   UNL d   1       7.370   0.192 -15.298  0.00  0.00    -0.002 A 
BRANCH  10  14
ATOM     14  C   UNL d   1       7.632   4.076 -13.392  0.00  0.00    -0.000 A 
ATOM     15  C   UNL d   1       8.834   4.832 -13.463  0.00  0.00    -0.000 A 
ATOM     16  C   UNL d   1       8.946   6.083 -12.828  0.00  0.00    -0.000 A 
ATOM     17  C   UNL d   1       7.854   6.606 -12.128  0.00  0.00     0.000 A 
ATOM     18  C   UNL d   1       6.659   5.876 -12.037  0.00  0.00    -0.000 A 
ATOM     19  C   UNL d   1       6.557   4.618 -12.651  0.00  0.00    -0.000 A 
ENDBRANCH  10  14
ENDBRANCH   7   8
ENDBRANCH   4   7
BRANCH   1  20
ATOM     20  C   UNL d   1      11.553   4.582 -18.143  0.00  0.00     0.081 A 
ATOM     21  C   UNL d   1      12.659   5.420 -17.903  0.00  0.00     0.136 A 
ATOM     22  O   UNL d   1      13.870   5.133 -17.343  0.00  0.00    -0.256 OA
ATOM     23  C   UNL d   1      12.644   6.754 -18.267  0.00  0.00     0.089 A 
ATOM     24  C   UNL d   1      14.640   6.257 -17.308  0.00  0.00     0.374 A 
ATOM     25  N   UNL d   1      13.878   7.273 -17.888  0.00  0.00    -0.272 N 
ATOM     26  O   UNL d   1      15.776   6.314 -16.842  0.00  0.00    -0.237 OA
ATOM     27  C   UNL d   1      14.309   8.650 -18.082  0.00  0.00     0.136 C 
ATOM     28  C   UNL d   1      11.547   7.348 -18.901  0.00  0.00     0.019 A 
ATOM     29  C   UNL d   1      10.423   6.534 -19.156  0.00  0.00     0.003 A 
ATOM     30  C   UNL d   1      10.425   5.164 -18.781  0.00  0.00     0.019 A 
ENDBRANCH   1  20
TORSDOF 4
