REMARK  3 active torsions:
REMARK  status: ('A' for Active; 'I' for Inactive)
REMARK    1  A    between atoms: C_2  and  C_3 
REMARK       I    between atoms: C_2  and  N_24 
REMARK    2  A    between atoms: C_7  and  C_8 
REMARK    3  A    between atoms: C_8  and  N_9 
ROOT
ATOM      1  C   UNL d   1       9.408   0.727 -18.411  0.00  0.00     0.056 A 
ATOM      2  C   UNL d   1      10.282  -0.283 -17.958  0.00  0.00     0.005 A 
ATOM      3  C   UNL d   1      11.653  -0.208 -18.256  0.00  0.00    -0.000 A 
ATOM      4  C   UNL d   1      12.142   0.849 -19.039  0.00  0.00    -0.002 A 
ATOM      5  C   UNL d   1      11.278   1.861 -19.505  0.00  0.00     0.011 A 
ATOM      6  C   UNL d   1       9.901   1.789 -19.200  0.00  0.00     0.002 A 
ENDROOT
BRANCH   5   7
ATOM      7  C   UNL d   1      11.801   3.014 -20.345  0.00  0.00     0.277 C 
BRANCH   7   8
ATOM      8  N   UNL d   1      12.459   4.056 -19.555  0.00  0.00     0.145 N 
ATOM      9  C   UNL d   1      12.506   5.311 -20.319  0.00  0.00     0.275 C 
ATOM     10  C   UNL d   1      13.201   6.432 -19.500  0.00  0.00     0.145 C 
ATOM     11  N   UNL d   1      14.545   5.992 -19.132  0.00  0.00    -0.342 N 
ATOM     12  C   UNL d   1      13.272   7.745 -20.298  0.00  0.00     0.173 C 
ATOM     13  C   UNL d   1      14.556   4.717 -18.425  0.00  0.00     0.137 C 
ATOM     14  C   UNL d   1      15.522   6.979 -18.891  0.00  0.00     0.079 A 
ATOM     15  C   UNL d   1      13.843   3.661 -19.272  0.00  0.00     0.275 C 
ATOM     16  C   UNL d   1      15.227   8.347 -19.127  0.00  0.00     0.110 A 
ATOM     17  C   UNL d   1      16.817   6.625 -18.443  0.00  0.00     0.019 A 
ATOM     18  C   UNL d   1      16.205   9.331 -18.879  0.00  0.00     0.026 A 
ATOM     19  O   UNL d   1      13.996   8.745 -19.598  0.00  0.00    -0.327 OA
ATOM     20  C   UNL d   1      17.493   8.968 -18.446  0.00  0.00     0.002 A 
ATOM     21  C   UNL d   1      17.797   7.612 -18.235  0.00  0.00     0.002 A 
ENDBRANCH   7   8
ENDBRANCH   5   7
BRANCH   1  22
ATOM     22  C   UNL d   1       7.942   0.633 -18.128  0.00  0.00     0.261 C 
ATOM     23  O   UNL d   1       7.145   0.800 -19.052  0.00  0.00    -0.267 OA
ATOM     24  N   UNL d   1       7.588   0.417 -16.839  0.00  0.00    -0.296 N 
ATOM     25  C   UNL d   1       6.345  -0.098 -16.424  0.00  0.00     0.059 A 
ATOM     26  C   UNL d   1       8.376   0.847 -15.671  0.00  0.00     0.114 A 
ATOM     27  C   UNL d   1       6.209   0.044 -15.048  0.00  0.00    -0.004 A 
ATOM     28  C   UNL d   1       5.353  -0.746 -17.191  0.00  0.00     0.017 A 
ATOM     29  C   UNL d   1       7.430   0.699 -14.457  0.00  0.00     0.052 A 
ATOM     30  C   UNL d   1       5.060  -0.412 -14.383  0.00  0.00    -0.003 A 
ATOM     31  C   UNL d   1       4.046  -1.042 -15.140  0.00  0.00    -0.000 A 
ATOM     32  C   UNL d   1       4.199  -1.212 -16.535  0.00  0.00     0.002 A 
ENDBRANCH   1  22
TORSDOF 3
