REMARK  9 active torsions:
REMARK  status: ('A' for Active; 'I' for Inactive)
REMARK    1  A    between atoms: C_2  and  C_4 
REMARK    2  A    between atoms: C_9  and  O_10 
REMARK    3  A    between atoms: O_10  and  C_11 
REMARK    4  A    between atoms: C_11  and  C_12 
REMARK    5  A    between atoms: C_12  and  C_13 
REMARK    6  A    between atoms: C_13  and  N_14 
REMARK    7  A    between atoms: N_17  and  C_18 
REMARK    8  A    between atoms: N_26  and  C_27 
REMARK    9  A    between atoms: C_27  and  C_28 
ROOT
ATOM      1  N   UNL d   1       7.519   3.625 -13.087  0.00  0.00     0.141 N 
ATOM      2  C   UNL d   1       8.196   2.904 -14.170  0.00  0.00     0.274 C 
ATOM      3  C   UNL d   1       7.848   1.401 -14.152  0.00  0.00     0.137 C 
ATOM      4  N   UNL d   1       6.387   1.243 -14.160  0.00  0.00    -0.344 N 
ATOM      5  C   UNL d   1       5.661   1.995 -13.124  0.00  0.00     0.137 C 
ATOM      6  C   UNL d   1       6.063   3.478 -13.180  0.00  0.00     0.274 C 
ENDROOT
BRANCH   4   7
ATOM      7  C   UNL d   1       5.742   0.430 -15.074  0.00  0.00     0.058 A 
ATOM      8  C   UNL d   1       6.136   0.353 -16.454  0.00  0.00     0.033 A 
ATOM      9  C   UNL d   1       5.385  -0.497 -17.323  0.00  0.00     0.062 A 
ATOM     10  C   UNL d   1       7.157   0.991 -17.257  0.00  0.00     0.021 A 
ATOM     11  C   UNL d   1       4.267  -1.218 -16.848  0.00  0.00     0.017 A 
ATOM     12  N   UNL d   1       5.976  -0.410 -18.584  0.00  0.00    -0.322 N 
ATOM     13  C   UNL d   1       3.909  -1.147 -15.497  0.00  0.00     0.003 A 
ATOM     14  C   UNL d   1       4.627  -0.325 -14.619  0.00  0.00     0.017 A 
ATOM     15  C   UNL d   1       7.036   0.489 -18.525  0.00  0.00     0.076 A 
BRANCH  12  16
ATOM     16  C   UNL d   1       5.561  -1.091 -19.804  0.00  0.00     0.133 C 
BRANCH  16  17
ATOM     17  C   UNL d   1       5.435  -2.596 -19.613  0.00  0.00     0.001 A 
ATOM     18  C   UNL d   1       6.580  -3.425 -19.657  0.00  0.00     0.009 A 
ATOM     19  C   UNL d   1       6.465  -4.809 -19.412  0.00  0.00     0.058 A 
ATOM     20  C   UNL d   1       5.207  -5.365 -19.102  0.00  0.00     0.011 A 
ATOM     21 CL   UNL d   1       7.858  -5.822 -19.489  0.00  0.00    -0.082 Cl
ATOM     22  C   UNL d   1       4.064  -4.543 -19.064  0.00  0.00     0.001 A 
ATOM     23  C   UNL d   1       4.169  -3.167 -19.367  0.00  0.00    -0.002 A 
ENDBRANCH  16  17
ENDBRANCH  12  16
ENDBRANCH   4   7
BRANCH   1  24
ATOM     24  C   UNL d   1       7.889   5.040 -13.085  0.00  0.00     0.253 C 
BRANCH  24  25
ATOM     25  C   UNL d   1       9.096   5.268 -12.168  0.00  0.00     0.068 C 
BRANCH  25  26
ATOM     26  C   UNL d   1       9.195   6.756 -11.781  0.00  0.00     0.151 C 
BRANCH  26  27
ATOM     27  O   UNL d   1      10.224   6.987 -10.835  0.00  0.00    -0.331 OA
BRANCH  27  28
ATOM     28  C   UNL d   1       9.945   6.868  -9.493  0.00  0.00     0.099 A 
ATOM     29  C   UNL d   1      10.777   7.546  -8.560  0.00  0.00     0.082 A 
ATOM     30  C   UNL d   1      10.530   7.445  -7.175  0.00  0.00     0.007 A 
ATOM     31  C   UNL d   1       9.447   6.686  -6.713  0.00  0.00     0.000 A 
ATOM     32  C   UNL d   1       8.635   5.997  -7.629  0.00  0.00     0.002 A 
ATOM     33  C   UNL d   1       8.866   6.091  -9.005  0.00  0.00     0.024 A 
BRANCH  29  34
ATOM     34  C   UNL d   1      11.931   8.383  -9.011  0.00  0.00     0.299 C 
ATOM     35  N   UNL d   1      11.692   9.185 -10.046  0.00  0.00    -0.102 N 
ATOM     36  O   UNL d   1      13.007   8.383  -8.427  0.00  0.00    -0.264 OA
ENDBRANCH  29  34
ENDBRANCH  27  28
ENDBRANCH  26  27
ENDBRANCH  25  26
ENDBRANCH  24  25
ENDBRANCH   1  24
TORSDOF 9
