REMARK  2 active torsions:
REMARK  status: ('A' for Active; 'I' for Inactive)
REMARK    1  A    between atoms: C_2  and  C_3 
REMARK    2  A    between atoms: C_3  and  N_4 
ROOT
ATOM      1  N   UNL d   1       9.633   3.439 -14.600  0.00  0.00     0.140 N 
ATOM      2  C   UNL d   1       9.824   4.801 -15.100  0.00  0.00     0.282 C 
ATOM      3  C   UNL d   1      11.228   5.043 -15.657  0.00  0.00     0.178 C 
ATOM      4  O   UNL d   1      11.505   4.096 -16.674  0.00  0.00    -0.348 OA
ATOM      5  C   UNL d   1      11.395   2.751 -16.218  0.00  0.00     0.169 C 
ATOM      6  C   UNL d   1      11.851   1.775 -17.295  0.00  0.00     0.003 A 
ATOM      7  C   UNL d   1      12.956   2.115 -18.106  0.00  0.00     0.003 A 
ATOM      8  C   UNL d   1      13.445   1.223 -19.082  0.00  0.00     0.059 A 
ATOM      9  C   UNL d   1      12.804  -0.026 -19.246  0.00  0.00    -0.015 A 
ATOM     10  C   UNL d   1      11.697  -0.373 -18.445  0.00  0.00    -0.009 A 
ATOM     11  C   UNL d   1      11.221   0.518 -17.462  0.00  0.00    -0.024 A 
ATOM     12  C   UNL d   1      10.021   0.119 -16.619  0.00  0.00     0.028 C 
ATOM     13  C   UNL d   1       9.799   0.994 -15.374  0.00  0.00     0.041 C 
ATOM     14  C   UNL d   1       9.953   2.498 -15.695  0.00  0.00     0.251 C 
ATOM     15  C   UNL d   1      13.327  -0.981 -20.293  0.00  0.00     0.059 C 
ATOM     16  C   UNL d   1      14.834  -0.775 -20.462  0.00  0.00     0.157 C 
ATOM     17  O   UNL d   1      15.160   0.596 -20.670  0.00  0.00    -0.298 OA
ATOM     18  C   UNL d   1      14.626   1.598 -19.918  0.00  0.00     0.295 C 
ATOM     19  O   UNL d   1      15.094   2.737 -19.947  0.00  0.00    -0.259 OA
ENDROOT
BRANCH   1  20
ATOM     20  C   UNL d   1       8.280   3.277 -14.046  0.00  0.00     0.250 C 
BRANCH  20  21
ATOM     21  C   UNL d   1       7.929   4.188 -12.856  0.00  0.00     0.035 C 
ATOM     22  C   UNL d   1       6.468   4.061 -12.421  0.00  0.00     0.002 C 
ENDBRANCH  20  21
ENDBRANCH   1  20
TORSDOF 2
