REMARK  6 active torsions:
REMARK  status: ('A' for Active; 'I' for Inactive)
REMARK    1  A    between atoms: N_11  and  C_12 
REMARK    2  A    between atoms: C_12  and  C_13 
REMARK    3  A    between atoms: C_13  and  C_14 
REMARK    4  A    between atoms: C_14  and  C_15 
REMARK    5  A    between atoms: C_15  and  N_16 
REMARK    6  A    between atoms: N_19  and  C_20 
ROOT
ATOM      1  N   UNL d   1       8.618   5.363 -11.122  0.00  0.00     0.141 N 
ATOM      2  C   UNL d   1       9.343   4.301 -11.823  0.00  0.00     0.274 C 
ATOM      3  C   UNL d   1       8.711   4.037 -13.200  0.00  0.00     0.137 C 
ATOM      4  N   UNL d   1       7.271   3.781 -13.133  0.00  0.00    -0.344 N 
ATOM      5  C   UNL d   1       6.532   4.773 -12.356  0.00  0.00     0.137 C 
ATOM      6  C   UNL d   1       7.213   4.973 -11.001  0.00  0.00     0.274 C 
ENDROOT
BRANCH   1   7
ATOM      7  C   UNL d   1       9.128   5.557  -9.761  0.00  0.00     0.251 C 
BRANCH   7   8
ATOM      8  C   UNL d   1      10.325   6.500  -9.801  0.00  0.00     0.037 C 
BRANCH   8   9
ATOM      9  C   UNL d   1      11.024   6.682  -8.437  0.00  0.00     0.027 C 
BRANCH   9  10
ATOM     10  C   UNL d   1      10.054   7.316  -7.432  0.00  0.00     0.109 C 
BRANCH  10  11
ATOM     11  N   UNL d   1      10.761   8.330  -6.647  0.00  0.00    -0.295 N 
ATOM     12  C   UNL d   1      11.180   9.448  -7.280  0.00  0.00     0.268 C 
ATOM     13  O   UNL d   1      11.148   9.588  -8.507  0.00  0.00    -0.269 OA
ATOM     14  C   UNL d   1      11.789  10.537  -6.414  0.00  0.00     0.236 C 
ATOM     15  O   UNL d   1      11.360  10.447  -5.062  0.00  0.00    -0.319 OA
ATOM     16  C   UNL d   1      11.469   9.207  -4.482  0.00  0.00     0.110 A 
ATOM     17  C   UNL d   1      11.129   8.097  -5.288  0.00  0.00     0.085 A 
ATOM     18  C   UNL d   1      11.839   9.050  -3.134  0.00  0.00     0.026 A 
ATOM     19  C   UNL d   1      11.187   6.802  -4.724  0.00  0.00     0.019 A 
ATOM     20  C   UNL d   1      11.530   6.646  -3.372  0.00  0.00     0.002 A 
ATOM     21  C   UNL d   1      11.853   7.761  -2.575  0.00  0.00     0.002 A 
ENDBRANCH  10  11
ENDBRANCH   9  10
ENDBRANCH   8   9
ENDBRANCH   7   8
ENDBRANCH   1   7
BRANCH   4  22
ATOM     22  C   UNL d   1       6.670   2.646 -13.716  0.00  0.00     0.057 A 
ATOM     23  C   UNL d   1       7.198   2.071 -14.918  0.00  0.00     0.022 A 
ATOM     24  C   UNL d   1       6.536   0.899 -15.449  0.00  0.00     0.031 A 
ATOM     25  C   UNL d   1       8.300   2.447 -15.783  0.00  0.00     0.009 A 
ATOM     26  C   UNL d   1       5.444   0.324 -14.806  0.00  0.00     0.007 A 
ATOM     27  S   UNL d   1       7.250   0.383 -16.967  0.00  0.00    -0.086 SA
ATOM     28  C   UNL d   1       4.973   0.850 -13.618  0.00  0.00     0.002 A 
ATOM     29  C   UNL d   1       5.559   2.029 -13.077  0.00  0.00     0.017 A 
ATOM     30  C   UNL d   1       8.446   1.629 -16.862  0.00  0.00     0.035 A 
ENDBRANCH   4  22
TORSDOF 6
