REMARK  8 active torsions:
REMARK  status: ('A' for Active; 'I' for Inactive)
REMARK    1  A    between atoms: N_12  and  C_13 
REMARK    2  A    between atoms: C_13  and  C_14 
REMARK    3  A    between atoms: C_14  and  C_15 
REMARK    4  A    between atoms: C_15  and  C_16 
REMARK    5  A    between atoms: C_16  and  C_17 
REMARK    6  A    between atoms: C_17  and  C_18 
REMARK    7  A    between atoms: C_18  and  N_19 
REMARK    8  A    between atoms: N_22  and  C_23 
ROOT
ATOM      1  C   UNL d   1       8.102   4.061 -12.520  0.00  0.00     0.002 C 
ENDROOT
BRANCH   1   2
ATOM      2  C   UNL d   1       6.727   3.566 -12.995  0.00  0.00     0.002 C 
BRANCH   2   3
ATOM      3  C   UNL d   1       6.809   2.736 -14.288  0.00  0.00     0.025 C 
BRANCH   3   4
ATOM      4  C   UNL d   1       7.126   1.245 -14.057  0.00  0.00     0.112 C 
BRANCH   4   5
ATOM      5  N   UNL d   1       6.902   0.444 -15.268  0.00  0.00    -0.271 N 
ATOM      6  C   UNL d   1       5.805  -0.300 -15.488  0.00  0.00     0.239 A 
ATOM      7  O   UNL d   1       4.842  -0.413 -14.728  0.00  0.00    -0.272 OA
ATOM      8  C   UNL d   1       5.892  -1.021 -16.832  0.00  0.00     0.088 A 
ATOM      9  C   UNL d   1       7.239  -0.541 -17.399  0.00  0.00     0.088 A 
ATOM     10  C   UNL d   1       4.886  -0.537 -17.906  0.00  0.00     0.009 C 
ATOM     11  C   UNL d   1       6.834   0.154 -18.720  0.00  0.00     0.009 C 
ATOM     12  C   UNL d   1       7.754   0.389 -16.303  0.00  0.00     0.239 A 
ATOM     13  C   UNL d   1       6.410  -0.934 -19.727  0.00  0.00     0.001 C 
ATOM     14  C   UNL d   1       5.482   0.785 -18.396  0.00  0.00     0.001 C 
ATOM     15  C   UNL d   1       5.055  -1.413 -19.160  0.00  0.00     0.001 C 
ATOM     16  O   UNL d   1       8.820   0.995 -16.397  0.00  0.00    -0.272 OA
ENDBRANCH   4   5
ENDBRANCH   3   4
ENDBRANCH   2   3
ENDBRANCH   1   2
BRANCH   1  17
ATOM     17  C   UNL d   1       8.030   4.835 -11.194  0.00  0.00     0.035 C 
BRANCH  17  18
ATOM     18  C   UNL d   1       9.421   5.304 -10.744  0.00  0.00     0.250 C 
BRANCH  18  19
ATOM     19  N   UNL d   1       9.329   6.350  -9.728  0.00  0.00     0.141 N 
ATOM     20  C   UNL d   1       9.199   5.766  -8.389  0.00  0.00     0.274 C 
ATOM     21  C   UNL d   1       9.057   6.870  -7.321  0.00  0.00     0.137 C 
ATOM     22  N   UNL d   1      10.197   7.787  -7.395  0.00  0.00    -0.344 N 
ATOM     23  C   UNL d   1      10.403   8.346  -8.737  0.00  0.00     0.137 C 
ATOM     24  C   UNL d   1      10.511   7.212  -9.773  0.00  0.00     0.274 C 
BRANCH  22  25
ATOM     25  C   UNL d   1      11.016   8.108  -6.289  0.00  0.00     0.057 A 
ATOM     26  C   UNL d   1      11.065   7.279  -5.129  0.00  0.00     0.028 A 
ATOM     27  C   UNL d   1      11.858   7.635  -4.017  0.00  0.00     0.059 A 
ATOM     28  C   UNL d   1      12.648   8.793  -4.043  0.00  0.00     0.011 A 
ATOM     29 CL   UNL d   1      11.894   6.665  -2.596  0.00  0.00    -0.082 Cl
ATOM     30  C   UNL d   1      12.661   9.578  -5.196  0.00  0.00     0.002 A 
ATOM     31  C   UNL d   1      11.831   9.276  -6.291  0.00  0.00     0.017 A 
ENDBRANCH  22  25
ENDBRANCH  18  19
ENDBRANCH  17  18
ENDBRANCH   1  17
TORSDOF 8
