REMARK  1 active torsions:
REMARK  status: ('A' for Active; 'I' for Inactive)
REMARK    1  A    between atoms: O_2  and  C_3 
ROOT
ATOM      1  C   UNL d   1      11.632   8.601  -3.868  0.00  0.00     0.119 A 
ATOM      2  C   UNL d   1      11.805   7.205  -4.021  0.00  0.00     0.026 A 
ATOM      3  C   UNL d   1      11.352   6.582  -5.181  0.00  0.00    -0.002 A 
ATOM      4  C   UNL d   1      10.672   7.254  -6.196  0.00  0.00    -0.020 A 
ATOM      5  C   UNL d   1      10.544   8.640  -6.080  0.00  0.00     0.034 A 
ATOM      6  C   UNL d   1      11.011   9.308  -4.917  0.00  0.00     0.151 A 
ATOM      7  O   UNL d   1      10.771  10.635  -4.767  0.00  0.00    -0.188 OA
ATOM      8  C   UNL d   1       9.829   9.368  -7.190  0.00  0.00     0.279 C 
ATOM      9  N   UNL d   1       9.775   8.712  -8.466  0.00  0.00     0.144 N 
ATOM     10  C   UNL d   1      11.001   8.833  -9.200  0.00  0.00     0.256 C 
ATOM     11  C   UNL d   1      10.659   8.457 -10.637  0.00  0.00     0.061 C 
ATOM     12  C   UNL d   1       9.816   7.188 -10.829  0.00  0.00    -0.020 C 
ATOM     13  C   UNL d   1       9.521   6.717 -12.101  0.00  0.00     0.025 C 
ATOM     14  C   UNL d   1       8.772   5.532 -12.288  0.00  0.00     0.156 C 
ATOM     15  O   UNL d   1       8.723   4.948 -13.512  0.00  0.00    -0.188 OA
ATOM     16  C   UNL d   1       8.079   5.011 -11.190  0.00  0.00     0.156 C 
ATOM     17  O   UNL d   1       7.145   4.058 -11.412  0.00  0.00    -0.188 OA
ATOM     18  C   UNL d   1       8.310   5.545  -9.889  0.00  0.00     0.027 C 
ATOM     19  C   UNL d   1       9.166   6.638  -9.705  0.00  0.00     0.007 C 
ATOM     20  C   UNL d   1       9.284   7.322  -8.352  0.00  0.00     0.246 C 
ATOM     21  C   UNL d   1      10.179   6.499  -7.431  0.00  0.00     0.064 C 
ENDROOT
BRANCH   1  22
ATOM     22  O   UNL d   1      11.978   9.271  -2.719  0.00  0.00    -0.326 OA
ATOM     23  C   UNL d   1      12.882   8.573  -1.864  0.00  0.00     0.181 C 
ENDBRANCH   1  22
TORSDOF 1
