REMARK  4 active torsions:
REMARK  status: ('A' for Active; 'I' for Inactive)
REMARK    1  A    between atoms: N_4  and  C_5 
REMARK    2  A    between atoms: C_12  and  C_13 
REMARK    3  A    between atoms: C_13  and  N_14 
REMARK    4  A    between atoms: N_17  and  C_18 
ROOT
ATOM      1  C   UNL d   1       7.996   6.050 -11.486  0.00  0.00     0.280 C 
ENDROOT
BRANCH   1   2
ATOM      2  C   UNL d   1       8.032   4.914 -12.470  0.00  0.00     0.045 A 
ATOM      3  C   UNL d   1       6.925   4.216 -13.026  0.00  0.00     0.079 A 
ATOM      4  C   UNL d   1       5.466   4.422 -12.744  0.00  0.00     0.054 C 
ATOM      5  N   UNL d   1       7.298   3.295 -13.902  0.00  0.00    -0.170 NA
ATOM      6  N   UNL d   1       8.649   3.358 -13.933  0.00  0.00    -0.229 N 
ATOM      7  C   UNL d   1       9.113   4.335 -13.074  0.00  0.00     0.099 A 
BRANCH   6   8
ATOM      8  C   UNL d   1       9.402   2.491 -14.764  0.00  0.00     0.083 A 
ATOM      9  C   UNL d   1      10.694   2.865 -15.198  0.00  0.00     0.019 A 
ATOM     10  C   UNL d   1      11.441   2.012 -16.034  0.00  0.00     0.002 A 
ATOM     11  C   UNL d   1      10.904   0.776 -16.438  0.00  0.00     0.000 A 
ATOM     12  C   UNL d   1       9.621   0.390 -16.004  0.00  0.00     0.002 A 
ATOM     13  C   UNL d   1       8.872   1.244 -15.172  0.00  0.00     0.019 A 
ENDBRANCH   6   8
ENDBRANCH   1   2
BRANCH   1  14
ATOM     14  N   UNL d   1       9.177   6.059 -10.616  0.00  0.00     0.146 N 
ATOM     15  C   UNL d   1       8.772   5.693  -9.253  0.00  0.00     0.275 C 
ATOM     16  C   UNL d   1       9.978   5.684  -8.299  0.00  0.00     0.137 C 
ATOM     17  N   UNL d   1      10.666   6.972  -8.343  0.00  0.00    -0.344 N 
ATOM     18  C   UNL d   1      11.022   7.427  -9.684  0.00  0.00     0.137 C 
ATOM     19  C   UNL d   1       9.777   7.401 -10.588  0.00  0.00     0.275 C 
BRANCH  17  20
ATOM     20  C   UNL d   1      10.953   7.717  -7.179  0.00  0.00     0.056 A 
ATOM     21  C   UNL d   1      11.058   9.128  -7.230  0.00  0.00     0.017 A 
ATOM     22  C   UNL d   1      11.362   9.879  -6.078  0.00  0.00     0.002 A 
ATOM     23  C   UNL d   1      11.555   9.232  -4.846  0.00  0.00     0.000 A 
ATOM     24  C   UNL d   1      11.458   7.829  -4.776  0.00  0.00     0.002 A 
ATOM     25  C   UNL d   1      11.156   7.079  -5.933  0.00  0.00     0.017 A 
ENDBRANCH  17  20
ENDBRANCH   1  14
TORSDOF 4
