REMARK  9 active torsions:
REMARK  status: ('A' for Active; 'I' for Inactive)
REMARK    1  A    between atoms: O_2  and  C_3 
REMARK    2  A    between atoms: C_7  and  N_8 
REMARK    3  A    between atoms: N_11  and  C_12 
REMARK    4  A    between atoms: C_12  and  C_13 
REMARK    5  A    between atoms: C_13  and  C_14 
REMARK    6  A    between atoms: C_14  and  C_15 
REMARK    7  A    between atoms: C_15  and  C_16 
REMARK    8  A    between atoms: C_16  and  C_17 
REMARK    9  A    between atoms: C_17  and  N_18 
ROOT
ATOM      1  C   UNL d   1       8.573   5.806 -11.582  0.00  0.00     0.035 C 
ENDROOT
BRANCH   1   2
ATOM      2  C   UNL d   1       8.971   5.908 -13.065  0.00  0.00     0.250 C 
BRANCH   2   3
ATOM      3  N   UNL d   1       9.842   4.805 -13.473  0.00  0.00     0.141 N 
ATOM      4  C   UNL d   1       9.053   3.575 -13.652  0.00  0.00     0.274 C 
ATOM      5  C   UNL d   1       9.973   2.415 -14.047  0.00  0.00     0.137 C 
ATOM      6  N   UNL d   1      10.757   2.733 -15.235  0.00  0.00    -0.344 N 
ATOM      7  C   UNL d   1      11.453   4.009 -15.171  0.00  0.00     0.137 C 
ATOM      8  C   UNL d   1      10.482   5.129 -14.755  0.00  0.00     0.274 C 
BRANCH   6   9
ATOM      9  C   UNL d   1      10.777   1.940 -16.375  0.00  0.00     0.058 A 
ATOM     10  C   UNL d   1      11.909   1.900 -17.230  0.00  0.00     0.017 A 
ATOM     11  C   UNL d   1      11.883   1.086 -18.382  0.00  0.00     0.004 A 
ATOM     12  C   UNL d   1      10.747   0.302 -18.672  0.00  0.00     0.024 A 
ATOM     13  C   UNL d   1       9.614   0.333 -17.834  0.00  0.00     0.096 A 
ATOM     14  C   UNL d   1       9.639   1.163 -16.684  0.00  0.00     0.041 A 
BRANCH  13  15
ATOM     15  O   UNL d   1       8.531  -0.442 -18.197  0.00  0.00    -0.328 OA
ATOM     16  C   UNL d   1       7.346  -0.330 -17.416  0.00  0.00     0.181 C 
ENDBRANCH  13  15
ENDBRANCH   6   9
ENDBRANCH   2   3
ENDBRANCH   1   2
BRANCH   1  17
ATOM     17  C   UNL d   1       9.738   6.168 -10.649  0.00  0.00     0.002 C 
BRANCH  17  18
ATOM     18  C   UNL d   1       9.473   7.433  -9.828  0.00  0.00     0.002 C 
BRANCH  18  19
ATOM     19  C   UNL d   1      10.768   7.949  -9.179  0.00  0.00     0.025 C 
BRANCH  19  20
ATOM     20  C   UNL d   1      10.482   8.971  -8.056  0.00  0.00     0.122 C 
BRANCH  20  21
ATOM     21  N   UNL d   1      11.154   8.609  -6.794  0.00  0.00    -0.221 N 
ATOM     22  S   UNL d   1      10.881   7.040  -6.124  0.00  0.00     0.270 S 
ATOM     23  C   UNL d   1      11.453   7.506  -4.533  0.00  0.00     0.108 A 
ATOM     24  O   UNL d   1       9.431   6.807  -6.085  0.00  0.00    -0.200 OA
ATOM     25  O   UNL d   1      11.810   6.066  -6.714  0.00  0.00    -0.200 OA
ATOM     26  C   UNL d   1      11.652   8.883  -4.487  0.00  0.00     0.069 A 
ATOM     27  C   UNL d   1      11.695   6.664  -3.436  0.00  0.00     0.013 A 
ATOM     28  C   UNL d   1      11.425   9.572  -5.801  0.00  0.00     0.271 C 
ATOM     29  C   UNL d   1      12.062   9.469  -3.273  0.00  0.00     0.005 A 
ATOM     30  O   UNL d   1      11.460  10.787  -5.973  0.00  0.00    -0.266 OA
ATOM     31  C   UNL d   1      12.313   8.648  -2.148  0.00  0.00     0.000 A 
ATOM     32  C   UNL d   1      12.146   7.243  -2.230  0.00  0.00     0.001 A 
ENDBRANCH  20  21
ENDBRANCH  19  20
ENDBRANCH  18  19
ENDBRANCH  17  18
ENDBRANCH   1  17
TORSDOF 9
