REMARK  4 active torsions:
REMARK  status: ('A' for Active; 'I' for Inactive)
REMARK    1  A    between atoms: C_5  and  C_6 
REMARK    2  A    between atoms: C_6  and  C_7 
REMARK    3  A    between atoms: C_7  and  N_8 
REMARK    4  A    between atoms: N_11  and  C_12 
ROOT
ATOM      1  N   UNL d   1       9.066   5.960  -9.587  0.00  0.00     0.141 N 
ATOM      2  C   UNL d   1       9.972   5.442  -8.580  0.00  0.00     0.274 C 
ATOM      3  C   UNL d   1       9.772   6.173  -7.259  0.00  0.00     0.138 C 
ATOM      4  N   UNL d   1       9.986   7.597  -7.435  0.00  0.00    -0.329 N 
ATOM      5  C   UNL d   1       9.157   8.163  -8.481  0.00  0.00     0.138 C 
ATOM      6  C   UNL d   1       9.381   7.372  -9.798  0.00  0.00     0.274 C 
ENDROOT
BRANCH   1   7
ATOM      7  C   UNL d   1       9.239   5.188 -10.810  0.00  0.00     0.255 C 
BRANCH   7   8
ATOM      8  C   UNL d   1       8.165   5.554 -11.849  0.00  0.00     0.063 C 
BRANCH   8   9
ATOM      9  C   UNL d   1       7.877   4.407 -12.801  0.00  0.00    -0.003 A 
ATOM     10  C   UNL d   1       6.584   3.849 -12.809  0.00  0.00    -0.003 A 
ATOM     11  C   UNL d   1       6.286   2.754 -13.642  0.00  0.00    -0.005 A 
ATOM     12  C   UNL d   1       7.273   2.215 -14.497  0.00  0.00    -0.024 A 
ATOM     13  C   UNL d   1       6.912   1.056 -15.410  0.00  0.00     0.031 C 
ATOM     14  C   UNL d   1       8.577   2.777 -14.497  0.00  0.00    -0.009 A 
ATOM     15  C   UNL d   1       8.873   3.858 -13.652  0.00  0.00     0.076 A 
ATOM     16  C   UNL d   1       9.670   2.296 -15.455  0.00  0.00     0.033 C 
ATOM     17  N   UNL d   1      10.174   4.426 -13.654  0.00  0.00    -0.212 NA
ATOM     18  C   UNL d   1      11.261   3.855 -14.206  0.00  0.00     0.256 C 
ATOM     19  C   UNL d   1      11.071   2.465 -14.826  0.00  0.00     0.094 C 
ATOM     20  O   UNL d   1      12.360   4.390 -14.191  0.00  0.00    -0.270 OA
ATOM     21  C   UNL d   1       9.553   3.042 -16.797  0.00  0.00     0.005 C 
ENDBRANCH   8   9
ENDBRANCH   7   8
ENDBRANCH   1   7
BRANCH   4  22
ATOM     22  C   UNL d   1      10.787   8.382  -6.638  0.00  0.00     0.148 A 
ATOM     23  C   UNL d   1      11.252   8.012  -5.303  0.00  0.00     0.042 A 
ATOM     24  C   UNL d   1      12.083   9.056  -4.808  0.00  0.00     0.050 A 
ATOM     25  C   UNL d   1      11.061   6.885  -4.456  0.00  0.00     0.004 A 
ATOM     26  S   UNL d   1      12.158  10.305  -6.027  0.00  0.00     0.015 SA
ATOM     27  C   UNL d   1      12.713   8.975  -3.561  0.00  0.00     0.008 A 
ATOM     28  N   UNL d   1      11.163   9.555  -7.110  0.00  0.00    -0.192 NA
ATOM     29  C   UNL d   1      12.552   7.831  -2.763  0.00  0.00     0.001 A 
ATOM     30  C   UNL d   1      11.715   6.789  -3.208  0.00  0.00     0.000 A 
ENDBRANCH   4  22
TORSDOF 4
