REMARK  13 active torsions:
REMARK  status: ('A' for Active; 'I' for Inactive)
REMARK    1  A    between atoms: C_2  and  C_3 
REMARK    2  A    between atoms: C_3  and  N_4 
REMARK    3  A    between atoms: N_4  and  C_5 
REMARK    4  A    between atoms: N_4  and  C_24 
REMARK    5  A    between atoms: C_5  and  C_6 
REMARK    6  A    between atoms: C_6  and  C_7 
REMARK    7  A    between atoms: C_7  and  C_8 
REMARK    8  A    between atoms: C_8  and  N_9 
REMARK       I    between atoms: N_9  and  C_10 
REMARK    9  A    between atoms: C_10  and  C_12 
REMARK   10  A    between atoms: C_15  and  C_16 
REMARK   11  A    between atoms: C_32  and  O_33 
REMARK   12  A    between atoms: O_33  and  S_34 
REMARK   13  A    between atoms: S_34  and  C_37 
ROOT
ATOM      1  N   UNL d   1      10.053   3.088 -16.532  0.00  0.00     0.135 N 
ENDROOT
BRANCH   1   2
ATOM      2  C   UNL d   1      11.151   2.270 -17.035  0.00  0.00     0.250 C 
BRANCH   2   3
ATOM      3  C   UNL d   1      12.274   3.153 -17.603  0.00  0.00     0.035 C 
ATOM      4  C   UNL d   1      13.193   2.389 -18.554  0.00  0.00     0.002 C 
ENDBRANCH   2   3
ENDBRANCH   1   2
BRANCH   1   5
ATOM      5  C   UNL d   1      10.441   3.738 -15.273  0.00  0.00     0.250 C 
BRANCH   5   6
ATOM      6  C   UNL d   1       9.410   4.743 -14.731  0.00  0.00     0.037 C 
BRANCH   6   7
ATOM      7  C   UNL d   1       9.810   5.269 -13.344  0.00  0.00     0.029 C 
BRANCH   7   8
ATOM      8  C   UNL d   1       8.627   5.356 -12.363  0.00  0.00     0.129 C 
BRANCH   8   9
ATOM      9  N   UNL d   1       9.054   5.813 -11.049  0.00  0.00    -0.234 NA
ATOM     10  C   UNL d   1       9.472   7.054 -10.766  0.00  0.00     0.275 C 
ATOM     11  O   UNL d   1       9.491   7.967 -11.593  0.00  0.00    -0.266 OA
BRANCH  10  12
ATOM     12  C   UNL d   1       9.933   7.270  -9.352  0.00  0.00     0.058 A 
ATOM     13  C   UNL d   1       9.308   6.619  -8.267  0.00  0.00     0.005 A 
ATOM     14  C   UNL d   1       9.739   6.856  -6.950  0.00  0.00     0.000 A 
ATOM     15  C   UNL d   1      10.806   7.740  -6.681  0.00  0.00     0.000 A 
ATOM     16  C   UNL d   1      11.423   8.398  -7.769  0.00  0.00     0.000 A 
ATOM     17  C   UNL d   1      10.993   8.168  -9.092  0.00  0.00     0.005 A 
BRANCH  15  18
ATOM     18  C   UNL d   1      11.261   7.973  -5.299  0.00  0.00     0.000 A 
ATOM     19  C   UNL d   1      11.540   6.886  -4.440  0.00  0.00     0.000 A 
ATOM     20  C   UNL d   1      11.987   7.094  -3.122  0.00  0.00     0.000 A 
ATOM     21  C   UNL d   1      12.151   8.405  -2.638  0.00  0.00     0.000 A 
ATOM     22  C   UNL d   1      11.860   9.496  -3.474  0.00  0.00     0.000 A 
ATOM     23  C   UNL d   1      11.431   9.284  -4.799  0.00  0.00     0.000 A 
ENDBRANCH  15  18
ENDBRANCH  10  12
ENDBRANCH   8   9
ENDBRANCH   7   8
ENDBRANCH   6   7
ENDBRANCH   5   6
ENDBRANCH   1   5
BRANCH   1  24
ATOM     24  C   UNL d   1       8.770   2.351 -16.454  0.00  0.00     0.224 C 
ATOM     25  C   UNL d   1       8.704   1.359 -15.282  0.00  0.00     0.059 C 
ATOM     26  C   UNL d   1       7.456   0.491 -15.315  0.00  0.00    -0.022 A 
ATOM     27  C   UNL d   1       6.670   0.340 -16.484  0.00  0.00    -0.002 A 
ATOM     28  C   UNL d   1       7.129  -0.220 -14.145  0.00  0.00    -0.004 A 
ATOM     29  C   UNL d   1       6.940   1.162 -17.737  0.00  0.00     0.030 C 
ATOM     30  C   UNL d   1       5.606  -0.585 -16.484  0.00  0.00     0.109 A 
ATOM     31  C   UNL d   1       8.373   1.718 -17.784  0.00  0.00     0.038 C 
ATOM     32  C   UNL d   1       5.278  -1.296 -15.309  0.00  0.00     0.025 A 
ATOM     33  C   UNL d   1       6.044  -1.111 -14.141  0.00  0.00     0.002 A 
BRANCH  30  34
ATOM     34  O   UNL d   1       4.849  -0.759 -17.604  0.00  0.00    -0.225 OA
BRANCH  34  35
ATOM     35  S   UNL d   1       5.350  -1.934 -18.716  0.00  0.00     0.374 S 
ATOM     36  O   UNL d   1       6.766  -1.682 -19.038  0.00  0.00    -0.189 OA
ATOM     37  O   UNL d   1       4.904  -3.246 -18.214  0.00  0.00    -0.189 OA
BRANCH  35  38
ATOM     38  C   UNL d   1       4.301  -1.425 -20.144  0.00  0.00     0.524 C 
ATOM     39  F   UNL d   1       3.470  -2.408 -20.440  0.00  0.00    -0.155 F 
ATOM     40  F   UNL d   1       3.627  -0.330 -19.806  0.00  0.00    -0.155 F 
ATOM     41  F   UNL d   1       5.085  -1.158 -21.183  0.00  0.00    -0.155 F 
ENDBRANCH  35  38
ENDBRANCH  34  35
ENDBRANCH  30  34
ENDBRANCH   1  24
TORSDOF 13
