REMARK  8 active torsions:
REMARK  status: ('A' for Active; 'I' for Inactive)
REMARK    1  A    between atoms: C_3  and  S_4 
REMARK    2  A    between atoms: S_4  and  C_5 
REMARK    3  A    between atoms: C_5  and  C_6 
REMARK    4  A    between atoms: C_6  and  C_7 
REMARK    5  A    between atoms: C_7  and  N_8 
REMARK    6  A    between atoms: C_13  and  C_14 
REMARK    7  A    between atoms: C_17  and  C_18 
REMARK    8  A    between atoms: C_27  and  C_28 
ROOT
ATOM      1  N   UNL d   1       7.600   2.416 -14.083  0.00  0.00     0.137 N 
ATOM      2  C   UNL d   1       6.955   1.707 -15.154  0.00  0.00     0.250 C 
ATOM      3  C   UNL d   1       8.061   0.769 -15.663  0.00  0.00     0.038 C 
ATOM      4  C   UNL d   1       9.357   1.449 -15.302  0.00  0.00     0.037 A 
ATOM      5  C   UNL d   1      10.565   0.621 -14.866  0.00  0.00     0.007 A 
ATOM      6  C   UNL d   1      10.623   1.396 -16.167  0.00  0.00     0.024 A 
ATOM      7  C   UNL d   1       8.916   2.713 -14.615  0.00  0.00     0.251 C 
ENDROOT
BRANCH   1   8
ATOM      8  C   UNL d   1       6.931   3.649 -13.661  0.00  0.00     0.251 C 
BRANCH   8   9
ATOM      9  C   UNL d   1       7.449   4.141 -12.291  0.00  0.00     0.047 C 
BRANCH   9  10
ATOM     10  C   UNL d   1       7.267   5.662 -12.090  0.00  0.00     0.067 C 
BRANCH  10  11
ATOM     11  S   UNL d   1       8.855   6.537 -12.110  0.00  0.00    -0.075 SA
BRANCH  11  12
ATOM     12  C   UNL d   1       9.284   6.368 -10.404  0.00  0.00     0.193 A 
ATOM     13  N   UNL d   1       9.859   7.361  -9.695  0.00  0.00    -0.287 N 
ATOM     14  C   UNL d   1      10.251   8.682 -10.165  0.00  0.00     0.134 C 
ATOM     15  C   UNL d   1       9.953   6.816  -8.456  0.00  0.00     0.191 A 
ATOM     16  N   UNL d   1       9.496   5.560  -8.420  0.00  0.00    -0.126 NA
ATOM     17  N   UNL d   1       9.072   5.262  -9.693  0.00  0.00    -0.122 NA
BRANCH  15  18
ATOM     18  C   UNL d   1      10.504   7.448  -7.251  0.00  0.00     0.147 A 
ATOM     19  S   UNL d   1      10.572   9.195  -7.037  0.00  0.00    -0.063 SA
ATOM     20  C   UNL d   1      11.317   8.978  -5.477  0.00  0.00     0.058 A 
ATOM     21  C   UNL d   1      11.459   7.650  -5.183  0.00  0.00     0.107 A 
ATOM     22  N   UNL d   1      11.009   6.804  -6.195  0.00  0.00    -0.234 NA
ENDBRANCH  15  18
ENDBRANCH  11  12
ENDBRANCH  10  11
ENDBRANCH   9  10
ENDBRANCH   8   9
ENDBRANCH   1   8
BRANCH   6  23
ATOM     23  C   UNL d   1      11.478   2.643 -16.332  0.00  0.00    -0.022 A 
ATOM     24  C   UNL d   1      11.893   3.373 -15.202  0.00  0.00    -0.004 A 
ATOM     25  C   UNL d   1      12.618   4.566 -15.338  0.00  0.00     0.004 A 
ATOM     26  C   UNL d   1      12.992   5.029 -16.604  0.00  0.00     0.071 A 
ATOM     27  C   UNL d   1      12.614   4.289 -17.754  0.00  0.00     0.004 A 
ATOM     28  C   UNL d   1      11.848   3.110 -17.617  0.00  0.00    -0.004 A 
BRANCH  26  29
ATOM     29  C   UNL d   1      13.824   6.294 -16.697  0.00  0.00     0.419 C 
ATOM     30  F   UNL d   1      13.418   7.185 -15.788  0.00  0.00    -0.166 F 
ATOM     31  F   UNL d   1      15.100   5.992 -16.450  0.00  0.00    -0.166 F 
ATOM     32  F   UNL d   1      13.725   6.844 -17.905  0.00  0.00    -0.166 F 
ENDBRANCH  26  29
ENDBRANCH   6  23
TORSDOF 8
