REMARK  7 active torsions:
REMARK  status: ('A' for Active; 'I' for Inactive)
REMARK    1  A    between atoms: C_8  and  O_9 
REMARK    2  A    between atoms: O_9  and  C_10 
REMARK    3  A    between atoms: C_10  and  C_11 
REMARK    4  A    between atoms: C_11  and  C_12 
REMARK    5  A    between atoms: C_12  and  C_13 
REMARK    6  A    between atoms: C_13  and  N_14 
REMARK    7  A    between atoms: N_17  and  C_18 
ROOT
ATOM      1  N   UNL d   1       7.993   5.248 -12.548  0.00  0.00     0.141 N 
ATOM      2  C   UNL d   1       8.848   4.060 -12.557  0.00  0.00     0.274 C 
ATOM      3  C   UNL d   1       8.627   3.237 -13.848  0.00  0.00     0.137 C 
ATOM      4  N   UNL d   1       7.213   2.966 -14.035  0.00  0.00    -0.344 N 
ATOM      5  C   UNL d   1       6.290   4.051 -13.850  0.00  0.00     0.137 C 
ATOM      6  C   UNL d   1       6.575   4.838 -12.577  0.00  0.00     0.274 C 
ENDROOT
BRANCH   1   7
ATOM      7  C   UNL d   1       8.201   5.975 -11.304  0.00  0.00     0.251 C 
BRANCH   7   8
ATOM      8  C   UNL d   1       9.426   6.890 -11.343  0.00  0.00     0.038 C 
BRANCH   8   9
ATOM      9  C   UNL d   1       9.567   7.776 -10.095  0.00  0.00     0.035 C 
BRANCH   9  10
ATOM     10  C   UNL d   1      10.904   8.528 -10.025  0.00  0.00     0.149 C 
BRANCH  10  11
ATOM     11  O   UNL d   1      11.031   9.263  -8.803  0.00  0.00    -0.329 OA
BRANCH  11  12
ATOM     12  C   UNL d   1      11.183   8.552  -7.636  0.00  0.00     0.121 C 
ATOM     13  C   UNL d   1      11.247   7.128  -7.639  0.00  0.00     0.026 C 
ATOM     14  C   UNL d   1      11.456   6.386  -6.472  0.00  0.00    -0.000 C 
ATOM     15  C   UNL d   1      11.471   7.092  -5.255  0.00  0.00     0.009 A 
ATOM     16  C   UNL d   1      11.690   6.570  -3.849  0.00  0.00     0.156 A 
ATOM     17  C   UNL d   1      11.464   8.477  -5.218  0.00  0.00     0.085 A 
ATOM     18  N   UNL d   1      11.873   7.808  -3.078  0.00  0.00    -0.229 NA
ATOM     19  C   UNL d   1      11.673   8.932  -3.812  0.00  0.00     0.277 A 
ATOM     20  O   UNL d   1      11.595  10.056  -3.363  0.00  0.00    -0.266 OA
ATOM     21  C   UNL d   1      11.331   9.252  -6.405  0.00  0.00     0.167 C 
ATOM     22  F   UNL d   1      11.331  10.603  -6.378  0.00  0.00    -0.202 F 
ENDBRANCH  11  12
ENDBRANCH  10  11
ENDBRANCH   9  10
ENDBRANCH   8   9
ENDBRANCH   7   8
ENDBRANCH   1   7
BRANCH   4  23
ATOM     23  C   UNL d   1       6.707   1.704 -14.378  0.00  0.00     0.056 A 
ATOM     24  C   UNL d   1       6.964   1.083 -15.626  0.00  0.00     0.015 A 
ATOM     25  C   UNL d   1       6.417  -0.199 -15.877  0.00  0.00     0.001 A 
ATOM     26  C   UNL d   1       7.750   1.706 -16.629  0.00  0.00     0.001 A 
ATOM     27  C   UNL d   1       5.658  -0.854 -14.894  0.00  0.00     0.000 A 
ATOM     28  C   UNL d   1       6.649  -0.840 -17.116  0.00  0.00     0.000 A 
ATOM     29  C   UNL d   1       5.386  -0.210 -13.687  0.00  0.00     0.002 A 
ATOM     30  C   UNL d   1       5.888   1.073 -13.430  0.00  0.00     0.017 A 
ATOM     31  C   UNL d   1       7.466  -0.233 -18.079  0.00  0.00     0.000 A 
ATOM     32  C   UNL d   1       8.000   1.045 -17.846  0.00  0.00     0.000 A 
ENDBRANCH   4  23
TORSDOF 7
