REMARK  5 active torsions:
REMARK  status: ('A' for Active; 'I' for Inactive)
REMARK    1  A    between atoms: C_7  and  C_8 
REMARK    2  A    between atoms: C_8  and  C_10 
REMARK    3  A    between atoms: C_10  and  C_11 
REMARK    4  A    between atoms: C_11  and  C_12 
REMARK    5  A    between atoms: C_12  and  N_13 
ROOT
ATOM      1  N   UNL d   1      10.757   2.740 -15.608  0.00  0.00     0.137 N 
ATOM      2  C   UNL d   1      11.310   3.880 -14.903  0.00  0.00     0.252 C 
ATOM      3  C   UNL d   1      11.295   5.164 -15.721  0.00  0.00     0.052 C 
ATOM      4  C   UNL d   1      12.230   4.902 -16.896  0.00  0.00     0.070 C 
ATOM      5  C   UNL d   1      11.990   3.510 -17.508  0.00  0.00     0.072 C 
ATOM      6  C   UNL d   1      11.725   2.362 -16.535  0.00  0.00     0.256 C 
ATOM      7  C   UNL d   1      10.920   3.805 -18.518  0.00  0.00    -0.009 A 
ATOM      8  C   UNL d   1       9.993   3.010 -19.217  0.00  0.00    -0.003 A 
ATOM      9  C   UNL d   1       9.129   3.635 -20.146  0.00  0.00    -0.001 A 
ATOM     10  C   UNL d   1       9.191   5.033 -20.381  0.00  0.00    -0.003 A 
ATOM     11  C   UNL d   1      10.117   5.844 -19.686  0.00  0.00    -0.012 A 
ATOM     12  C   UNL d   1      10.949   5.180 -18.764  0.00  0.00     0.028 A 
ATOM     13  N   UNL d   1      11.921   5.843 -17.964  0.00  0.00    -0.254 NA
ATOM     14  C   UNL d   1      13.039   6.303 -18.783  0.00  0.00     0.077 C 
ATOM     15  C   UNL d   1      12.790   7.700 -19.371  0.00  0.00     0.018 C 
ATOM     16  C   UNL d   1      11.645   7.761 -20.390  0.00  0.00     0.006 C 
ATOM     17  C   UNL d   1      10.288   7.351 -19.800  0.00  0.00     0.027 C 
ENDROOT
BRANCH   1  18
ATOM     18  C   UNL d   1      10.229   1.674 -14.725  0.00  0.00     0.251 C 
BRANCH  18  19
ATOM     19  C   UNL d   1       9.059   0.936 -15.407  0.00  0.00     0.043 C 
BRANCH  19  20
ATOM     20  C   UNL d   1       7.838   1.832 -15.707  0.00  0.00     0.071 C 
BRANCH  20  21
ATOM     21  C   UNL d   1       7.081   2.270 -14.442  0.00  0.00     0.175 C 
ATOM     22  O   UNL d   1       6.125   1.603 -14.075  0.00  0.00    -0.291 OA
BRANCH  21  23
ATOM     23  C   UNL d   1       7.496   3.511 -13.719  0.00  0.00     0.054 A 
ATOM     24  C   UNL d   1       6.772   4.217 -12.771  0.00  0.00     0.106 A 
ATOM     25  N   UNL d   1       5.490   3.835 -12.444  0.00  0.00    -0.148 N 
ATOM     26  C   UNL d   1       7.300   5.364 -12.132  0.00  0.00     0.021 A 
ATOM     27  C   UNL d   1       8.573   5.853 -12.397  0.00  0.00     0.002 A 
ATOM     28  C   UNL d   1       9.283   5.226 -13.352  0.00  0.00     0.000 A 
ATOM     29  C   UNL d   1       8.681   4.109 -13.964  0.00  0.00     0.004 A 
ENDBRANCH  21  23
ENDBRANCH  20  21
ENDBRANCH  19  20
ENDBRANCH  18  19
ENDBRANCH   1  18
TORSDOF 5
