REMARK  6 active torsions:
REMARK  status: ('A' for Active; 'I' for Inactive)
REMARK    1  A    between atoms: O_2  and  N_3 
REMARK    2  A    between atoms: C_4  and  C_5 
REMARK    3  A    between atoms: C_4  and  C_19 
REMARK    4  A    between atoms: C_5  and  C_6 
REMARK    5  A    between atoms: C_6  and  N_7 
REMARK    6  A    between atoms: N_10  and  C_11 
ROOT
ATOM      1  C   UNL d   1       9.048   4.351 -12.504  0.00  0.00     0.257 C 
ENDROOT
BRANCH   1   2
ATOM      2  C   UNL d   1       8.712   4.725 -13.964  0.00  0.00     0.083 C 
BRANCH   2   3
ATOM      3  C   UNL d   1       9.461   3.881 -15.005  0.00  0.00     0.087 C 
ATOM      4  N   UNL d   1       9.314   2.627 -15.141  0.00  0.00    -0.136 NA
BRANCH   4   5
ATOM      5  O   UNL d   1       8.363   2.110 -14.255  0.00  0.00    -0.234 OA
ATOM      6  C   UNL d   1       8.360   0.703 -14.373  0.00  0.00     0.211 C 
ENDBRANCH   4   5
BRANCH   3   7
ATOM      7  C   UNL d   1      10.369   4.634 -15.895  0.00  0.00     0.018 A 
ATOM      8  C   UNL d   1      11.717   4.845 -15.532  0.00  0.00     0.031 A 
ATOM      9  C   UNL d   1      12.581   5.554 -16.388  0.00  0.00     0.140 A 
ATOM     10  C   UNL d   1      12.102   6.064 -17.609  0.00  0.00     0.030 A 
ATOM     11  F   UNL d   1      13.876   5.733 -16.044  0.00  0.00    -0.204 F 
ATOM     12  C   UNL d   1      10.755   5.874 -17.973  0.00  0.00     0.002 A 
ATOM     13  C   UNL d   1       9.892   5.162 -17.116  0.00  0.00     0.001 A 
ENDBRANCH   3   7
ENDBRANCH   2   3
ENDBRANCH   1   2
BRANCH   1  14
ATOM     14  N   UNL d   1       8.727   5.428 -11.569  0.00  0.00     0.141 N 
ATOM     15  C   UNL d   1       8.790   4.870 -10.207  0.00  0.00     0.274 C 
ATOM     16  C   UNL d   1       8.545   5.960  -9.159  0.00  0.00     0.138 C 
ATOM     17  N   UNL d   1       9.506   7.040  -9.323  0.00  0.00    -0.330 N 
ATOM     18  C   UNL d   1       9.563   7.601 -10.675  0.00  0.00     0.138 C 
ATOM     19  C   UNL d   1       9.748   6.473 -11.683  0.00  0.00     0.274 C 
BRANCH  17  20
ATOM     20  C   UNL d   1      10.245   7.586  -8.255  0.00  0.00     0.140 A 
ATOM     21  N   UNL d   1      11.370   8.261  -8.579  0.00  0.00    -0.227 NA
ATOM     22  C   UNL d   1      12.117   8.786  -7.591  0.00  0.00     0.101 A 
ATOM     23  C   UNL d   1      11.789   8.685  -6.227  0.00  0.00     0.021 A 
ATOM     24  C   UNL d   1      10.637   7.960  -5.883  0.00  0.00     0.005 A 
ATOM     25  C   UNL d   1       9.839   7.414  -6.908  0.00  0.00     0.037 A 
ENDBRANCH  17  20
ENDBRANCH   1  14
TORSDOF 6
