REMARK  6 active torsions:
REMARK  status: ('A' for Active; 'I' for Inactive)
REMARK    1  A    between atoms: C_2  and  C_3 
REMARK    2  A    between atoms: N_13  and  C_14 
REMARK    3  A    between atoms: C_14  and  C_15 
REMARK    4  A    between atoms: C_15  and  C_17 
REMARK    5  A    between atoms: C_17  and  N_18 
REMARK    6  A    between atoms: N_21  and  C_22 
ROOT
ATOM      1  C   UNL d   1       9.513   5.121 -12.113  0.00  0.00     0.148 C 
ENDROOT
BRANCH   1   2
ATOM      2  N   UNL d   1       9.543   4.189 -13.220  0.00  0.00    -0.247 N 
ATOM      3  C   UNL d   1       8.461   3.529 -13.670  0.00  0.00     0.348 A 
ATOM      4  N   UNL d   1       8.819   2.804 -14.723  0.00  0.00    -0.209 NA
ATOM      5  O   UNL d   1       7.320   3.580 -13.213  0.00  0.00    -0.245 OA
ATOM      6  C   UNL d   1      10.238   2.913 -15.021  0.00  0.00     0.179 A 
ATOM      7  C   UNL d   1      10.912   1.547 -14.828  0.00  0.00     0.039 C 
ATOM      8  C   UNL d   1      10.637   3.872 -13.918  0.00  0.00     0.265 A 
ATOM      9  O   UNL d   1      11.784   4.301 -13.752  0.00  0.00    -0.269 OA
BRANCH   6  10
ATOM     10  C   UNL d   1      10.517   3.593 -16.367  0.00  0.00     0.006 A 
ATOM     11  C   UNL d   1      11.468   3.057 -17.267  0.00  0.00     0.000 A 
ATOM     12  C   UNL d   1      11.698   3.666 -18.506  0.00  0.00     0.029 A 
ATOM     13  C   UNL d   1      10.998   4.829 -18.865  0.00  0.00     0.140 A 
ATOM     14  C   UNL d   1      10.064   5.391 -17.975  0.00  0.00     0.029 A 
ATOM     15  F   UNL d   1      11.227   5.401 -20.068  0.00  0.00    -0.204 F 
ATOM     16  C   UNL d   1       9.831   4.781 -16.727  0.00  0.00     0.000 A 
ENDBRANCH   6  10
ENDBRANCH   1   2
BRANCH   1  17
ATOM     17  C   UNL d   1       9.082   6.535 -12.483  0.00  0.00     0.208 C 
ATOM     18  O   UNL d   1       7.864   6.534 -13.196  0.00  0.00    -0.219 OA
BRANCH  17  19
ATOM     19  C   UNL d   1       8.775   7.353 -11.249  0.00  0.00     0.285 C 
BRANCH  19  20
ATOM     20  N   UNL d   1       9.836   7.766 -10.331  0.00  0.00     0.144 N 
ATOM     21  C   UNL d   1       9.339   8.778  -9.373  0.00  0.00     0.274 C 
ATOM     22  C   UNL d   1      10.378   9.344  -8.407  0.00  0.00     0.137 C 
ATOM     23  N   UNL d   1      11.000   8.235  -7.725  0.00  0.00    -0.344 N 
ATOM     24  C   UNL d   1      11.441   7.169  -8.606  0.00  0.00     0.137 C 
ATOM     25  C   UNL d   1      10.319   6.659  -9.508  0.00  0.00     0.274 C 
BRANCH  23  26
ATOM     26  C   UNL d   1      11.181   8.167  -6.321  0.00  0.00     0.067 A 
ATOM     27  C   UNL d   1      11.586   9.273  -5.552  0.00  0.00     0.073 A 
ATOM     28  C   UNL d   1      11.837   9.148  -4.170  0.00  0.00     0.013 A 
ATOM     29 CL   UNL d   1      11.848  10.792  -6.232  0.00  0.00    -0.081 Cl
ATOM     30  C   UNL d   1      11.687   7.898  -3.554  0.00  0.00     0.001 A 
ATOM     31  C   UNL d   1      11.288   6.790  -4.302  0.00  0.00     0.002 A 
ATOM     32  C   UNL d   1      11.025   6.914  -5.688  0.00  0.00     0.018 A 
ENDBRANCH  23  26
ENDBRANCH  19  20
ENDBRANCH  17  19
ENDBRANCH   1  17
TORSDOF 6
