REMARK  7 active torsions:
REMARK  status: ('A' for Active; 'I' for Inactive)
REMARK    1  A    between atoms: O_2  and  C_3 
REMARK    2  A    between atoms: C_8  and  N_9 
REMARK    3  A    between atoms: N_12  and  C_13 
REMARK    4  A    between atoms: C_13  and  C_14 
REMARK    5  A    between atoms: C_14  and  C_15 
REMARK    6  A    between atoms: C_18  and  N_19 
REMARK       I    between atoms: N_19  and  C_20 
REMARK    7  A    between atoms: C_20  and  C_22 
ROOT
ATOM      1  C   UNL d   1       9.553   3.889 -13.245  0.00  0.00     0.250 C 
ENDROOT
BRANCH   1   2
ATOM      2  N   UNL d   1       8.944   3.362 -14.464  0.00  0.00     0.141 N 
ATOM      3  C   UNL d   1       9.325   1.962 -14.680  0.00  0.00     0.274 C 
ATOM      4  C   UNL d   1      10.859   1.856 -14.929  0.00  0.00     0.137 C 
ATOM      5  N   UNL d   1      11.238   2.732 -16.035  0.00  0.00    -0.343 N 
ATOM      6  C   UNL d   1      10.768   4.112 -16.002  0.00  0.00     0.137 C 
ATOM      7  C   UNL d   1       9.259   4.129 -15.677  0.00  0.00     0.274 C 
BRANCH   5   8
ATOM      8  C   UNL d   1      11.929   2.248 -17.160  0.00  0.00     0.079 A 
ATOM      9  C   UNL d   1      11.606   0.998 -17.763  0.00  0.00     0.110 A 
ATOM     10  C   UNL d   1      12.362   0.559 -18.875  0.00  0.00     0.026 A 
ATOM     11  C   UNL d   1      13.410   1.343 -19.391  0.00  0.00     0.002 A 
ATOM     12  C   UNL d   1      13.713   2.588 -18.807  0.00  0.00     0.002 A 
ATOM     13  C   UNL d   1      12.971   3.033 -17.698  0.00  0.00     0.019 A 
BRANCH   9  14
ATOM     14  O   UNL d   1      10.540   0.284 -17.253  0.00  0.00    -0.327 OA
ATOM     15  C   UNL d   1      10.198  -0.956 -17.827  0.00  0.00     0.181 C 
ENDBRANCH   9  14
ENDBRANCH   5   8
ENDBRANCH   1   2
BRANCH   1  16
ATOM     16  C   UNL d   1       8.918   5.216 -12.839  0.00  0.00     0.035 C 
BRANCH  16  17
ATOM     17  C   UNL d   1       9.516   5.791 -11.550  0.00  0.00     0.002 C 
ATOM     18  C   UNL d   1       9.250   4.877 -10.338  0.00  0.00     0.002 C 
ATOM     19  C   UNL d   1       9.769   5.463  -9.029  0.00  0.00     0.024 C 
ATOM     20  C   UNL d   1       9.256   6.884  -8.792  0.00  0.00     0.107 C 
ATOM     21  C   UNL d   1       9.514   7.801 -10.014  0.00  0.00     0.024 C 
ATOM     22  C   UNL d   1       8.974   7.197 -11.316  0.00  0.00     0.002 C 
BRANCH  20  23
ATOM     23  N   UNL d   1       9.787   7.414  -7.540  0.00  0.00    -0.236 NA
ATOM     24  C   UNL d   1      11.057   7.761  -7.292  0.00  0.00     0.281 C 
ATOM     25  O   UNL d   1      11.955   7.814  -8.127  0.00  0.00    -0.265 OA
BRANCH  24  26
ATOM     26  C   UNL d   1      11.375   8.020  -5.900  0.00  0.00     0.087 A 
ATOM     27  S   UNL d   1      11.918   9.622  -5.528  0.00  0.00    -0.082 SA
ATOM     28  C   UNL d   1      12.164   9.180  -3.862  0.00  0.00     0.036 A 
ATOM     29  C   UNL d   1      11.863   7.860  -3.638  0.00  0.00     0.008 A 
ATOM     30  C   UNL d   1      11.398   7.194  -4.811  0.00  0.00     0.012 A 
ENDBRANCH  24  26
ENDBRANCH  20  23
ENDBRANCH  16  17
ENDBRANCH   1  16
TORSDOF 7
