REMARK  12 active torsions:
REMARK  status: ('A' for Active; 'I' for Inactive)
REMARK    1  A    between atoms: C_2  and  C_3 
REMARK    2  A    between atoms: C_3  and  N_4 
REMARK    3  A    between atoms: N_4  and  C_5 
REMARK    4  A    between atoms: N_4  and  C_21 
REMARK    5  A    between atoms: C_5  and  C_6 
REMARK    6  A    between atoms: C_6  and  C_7 
REMARK    7  A    between atoms: C_7  and  C_8 
REMARK    8  A    between atoms: C_8  and  N_9 
REMARK       I    between atoms: N_9  and  C_10 
REMARK    9  A    between atoms: C_10  and  C_12 
REMARK   10  A    between atoms: C_21  and  C_22 
REMARK   11  A    between atoms: C_24  and  C_25 
REMARK   12  A    between atoms: C_28  and  C_29 
ROOT
ATOM      1  N   UNL d   1       9.527   4.096 -13.654  0.00  0.00     0.137 N 
ENDROOT
BRANCH   1   2
ATOM      2  C   UNL d   1      10.310   3.075 -14.369  0.00  0.00     0.250 C 
BRANCH   2   3
ATOM      3  C   UNL d   1      11.777   3.450 -14.609  0.00  0.00     0.035 C 
ATOM      4  C   UNL d   1      11.930   4.615 -15.590  0.00  0.00     0.002 C 
ENDBRANCH   2   3
ENDBRANCH   1   2
BRANCH   1   5
ATOM      5  C   UNL d   1       9.758   4.014 -12.225  0.00  0.00     0.250 C 
BRANCH   5   6
ATOM      6  C   UNL d   1       9.150   5.203 -11.445  0.00  0.00     0.037 C 
BRANCH   6   7
ATOM      7  C   UNL d   1       9.657   5.294 -10.003  0.00  0.00     0.029 C 
BRANCH   7   8
ATOM      8  C   UNL d   1       8.873   6.315  -9.192  0.00  0.00     0.129 C 
BRANCH   8   9
ATOM      9  N   UNL d   1       9.607   6.683  -7.992  0.00  0.00    -0.233 NA
ATOM     10  C   UNL d   1      10.181   7.881  -7.771  0.00  0.00     0.293 C 
ATOM     11  O   UNL d   1      10.221   8.793  -8.594  0.00  0.00    -0.264 OA
BRANCH  10  12
ATOM     12  C   UNL d   1      10.720   8.092  -6.418  0.00  0.00     0.139 A 
ATOM     13  N   UNL d   1      11.037   7.000  -5.624  0.00  0.00    -0.241 NA
ATOM     14  C   UNL d   1      11.489   7.412  -4.394  0.00  0.00     0.082 A 
ATOM     15  C   UNL d   1      11.459   8.841  -4.423  0.00  0.00     0.019 A 
ATOM     16  C   UNL d   1      11.903   6.700  -3.266  0.00  0.00     0.019 A 
ATOM     17  C   UNL d   1      10.986   9.241  -5.715  0.00  0.00     0.025 A 
ATOM     18  C   UNL d   1      11.872   9.509  -3.248  0.00  0.00     0.002 A 
ATOM     19  C   UNL d   1      12.299   8.791  -2.116  0.00  0.00     0.000 A 
ATOM     20  C   UNL d   1      12.309   7.389  -2.117  0.00  0.00     0.002 A 
ENDBRANCH  10  12
ENDBRANCH   8   9
ENDBRANCH   7   8
ENDBRANCH   6   7
ENDBRANCH   5   6
ENDBRANCH   1   5
BRANCH   1  21
ATOM     21  C   UNL d   1       8.100   3.995 -13.910  0.00  0.00     0.251 C 
BRANCH  21  22
ATOM     22  C   UNL d   1       7.542   2.575 -13.971  0.00  0.00     0.038 A 
ATOM     23  C   UNL d   1       6.309   2.326 -14.765  0.00  0.00     0.024 A 
ATOM     24  C   UNL d   1       6.241   2.267 -13.260  0.00  0.00     0.007 A 
BRANCH  23  25
ATOM     25  C   UNL d   1       6.258   1.095 -15.608  0.00  0.00    -0.022 A 
ATOM     26  C   UNL d   1       5.400   0.040 -15.207  0.00  0.00    -0.004 A 
ATOM     27  C   UNL d   1       5.288  -1.121 -15.972  0.00  0.00     0.004 A 
ATOM     28  C   UNL d   1       6.029  -1.260 -17.169  0.00  0.00     0.071 A 
ATOM     29  C   UNL d   1       6.876  -0.207 -17.584  0.00  0.00     0.004 A 
ATOM     30  C   UNL d   1       6.988   0.963 -16.811  0.00  0.00    -0.004 A 
BRANCH  28  31
ATOM     31  C   UNL d   1       5.928  -2.540 -17.980  0.00  0.00     0.419 C 
ATOM     32  F   UNL d   1       5.545  -3.570 -17.224  0.00  0.00    -0.166 F 
ATOM     33  F   UNL d   1       5.038  -2.371 -18.956  0.00  0.00    -0.166 F 
ATOM     34  F   UNL d   1       7.112  -2.837 -18.517  0.00  0.00    -0.166 F 
ENDBRANCH  28  31
ENDBRANCH  23  25
ENDBRANCH  21  22
ENDBRANCH   1  21
TORSDOF 12
