REMARK  5 active torsions:
REMARK  status: ('A' for Active; 'I' for Inactive)
REMARK    1  A    between atoms: C_3  and  C_4 
REMARK    2  A    between atoms: C_3  and  C_18 
REMARK    3  A    between atoms: C_4  and  C_5 
REMARK    4  A    between atoms: C_5  and  N_6 
REMARK    5  A    between atoms: N_9  and  C_10 
ROOT
ATOM      1  N   UNL d   1       9.622   5.652 -11.756  0.00  0.00     0.141 N 
ATOM      2  C   UNL d   1       9.491   4.215 -11.542  0.00  0.00     0.274 C 
ATOM      3  C   UNL d   1       9.992   3.445 -12.777  0.00  0.00     0.138 C 
ATOM      4  N   UNL d   1       9.316   3.881 -13.975  0.00  0.00    -0.330 N 
ATOM      5  C   UNL d   1       9.296   5.304 -14.198  0.00  0.00     0.138 C 
ATOM      6  C   UNL d   1       8.818   6.035 -12.922  0.00  0.00     0.274 C 
ENDROOT
BRANCH   1   7
ATOM      7  C   UNL d   1       9.138   6.354 -10.563  0.00  0.00     0.257 C 
BRANCH   7   8
ATOM      8  C   UNL d   1      10.373   6.904  -9.772  0.00  0.00     0.084 C 
BRANCH   8   9
ATOM      9  C   UNL d   1      10.099   8.117  -8.824  0.00  0.00     0.090 C 
ATOM     10  N   UNL d   1       9.505   9.173  -9.170  0.00  0.00    -0.101 NA
ATOM     11  O   UNL d   1       9.063   9.166 -10.515  0.00  0.00    -0.061 OA
BRANCH   9  12
ATOM     12  C   UNL d   1      10.655   8.083  -7.438  0.00  0.00     0.016 A 
ATOM     13  C   UNL d   1      11.085   9.282  -6.803  0.00  0.00     0.002 A 
ATOM     14  C   UNL d   1      11.604   9.280  -5.489  0.00  0.00     0.011 A 
ATOM     15  C   UNL d   1      11.710   8.070  -4.784  0.00  0.00     0.058 A 
ATOM     16  C   UNL d   1      11.280   6.881  -5.391  0.00  0.00     0.011 A 
ATOM     17 CL   UNL d   1      12.370   8.026  -3.189  0.00  0.00    -0.082 Cl
ATOM     18  C   UNL d   1      10.735   6.887  -6.689  0.00  0.00     0.002 A 
ENDBRANCH   9  12
ENDBRANCH   8   9
ENDBRANCH   7   8
ENDBRANCH   1   7
BRANCH   4  19
ATOM     19  C   UNL d   1       8.645   2.988 -14.800  0.00  0.00     0.140 A 
ATOM     20  N   UNL d   1       7.585   2.342 -14.268  0.00  0.00    -0.227 NA
ATOM     21  C   UNL d   1       6.906   1.483 -15.051  0.00  0.00     0.101 A 
ATOM     22  C   UNL d   1       7.242   1.225 -16.392  0.00  0.00     0.021 A 
ATOM     23  C   UNL d   1       8.348   1.900 -16.940  0.00  0.00     0.005 A 
ATOM     24  C   UNL d   1       9.063   2.800 -16.133  0.00  0.00     0.037 A 
ENDBRANCH   4  19
TORSDOF 5
