REMARK  1 active torsions:
REMARK  status: ('A' for Active; 'I' for Inactive)
REMARK    1  A    between atoms: C_2  and  N_3 
ROOT
ATOM      1  N   UNL d   1       5.669  -0.198 -14.828  0.00  0.00    -0.252 N 
ATOM      2  N   UNL d   1       5.034   0.083 -13.663  0.00  0.00    -0.168 NA
ATOM      3  C   UNL d   1       5.579   1.211 -13.238  0.00  0.00     0.117 A 
ATOM      4  C   UNL d   1       6.606   1.687 -14.105  0.00  0.00     0.016 A 
ATOM      5  C   UNL d   1       6.604   0.784 -15.126  0.00  0.00     0.075 A 
ATOM      6  C   UNL d   1       7.512   0.802 -16.271  0.00  0.00     0.015 A 
ATOM      7  C   UNL d   1       7.196   0.695 -17.609  0.00  0.00     0.008 A 
ATOM      8  C   UNL d   1       5.857   0.545 -18.247  0.00  0.00     0.038 C 
ATOM      9  S   UNL d   1       8.611   0.814 -18.615  0.00  0.00    -0.096 SA
ATOM     10  C   UNL d   1       9.632   1.084 -17.236  0.00  0.00     0.003 A 
ATOM     11  C   UNL d   1      11.097   1.312 -17.417  0.00  0.00     0.038 C 
ATOM     12  C   UNL d   1       8.909   1.060 -16.069  0.00  0.00    -0.019 A 
ATOM     13  C   UNL d   1       9.494   1.274 -14.695  0.00  0.00     0.027 C 
ATOM     14  C   UNL d   1       9.027   2.566 -13.978  0.00  0.00     0.009 C 
ATOM     15  C   UNL d   1       7.507   2.892 -13.990  0.00  0.00     0.030 C 
ENDROOT
BRANCH   1  16
ATOM     16  C   UNL d   1       5.378  -1.453 -15.505  0.00  0.00     0.128 C 
ATOM     17  C   UNL d   1       3.972  -1.482 -16.109  0.00  0.00     0.029 C 
ENDBRANCH   1  16
TORSDOF 1
