REMARK  8 active torsions:
REMARK  status: ('A' for Active; 'I' for Inactive)
REMARK    1  A    between atoms: O_2  and  C_3 
REMARK    2  A    between atoms: C_8  and  N_9 
REMARK    3  A    between atoms: N_12  and  C_13 
REMARK    4  A    between atoms: C_13  and  C_14 
REMARK    5  A    between atoms: C_14  and  C_15 
REMARK    6  A    between atoms: C_15  and  C_16 
REMARK    7  A    between atoms: C_16  and  O_17 
REMARK    8  A    between atoms: O_17  and  C_18 
ROOT
ATOM      1  C   UNL d   1       7.393   3.942 -13.155  0.00  0.00     0.251 C 
ENDROOT
BRANCH   1   2
ATOM      2  N   UNL d   1       7.455   5.389 -13.129  0.00  0.00     0.141 N 
ATOM      3  C   UNL d   1       6.768   5.937 -11.938  0.00  0.00     0.274 C 
ATOM      4  C   UNL d   1       7.521   5.523 -10.631  0.00  0.00     0.137 C 
ATOM      5  N   UNL d   1       8.942   5.766 -10.753  0.00  0.00    -0.343 N 
ATOM      6  C   UNL d   1       9.627   5.292 -11.939  0.00  0.00     0.137 C 
ATOM      7  C   UNL d   1       8.864   5.774 -13.185  0.00  0.00     0.274 C 
BRANCH   5   8
ATOM      8  C   UNL d   1       9.611   6.461  -9.716  0.00  0.00     0.079 A 
ATOM      9  C   UNL d   1      10.248   7.713  -9.906  0.00  0.00     0.110 A 
ATOM     10  C   UNL d   1      10.924   8.315  -8.844  0.00  0.00     0.026 A 
ATOM     11  C   UNL d   1      10.941   7.724  -7.564  0.00  0.00     0.002 A 
ATOM     12  C   UNL d   1      10.278   6.489  -7.369  0.00  0.00     0.002 A 
ATOM     13  C   UNL d   1       9.619   5.869  -8.440  0.00  0.00     0.019 A 
BRANCH   9  14
ATOM     14  O   UNL d   1      10.283   8.400 -11.102  0.00  0.00    -0.327 OA
ATOM     15  C   UNL d   1       9.054   8.874 -11.605  0.00  0.00     0.181 C 
ENDBRANCH   9  14
ENDBRANCH   5   8
ENDBRANCH   1   2
BRANCH   1  16
ATOM     16  C   UNL d   1       6.012   3.419 -13.516  0.00  0.00     0.038 C 
BRANCH  16  17
ATOM     17  C   UNL d   1       5.988   1.893 -13.395  0.00  0.00     0.035 C 
BRANCH  17  18
ATOM     18  C   UNL d   1       7.212   1.157 -14.035  0.00  0.00     0.149 C 
BRANCH  18  19
ATOM     19  O   UNL d   1       7.198   1.273 -15.456  0.00  0.00    -0.331 OA
BRANCH  19  20
ATOM     20  C   UNL d   1       6.376   0.421 -16.156  0.00  0.00     0.096 A 
ATOM     21  C   UNL d   1       6.502   0.404 -17.565  0.00  0.00     0.043 A 
ATOM     22  C   UNL d   1       5.707  -0.479 -18.323  0.00  0.00     0.082 A 
ATOM     23  C   UNL d   1       4.757  -1.305 -17.682  0.00  0.00    -0.004 A 
ATOM     24  N   UNL d   1       5.866  -0.553 -19.725  0.00  0.00    -0.212 NA
ATOM     25  C   UNL d   1       4.611  -1.272 -16.291  0.00  0.00    -0.001 A 
ATOM     26  C   UNL d   1       3.891  -2.224 -18.503  0.00  0.00     0.038 C 
ATOM     27  C   UNL d   1       5.426  -0.433 -15.530  0.00  0.00     0.024 A 
ATOM     28  C   UNL d   1       4.623  -2.690 -19.770  0.00  0.00     0.095 C 
ATOM     29  C   UNL d   1       5.356  -1.542 -20.480  0.00  0.00     0.256 C 
ATOM     30  O   UNL d   1       5.493  -1.554 -21.700  0.00  0.00    -0.270 OA
ENDBRANCH  19  20
ENDBRANCH  18  19
ENDBRANCH  17  18
ENDBRANCH  16  17
ENDBRANCH   1  16
TORSDOF 8
