REMARK  4 active torsions:
REMARK  status: ('A' for Active; 'I' for Inactive)
REMARK    1  A    between atoms: N_12  and  C_13 
REMARK    2  A    between atoms: C_13  and  C_14 
REMARK    3  A    between atoms: C_14  and  N_15 
REMARK    4  A    between atoms: N_18  and  C_19 
ROOT
ATOM      1  C   UNL d   1       9.310   4.926 -11.061  0.00  0.00     0.275 C 
ENDROOT
BRANCH   1   2
ATOM      2  C   UNL d   1       9.268   5.427 -12.526  0.00  0.00     0.147 C 
BRANCH   2   3
ATOM      3  N   UNL d   1       9.416   4.298 -13.453  0.00  0.00    -0.268 N 
ATOM      4  C   UNL d   1      10.655   4.015 -13.944  0.00  0.00     0.239 C 
ATOM      5  O   UNL d   1      11.640   4.705 -13.692  0.00  0.00    -0.272 OA
ATOM      6  C   UNL d   1      10.872   2.798 -14.832  0.00  0.00     0.089 C 
ATOM      7  C   UNL d   1       9.601   2.386 -15.604  0.00  0.00     0.018 C 
ATOM      8  C   UNL d   1       9.875   1.057 -16.315  0.00  0.00     0.001 C 
ATOM      9  C   UNL d   1       9.308   3.338 -16.784  0.00  0.00     0.001 C 
ATOM     10  C   UNL d   1       8.422   2.313 -14.624  0.00  0.00     0.089 C 
ATOM     11  C   UNL d   1      10.512   1.432 -17.669  0.00  0.00     0.000 C 
ATOM     12  C   UNL d   1      10.294   2.945 -17.878  0.00  0.00     0.000 C 
ATOM     13  C   UNL d   1       8.314   3.555 -13.738  0.00  0.00     0.239 C 
ATOM     14  O   UNL d   1       7.200   3.826 -13.291  0.00  0.00    -0.272 OA
ENDBRANCH   2   3
ENDBRANCH   1   2
BRANCH   1  15
ATOM     15  N   UNL d   1       9.166   6.026 -10.120  0.00  0.00     0.143 N 
ATOM     16  C   UNL d   1       8.881   5.512  -8.777  0.00  0.00     0.274 C 
ATOM     17  C   UNL d   1       8.749   6.671  -7.768  0.00  0.00     0.137 C 
ATOM     18  N   UNL d   1       9.940   7.507  -7.800  0.00  0.00    -0.343 N 
ATOM     19  C   UNL d   1      10.301   7.985  -9.132  0.00  0.00     0.137 C 
ATOM     20  C   UNL d   1      10.406   6.807 -10.084  0.00  0.00     0.274 C 
BRANCH  18  21
ATOM     21  C   UNL d   1      10.650   7.874  -6.638  0.00  0.00     0.084 A 
ATOM     22  C   UNL d   1      11.322   9.109  -6.554  0.00  0.00     0.155 A 
ATOM     23  C   UNL d   1      12.057   9.460  -5.420  0.00  0.00     0.031 A 
ATOM     24  F   UNL d   1      11.278   9.985  -7.574  0.00  0.00    -0.203 F 
ATOM     25  C   UNL d   1      12.128   8.599  -4.316  0.00  0.00     0.002 A 
ATOM     26  C   UNL d   1      11.466   7.354  -4.380  0.00  0.00     0.002 A 
ATOM     27  C   UNL d   1      10.725   7.008  -5.528  0.00  0.00     0.019 A 
ENDBRANCH  18  21
ENDBRANCH   1  15
TORSDOF 4
