REMARK  1 active torsions:
REMARK  status: ('A' for Active; 'I' for Inactive)
REMARK    1  A    between atoms: C_6  and  C_7 
ROOT
ATOM      1  C   UNL d   1      11.039   8.786  -6.203  0.00  0.00     0.040 A 
ATOM      2  C   UNL d   1      10.869  10.125  -6.119  0.00  0.00     0.101 A 
ATOM      3  N   UNL d   1      11.059  10.572  -4.845  0.00  0.00    -0.244 NA
ATOM      4  C   UNL d   1      11.465   9.548  -4.060  0.00  0.00     0.084 A 
ATOM      5  C   UNL d   1      11.864   9.514  -2.719  0.00  0.00     0.022 A 
ATOM      6  C   UNL d   1      12.268   8.285  -2.181  0.00  0.00     0.034 A 
ATOM      7  C   UNL d   1      12.265   7.127  -2.968  0.00  0.00     0.168 A 
ATOM      8  F   UNL d   1      12.729   5.987  -2.428  0.00  0.00    -0.202 F 
ATOM      9  C   UNL d   1      11.849   7.182  -4.319  0.00  0.00     0.169 A 
ATOM     10  F   UNL d   1      11.871   6.097  -5.113  0.00  0.00    -0.202 F 
ATOM     11  C   UNL d   1      11.451   8.395  -4.886  0.00  0.00     0.050 A 
ENDROOT
BRANCH   1  12
ATOM     12  C   UNL d   1      10.861   8.016  -7.400  0.00  0.00     0.082 A 
ATOM     13  N   UNL d   1       9.784   7.160  -7.578  0.00  0.00    -0.307 N 
ATOM     14  C   UNL d   1       8.693   6.882  -6.664  0.00  0.00     0.132 C 
ATOM     15  C   UNL d   1       9.957   6.656  -8.802  0.00  0.00     0.179 A 
ATOM     16  N   UNL d   1      10.991   7.159  -9.472  0.00  0.00    -0.223 NA
ATOM     17  C   UNL d   1      11.599   8.010  -8.560  0.00  0.00     0.118 A 
ENDBRANCH   1  12
TORSDOF 1
