REMARK  4 active torsions:
REMARK  status: ('A' for Active; 'I' for Inactive)
REMARK    1  A    between atoms: S_2  and  C_4 
REMARK    2  A    between atoms: S_2  and  N_10 
REMARK    3  A    between atoms: C_14  and  C_15 
REMARK    4  A    between atoms: N_18  and  C_19 
ROOT
ATOM      1  N   UNL d   1       8.956   2.333 -14.707  0.00  0.00    -0.254 N 
ATOM      2  C   UNL d   1      10.254   2.785 -14.156  0.00  0.00     0.123 A 
ATOM      3  C   UNL d   1      10.002   3.925 -13.198  0.00  0.00     0.053 A 
ATOM      4  C   UNL d   1       8.498   4.019 -13.156  0.00  0.00    -0.008 A 
ATOM      5  C   UNL d   1       7.642   4.789 -12.336  0.00  0.00    -0.025 A 
ATOM      6  C   UNL d   1       6.245   4.609 -12.439  0.00  0.00    -0.004 A 
ATOM      7  C   UNL d   1       5.723   3.674 -13.351  0.00  0.00     0.001 A 
ATOM      8  C   UNL d   1       6.581   2.909 -14.154  0.00  0.00     0.018 A 
ATOM      9  C   UNL d   1       7.976   3.083 -14.052  0.00  0.00     0.066 A 
ENDROOT
BRANCH   5  10
ATOM     10  C   UNL d   1       8.178   5.768 -11.331  0.00  0.00     0.026 C 
ATOM     11  C   UNL d   1       8.910   5.033 -10.181  0.00  0.00     0.040 C 
ATOM     12  C   UNL d   1       9.592   6.023  -9.283  0.00  0.00     0.251 C 
ATOM     13  N   UNL d   1      10.505   6.904 -10.012  0.00  0.00     0.135 N 
ATOM     14  C   UNL d   1       9.786   7.710 -11.015  0.00  0.00     0.251 C 
ATOM     15  C   UNL d   1       9.079   6.817 -12.023  0.00  0.00     0.040 C 
BRANCH  13  16
ATOM     16  C   UNL d   1      11.170   7.787  -9.060  0.00  0.00     0.219 C 
ATOM     17  C   UNL d   1      10.533   9.117  -8.646  0.00  0.00     0.033 C 
ATOM     18  C   UNL d   1      11.110   8.945  -7.249  0.00  0.00     0.004 C 
ATOM     19  C   UNL d   1      11.313   7.463  -7.547  0.00  0.00     0.033 C 
ENDBRANCH  13  16
ENDBRANCH   5  10
BRANCH   1  20
ATOM     20  S   UNL d   1       8.771   0.695 -15.216  0.00  0.00     0.268 S 
ATOM     21  O   UNL d   1       7.871   0.061 -14.253  0.00  0.00    -0.200 OA
ATOM     22  O   UNL d   1      10.129   0.172 -15.448  0.00  0.00    -0.200 OA
BRANCH  20  23
ATOM     23  C   UNL d   1       7.941   0.889 -16.795  0.00  0.00     0.104 A 
ATOM     24  C   UNL d   1       8.680   1.322 -17.912  0.00  0.00     0.013 A 
ATOM     25  C   UNL d   1       8.039   1.458 -19.157  0.00  0.00     0.001 A 
ATOM     26  C   UNL d   1       6.659   1.181 -19.274  0.00  0.00     0.000 A 
ATOM     27  C   UNL d   1       5.919   0.787 -18.144  0.00  0.00     0.001 A 
ATOM     28  C   UNL d   1       6.558   0.640 -16.899  0.00  0.00     0.013 A 
ENDBRANCH  20  23
ENDBRANCH   1  20
TORSDOF 4
