REMARK  5 active torsions:
REMARK  status: ('A' for Active; 'I' for Inactive)
REMARK    1  A    between atoms: N_11  and  C_12 
REMARK    2  A    between atoms: C_12  and  C_13 
REMARK    3  A    between atoms: C_13  and  C_14 
REMARK    4  A    between atoms: C_14  and  N_15 
REMARK    5  A    between atoms: C_18  and  C_19 
ROOT
ATOM      1  N   UNL d   1      12.189   5.685 -16.957  0.00  0.00     0.137 N 
ATOM      2  C   UNL d   1      10.868   5.576 -17.581  0.00  0.00     0.251 C 
ATOM      3  C   UNL d   1      10.252   4.196 -17.297  0.00  0.00     0.041 C 
ATOM      4  C   UNL d   1      10.150   3.929 -15.787  0.00  0.00     0.047 C 
ATOM      5  C   UNL d   1      11.509   4.188 -15.119  0.00  0.00     0.041 C 
ATOM      6  C   UNL d   1      12.068   5.563 -15.503  0.00  0.00     0.251 C 
ENDROOT
BRANCH   1   7
ATOM      7  C   UNL d   1      12.777   6.977 -17.295  0.00  0.00     0.252 C 
BRANCH   7   8
ATOM      8  C   UNL d   1      14.302   6.996 -17.078  0.00  0.00     0.060 C 
BRANCH   8   9
ATOM      9  C   UNL d   1      15.056   5.923 -17.901  0.00  0.00     0.111 C 
BRANCH   9  10
ATOM     10  N   UNL d   1      16.441   6.336 -18.195  0.00  0.00    -0.295 N 
ATOM     11  C   UNL d   1      17.368   6.341 -17.204  0.00  0.00     0.268 C 
ATOM     12  O   UNL d   1      17.143   5.987 -16.047  0.00  0.00    -0.269 OA
ATOM     13  C   UNL d   1      18.767   6.869 -17.538  0.00  0.00     0.236 C 
ATOM     14  O   UNL d   1      19.152   6.563 -18.877  0.00  0.00    -0.319 OA
ATOM     15  C   UNL d   1      18.206   6.821 -19.835  0.00  0.00     0.110 A 
ATOM     16  C   UNL d   1      16.823   6.740 -19.519  0.00  0.00     0.085 A 
ATOM     17  C   UNL d   1      18.624   7.139 -21.142  0.00  0.00     0.026 A 
ATOM     18  C   UNL d   1      15.876   7.041 -20.529  0.00  0.00     0.019 A 
ATOM     19  C   UNL d   1      16.300   7.370 -21.832  0.00  0.00     0.002 A 
ATOM     20  C   UNL d   1      17.672   7.415 -22.141  0.00  0.00     0.002 A 
ENDBRANCH   9  10
ENDBRANCH   8   9
ENDBRANCH   7   8
ENDBRANCH   1   7
BRANCH   4  21
ATOM     21  C   UNL d   1       9.640   2.540 -15.487  0.00  0.00     0.087 A 
ATOM     22  C   UNL d   1       8.436   2.113 -14.893  0.00  0.00     0.041 A 
ATOM     23  C   UNL d   1       8.420   0.718 -14.835  0.00  0.00     0.129 A 
ATOM     24  C   UNL d   1       7.333   2.832 -14.390  0.00  0.00     0.006 A 
ATOM     25  O   UNL d   1       9.620   0.316 -15.394  0.00  0.00    -0.211 OA
ATOM     26  C   UNL d   1       7.347  -0.010 -14.300  0.00  0.00     0.057 A 
ATOM     27  N   UNL d   1      10.361   1.458 -15.802  0.00  0.00    -0.131 NA
ATOM     28  C   UNL d   1       6.245   0.707 -13.796  0.00  0.00     0.142 A 
ATOM     29  F   UNL d   1       5.197   0.041 -13.251  0.00  0.00    -0.204 F 
ATOM     30  C   UNL d   1       6.242   2.122 -13.842  0.00  0.00     0.030 A 
ENDBRANCH   4  21
TORSDOF 5
