REMARK  3 active torsions:
REMARK  status: ('A' for Active; 'I' for Inactive)
REMARK    1  A    between atoms: C_2  and  C_3 
REMARK    2  A    between atoms: N_12  and  C_13 
REMARK    3  A    between atoms: C_13  and  C_14 
ROOT
ATOM      1  O   UNL d   1       9.060   9.124 -10.449  0.00  0.00    -0.221 OA
ATOM      2  C   UNL d   1       9.674   7.908 -10.038  0.00  0.00     0.149 C 
ATOM      3  C   UNL d   1      11.193   8.079 -10.127  0.00  0.00     0.070 C 
ATOM      4  C   UNL d   1      11.767   9.048  -9.104  0.00  0.00     0.254 C 
ATOM      5  N   UNL d   1      11.417   8.649  -7.747  0.00  0.00     0.142 N 
ATOM      6  C   UNL d   1       9.968   8.676  -7.601  0.00  0.00     0.254 C 
ATOM      7  C   UNL d   1       9.367   7.656  -8.543  0.00  0.00     0.070 C 
ENDROOT
BRANCH   5   8
ATOM      8  C   UNL d   1      11.983   9.596  -6.817  0.00  0.00     0.278 C 
BRANCH   8   9
ATOM      9  C   UNL d   1      11.668   9.425  -5.386  0.00  0.00     0.032 C 
ATOM     10  C   UNL d   1      11.768   8.293  -4.541  0.00  0.00     0.017 C 
ATOM     11  C   UNL d   1      11.467   8.663  -3.212  0.00  0.00     0.081 C 
ATOM     12  C   UNL d   1      12.047   6.963  -4.744  0.00  0.00     0.001 C 
ATOM     13  N   UNL d   1      11.140   9.965  -3.285  0.00  0.00    -0.244 NA
ATOM     14  C   UNL d   1      11.536   7.760  -2.146  0.00  0.00     0.019 C 
ATOM     15  C   UNL d   1      11.078  10.361  -4.602  0.00  0.00     0.097 C 
ATOM     16  C   UNL d   1      11.896   6.443  -2.381  0.00  0.00     0.002 C 
ATOM     17  C   UNL d   1      12.237   6.127  -3.674  0.00  0.00     0.000 C 
ENDBRANCH   8   9
ENDBRANCH   5   8
BRANCH   2  18
ATOM     18  C   UNL d   1       9.204   6.725 -10.916  0.00  0.00     0.005 A 
ATOM     19  C   UNL d   1       8.459   5.639 -10.384  0.00  0.00    -0.001 A 
ATOM     20  C   UNL d   1       7.954   4.637 -11.209  0.00  0.00     0.006 A 
ATOM     21  C   UNL d   1       8.231   4.647 -12.579  0.00  0.00     0.035 A 
ATOM     22  C   UNL d   1       8.989   5.686 -13.121  0.00  0.00     0.006 A 
ATOM     23 BR   UNL d   1       7.568   3.293 -13.726  0.00  0.00    -0.049 Br
ATOM     24  C   UNL d   1       9.437   6.744 -12.307  0.00  0.00    -0.001 A 
ENDBRANCH   2  18
TORSDOF 3
