REMARK  13 active torsions:
REMARK  status: ('A' for Active; 'I' for Inactive)
REMARK    1  A    between atoms: N_2  and  C_3 
REMARK    2  A    between atoms: N_14  and  C_15 
REMARK    3  A    between atoms: C_15  and  C_16 
REMARK    4  A    between atoms: C_16  and  C_17 
REMARK    5  A    between atoms: C_17  and  C_18 
REMARK    6  A    between atoms: C_18  and  C_19 
REMARK    7  A    between atoms: C_19  and  C_20 
REMARK    8  A    between atoms: C_20  and  O_21 
REMARK    9  A    between atoms: O_21  and  C_22 
REMARK   10  A    between atoms: C_22  and  C_23 
REMARK   11  A    between atoms: C_23  and  C_24 
REMARK   12  A    between atoms: C_24  and  C_25 
REMARK   13  A    between atoms: C_25  and  C_26 
ROOT
ATOM      1  C   UNL d   1       9.869   0.907 -14.980  0.00  0.00     0.111 C 
ENDROOT
BRANCH   1   2
ATOM      2  N   UNL d   1      10.771   1.516 -15.977  0.00  0.00    -0.280 N 
ATOM      3  C   UNL d   1      11.018   0.988 -17.272  0.00  0.00     0.080 A 
ATOM      4  C   UNL d   1      10.592  -0.151 -17.984  0.00  0.00     0.019 A 
ATOM      5  C   UNL d   1      11.913   1.820 -17.891  0.00  0.00     0.076 A 
ATOM      6  C   UNL d   1      11.097  -0.354 -19.309  0.00  0.00     0.001 A 
ATOM      7  C   UNL d   1      12.019   0.560 -19.905  0.00  0.00    -0.003 A 
ATOM      8  C   UNL d   1      12.458   1.681 -19.171  0.00  0.00    -0.003 A 
ATOM      9  C   UNL d   1      13.363   2.810 -19.614  0.00  0.00     0.066 C 
ATOM     10  C   UNL d   1      14.065   3.542 -18.436  0.00  0.00     0.283 C 
ATOM     11  C   UNL d   1      13.093   3.928 -17.285  0.00  0.00     0.147 C 
ATOM     12  N   UNL d   1      12.204   2.818 -16.971  0.00  0.00    -0.278 N 
ATOM     13  C   UNL d   1      11.571   2.582 -15.796  0.00  0.00     0.332 A 
ATOM     14  O   UNL d   1      11.752   3.211 -14.758  0.00  0.00    -0.246 OA
BRANCH  10  15
ATOM     15  N   UNL d   1      14.863   4.686 -18.870  0.00  0.00     0.342 N 
ATOM     16  C   UNL d   1      14.094   5.721 -19.566  0.00  0.00     0.328 C 
ENDBRANCH  10  15
ENDBRANCH   1   2
BRANCH   1  17
ATOM     17  C   UNL d   1       8.610   1.753 -14.640  0.00  0.00     0.025 C 
BRANCH  17  18
ATOM     18  C   UNL d   1       8.927   3.033 -13.828  0.00  0.00     0.002 C 
BRANCH  18  19
ATOM     19  C   UNL d   1       7.705   3.880 -13.461  0.00  0.00     0.003 C 
BRANCH  19  20
ATOM     20  C   UNL d   1       8.149   5.137 -12.694  0.00  0.00     0.032 C 
BRANCH  20  21
ATOM     21  C   UNL d   1       8.569   4.837 -11.248  0.00  0.00     0.142 C 
BRANCH  21  22
ATOM     22  O   UNL d   1       9.071   6.020 -10.663  0.00  0.00    -0.354 OA
BRANCH  22  23
ATOM     23  C   UNL d   1       9.286   5.891  -9.271  0.00  0.00     0.142 C 
BRANCH  23  24
ATOM     24  C   UNL d   1       9.951   7.179  -8.775  0.00  0.00     0.033 C 
BRANCH  24  25
ATOM     25  C   UNL d   1      10.234   7.131  -7.274  0.00  0.00     0.007 C 
BRANCH  25  26
ATOM     26  C   UNL d   1      11.149   8.271  -6.790  0.00  0.00     0.026 C 
BRANCH  26  27
ATOM     27  C   UNL d   1      11.446   8.219  -5.295  0.00  0.00    -0.022 A 
ATOM     28  C   UNL d   1      11.603   6.983  -4.623  0.00  0.00    -0.004 A 
ATOM     29  C   UNL d   1      11.877   6.949  -3.246  0.00  0.00    -0.000 A 
ATOM     30  C   UNL d   1      12.011   8.148  -2.525  0.00  0.00    -0.000 A 
ATOM     31  C   UNL d   1      11.860   9.382  -3.186  0.00  0.00    -0.000 A 
ATOM     32  C   UNL d   1      11.580   9.421  -4.567  0.00  0.00    -0.004 A 
ENDBRANCH  26  27
ENDBRANCH  25  26
ENDBRANCH  24  25
ENDBRANCH  23  24
ENDBRANCH  22  23
ENDBRANCH  21  22
ENDBRANCH  20  21
ENDBRANCH  19  20
ENDBRANCH  18  19
ENDBRANCH  17  18
ENDBRANCH   1  17
TORSDOF 13
