REMARK  9 active torsions:
REMARK  status: ('A' for Active; 'I' for Inactive)
REMARK    1  A    between atoms: O_2  and  C_3 
REMARK    2  A    between atoms: C_8  and  N_9 
REMARK    3  A    between atoms: N_12  and  C_13 
REMARK    4  A    between atoms: C_13  and  C_14 
REMARK    5  A    between atoms: C_14  and  C_15 
REMARK    6  A    between atoms: C_15  and  C_16 
REMARK    7  A    between atoms: C_16  and  C_17 
REMARK    8  A    between atoms: C_17  and  C_18 
REMARK    9  A    between atoms: C_18  and  N_19 
ROOT
ATOM      1  C   UNL d   1       9.453   2.135 -17.182  0.00  0.00     0.002 C 
ENDROOT
BRANCH   1   2
ATOM      2  C   UNL d   1       9.157   2.009 -15.676  0.00  0.00     0.002 C 
BRANCH   2   3
ATOM      3  C   UNL d   1       9.202   3.355 -14.938  0.00  0.00     0.035 C 
BRANCH   3   4
ATOM      4  C   UNL d   1       8.575   3.283 -13.542  0.00  0.00     0.250 C 
BRANCH   4   5
ATOM      5  N   UNL d   1       8.596   4.590 -12.906  0.00  0.00     0.141 N 
ATOM      6  C   UNL d   1       7.624   4.630 -11.799  0.00  0.00     0.274 C 
ATOM      7  C   UNL d   1       7.666   5.980 -11.073  0.00  0.00     0.137 C 
ATOM      8  N   UNL d   1       9.018   6.240 -10.608  0.00  0.00    -0.343 N 
ATOM      9  C   UNL d   1       9.978   6.208 -11.670  0.00  0.00     0.137 C 
ATOM     10  C   UNL d   1       9.934   4.839 -12.358  0.00  0.00     0.274 C 
BRANCH   8  11
ATOM     11  C   UNL d   1       9.340   6.684  -9.304  0.00  0.00     0.079 A 
ATOM     12  C   UNL d   1      10.279   7.728  -9.065  0.00  0.00     0.110 A 
ATOM     13  C   UNL d   1      10.602   8.084  -7.729  0.00  0.00     0.026 A 
ATOM     14  C   UNL d   1       9.958   7.460  -6.650  0.00  0.00     0.002 A 
ATOM     15  C   UNL d   1       8.986   6.482  -6.897  0.00  0.00     0.002 A 
ATOM     16  C   UNL d   1       8.689   6.077  -8.209  0.00  0.00     0.019 A 
BRANCH  12  17
ATOM     17  O   UNL d   1      10.795   8.391 -10.153  0.00  0.00    -0.327 OA
ATOM     18  C   UNL d   1      11.847   9.297  -9.937  0.00  0.00     0.181 C 
ENDBRANCH  12  17
ENDBRANCH   8  11
ENDBRANCH   4   5
ENDBRANCH   3   4
ENDBRANCH   2   3
ENDBRANCH   1   2
BRANCH   1  19
ATOM     19  C   UNL d   1      10.755   2.879 -17.539  0.00  0.00     0.025 C 
BRANCH  19  20
ATOM     20  C   UNL d   1      12.045   2.116 -17.166  0.00  0.00     0.112 C 
BRANCH  20  21
ATOM     21  N   UNL d   1      12.894   1.855 -18.350  0.00  0.00    -0.264 N 
ATOM     22  C   UNL d   1      13.649   2.886 -18.830  0.00  0.00     0.263 A 
ATOM     23  C   UNL d   1      14.561   2.619 -20.002  0.00  0.00     0.056 A 
ATOM     24  O   UNL d   1      13.623   4.015 -18.336  0.00  0.00    -0.267 OA
ATOM     25  C   UNL d   1      15.382   3.640 -20.544  0.00  0.00     0.005 A 
ATOM     26  C   UNL d   1      14.630   1.340 -20.602  0.00  0.00     0.009 A 
ATOM     27  C   UNL d   1      16.234   3.401 -21.635  0.00  0.00     0.000 A 
ATOM     28  C   UNL d   1      16.286   2.125 -22.210  0.00  0.00     0.000 A 
ATOM     29  C   UNL d   1      15.490   1.079 -21.706  0.00  0.00     0.000 A 
ATOM     30  C   UNL d   1      15.505  -0.213 -22.263  0.00  0.00     0.000 A 
ATOM     31  C   UNL d   1      14.701  -1.232 -21.733  0.00  0.00     0.000 A 
ATOM     32  C   UNL d   1      13.866  -0.956 -20.640  0.00  0.00     0.005 A 
ATOM     33  C   UNL d   1      13.801   0.328 -20.056  0.00  0.00     0.056 A 
ATOM     34  C   UNL d   1      12.887   0.605 -18.890  0.00  0.00     0.263 A 
ATOM     35  O   UNL d   1      12.188  -0.316 -18.453  0.00  0.00    -0.267 OA
ENDBRANCH  20  21
ENDBRANCH  19  20
ENDBRANCH   1  19
TORSDOF 9
