REMARK  7 active torsions:
REMARK  status: ('A' for Active; 'I' for Inactive)
REMARK    1  A    between atoms: C_2  and  C_3 
REMARK    2  A    between atoms: C_6  and  C_7 
REMARK       I    between atoms: C_7  and  N_9 
REMARK    3  A    between atoms: N_12  and  C_13 
REMARK    4  A    between atoms: C_13  and  C_14 
REMARK    5  A    between atoms: C_14  and  O_15 
REMARK    6  A    between atoms: O_15  and  C_16 
REMARK    7  A    between atoms: C_19  and  O_20 
ROOT
ATOM      1  C   UNL d   1       6.658   2.794 -13.701  0.00  0.00     0.257 C 
ATOM      2  O   UNL d   1       5.574   2.358 -13.303  0.00  0.00    -0.267 OA
ATOM      3  N   UNL d   1       7.122   4.019 -13.353  0.00  0.00    -0.312 N 
ATOM      4  C   UNL d   1       6.388   4.878 -12.404  0.00  0.00     0.140 C 
ATOM      5  C   UNL d   1       7.308   5.315 -11.253  0.00  0.00     0.274 C 
ATOM      6  N   UNL d   1       8.508   5.973 -11.768  0.00  0.00     0.144 N 
ATOM      7  C   UNL d   1       9.233   5.060 -12.648  0.00  0.00     0.274 C 
ATOM      8  C   UNL d   1       8.356   4.666 -13.851  0.00  0.00     0.140 C 
ENDROOT
BRANCH   6   9
ATOM      9  C   UNL d   1       9.353   6.388 -10.647  0.00  0.00     0.283 C 
BRANCH   9  10
ATOM     10  C   UNL d   1       9.885   7.820 -10.856  0.00  0.00     0.184 C 
BRANCH  10  11
ATOM     11  O   UNL d   1      11.031   8.030 -10.043  0.00  0.00    -0.329 OA
BRANCH  11  12
ATOM     12  C   UNL d   1      10.866   8.383  -8.728  0.00  0.00     0.094 A 
ATOM     13  C   UNL d   1       9.632   8.402  -8.036  0.00  0.00     0.026 A 
ATOM     14  C   UNL d   1       9.578   8.808  -6.691  0.00  0.00     0.026 A 
ATOM     15  C   UNL d   1      10.748   9.201  -6.005  0.00  0.00     0.094 A 
ATOM     16  C   UNL d   1      11.973   9.193  -6.704  0.00  0.00     0.026 A 
ATOM     17  C   UNL d   1      12.032   8.772  -8.041  0.00  0.00     0.026 A 
BRANCH  15  18
ATOM     18  O   UNL d   1      10.667   9.584  -4.685  0.00  0.00    -0.328 OA
ATOM     19  C   UNL d   1      11.820   9.396  -3.875  0.00  0.00     0.181 C 
ENDBRANCH  15  18
ENDBRANCH  11  12
ENDBRANCH  10  11
ENDBRANCH   9  10
ENDBRANCH   6   9
BRANCH   1  20
ATOM     20  C   UNL d   1       7.488   1.916 -14.606  0.00  0.00     0.056 A 
ATOM     21  C   UNL d   1       6.880   1.148 -15.626  0.00  0.00     0.004 A 
ATOM     22  C   UNL d   1       7.651   0.324 -16.470  0.00  0.00    -0.004 A 
ATOM     23  C   UNL d   1       9.043   0.242 -16.292  0.00  0.00    -0.022 A 
ATOM     24  C   UNL d   1       9.653   0.979 -15.244  0.00  0.00    -0.004 A 
ATOM     25  C   UNL d   1       8.882   1.784 -14.413  0.00  0.00     0.004 A 
BRANCH  23  26
ATOM     26  C   UNL d   1       9.892  -0.644 -17.189  0.00  0.00     0.026 C 
ATOM     27  C   UNL d   1      11.044   0.120 -17.858  0.00  0.00     0.005 C 
ENDBRANCH  23  26
ENDBRANCH   1  20
TORSDOF 7
