REMARK  4 active torsions:
REMARK  status: ('A' for Active; 'I' for Inactive)
REMARK    1  A    between atoms: C_2  and  C_3 
REMARK    2  A    between atoms: C_2  and  C_6 
REMARK    3  A    between atoms: C_10  and  C_11 
REMARK    4  A    between atoms: C_11  and  C_13 
ROOT
ATOM      1  C   UNL d   1      10.078   7.090  -8.887  0.00  0.00    -0.012 A 
ATOM      2  C   UNL d   1      11.155   7.254  -9.788  0.00  0.00    -0.004 A 
ATOM      3  C   UNL d   1      12.251   8.057  -9.476  0.00  0.00    -0.000 A 
ATOM      4  C   UNL d   1      12.295   8.715  -8.246  0.00  0.00     0.003 A 
ATOM      5  C   UNL d   1      11.205   8.640  -7.362  0.00  0.00     0.039 A 
ATOM      6  C   UNL d   1      10.103   7.814  -7.671  0.00  0.00    -0.001 A 
ENDROOT
BRANCH   5   7
ATOM      7  C   UNL d   1      11.250   9.417  -6.120  0.00  0.00     0.196 C 
ATOM      8  O   UNL d   1      11.141  10.642  -6.147  0.00  0.00    -0.287 OA
BRANCH   7   9
ATOM      9  C   UNL d   1      11.544   8.689  -4.855  0.00  0.00     0.039 A 
ATOM     10  C   UNL d   1      11.797   7.298  -4.835  0.00  0.00     0.003 A 
ATOM     11  C   UNL d   1      12.108   6.660  -3.626  0.00  0.00     0.000 A 
ATOM     12  C   UNL d   1      12.156   7.378  -2.433  0.00  0.00     0.000 A 
ATOM     13  C   UNL d   1      11.895   8.757  -2.441  0.00  0.00     0.000 A 
ATOM     14  C   UNL d   1      11.582   9.411  -3.642  0.00  0.00     0.003 A 
ENDBRANCH   7   9
ENDBRANCH   5   7
BRANCH   1  15
ATOM     15  C   UNL d   1       8.908   6.148  -9.210  0.00  0.00     0.110 C 
ATOM     16  C   UNL d   1       8.927   4.905  -8.331  0.00  0.00     0.016 C 
BRANCH  15  17
ATOM     17  C   UNL d   1       8.793   5.760 -10.709  0.00  0.00     0.189 C 
ATOM     18  O   UNL d   1       9.284   4.739 -11.181  0.00  0.00    -0.647 OA
ATOM     19  O   UNL d   1       8.255   6.775 -11.455  0.00  0.00    -0.647 OA
ENDBRANCH  15  17
ENDBRANCH   1  15
TORSDOF 4
