REMARK  11 active torsions:
REMARK  status: ('A' for Active; 'I' for Inactive)
REMARK    1  A    between atoms: C_2  and  C_3 
REMARK    2  A    between atoms: C_2  and  C_10 
REMARK    3  A    between atoms: C_3  and  C_4 
REMARK    4  A    between atoms: C_10  and  N_11 
REMARK    5  A    between atoms: C_14  and  N_15 
REMARK    6  A    between atoms: N_15  and  C_16 
REMARK    7  A    between atoms: C_16  and  C_17 
REMARK    8  A    between atoms: C_17  and  S_18 
REMARK    9  A    between atoms: S_18  and  C_19 
REMARK   10  A    between atoms: C_19  and  C_20 
REMARK   11  A    between atoms: C_19  and  C_27 
ROOT
ATOM      1  C   UNL d   1       8.715   4.828 -12.330  0.00  0.00     0.302 C 
ENDROOT
BRANCH   1   2
ATOM      2  N   UNL d   1       9.333   4.780 -11.022  0.00  0.00     0.338 N 
BRANCH   2   3
ATOM      3  C   UNL d   1       9.076   6.016 -10.308  0.00  0.00     0.261 C 
ATOM      4  C   UNL d   1      10.122   7.053 -10.732  0.00  0.00     0.071 C 
ATOM      5  C   UNL d   1      10.018   8.304  -9.878  0.00  0.00     0.252 C 
ATOM      6  N   UNL d   1      10.175   7.990  -8.457  0.00  0.00     0.140 N 
ATOM      7  C   UNL d   1       9.140   7.053  -8.028  0.00  0.00     0.252 C 
ATOM      8  C   UNL d   1       9.192   5.739  -8.806  0.00  0.00     0.071 C 
BRANCH   6   9
ATOM      9  C   UNL d   1      10.099   9.220  -7.686  0.00  0.00     0.283 C 
BRANCH   9  10
ATOM     10  C   UNL d   1      10.397   9.107  -6.184  0.00  0.00     0.190 C 
ATOM     11  O   UNL d   1      10.721  10.412  -5.782  0.00  0.00    -0.221 OA
BRANCH  10  12
ATOM     12  C   UNL d   1      11.602   8.217  -5.858  0.00  0.00     0.061 C 
BRANCH  12  13
ATOM     13  C   UNL d   1      11.914   8.114  -4.371  0.00  0.00    -0.020 A 
ATOM     14  C   UNL d   1      12.206   6.856  -3.802  0.00  0.00    -0.004 A 
ATOM     15  C   UNL d   1      12.554   6.763  -2.433  0.00  0.00    -0.000 A 
ATOM     16  C   UNL d   1      12.591   7.921  -1.649  0.00  0.00    -0.000 A 
ATOM     17  C   UNL d   1      12.264   9.161  -2.194  0.00  0.00    -0.000 A 
ATOM     18  C   UNL d   1      11.958   9.267  -3.545  0.00  0.00    -0.004 A 
ENDBRANCH  12  13
ENDBRANCH  10  12
ENDBRANCH   9  10
ENDBRANCH   6   9
ENDBRANCH   2   3
ENDBRANCH   1   2
BRANCH   1  19
ATOM     19  C   UNL d   1       9.359   3.825 -13.287  0.00  0.00     0.096 C 
BRANCH  19  20
ATOM     20  S   UNL d   1      10.950   4.376 -13.966  0.00  0.00    -0.130 SA
BRANCH  20  21
ATOM     21  C   UNL d   1      10.664   4.187 -15.762  0.00  0.00     0.092 C 
BRANCH  21  22
ATOM     22  C   UNL d   1      10.560   2.701 -16.171  0.00  0.00    -0.008 A 
ATOM     23  C   UNL d   1       9.487   1.893 -15.684  0.00  0.00    -0.001 A 
ATOM     24  C   UNL d   1       9.425   0.524 -16.038  0.00  0.00     0.029 A 
ATOM     25  C   UNL d   1      10.378  -0.056 -16.904  0.00  0.00     0.140 A 
ATOM     26  C   UNL d   1      11.425   0.739 -17.409  0.00  0.00     0.029 A 
ATOM     27  F   UNL d   1      10.279  -1.358 -17.269  0.00  0.00    -0.204 F 
ATOM     28  C   UNL d   1      11.514   2.102 -17.050  0.00  0.00    -0.001 A 
ENDBRANCH  21  22
BRANCH  21  29
ATOM     29  C   UNL d   1      11.727   4.989 -16.518  0.00  0.00    -0.008 A 
ATOM     30  C   UNL d   1      13.102   4.699 -16.349  0.00  0.00    -0.001 A 
ATOM     31  C   UNL d   1      14.084   5.359 -17.113  0.00  0.00     0.029 A 
ATOM     32  C   UNL d   1      13.708   6.362 -18.026  0.00  0.00     0.140 A 
ATOM     33  C   UNL d   1      12.346   6.694 -18.175  0.00  0.00     0.029 A 
ATOM     34  F   UNL d   1      14.649   6.998 -18.761  0.00  0.00    -0.204 F 
ATOM     35  C   UNL d   1      11.362   6.012 -17.424  0.00  0.00    -0.001 A 
ENDBRANCH  21  29
ENDBRANCH  20  21
ENDBRANCH  19  20
ENDBRANCH   1  19
TORSDOF 11
