REMARK  6 active torsions:
REMARK  status: ('A' for Active; 'I' for Inactive)
REMARK    1  A    between atoms: C_2  and  C_5 
REMARK    2  A    between atoms: C_9  and  N_10 
REMARK    3  A    between atoms: N_13  and  C_14 
REMARK    4  A    between atoms: C_14  and  C_15 
REMARK    5  A    between atoms: C_15  and  C_16 
REMARK    6  A    between atoms: C_16  and  C_17 
ROOT
ATOM      1  N   UNL d   1       9.679   2.775 -14.961  0.00  0.00    -0.344 N 
ATOM      2  C   UNL d   1      10.541   3.868 -15.382  0.00  0.00     0.137 C 
ATOM      3  C   UNL d   1      10.033   5.188 -14.769  0.00  0.00     0.274 C 
ATOM      4  N   UNL d   1       9.925   5.109 -13.306  0.00  0.00     0.141 N 
ATOM      5  C   UNL d   1       8.981   4.038 -12.964  0.00  0.00     0.274 C 
ATOM      6  C   UNL d   1       9.488   2.696 -13.524  0.00  0.00     0.137 C 
ENDROOT
BRANCH   4   7
ATOM      7  C   UNL d   1       9.450   6.379 -12.759  0.00  0.00     0.251 C 
BRANCH   7   8
ATOM      8  C   UNL d   1       9.673   6.456 -11.241  0.00  0.00     0.040 C 
BRANCH   8   9
ATOM      9  C   UNL d   1       9.693   7.896 -10.716  0.00  0.00     0.029 C 
BRANCH   9  10
ATOM     10  C   UNL d   1      10.021   7.976  -9.225  0.00  0.00    -0.021 A 
ATOM     11  C   UNL d   1      11.071   8.803  -8.766  0.00  0.00     0.016 A 
ATOM     12  C   UNL d   1      11.338   8.871  -7.385  0.00  0.00     0.101 A 
ATOM     13  C   UNL d   1      10.594   8.110  -6.435  0.00  0.00     0.101 A 
ATOM     14  N   UNL d   1      12.252   9.571  -6.611  0.00  0.00    -0.223 NA
ATOM     15  C   UNL d   1       9.547   7.294  -6.910  0.00  0.00     0.020 A 
ATOM     16  N   UNL d   1      11.055   8.325  -5.144  0.00  0.00    -0.223 NA
ATOM     17  C   UNL d   1       9.266   7.232  -8.289  0.00  0.00    -0.003 A 
ATOM     18  C   UNL d   1      12.022   9.213  -5.340  0.00  0.00     0.199 A 
ENDBRANCH   9  10
ENDBRANCH   8   9
ENDBRANCH   7   8
ENDBRANCH   4   7
BRANCH   1  19
ATOM     19  C   UNL d   1       9.074   1.872 -15.862  0.00  0.00     0.056 A 
ATOM     20  C   UNL d   1       7.805   1.310 -15.581  0.00  0.00     0.017 A 
ATOM     21  C   UNL d   1       7.201   0.414 -16.481  0.00  0.00     0.001 A 
ATOM     22  C   UNL d   1       7.840   0.082 -17.685  0.00  0.00     0.004 A 
ATOM     23  C   UNL d   1       9.095   0.642 -17.998  0.00  0.00     0.073 A 
ATOM     24  C   UNL d   1       9.713   1.521 -17.075  0.00  0.00     0.021 A 
BRANCH  23  25
ATOM     25  C   UNL d   1       9.793   0.283 -19.304  0.00  0.00     0.419 C 
ATOM     26  F   UNL d   1       8.900   0.004 -20.254  0.00  0.00    -0.166 F 
ATOM     27  F   UNL d   1      10.554  -0.790 -19.102  0.00  0.00    -0.166 F 
ATOM     28  F   UNL d   1      10.562   1.283 -19.737  0.00  0.00    -0.166 F 
ENDBRANCH  23  25
ENDBRANCH   1  19
TORSDOF 6
