REMARK  9 active torsions:
REMARK  status: ('A' for Active; 'I' for Inactive)
REMARK    1  A    between atoms: C_4  and  C_5 
REMARK    2  A    between atoms: C_5  and  C_6 
REMARK    3  A    between atoms: C_5  and  N_12 
REMARK    4  A    between atoms: N_15  and  C_16 
REMARK    5  A    between atoms: C_16  and  C_17 
REMARK    6  A    between atoms: C_17  and  C_18 
REMARK    7  A    between atoms: C_18  and  C_19 
REMARK    8  A    between atoms: C_19  and  C_20 
REMARK    9  A    between atoms: C_22  and  C_23 
ROOT
ATOM      1  N   UNL d   1      11.857   1.228 -17.852  0.00  0.00     0.147 N 
ATOM      2  C   UNL d   1      10.661   0.497 -18.309  0.00  0.00     0.286 C 
ATOM      3  C   UNL d   1       9.797  -0.005 -17.157  0.00  0.00     0.285 C 
ATOM      4  N   UNL d   1       9.376   1.079 -16.261  0.00  0.00     0.141 N 
ATOM      5  C   UNL d   1      10.600   1.713 -15.747  0.00  0.00     0.285 C 
ATOM      6  C   UNL d   1      11.440   2.276 -16.898  0.00  0.00     0.286 C 
ENDROOT
BRANCH   4   7
ATOM      7  C   UNL d   1       8.504   0.550 -15.215  0.00  0.00     0.250 C 
BRANCH   7   8
ATOM      8  C   UNL d   1       7.545   1.578 -14.585  0.00  0.00     0.036 C 
BRANCH   8   9
ATOM      9  C   UNL d   1       8.234   2.804 -13.960  0.00  0.00     0.009 C 
BRANCH   9  10
ATOM     10  C   UNL d   1       7.295   3.744 -13.202  0.00  0.00     0.054 C 
BRANCH  10  11
ATOM     11  C   UNL d   1       8.054   4.701 -12.352  0.00  0.00     0.104 A 
ATOM     12  O   UNL d   1       8.847   5.603 -12.984  0.00  0.00    -0.215 OA
ATOM     13  N   UNL d   1       9.440   6.421 -12.022  0.00  0.00    -0.126 NA
ATOM     14  C   UNL d   1       9.035   5.973 -10.842  0.00  0.00     0.116 A 
ATOM     15  C   UNL d   1       8.156   4.866 -11.002  0.00  0.00     0.044 A 
BRANCH  14  16
ATOM     16  C   UNL d   1       9.485   6.597  -9.590  0.00  0.00     0.049 A 
ATOM     17  S   UNL d   1      10.649   7.903  -9.625  0.00  0.00    -0.085 SA
ATOM     18  C   UNL d   1      10.602   8.048  -7.889  0.00  0.00     0.035 A 
ATOM     19  C   UNL d   1       9.724   7.156  -7.332  0.00  0.00     0.007 A 
ATOM     20  C   UNL d   1       9.084   6.326  -8.303  0.00  0.00     0.009 A 
ENDBRANCH  14  16
ENDBRANCH  10  11
ENDBRANCH   9  10
ENDBRANCH   8   9
ENDBRANCH   7   8
ENDBRANCH   4   7
BRANCH   1  21
ATOM     21  C   UNL d   1      12.730   1.774 -18.921  0.00  0.00     0.264 C 
BRANCH  21  22
ATOM     22  C   UNL d   1      12.064   2.843 -19.799  0.00  0.00     0.013 A 
ATOM     23  C   UNL d   1      12.263   4.217 -19.521  0.00  0.00    -0.002 A 
ATOM     24  C   UNL d   1      11.607   5.206 -20.288  0.00  0.00    -0.000 A 
ATOM     25  C   UNL d   1      10.751   4.832 -21.348  0.00  0.00    -0.000 A 
ATOM     26  C   UNL d   1      10.547   3.470 -21.627  0.00  0.00    -0.000 A 
ATOM     27  C   UNL d   1      11.193   2.491 -20.860  0.00  0.00    -0.002 A 
ENDBRANCH  21  22
BRANCH  21  28
ATOM     28  C   UNL d   1      13.480   0.714 -19.743  0.00  0.00     0.013 A 
ATOM     29  C   UNL d   1      12.811  -0.277 -20.514  0.00  0.00    -0.002 A 
ATOM     30  C   UNL d   1      13.522  -1.228 -21.247  0.00  0.00    -0.000 A 
ATOM     31  C   UNL d   1      14.939  -1.215 -21.250  0.00  0.00    -0.000 A 
ATOM     32  C   UNL d   1      15.626  -0.242 -20.510  0.00  0.00    -0.000 A 
ATOM     33  C   UNL d   1      14.904   0.716 -19.757  0.00  0.00    -0.002 A 
ENDBRANCH  21  28
ENDBRANCH   1  21
TORSDOF 9
