REMARK  5 active torsions:
REMARK  status: ('A' for Active; 'I' for Inactive)
REMARK       I    between atoms: N_10  and  C_11 
REMARK    1  A    between atoms: C_11  and  C_13 
REMARK    2  A    between atoms: C_13  and  N_14 
REMARK    3  A    between atoms: N_17  and  C_18 
REMARK    4  A    between atoms: C_18  and  C_19 
REMARK    5  A    between atoms: C_22  and  C_23 
ROOT
ATOM      1  N   UNL d   1       9.401   6.182 -10.739  0.00  0.00     0.151 N 
ATOM      2  C   UNL d   1       9.278   4.728 -10.547  0.00  0.00     0.286 C 
ATOM      3  C   UNL d   1       9.609   4.012 -11.852  0.00  0.00     0.286 C 
ATOM      4  N   UNL d   1       8.720   4.388 -12.942  0.00  0.00     0.146 N 
ATOM      5  C   UNL d   1       8.756   5.844 -13.118  0.00  0.00     0.286 C 
ATOM      6  C   UNL d   1       8.474   6.585 -11.805  0.00  0.00     0.286 C 
ENDROOT
BRANCH   1   7
ATOM      7  C   UNL d   1       9.142   6.973  -9.532  0.00  0.00     0.337 C 
BRANCH   7   8
ATOM      8  C   UNL d   1      10.050   6.735  -8.328  0.00  0.00     0.271 C 
ATOM      9  N   UNL d   1      10.603   7.774  -7.657  0.00  0.00    -0.299 N 
ATOM     10  C   UNL d   1      10.661   9.141  -8.184  0.00  0.00     0.093 C 
ATOM     11  C   UNL d   1      11.116   7.714  -6.336  0.00  0.00     0.058 A 
ATOM     12  C   UNL d   1      11.696   9.180  -9.331  0.00  0.00     0.025 C 
ATOM     13  C   UNL d   1      11.075   9.991  -6.954  0.00  0.00     0.051 C 
ATOM     14  C   UNL d   1      11.381   8.991  -5.879  0.00  0.00    -0.004 A 
ATOM     15  C   UNL d   1      11.863   9.236  -4.591  0.00  0.00    -0.003 A 
ATOM     16  C   UNL d   1      12.112   8.149  -3.728  0.00  0.00    -0.000 A 
ATOM     17  C   UNL d   1      11.859   6.840  -4.182  0.00  0.00     0.002 A 
ATOM     18  C   UNL d   1      11.374   6.615  -5.480  0.00  0.00     0.017 A 
ATOM     19  O   UNL d   1      10.203   5.578  -7.967  0.00  0.00    -0.270 OA
ENDBRANCH   7   8
ENDBRANCH   1   7
BRANCH   4  20
ATOM     20  C   UNL d   1       9.009   3.651 -14.170  0.00  0.00     0.277 C 
BRANCH  20  21
ATOM     21  C   UNL d   1      10.235   4.129 -14.949  0.00  0.00     0.011 A 
ATOM     22  C   UNL d   1      11.541   3.968 -14.438  0.00  0.00    -0.002 A 
ATOM     23  C   UNL d   1      12.647   4.489 -15.124  0.00  0.00     0.004 A 
ATOM     24  C   UNL d   1      12.475   5.144 -16.360  0.00  0.00     0.071 A 
ATOM     25  C   UNL d   1      11.175   5.264 -16.903  0.00  0.00     0.004 A 
ATOM     26  C   UNL d   1      10.059   4.771 -16.194  0.00  0.00    -0.002 A 
BRANCH  24  27
ATOM     27  C   UNL d   1      13.679   5.663 -17.127  0.00  0.00     0.419 C 
ATOM     28  F   UNL d   1      14.008   4.764 -18.055  0.00  0.00    -0.166 F 
ATOM     29  F   UNL d   1      13.386   6.823 -17.717  0.00  0.00    -0.166 F 
ATOM     30  F   UNL d   1      14.730   5.855 -16.328  0.00  0.00    -0.166 F 
ENDBRANCH  24  27
ENDBRANCH  20  21
ENDBRANCH   4  20
TORSDOF 5
