REMARK  7 active torsions:
REMARK  status: ('A' for Active; 'I' for Inactive)
REMARK    1  A    between atoms: S_2  and  N_4 
REMARK    2  A    between atoms: S_2  and  C_28 
REMARK    3  A    between atoms: N_4  and  C_5 
REMARK    4  A    between atoms: C_8  and  C_9 
REMARK    5  A    between atoms: C_9  and  C_10 
REMARK    6  A    between atoms: C_10  and  N_11 
REMARK    7  A    between atoms: C_14  and  C_15 
ROOT
ATOM      1  C   UNL d   1       6.680   1.726 -13.803  0.00  0.00     0.035 C 
ENDROOT
BRANCH   1   2
ATOM      2  C   UNL d   1       6.043   0.893 -14.922  0.00  0.00     0.002 C 
ATOM      3  C   UNL d   1       6.723   1.040 -16.301  0.00  0.00     0.002 C 
ATOM      4  C   UNL d   1       5.931   0.280 -17.381  0.00  0.00     0.025 C 
ATOM      5  C   UNL d   1       5.682  -1.173 -16.962  0.00  0.00     0.116 C 
ATOM      6  C   UNL d   1       4.918  -1.267 -15.633  0.00  0.00     0.025 C 
ATOM      7  C   UNL d   1       5.695  -0.541 -14.510  0.00  0.00     0.002 C 
BRANCH   5   8
ATOM      8  N   UNL d   1       4.978  -1.881 -18.029  0.00  0.00    -0.187 NA
BRANCH   8   9
ATOM      9  S   UNL d   1       5.872  -2.660 -19.284  0.00  0.00     0.281 S 
ATOM     10  O   UNL d   1       4.997  -2.778 -20.438  0.00  0.00    -0.199 OA
ATOM     11  O   UNL d   1       7.192  -1.980 -19.394  0.00  0.00    -0.199 OA
BRANCH   9  12
ATOM     12  C   UNL d   1       6.165  -4.288 -18.625  0.00  0.00     0.105 A 
ATOM     13  C   UNL d   1       7.401  -4.913 -18.899  0.00  0.00     0.013 A 
ATOM     14  C   UNL d   1       7.624  -6.210 -18.429  0.00  0.00     0.001 A 
ATOM     15  C   UNL d   1       6.638  -6.883 -17.663  0.00  0.00     0.000 A 
ATOM     16  C   UNL d   1       5.421  -6.251 -17.387  0.00  0.00     0.001 A 
ATOM     17  C   UNL d   1       5.185  -4.946 -17.869  0.00  0.00     0.013 A 
ENDBRANCH   9  12
ENDBRANCH   8   9
ENDBRANCH   5   8
ENDBRANCH   1   2
BRANCH   1  18
ATOM     18  C   UNL d   1       6.439   3.255 -13.917  0.00  0.00     0.250 C 
BRANCH  18  19
ATOM     19  N   UNL d   1       7.077   3.906 -12.794  0.00  0.00     0.137 N 
ATOM     20  C   UNL d   1       8.519   4.064 -13.021  0.00  0.00     0.251 C 
ATOM     21  C   UNL d   1       9.224   4.660 -11.788  0.00  0.00     0.040 C 
ATOM     22  C   UNL d   1       8.627   5.990 -11.362  0.00  0.00     0.026 C 
ATOM     23  C   UNL d   1       7.114   5.717 -11.277  0.00  0.00     0.040 C 
ATOM     24  C   UNL d   1       6.486   5.194 -12.532  0.00  0.00     0.251 C 
BRANCH  22  25
ATOM     25  C   UNL d   1       9.210   6.399  -9.988  0.00  0.00    -0.024 C 
ATOM     26  C   UNL d   1       9.947   7.576  -9.801  0.00  0.00    -0.001 A 
ATOM     27  C   UNL d   1      10.569   7.943  -8.608  0.00  0.00     0.090 A 
ATOM     28  C   UNL d   1      10.248   8.621 -10.793  0.00  0.00     0.061 A 
ATOM     29  C   UNL d   1      10.370   7.217  -7.454  0.00  0.00     0.024 C 
ATOM     30  O   UNL d   1      11.372   9.014  -8.667  0.00  0.00    -0.331 OA
ATOM     31  C   UNL d   1       9.557   6.087  -7.541  0.00  0.00     0.002 C 
ATOM     32  C   UNL d   1       9.040   5.615  -8.796  0.00  0.00    -0.004 C 
ATOM     33  C   UNL d   1      11.224   9.499  -9.986  0.00  0.00     0.154 A 
ENDBRANCH  22  25
ENDBRANCH  18  19
ENDBRANCH   1  18
TORSDOF 7
