REMARK  6 active torsions:
REMARK  status: ('A' for Active; 'I' for Inactive)
REMARK    1  A    between atoms: C_2  and  N_3 
REMARK    2  A    between atoms: C_7  and  C_8 
REMARK    3  A    between atoms: C_8  and  N_9 
REMARK    4  A    between atoms: N_9  and  C_10 
REMARK    5  A    between atoms: C_17  and  O_18 
REMARK    6  A    between atoms: C_20  and  O_21 
ROOT
ATOM      1  C   UNL d   1       9.107   4.292 -13.821  0.00  0.00     0.181 A 
ATOM      2  N   UNL d   1      10.269   4.770 -14.341  0.00  0.00    -0.129 NA
ATOM      3  N   UNL d   1      10.752   4.310 -15.497  0.00  0.00    -0.145 NA
ATOM      4  C   UNL d   1      10.093   3.335 -16.149  0.00  0.00     0.122 A 
ATOM      5  C   UNL d   1       8.893   2.773 -15.665  0.00  0.00     0.026 A 
ATOM      6  C   UNL d   1       8.236   1.747 -16.364  0.00  0.00     0.004 C 
ATOM      7  C   UNL d   1       7.060   1.187 -15.831  0.00  0.00     0.026 C 
ATOM      8  C   UNL d   1       6.519   1.663 -14.614  0.00  0.00     0.116 C 
ATOM      9  C   UNL d   1       7.123   2.768 -13.970  0.00  0.00     0.119 C 
ATOM     10  C   UNL d   1       8.354   3.280 -14.460  0.00  0.00     0.063 A 
ENDROOT
BRANCH   1  11
ATOM     11  N   UNL d   1       8.676   4.833 -12.606  0.00  0.00    -0.249 NA
BRANCH  11  12
ATOM     12  C   UNL d   1       9.456   5.899 -11.995  0.00  0.00     0.161 C 
BRANCH  12  13
ATOM     13  C   UNL d   1       8.778   6.470 -10.756  0.00  0.00     0.243 C 
ATOM     14  N   UNL d   1       9.505   7.602 -10.195  0.00  0.00     0.137 N 
ATOM     15  C   UNL d   1      10.623   7.036  -9.447  0.00  0.00     0.250 C 
ATOM     16  C   UNL d   1       9.981   5.852  -8.720  0.00  0.00     0.037 C 
ATOM     17  C   UNL d   1       8.759   5.498  -9.564  0.00  0.00     0.037 C 
BRANCH  14  18
ATOM     18  C   UNL d   1       9.913   8.650 -11.142  0.00  0.00     0.250 C 
ATOM     19  C   UNL d   1       8.708   9.196 -11.928  0.00  0.00     0.037 C 
ENDBRANCH  14  18
ENDBRANCH  12  13
ENDBRANCH  11  12
ENDBRANCH   1  11
BRANCH   9  20
ATOM     20  O   UNL d   1       6.571   3.238 -12.802  0.00  0.00    -0.326 OA
ATOM     21  C   UNL d   1       5.401   4.024 -12.931  0.00  0.00     0.181 C 
ENDBRANCH   9  20
BRANCH   8  22
ATOM     22  O   UNL d   1       5.432   1.102 -13.985  0.00  0.00    -0.326 OA
ATOM     23  C   UNL d   1       4.812  -0.029 -14.577  0.00  0.00     0.181 C 
ENDBRANCH   8  22
TORSDOF 6
