REMARK  7 active torsions:
REMARK  status: ('A' for Active; 'I' for Inactive)
REMARK    1  A    between atoms: O_2  and  N_3 
REMARK    2  A    between atoms: C_4  and  C_5 
REMARK    3  A    between atoms: C_4  and  C_12 
REMARK    4  A    between atoms: C_12  and  C_13 
REMARK    5  A    between atoms: C_12  and  O_26 
REMARK    6  A    between atoms: C_13  and  N_14 
REMARK    7  A    between atoms: N_17  and  C_18 
ROOT
ATOM      1  C   UNL d   1       9.936   4.626 -13.910  0.00  0.00     0.191 C 
ENDROOT
BRANCH   1   2
ATOM      2  C   UNL d   1       8.803   5.007 -12.938  0.00  0.00     0.114 C 
ATOM      3  N   UNL d   1       7.591   4.723 -13.195  0.00  0.00    -0.133 NA
BRANCH   3   4
ATOM      4  O   UNL d   1       6.722   4.919 -12.133  0.00  0.00    -0.234 OA
ATOM      5  C   UNL d   1       5.545   4.182 -12.392  0.00  0.00     0.211 C 
ENDBRANCH   3   4
BRANCH   2   6
ATOM      6  C   UNL d   1       9.209   5.755 -11.719  0.00  0.00     0.018 A 
ATOM      7  C   UNL d   1       9.447   7.144 -11.836  0.00  0.00     0.002 A 
ATOM      8  C   UNL d   1       9.842   7.906 -10.726  0.00  0.00     0.011 A 
ATOM      9  C   UNL d   1       9.944   7.295  -9.457  0.00  0.00     0.058 A 
ATOM     10  C   UNL d   1       9.694   5.911  -9.321  0.00  0.00     0.011 A 
ATOM     11 CL   UNL d   1      10.361   8.250  -8.081  0.00  0.00    -0.082 Cl
ATOM     12  C   UNL d   1       9.346   5.146 -10.450  0.00  0.00     0.002 A 
ENDBRANCH   2   6
ENDBRANCH   1   2
BRANCH   1  13
ATOM     13  C   UNL d   1       9.855   3.179 -14.474  0.00  0.00     0.286 C 
BRANCH  13  14
ATOM     14  N   UNL d   1       8.623   2.796 -15.131  0.00  0.00     0.144 N 
ATOM     15  C   UNL d   1       8.823   2.171 -16.424  0.00  0.00     0.274 C 
ATOM     16  C   UNL d   1       7.492   1.839 -17.108  0.00  0.00     0.138 C 
ATOM     17  N   UNL d   1       6.649   1.056 -16.206  0.00  0.00    -0.330 N 
ATOM     18  C   UNL d   1       6.490   1.581 -14.846  0.00  0.00     0.138 C 
ATOM     19  C   UNL d   1       7.861   1.889 -14.271  0.00  0.00     0.274 C 
BRANCH  17  20
ATOM     20  C   UNL d   1       6.088  -0.176 -16.582  0.00  0.00     0.140 A 
ATOM     21  N   UNL d   1       6.597  -0.796 -17.675  0.00  0.00    -0.227 NA
ATOM     22  C   UNL d   1       6.094  -1.982 -18.044  0.00  0.00     0.101 A 
ATOM     23  C   UNL d   1       5.043  -2.626 -17.360  0.00  0.00     0.021 A 
ATOM     24  C   UNL d   1       4.508  -1.973 -16.232  0.00  0.00     0.005 A 
ATOM     25  C   UNL d   1       5.023  -0.746 -15.837  0.00  0.00     0.037 A 
ENDBRANCH  17  20
ENDBRANCH  13  14
ENDBRANCH   1  13
BRANCH   1  26
ATOM     26  O   UNL d   1      11.206   4.759 -13.269  0.00  0.00    -0.346 OA
ATOM     27  C   UNL d   1      12.374   4.398 -14.012  0.00  0.00     0.175 C 
ENDBRANCH   1  26
TORSDOF 7
