REMARK  3 active torsions:
REMARK  status: ('A' for Active; 'I' for Inactive)
REMARK    1  A    between atoms: C_2  and  N_3 
REMARK    2  A    between atoms: N_6  and  C_7 
REMARK    3  A    between atoms: C_9  and  C_10 
ROOT
ATOM      1  C   UNL d   1       8.851   4.945 -12.929  0.00  0.00     0.140 A 
ATOM      2  C   UNL d   1       9.928   5.188 -13.798  0.00  0.00     0.036 A 
ATOM      3  C   UNL d   1      10.030   4.515 -15.031  0.00  0.00     0.000 A 
ATOM      4  C   UNL d   1       9.023   3.584 -15.334  0.00  0.00    -0.008 A 
ATOM      5  C   UNL d   1       7.968   3.381 -14.407  0.00  0.00     0.057 A 
ATOM      6  N   UNL d   1       7.898   4.044 -13.232  0.00  0.00    -0.233 NA
ATOM      7  C   UNL d   1       6.804   2.430 -14.644  0.00  0.00     0.046 C 
ATOM      8  C   UNL d   1       7.071   0.956 -14.274  0.00  0.00     0.009 C 
ATOM      9  C   UNL d   1       7.995   0.220 -15.246  0.00  0.00     0.033 C 
ATOM     10  C   UNL d   1       9.465   0.708 -15.275  0.00  0.00     0.152 C 
ATOM     11  O   UNL d   1      10.268  -0.413 -15.392  0.00  0.00    -0.224 OA
ATOM     12  C   UNL d   1       9.835   1.522 -16.521  0.00  0.00     0.038 C 
ATOM     13  C   UNL d   1       9.069   2.833 -16.654  0.00  0.00     0.030 C 
ENDROOT
BRANCH   1  14
ATOM     14  N   UNL d   1       8.749   5.632 -11.709  0.00  0.00    -0.330 N 
ATOM     15  C   UNL d   1       8.082   5.034 -10.557  0.00  0.00     0.138 C 
ATOM     16  C   UNL d   1       9.038   5.037  -9.341  0.00  0.00     0.274 C 
ATOM     17  N   UNL d   1       9.515   6.390  -9.039  0.00  0.00     0.141 N 
ATOM     18  C   UNL d   1      10.201   6.961 -10.205  0.00  0.00     0.274 C 
ATOM     19  C   UNL d   1       9.285   6.973 -11.453  0.00  0.00     0.138 C 
BRANCH  17  20
ATOM     20  C   UNL d   1      10.408   6.365  -7.875  0.00  0.00     0.251 C 
ATOM     21  C   UNL d   1       9.638   6.781  -6.615  0.00  0.00     0.037 C 
ENDBRANCH  17  20
ENDBRANCH   1  14
BRANCH   3  22
ATOM     22  C   UNL d   1      11.145   4.842 -15.924  0.00  0.00    -0.000 A 
ATOM     23  C   UNL d   1      11.107   5.946 -16.813  0.00  0.00     0.002 A 
ATOM     24  C   UNL d   1      12.202   6.237 -17.654  0.00  0.00     0.030 A 
ATOM     25  C   UNL d   1      13.341   5.411 -17.623  0.00  0.00     0.140 A 
ATOM     26  C   UNL d   1      13.385   4.312 -16.749  0.00  0.00     0.030 A 
ATOM     27  F   UNL d   1      14.402   5.664 -18.431  0.00  0.00    -0.204 F 
ATOM     28  C   UNL d   1      12.302   4.040 -15.894  0.00  0.00     0.002 A 
ENDBRANCH   3  22
TORSDOF 3
