REMARK  8 active torsions:
REMARK  status: ('A' for Active; 'I' for Inactive)
REMARK    1  A    between atoms: C_2  and  C_3 
REMARK    2  A    between atoms: C_3  and  C_4 
REMARK    3  A    between atoms: C_4  and  C_5 
REMARK    4  A    between atoms: C_8  and  S_9 
REMARK    5  A    between atoms: S_9  and  N_12 
REMARK    6  A    between atoms: N_12  and  C_13 
REMARK    7  A    between atoms: N_21  and  C_22 
REMARK    8  A    between atoms: C_22  and  C_23 
ROOT
ATOM      1  C   UNL d   1       8.661   5.804 -10.527  0.00  0.00     0.093 A 
ATOM      2  C   UNL d   1       8.951   6.963 -11.268  0.00  0.00     0.020 A 
ATOM      3  C   UNL d   1       9.889   7.905 -10.748  0.00  0.00    -0.003 A 
ATOM      4  C   UNL d   1      10.437   7.720  -9.481  0.00  0.00    -0.024 A 
ATOM      5  C   UNL d   1      10.087   6.576  -8.722  0.00  0.00    -0.022 A 
ATOM      6  C   UNL d   1       9.175   5.619  -9.246  0.00  0.00     0.015 A 
ATOM      7  C   UNL d   1      10.562   6.344  -7.328  0.00  0.00     0.061 C 
ATOM      8  C   UNL d   1      10.198   7.461  -6.362  0.00  0.00     0.255 C 
ATOM      9  N   UNL d   1      11.236   8.493  -6.442  0.00  0.00     0.144 N 
ATOM     10  C   UNL d   1      10.959   9.383  -7.575  0.00  0.00     0.255 C 
ATOM     11  C   UNL d   1      11.389   8.782  -8.925  0.00  0.00     0.061 C 
ENDROOT
BRANCH   1  12
ATOM     12  N   UNL d   1       7.841   4.797 -11.014  0.00  0.00    -0.158 NA
BRANCH  12  13
ATOM     13  S   UNL d   1       7.054   4.638 -12.546  0.00  0.00     0.285 S 
ATOM     14  O   UNL d   1       6.517   5.990 -12.841  0.00  0.00    -0.198 OA
ATOM     15  O   UNL d   1       6.130   3.510 -12.399  0.00  0.00    -0.198 OA
BRANCH  13  16
ATOM     16  C   UNL d   1       8.447   4.233 -13.619  0.00  0.00     0.105 A 
ATOM     17  C   UNL d   1       9.600   5.055 -13.659  0.00  0.00     0.013 A 
ATOM     18  C   UNL d   1      10.723   4.644 -14.389  0.00  0.00    -0.004 A 
ATOM     19  C   UNL d   1      10.666   3.499 -15.207  0.00  0.00    -0.022 A 
ATOM     20  C   UNL d   1       9.518   2.668 -15.174  0.00  0.00    -0.004 A 
ATOM     21  C   UNL d   1       8.419   3.022 -14.353  0.00  0.00     0.013 A 
BRANCH  19  22
ATOM     22  C   UNL d   1      11.848   3.223 -16.140  0.00  0.00     0.026 C 
BRANCH  22  23
ATOM     23  C   UNL d   1      12.002   4.246 -17.300  0.00  0.00     0.005 C 
BRANCH  23  24
ATOM     24  C   UNL d   1      12.248   5.721 -16.870  0.00  0.00     0.000 C 
ATOM     25  C   UNL d   1      12.412   6.698 -18.029  0.00  0.00     0.000 C 
ENDBRANCH  23  24
ENDBRANCH  22  23
ENDBRANCH  19  22
ENDBRANCH  13  16
ENDBRANCH  12  13
ENDBRANCH   1  12
BRANCH   9  26
ATOM     26  C   UNL d   1      11.253   9.270  -5.214  0.00  0.00     0.297 C 
BRANCH  26  27
ATOM     27  C   UNL d   1      11.783   8.514  -4.015  0.00  0.00     0.116 A 
ATOM     28  N   UNL d   1      12.199   9.188  -2.886  0.00  0.00    -0.150 NA
ATOM     29  N   UNL d   1      12.601   8.378  -1.894  0.00  0.00    -0.147 NA
ATOM     30  C   UNL d   1      12.430   7.163  -2.403  0.00  0.00     0.123 A 
ATOM     31  C   UNL d   1      11.960   7.183  -3.737  0.00  0.00     0.041 A 
ENDBRANCH  26  27
ENDBRANCH   9  26
TORSDOF 8
