REMARK  6 active torsions:
REMARK  status: ('A' for Active; 'I' for Inactive)
REMARK    1  A    between atoms: C_2  and  C_3 
REMARK    2  A    between atoms: N_13  and  C_14 
REMARK    3  A    between atoms: C_14  and  C_15 
REMARK    4  A    between atoms: C_15  and  C_17 
REMARK    5  A    between atoms: C_17  and  N_18 
REMARK    6  A    between atoms: N_21  and  C_22 
ROOT
ATOM      1  C   UNL d   1       8.100   4.470 -12.752  0.00  0.00     0.208 C 
ATOM      2  O   UNL d   1       6.751   4.267 -13.103  0.00  0.00    -0.219 OA
ENDROOT
BRANCH   1   3
ATOM      3  C   UNL d   1       8.886   4.684 -14.068  0.00  0.00     0.148 C 
BRANCH   3   4
ATOM      4  N   UNL d   1       9.504   3.446 -14.569  0.00  0.00    -0.247 N 
ATOM      5  C   UNL d   1      10.819   3.178 -14.501  0.00  0.00     0.348 A 
ATOM      6  N   UNL d   1      11.030   1.964 -15.025  0.00  0.00    -0.209 NA
ATOM      7  O   UNL d   1      11.697   3.911 -14.042  0.00  0.00    -0.245 OA
ATOM      8  C   UNL d   1       9.815   1.341 -15.529  0.00  0.00     0.179 A 
ATOM      9  C   UNL d   1       9.528   0.042 -14.753  0.00  0.00     0.039 C 
ATOM     10  C   UNL d   1       8.832   2.434 -15.137  0.00  0.00     0.265 A 
ATOM     11  O   UNL d   1       7.619   2.357 -15.333  0.00  0.00    -0.269 OA
BRANCH   8  12
ATOM     12  C   UNL d   1       9.799   1.141 -17.055  0.00  0.00     0.006 A 
ATOM     13  C   UNL d   1       8.779   0.369 -17.664  0.00  0.00     0.000 A 
ATOM     14  C   UNL d   1       8.758   0.173 -19.058  0.00  0.00     0.029 A 
ATOM     15  C   UNL d   1       9.750   0.756 -19.866  0.00  0.00     0.140 A 
ATOM     16  C   UNL d   1      10.761   1.537 -19.278  0.00  0.00     0.029 A 
ATOM     17  F   UNL d   1       9.733   0.569 -21.207  0.00  0.00    -0.204 F 
ATOM     18  C   UNL d   1      10.786   1.729 -17.884  0.00  0.00     0.000 A 
ENDBRANCH   8  12
ENDBRANCH   3   4
ENDBRANCH   1   3
BRANCH   1  19
ATOM     19  C   UNL d   1       8.097   5.721 -11.856  0.00  0.00     0.285 C 
BRANCH  19  20
ATOM     20  N   UNL d   1       9.219   5.775 -10.921  0.00  0.00     0.144 N 
ATOM     21  C   UNL d   1       8.788   5.450  -9.549  0.00  0.00     0.274 C 
ATOM     22  C   UNL d   1       9.943   5.500  -8.530  0.00  0.00     0.137 C 
ATOM     23  N   UNL d   1      10.633   6.783  -8.606  0.00  0.00    -0.343 N 
ATOM     24  C   UNL d   1      11.030   7.192  -9.958  0.00  0.00     0.137 C 
ATOM     25  C   UNL d   1       9.814   7.115 -10.896  0.00  0.00     0.274 C 
BRANCH  23  26
ATOM     26  C   UNL d   1      10.843   7.588  -7.460  0.00  0.00     0.084 A 
ATOM     27  C   UNL d   1      10.828   8.999  -7.553  0.00  0.00     0.158 A 
ATOM     28  C   UNL d   1      11.063   9.796  -6.416  0.00  0.00     0.061 A 
ATOM     29  F   UNL d   1      10.551   9.582  -8.731  0.00  0.00    -0.203 F 
ATOM     30  C   UNL d   1      11.283   9.210  -5.161  0.00  0.00     0.142 A 
ATOM     31  C   UNL d   1      11.290   7.808  -5.055  0.00  0.00     0.031 A 
ATOM     32  F   UNL d   1      11.454   9.979  -4.061  0.00  0.00    -0.204 F 
ATOM     33  C   UNL d   1      11.064   7.006  -6.192  0.00  0.00     0.021 A 
ENDBRANCH  23  26
ENDBRANCH  19  20
ENDBRANCH   1  19
TORSDOF 6
