REMARK  7 active torsions:
REMARK  status: ('A' for Active; 'I' for Inactive)
REMARK    1  A    between atoms: C_6  and  N_7 
REMARK    2  A    between atoms: N_10  and  C_11 
REMARK    3  A    between atoms: C_11  and  C_12 
REMARK    4  A    between atoms: C_12  and  C_13 
REMARK    5  A    between atoms: C_13  and  C_14 
REMARK    6  A    between atoms: C_14  and  N_15 
REMARK       I    between atoms: N_15  and  C_16 
REMARK    7  A    between atoms: C_16  and  C_18 
ROOT
ATOM      1  C   UNL d   1       8.196   5.718 -11.895  0.00  0.00     0.037 C 
ENDROOT
BRANCH   1   2
ATOM      2  C   UNL d   1       8.939   5.894 -13.237  0.00  0.00     0.251 C 
BRANCH   2   3
ATOM      3  N   UNL d   1       9.819   4.764 -13.527  0.00  0.00     0.141 N 
ATOM      4  C   UNL d   1       8.997   3.602 -13.883  0.00  0.00     0.274 C 
ATOM      5  C   UNL d   1       9.875   2.383 -14.155  0.00  0.00     0.138 C 
ATOM      6  N   UNL d   1      10.830   2.682 -15.211  0.00  0.00    -0.330 N 
ATOM      7  C   UNL d   1      11.617   3.893 -14.984  0.00  0.00     0.138 C 
ATOM      8  C   UNL d   1      10.680   5.078 -14.676  0.00  0.00     0.274 C 
BRANCH   6   9
ATOM      9  C   UNL d   1      10.968   1.877 -16.365  0.00  0.00     0.140 A 
ATOM     10  C   UNL d   1      10.417   0.574 -16.435  0.00  0.00     0.037 A 
ATOM     11  C   UNL d   1      10.584  -0.178 -17.613  0.00  0.00     0.004 A 
ATOM     12  C   UNL d   1      11.302   0.380 -18.683  0.00  0.00     0.015 A 
ATOM     13  C   UNL d   1      11.819   1.682 -18.527  0.00  0.00     0.061 A 
ATOM     14  C   UNL d   1      12.592   2.349 -19.644  0.00  0.00     0.052 C 
ATOM     15  N   UNL d   1      11.653   2.408 -17.406  0.00  0.00    -0.233 NA
ENDBRANCH   6   9
ENDBRANCH   2   3
ENDBRANCH   1   2
BRANCH   1  16
ATOM     16  C   UNL d   1       9.099   6.141 -10.748  0.00  0.00     0.029 C 
BRANCH  16  17
ATOM     17  C   UNL d   1       8.580   5.715  -9.366  0.00  0.00     0.129 C 
BRANCH  17  18
ATOM     18  N   UNL d   1       9.384   6.215  -8.248  0.00  0.00    -0.233 NA
ATOM     19  C   UNL d   1       9.930   7.438  -8.116  0.00  0.00     0.298 C 
ATOM     20  O   UNL d   1       9.968   8.297  -8.992  0.00  0.00    -0.263 OA
BRANCH  19  21
ATOM     21  C   UNL d   1      10.463   7.775  -6.793  0.00  0.00     0.157 A 
ATOM     22  O   UNL d   1      10.910   6.778  -5.962  0.00  0.00    -0.302 OA
ATOM     23  C   UNL d   1      11.376   7.396  -4.825  0.00  0.00     0.100 A 
ATOM     24  C   UNL d   1      11.205   8.796  -4.940  0.00  0.00     0.025 A 
ATOM     25  C   UNL d   1      11.914   6.786  -3.685  0.00  0.00     0.025 A 
ATOM     26  C   UNL d   1      10.631   9.011  -6.228  0.00  0.00     0.032 A 
ATOM     27  C   UNL d   1      11.603   9.586  -3.849  0.00  0.00     0.002 A 
ATOM     28  C   UNL d   1      12.158   8.995  -2.699  0.00  0.00     0.000 A 
ATOM     29  C   UNL d   1      12.307   7.598  -2.608  0.00  0.00     0.002 A 
ENDBRANCH  19  21
ENDBRANCH  17  18
ENDBRANCH  16  17
ENDBRANCH   1  16
TORSDOF 7
