REMARK  7 active torsions:
REMARK  status: ('A' for Active; 'I' for Inactive)
REMARK    1  A    between atoms: O_2  and  C_3 
REMARK    2  A    between atoms: C_8  and  N_9 
REMARK    3  A    between atoms: N_12  and  C_13 
REMARK    4  A    between atoms: C_13  and  C_14 
REMARK    5  A    between atoms: C_14  and  C_15 
REMARK    6  A    between atoms: C_15  and  C_16 
REMARK    7  A    between atoms: C_16  and  N_17 
ROOT
ATOM      1  C   UNL d   1      10.943   2.615 -14.002  0.00  0.00     0.251 C 
ENDROOT
BRANCH   1   2
ATOM      2  N   UNL d   1       9.951   2.157 -14.967  0.00  0.00     0.141 N 
ATOM      3  C   UNL d   1       8.632   2.691 -14.615  0.00  0.00     0.274 C 
ATOM      4  C   UNL d   1       7.609   2.326 -15.698  0.00  0.00     0.137 C 
ATOM      5  N   UNL d   1       7.592   0.893 -15.914  0.00  0.00    -0.343 N 
ATOM      6  C   UNL d   1       8.891   0.272 -16.145  0.00  0.00     0.137 C 
ATOM      7  C   UNL d   1       9.890   0.697 -15.043  0.00  0.00     0.274 C 
BRANCH   5   8
ATOM      8  C   UNL d   1       6.409   0.154 -15.763  0.00  0.00     0.079 A 
ATOM      9  C   UNL d   1       5.991  -0.777 -16.753  0.00  0.00     0.110 A 
ATOM     10  C   UNL d   1       4.769  -1.469 -16.557  0.00  0.00     0.026 A 
ATOM     11  C   UNL d   1       3.981  -1.233 -15.420  0.00  0.00     0.002 A 
ATOM     12  C   UNL d   1       4.392  -0.307 -14.451  0.00  0.00     0.002 A 
ATOM     13  C   UNL d   1       5.607   0.381 -14.620  0.00  0.00     0.019 A 
BRANCH   9  14
ATOM     14  O   UNL d   1       6.789  -0.950 -17.871  0.00  0.00    -0.327 OA
ATOM     15  C   UNL d   1       6.414  -1.938 -18.819  0.00  0.00     0.181 C 
ENDBRANCH   9  14
ENDBRANCH   5   8
ENDBRANCH   1   2
BRANCH   1  16
ATOM     16  C   UNL d   1      11.891   3.673 -14.603  0.00  0.00     0.037 C 
BRANCH  16  17
ATOM     17  C   UNL d   1      11.285   4.655 -15.626  0.00  0.00     0.027 C 
BRANCH  17  18
ATOM     18  C   UNL d   1      11.258   4.075 -17.066  0.00  0.00     0.112 C 
BRANCH  18  19
ATOM     19  N   UNL d   1      10.706   5.022 -18.029  0.00  0.00    -0.264 N 
ATOM     20  C   UNL d   1      11.353   6.156 -18.396  0.00  0.00     0.263 A 
ATOM     21  C   UNL d   1      10.477   6.819 -19.387  0.00  0.00     0.061 A 
ATOM     22  O   UNL d   1      12.447   6.573 -18.014  0.00  0.00    -0.267 OA
ATOM     23  C   UNL d   1       9.365   6.029 -19.555  0.00  0.00     0.061 A 
ATOM     24  C   UNL d   1      10.659   8.016 -20.087  0.00  0.00     0.005 A 
ATOM     25  C   UNL d   1       9.528   4.846 -18.681  0.00  0.00     0.263 A 
ATOM     26  C   UNL d   1       8.328   6.373 -20.436  0.00  0.00     0.005 A 
ATOM     27  O   UNL d   1       8.741   3.900 -18.611  0.00  0.00    -0.267 OA
ATOM     28  C   UNL d   1       8.479   7.581 -21.157  0.00  0.00     0.000 A 
ATOM     29  C   UNL d   1       9.635   8.392 -20.987  0.00  0.00     0.000 A 
ENDBRANCH  18  19
ENDBRANCH  17  18
ENDBRANCH  16  17
ENDBRANCH   1  16
TORSDOF 7
