REMARK  1 active torsions:
REMARK  status: ('A' for Active; 'I' for Inactive)
REMARK    1  A    between atoms: O_2  and  C_3 
ROOT
ATOM      1  C   UNL d   1       9.553   5.412 -18.289  0.00  0.00     0.094 A 
ATOM      2  C   UNL d   1      10.325   4.615 -19.162  0.00  0.00     0.024 A 
ATOM      3  C   UNL d   1      11.132   3.582 -18.652  0.00  0.00    -0.003 A 
ATOM      4  C   UNL d   1      11.183   3.310 -17.269  0.00  0.00    -0.024 A 
ATOM      5  C   UNL d   1      10.402   4.101 -16.380  0.00  0.00    -0.020 A 
ATOM      6  C   UNL d   1       9.615   5.147 -16.909  0.00  0.00     0.020 A 
ATOM      7  C   UNL d   1      10.394   3.889 -14.866  0.00  0.00     0.052 C 
ATOM      8  C   UNL d   1       9.038   3.973 -14.171  0.00  0.00    -0.022 A 
ATOM      9  C   UNL d   1       8.874   4.968 -13.181  0.00  0.00    -0.004 A 
ATOM     10  C   UNL d   1       7.675   5.077 -12.454  0.00  0.00    -0.000 A 
ATOM     11  C   UNL d   1       6.620   4.186 -12.709  0.00  0.00    -0.000 A 
ATOM     12  C   UNL d   1       6.767   3.192 -13.694  0.00  0.00    -0.005 A 
ATOM     13  C   UNL d   1       7.965   3.072 -14.434  0.00  0.00    -0.026 A 
ATOM     14  C   UNL d   1       8.007   2.000 -15.522  0.00  0.00     0.028 C 
ATOM     15  C   UNL d   1       8.543   0.621 -15.071  0.00  0.00     0.040 C 
ATOM     16  C   UNL d   1      10.001   0.308 -15.471  0.00  0.00     0.251 C 
ATOM     17  N   UNL d   1      10.217   0.487 -16.908  0.00  0.00     0.139 N 
ATOM     18  C   UNL d   1       9.767  -0.690 -17.642  0.00  0.00     0.285 C 
ATOM     19  C   UNL d   1      11.609   0.768 -17.251  0.00  0.00     0.255 C 
ATOM     20  C   UNL d   1      12.093   2.168 -16.812  0.00  0.00     0.061 C 
ENDROOT
BRANCH   1  21
ATOM     21  O   UNL d   1       8.738   6.447 -18.696  0.00  0.00    -0.328 OA
ATOM     22  C   UNL d   1       8.585   6.665 -20.090  0.00  0.00     0.181 C 
ENDBRANCH   1  21
TORSDOF 1
