REMARK  4 active torsions:
REMARK  status: ('A' for Active; 'I' for Inactive)
REMARK    1  A    between atoms: C_4  and  O_5 
REMARK    2  A    between atoms: O_5  and  C_6 
REMARK    3  A    between atoms: C_6  and  C_7 
REMARK    4  A    between atoms: N_12  and  C_13 
ROOT
ATOM      1  C   UNL d   1       7.679   5.611 -12.538  0.00  0.00     0.064 C 
ATOM      2  C   UNL d   1       6.153   5.502 -12.401  0.00  0.00     0.007 C 
ATOM      3  C   UNL d   1       5.769   4.027 -12.318  0.00  0.00     0.035 C 
ATOM      4  C   UNL d   1       6.303   3.245 -13.534  0.00  0.00     0.242 C 
ATOM      5  C   UNL d   1       5.907   1.751 -13.386  0.00  0.00     0.153 C 
ATOM      6  N   UNL d   1       6.471   0.971 -14.472  0.00  0.00    -0.179 N 
ATOM      7  C   UNL d   1       7.922   1.115 -14.569  0.00  0.00     0.155 C 
ATOM      8  C   UNL d   1       8.310   2.601 -14.702  0.00  0.00     0.275 C 
ATOM      9  N   UNL d   1       7.764   3.381 -13.603  0.00  0.00     0.139 N 
ATOM     10  C   UNL d   1       8.193   4.771 -13.731  0.00  0.00     0.253 C 
ENDROOT
BRANCH   1  11
ATOM     11  C   UNL d   1       8.365   5.239 -11.202  0.00  0.00     0.151 C 
BRANCH  11  12
ATOM     12  O   UNL d   1       9.559   5.986 -11.001  0.00  0.00    -0.331 OA
BRANCH  12  13
ATOM     13  C   UNL d   1       9.819   6.452  -9.728  0.00  0.00     0.094 A 
ATOM     14  C   UNL d   1       9.090   6.068  -8.573  0.00  0.00     0.024 A 
ATOM     15  C   UNL d   1       9.319   6.720  -7.344  0.00  0.00     0.002 A 
ATOM     16  C   UNL d   1      10.349   7.690  -7.220  0.00  0.00     0.000 A 
ATOM     17  C   UNL d   1      11.129   8.009  -8.346  0.00  0.00     0.002 A 
ATOM     18  C   UNL d   1      10.863   7.408  -9.586  0.00  0.00     0.024 A 
ENDBRANCH  12  13
ENDBRANCH  11  12
ENDBRANCH   1  11
BRANCH   6  19
ATOM     19  C   UNL d   1       5.711   0.207 -15.336  0.00  0.00     0.727 A 
ATOM     20  N   UNL d   1       4.658  -0.426 -14.817  0.00  0.00    -0.060 NA
ATOM     21  C   UNL d   1       3.923  -1.185 -15.670  0.00  0.00     0.120 A 
ATOM     22  C   UNL d   1       4.237  -1.253 -17.032  0.00  0.00     0.043 A 
ATOM     23  C   UNL d   1       5.349  -0.529 -17.471  0.00  0.00     0.120 A 
ATOM     24  N   UNL d   1       6.099   0.200 -16.614  0.00  0.00    -0.060 NA
ENDBRANCH   6  19
TORSDOF 4
