REMARK  6 active torsions:
REMARK  status: ('A' for Active; 'I' for Inactive)
REMARK    1  A    between atoms: N_12  and  C_13 
REMARK    2  A    between atoms: C_13  and  C_14 
REMARK    3  A    between atoms: C_14  and  C_15 
REMARK    4  A    between atoms: C_15  and  C_16 
REMARK    5  A    between atoms: C_16  and  N_17 
REMARK    6  A    between atoms: N_20  and  C_21 
ROOT
ATOM      1  C   UNL d   1       8.791   3.912 -14.104  0.00  0.00     0.251 C 
ENDROOT
BRANCH   1   2
ATOM      2  C   UNL d   1       8.625   2.381 -14.084  0.00  0.00     0.037 C 
BRANCH   2   3
ATOM      3  C   UNL d   1       8.941   1.733 -15.427  0.00  0.00     0.027 C 
BRANCH   3   4
ATOM      4  C   UNL d   1      10.461   1.663 -15.683  0.00  0.00     0.112 C 
BRANCH   4   5
ATOM      5  N   UNL d   1      10.734   1.363 -17.102  0.00  0.00    -0.271 N 
ATOM      6  C   UNL d   1      10.580   0.076 -17.529  0.00  0.00     0.239 C 
ATOM      7  O   UNL d   1      10.256  -0.852 -16.780  0.00  0.00    -0.272 OA
ATOM      8  C   UNL d   1      10.783  -0.286 -19.003  0.00  0.00     0.089 C 
ATOM      9  C   UNL d   1      11.738   0.689 -19.719  0.00  0.00     0.018 C 
ATOM     10  C   UNL d   1      13.204   0.404 -19.343  0.00  0.00     0.001 C 
ATOM     11  C   UNL d   1      11.738   0.471 -21.240  0.00  0.00     0.001 C 
ATOM     12  C   UNL d   1      11.302   2.123 -19.414  0.00  0.00     0.089 C 
ATOM     13  C   UNL d   1      13.679  -0.699 -20.271  0.00  0.00     0.000 C 
ATOM     14  C   UNL d   1      12.868  -0.510 -21.561  0.00  0.00     0.000 C 
ATOM     15  C   UNL d   1      11.074   2.392 -17.916  0.00  0.00     0.239 C 
ATOM     16  O   UNL d   1      11.201   3.562 -17.552  0.00  0.00    -0.272 OA
ENDBRANCH   4   5
ENDBRANCH   3   4
ENDBRANCH   2   3
ENDBRANCH   1   2
BRANCH   1  17
ATOM     17  N   UNL d   1       8.528   4.491 -12.796  0.00  0.00     0.141 N 
ATOM     18  C   UNL d   1       8.432   5.946 -12.957  0.00  0.00     0.274 C 
ATOM     19  C   UNL d   1       8.164   6.631 -11.621  0.00  0.00     0.137 C 
ATOM     20  N   UNL d   1       9.205   6.266 -10.677  0.00  0.00    -0.344 N 
ATOM     21  C   UNL d   1       9.414   4.846 -10.499  0.00  0.00     0.137 C 
ATOM     22  C   UNL d   1       9.656   4.221 -11.889  0.00  0.00     0.274 C 
BRANCH  20  23
ATOM     23  C   UNL d   1       9.851   7.221  -9.889  0.00  0.00     0.057 A 
ATOM     24  C   UNL d   1       9.832   7.199  -8.470  0.00  0.00     0.022 A 
ATOM     25  C   UNL d   1      10.582   8.190  -7.777  0.00  0.00     0.031 A 
ATOM     26  C   UNL d   1       9.158   6.331  -7.557  0.00  0.00     0.009 A 
ATOM     27  C   UNL d   1      11.306   9.173  -8.431  0.00  0.00     0.007 A 
ATOM     28  S   UNL d   1      10.493   8.036  -6.048  0.00  0.00    -0.086 SA
ATOM     29  C   UNL d   1      11.294   9.191  -9.830  0.00  0.00     0.002 A 
ATOM     30  C   UNL d   1      10.541   8.259 -10.539  0.00  0.00     0.017 A 
ATOM     31  C   UNL d   1       9.439   6.700  -6.266  0.00  0.00     0.035 A 
ENDBRANCH  20  23
ENDBRANCH   1  17
TORSDOF 6
