REMARK  5 active torsions:
REMARK  status: ('A' for Active; 'I' for Inactive)
REMARK    1  A    between atoms: C_2  and  C_3 
REMARK    2  A    between atoms: C_2  and  C_19 
REMARK    3  A    between atoms: C_3  and  N_4 
REMARK    4  A    between atoms: C_7  and  S_8 
REMARK    5  A    between atoms: S_8  and  C_11 
ROOT
ATOM      1  N   UNL d   1       9.424   5.695 -11.912  0.00  0.00     0.145 N 
ATOM      2  C   UNL d   1       8.519   6.018 -13.020  0.00  0.00     0.252 C 
ATOM      3  C   UNL d   1       8.974   5.272 -14.282  0.00  0.00     0.052 C 
ATOM      4  C   UNL d   1       9.020   3.751 -14.110  0.00  0.00     0.116 C 
ATOM      5  C   UNL d   1       9.864   3.480 -12.872  0.00  0.00     0.052 C 
ATOM      6  C   UNL d   1       9.353   4.262 -11.650  0.00  0.00     0.252 C 
ENDROOT
BRANCH   1   7
ATOM      7  C   UNL d   1       8.998   6.405 -10.704  0.00  0.00     0.318 C 
BRANCH   7   8
ATOM      8  C   UNL d   1       9.860   7.618 -10.319  0.00  0.00     0.207 C 
ATOM      9  O   UNL d   1      10.221   8.390 -11.205  0.00  0.00    -0.289 OA
BRANCH   8  10
ATOM     10  C   UNL d   1      10.186   7.831  -8.882  0.00  0.00     0.037 A 
ATOM     11  C   UNL d   1       9.515   7.136  -7.846  0.00  0.00     0.005 A 
ATOM     12  C   UNL d   1       9.854   7.363  -6.502  0.00  0.00     0.030 A 
ATOM     13  C   UNL d   1      10.831   8.312  -6.167  0.00  0.00     0.140 A 
ATOM     14  C   UNL d   1      11.485   9.031  -7.186  0.00  0.00     0.030 A 
ATOM     15  F   UNL d   1      11.144   8.539  -4.870  0.00  0.00    -0.204 F 
ATOM     16  C   UNL d   1      11.166   8.787  -8.537  0.00  0.00     0.005 A 
ENDBRANCH   8  10
ENDBRANCH   7   8
ENDBRANCH   1   7
BRANCH   4  17
ATOM     17  S   UNL d   1       9.740   2.896 -15.605  0.00  0.00     0.189 S 
ATOM     18  O   UNL d   1      10.473   1.688 -15.153  0.00  0.00    -0.222 OA
ATOM     19  O   UNL d   1       8.694   2.757 -16.624  0.00  0.00    -0.222 OA
BRANCH  17  20
ATOM     20  C   UNL d   1      10.969   4.043 -16.241  0.00  0.00     0.084 A 
ATOM     21  C   UNL d   1      10.569   5.061 -17.134  0.00  0.00     0.011 A 
ATOM     22  C   UNL d   1      11.506   6.018 -17.573  0.00  0.00     0.001 A 
ATOM     23  C   UNL d   1      12.837   5.959 -17.116  0.00  0.00     0.000 A 
ATOM     24  C   UNL d   1      13.230   4.950 -16.214  0.00  0.00     0.001 A 
ATOM     25  C   UNL d   1      12.294   3.999 -15.763  0.00  0.00     0.011 A 
ENDBRANCH  17  20
ENDBRANCH   4  17
TORSDOF 5
