REMARK  4 active torsions:
REMARK  status: ('A' for Active; 'I' for Inactive)
REMARK    1  A    between atoms: O_2  and  C_3 
REMARK    2  A    between atoms: C_10  and  C_11 
REMARK       I    between atoms: C_11  and  N_13 
REMARK    3  A    between atoms: N_13  and  C_14 
REMARK    4  A    between atoms: C_14  and  C_15 
ROOT
ATOM      1  C   UNL d   1       9.251   6.387  -7.587  0.00  0.00     0.277 C 
ATOM      2  O   UNL d   1       8.262   6.375  -6.859  0.00  0.00    -0.266 OA
ATOM      3  N   UNL d   1      10.491   6.462  -7.112  0.00  0.00    -0.234 NA
ENDROOT
BRANCH   1   4
ATOM      4  C   UNL d   1       9.141   6.281  -9.068  0.00  0.00     0.081 A 
ATOM      5  C   UNL d   1       9.839   7.186  -9.900  0.00  0.00     0.100 A 
ATOM      6  C   UNL d   1       9.648   7.085 -11.295  0.00  0.00     0.039 A 
ATOM      7  C   UNL d   1       8.824   6.090 -11.850  0.00  0.00     0.083 A 
ATOM      8  N   UNL d   1       8.715   5.960 -13.232  0.00  0.00    -0.100 NA
ATOM      9  C   UNL d   1       8.110   5.218 -11.020  0.00  0.00     0.071 A 
ATOM     10 CL   UNL d   1       6.978   4.119 -11.738  0.00  0.00    -0.081 Cl
ATOM     11  C   UNL d   1       8.296   5.300  -9.626  0.00  0.00     0.019 A 
BRANCH   5  12
ATOM     12  O   UNL d   1      10.617   8.159  -9.307  0.00  0.00    -0.328 OA
ATOM     13  C   UNL d   1      11.658   8.721 -10.074  0.00  0.00     0.181 C 
ENDBRANCH   5  12
ENDBRANCH   1   4
BRANCH   3  14
ATOM     14  C   UNL d   1      10.818   6.449  -5.689  0.00  0.00     0.131 C 
BRANCH  14  15
ATOM     15  C   UNL d   1      11.371   7.803  -5.247  0.00  0.00     0.058 C 
ATOM     16  C   UNL d   1      11.567   7.848  -3.720  0.00  0.00     0.221 C 
ATOM     17  N   UNL d   1      11.054   9.158  -3.305  0.00  0.00     0.135 N 
ATOM     18  C   UNL d   1      13.009   7.790  -3.244  0.00  0.00     0.035 C 
ATOM     19  C   UNL d   1      10.900   9.980  -4.487  0.00  0.00     0.250 C 
ATOM     20  C   UNL d   1      11.937   9.689  -2.287  0.00  0.00     0.250 C 
ATOM     21  C   UNL d   1      10.485   8.982  -5.568  0.00  0.00     0.039 C 
ATOM     22  C   UNL d   1      13.252   9.184  -2.721  0.00  0.00     0.037 C 
ENDBRANCH  14  15
ENDBRANCH   3  14
TORSDOF 4
