REMARK  9 active torsions:
REMARK  status: ('A' for Active; 'I' for Inactive)
REMARK    1  A    between atoms: O_2  and  C_3 
REMARK    2  A    between atoms: C_8  and  C_9 
REMARK    3  A    between atoms: C_11  and  C_12 
REMARK    4  A    between atoms: C_12  and  N_13 
REMARK    5  A    between atoms: N_13  and  C_14 
REMARK    6  A    between atoms: C_14  and  C_15 
REMARK    7  A    between atoms: C_16  and  C_17 
REMARK    8  A    between atoms: C_17  and  O_18 
REMARK    9  A    between atoms: O_18  and  C_19 
ROOT
ATOM      1  C   UNL d   1       9.494   5.469 -12.357  0.00  0.00     0.009 C 
ATOM      2  C   UNL d   1       9.778   5.705 -11.070  0.00  0.00     0.004 C 
ENDROOT
BRANCH   1   3
ATOM      3  C   UNL d   1       9.810   4.173 -13.060  0.00  0.00     0.316 C 
BRANCH   3   4
ATOM      4  N   UNL d   1       8.606   3.623 -13.648  0.00  0.00     0.344 N 
BRANCH   4   5
ATOM      5  C   UNL d   1       8.934   2.394 -14.352  0.00  0.00     0.291 C 
BRANCH   5   6
ATOM      6  C   UNL d   1       7.736   1.905 -15.142  0.00  0.00     0.041 A 
ATOM      7  C   UNL d   1       7.426   0.423 -15.260  0.00  0.00     0.026 A 
ATOM      8  C   UNL d   1       7.964   1.173 -16.450  0.00  0.00     0.007 A 
BRANCH   7   9
ATOM      9  C   UNL d   1       6.009  -0.064 -15.213  0.00  0.00    -0.000 A 
ATOM     10  C   UNL d   1       5.486  -0.816 -16.287  0.00  0.00     0.090 A 
ATOM     11  C   UNL d   1       4.131  -1.231 -16.236  0.00  0.00     0.024 A 
ATOM     12  C   UNL d   1       3.330  -0.888 -15.136  0.00  0.00     0.002 A 
ATOM     13  C   UNL d   1       3.860  -0.159 -14.066  0.00  0.00    -0.000 A 
ATOM     14  C   UNL d   1       5.204   0.255 -14.101  0.00  0.00    -0.002 A 
BRANCH  10  15
ATOM     15  O   UNL d   1       6.316  -1.108 -17.351  0.00  0.00    -0.328 OA
ATOM     16  C   UNL d   1       5.824  -1.927 -18.397  0.00  0.00     0.181 C 
ENDBRANCH  10  15
ENDBRANCH   7   9
ENDBRANCH   5   6
ENDBRANCH   4   5
ENDBRANCH   3   4
ENDBRANCH   1   3
BRANCH   2  17
ATOM     17  C   UNL d   1       9.508   6.995 -10.346  0.00  0.00     0.175 C 
BRANCH  17  18
ATOM     18  O   UNL d   1       9.214   6.709  -8.973  0.00  0.00    -0.326 OA
BRANCH  18  19
ATOM     19  C   UNL d   1       9.899   7.440  -8.028  0.00  0.00     0.096 A 
ATOM     20  C   UNL d   1      10.168   6.805  -6.809  0.00  0.00     0.043 A 
ATOM     21  C   UNL d   1      10.941   7.439  -5.814  0.00  0.00     0.087 A 
ATOM     22  C   UNL d   1      11.407   8.747  -6.040  0.00  0.00     0.018 A 
ATOM     23  N   UNL d   1      11.288   6.800  -4.584  0.00  0.00    -0.208 NA
ATOM     24  C   UNL d   1      11.099   9.413  -7.229  0.00  0.00     0.004 A 
ATOM     25  C   UNL d   1      12.201   9.377  -4.997  0.00  0.00     0.006 A 
ATOM     26  C   UNL d   1      10.329   8.782  -8.221  0.00  0.00     0.024 A 
ATOM     27  C   UNL d   1      12.475   8.737  -3.841  0.00  0.00     0.063 A 
ATOM     28  C   UNL d   1      12.005   7.371  -3.586  0.00  0.00     0.279 A 
ATOM     29  O   UNL d   1      12.236   6.760  -2.543  0.00  0.00    -0.265 OA
ENDBRANCH  18  19
ENDBRANCH  17  18
ENDBRANCH   2  17
TORSDOF 9
