REMARK  6 active torsions:
REMARK  status: ('A' for Active; 'I' for Inactive)
REMARK    1  A    between atoms: C_2  and  C_3 
REMARK    2  A    between atoms: N_13  and  C_14 
REMARK    3  A    between atoms: C_14  and  C_15 
REMARK    4  A    between atoms: C_15  and  C_17 
REMARK    5  A    between atoms: C_17  and  N_18 
REMARK    6  A    between atoms: N_21  and  C_22 
ROOT
ATOM      1  C   UNL d   1       9.129   6.211 -11.466  0.00  0.00     0.208 C 
ATOM      2  O   UNL d   1       9.023   7.597 -11.711  0.00  0.00    -0.219 OA
ENDROOT
BRANCH   1   3
ATOM      3  C   UNL d   1      10.163   5.994 -10.350  0.00  0.00     0.148 C 
BRANCH   3   4
ATOM      4  N   UNL d   1       9.784   6.528  -9.063  0.00  0.00    -0.247 N 
ATOM      5  C   UNL d   1       8.893   5.924  -8.260  0.00  0.00     0.348 A 
ATOM      6  N   UNL d   1       8.750   6.680  -7.175  0.00  0.00    -0.209 NA
ATOM      7  O   UNL d   1       8.306   4.853  -8.463  0.00  0.00    -0.245 OA
ATOM      8  C   UNL d   1       9.653   7.823  -7.177  0.00  0.00     0.179 A 
ATOM      9  C   UNL d   1       8.844   9.089  -7.226  0.00  0.00     0.039 C 
ATOM     10  C   UNL d   1      10.321   7.629  -8.512  0.00  0.00     0.265 A 
ATOM     11  O   UNL d   1      11.195   8.375  -8.960  0.00  0.00    -0.269 OA
BRANCH   8  12
ATOM     12  C   UNL d   1      10.669   7.827  -6.034  0.00  0.00     0.006 A 
ATOM     13  C   UNL d   1      10.978   6.615  -5.387  0.00  0.00     0.000 A 
ATOM     14  C   UNL d   1      11.846   6.560  -4.287  0.00  0.00     0.029 A 
ATOM     15  C   UNL d   1      12.445   7.728  -3.832  0.00  0.00     0.140 A 
ATOM     16  C   UNL d   1      12.217   8.941  -4.490  0.00  0.00     0.029 A 
ATOM     17  F   UNL d   1      13.345   7.648  -2.840  0.00  0.00    -0.204 F 
ATOM     18  C   UNL d   1      11.331   9.002  -5.585  0.00  0.00     0.000 A 
ENDBRANCH   8  12
ENDBRANCH   3   4
ENDBRANCH   1   3
BRANCH   1  19
ATOM     19  C   UNL d   1       9.572   5.488 -12.761  0.00  0.00     0.285 C 
BRANCH  19  20
ATOM     20  N   UNL d   1       8.944   4.186 -12.997  0.00  0.00     0.144 N 
ATOM     21  C   UNL d   1       7.599   4.384 -13.556  0.00  0.00     0.274 C 
ATOM     22  C   UNL d   1       6.863   3.064 -13.836  0.00  0.00     0.137 C 
ATOM     23  N   UNL d   1       7.707   2.183 -14.640  0.00  0.00    -0.344 N 
ATOM     24  C   UNL d   1       9.082   2.003 -14.195  0.00  0.00     0.137 C 
ATOM     25  C   UNL d   1       9.732   3.373 -13.936  0.00  0.00     0.274 C 
BRANCH  23  26
ATOM     26  C   UNL d   1       7.242   1.531 -15.788  0.00  0.00     0.056 A 
ATOM     27  C   UNL d   1       6.174   0.597 -15.746  0.00  0.00     0.015 A 
ATOM     28  C   UNL d   1       5.728  -0.009 -16.952  0.00  0.00     0.001 A 
ATOM     29  C   UNL d   1       5.528   0.246 -14.533  0.00  0.00     0.001 A 
ATOM     30  C   UNL d   1       6.345   0.307 -18.175  0.00  0.00     0.000 A 
ATOM     31  C   UNL d   1       4.658  -0.929 -16.935  0.00  0.00     0.000 A 
ATOM     32  C   UNL d   1       7.415   1.214 -18.212  0.00  0.00     0.002 A 
ATOM     33  C   UNL d   1       7.862   1.823 -17.020  0.00  0.00     0.017 A 
ATOM     34  C   UNL d   1       4.013  -1.245 -15.726  0.00  0.00     0.000 A 
ATOM     35  C   UNL d   1       4.445  -0.650 -14.534  0.00  0.00     0.000 A 
ENDBRANCH  23  26
ENDBRANCH  19  20
ENDBRANCH   1  19
TORSDOF 6
