REMARK  4 active torsions:
REMARK  status: ('A' for Active; 'I' for Inactive)
REMARK    1  A    between atoms: C_3  and  O_4 
REMARK    2  A    between atoms: O_4  and  C_5 
REMARK    3  A    between atoms: C_6  and  O_7 
REMARK    4  A    between atoms: C_15  and  N_16 
ROOT
ATOM      1  C   UNL d   1       8.556  -1.808 -20.583  0.00  0.00     0.079 C 
ATOM      2  C   UNL d   1       8.508  -0.810 -19.880  0.00  0.00    -0.121 C 
ATOM      3  C   UNL d   1       8.445   0.398 -19.040  0.00  0.00     0.212 C 
ENDROOT
BRANCH   3   4
ATOM      4  O   UNL d   1       8.510  -0.012 -17.676  0.00  0.00    -0.316 OA
BRANCH   4   5
ATOM      5  C   UNL d   1       8.479   1.002 -16.755  0.00  0.00     0.117 A 
ATOM      6  C   UNL d   1       7.335   1.157 -15.918  0.00  0.00     0.022 A 
ATOM      7  C   UNL d   1       7.446   2.192 -14.950  0.00  0.00     0.007 A 
ATOM      8  C   UNL d   1       6.121   0.292 -16.003  0.00  0.00    -0.001 A 
ATOM      9  C   UNL d   1       8.573   3.047 -14.820  0.00  0.00    -0.020 A 
ATOM     10  C   UNL d   1       6.224   2.391 -14.027  0.00  0.00     0.246 C 
ATOM     11  C   UNL d   1       9.669   2.848 -15.678  0.00  0.00     0.022 A 
ATOM     12  C   UNL d   1       8.508   4.110 -13.731  0.00  0.00     0.061 C 
ATOM     13  C   UNL d   1       9.638   1.811 -16.631  0.00  0.00     0.116 A 
ATOM     14  C   UNL d   1       7.105   4.443 -13.234  0.00  0.00     0.255 C 
ATOM     15  N   UNL d   1       6.471   3.206 -12.843  0.00  0.00     0.142 N 
ATOM     16  C   UNL d   1       5.262   3.525 -12.097  0.00  0.00     0.286 C 
ATOM     17  C   UNL d   1       5.594   1.021 -13.648  0.00  0.00     0.064 C 
ATOM     18  C   UNL d   1       5.285   0.184 -14.869  0.00  0.00    -0.020 A 
ATOM     19  C   UNL d   1       4.129  -0.640 -14.883  0.00  0.00    -0.003 A 
ATOM     20  C   UNL d   1       3.781  -1.351 -16.049  0.00  0.00     0.023 A 
ATOM     21  C   UNL d   1       4.572  -1.230 -17.211  0.00  0.00     0.127 A 
ATOM     22  C   UNL d   1       5.721  -0.411 -17.171  0.00  0.00     0.023 A 
BRANCH  13  23
ATOM     23  O   UNL d   1      10.694   1.555 -17.483  0.00  0.00    -0.326 OA
ATOM     24  C   UNL d   1      12.010   1.742 -16.990  0.00  0.00     0.181 C 
ENDBRANCH  13  23
BRANCH  21  25
ATOM     25  N   UNL d   1       4.219  -1.934 -18.460  0.00  0.00    -0.114 N 
ATOM     26  O   UNL d   1       3.097  -2.402 -18.582  0.00  0.00    -0.532 OA
ATOM     27  O   UNL d   1       5.075  -2.004 -19.338  0.00  0.00    -0.532 OA
ENDBRANCH  21  25
ENDBRANCH   4   5
ENDBRANCH   3   4
TORSDOF 4
