REMARK  4 active torsions:
REMARK  status: ('A' for Active; 'I' for Inactive)
REMARK    1  A    between atoms: C_4  and  C_5 
REMARK    2  A    between atoms: C_5  and  N_6 
REMARK    3  A    between atoms: C_9  and  C_10 
REMARK    4  A    between atoms: C_25  and  N_26 
ROOT
ATOM      1  N   UNL d   1       8.646   4.892 -12.170  0.00  0.00     0.137 N 
ATOM      2  C   UNL d   1       7.468   4.308 -12.811  0.00  0.00     0.251 C 
ATOM      3  C   UNL d   1       7.784   3.986 -14.280  0.00  0.00     0.041 C 
ATOM      4  C   UNL d   1       9.008   3.070 -14.460  0.00  0.00     0.047 C 
ATOM      5  C   UNL d   1      10.169   3.631 -13.668  0.00  0.00     0.041 C 
ATOM      6  C   UNL d   1       9.729   3.910 -12.244  0.00  0.00     0.251 C 
ENDROOT
BRANCH   1   7
ATOM      7  C   UNL d   1       8.286   5.247 -10.789  0.00  0.00     0.251 C 
BRANCH   7   8
ATOM      8  C   UNL d   1       9.390   6.000 -10.010  0.00  0.00     0.047 C 
ATOM      9  C   UNL d   1       9.627   7.424 -10.595  0.00  0.00     0.072 C 
ATOM     10  C   UNL d   1      10.639   8.248  -9.780  0.00  0.00     0.180 C 
ATOM     11  O   UNL d   1      11.313   9.141 -10.292  0.00  0.00    -0.291 OA
ATOM     12  C   UNL d   1      10.732   7.916  -8.377  0.00  0.00     0.080 A 
ATOM     13  C   UNL d   1      10.065   6.890  -7.766  0.00  0.00     0.070 A 
ATOM     14  S   UNL d   1      11.713   8.837  -7.276  0.00  0.00    -0.046 SA
ATOM     15  C   UNL d   1       9.138   5.959  -8.479  0.00  0.00     0.049 C 
ATOM     16  N   UNL d   1      10.353   6.796  -6.404  0.00  0.00    -0.227 NA
ATOM     17  C   UNL d   1      11.186   7.750  -6.006  0.00  0.00     0.171 A 
BRANCH  17  18
ATOM     18  N   UNL d   1      11.660   7.856  -4.697  0.00  0.00    -0.329 N 
ATOM     19  C   UNL d   1      11.656   6.760  -3.732  0.00  0.00     0.103 C 
ATOM     20  C   UNL d   1      12.452   7.228  -2.524  0.00  0.00     0.026 C 
ATOM     21  C   UNL d   1      12.375   8.738  -2.574  0.00  0.00     0.026 C 
ATOM     22  C   UNL d   1      12.287   9.012  -4.075  0.00  0.00     0.103 C 
ENDBRANCH  17  18
ENDBRANCH   7   8
ENDBRANCH   1   7
BRANCH   4  23
ATOM     23  C   UNL d   1       9.393   2.900 -15.906  0.00  0.00     0.087 A 
ATOM     24  C   UNL d   1       9.635   1.734 -16.658  0.00  0.00     0.041 A 
ATOM     25  C   UNL d   1       9.977   2.100 -17.961  0.00  0.00     0.129 A 
ATOM     26  C   UNL d   1       9.594   0.368 -16.301  0.00  0.00     0.006 A 
ATOM     27  O   UNL d   1       9.957   3.486 -17.974  0.00  0.00    -0.211 OA
ATOM     28  C   UNL d   1      10.265   1.175 -18.963  0.00  0.00     0.057 A 
ATOM     29  N   UNL d   1       9.623   3.962 -16.681  0.00  0.00    -0.131 NA
ATOM     30  C   UNL d   1      10.219  -0.189 -18.620  0.00  0.00     0.142 A 
ATOM     31  F   UNL d   1      10.481  -1.126 -19.558  0.00  0.00    -0.204 F 
ATOM     32  C   UNL d   1       9.894  -0.591 -17.298  0.00  0.00     0.030 A 
ENDBRANCH   4  23
TORSDOF 4
