REMARK  4 active torsions:
REMARK  status: ('A' for Active; 'I' for Inactive)
REMARK    1  A    between atoms: C_2  and  N_3 
REMARK    2  A    between atoms: N_3  and  C_4 
REMARK    3  A    between atoms: N_3  and  C_6 
REMARK    4  A    between atoms: C_14  and  O_15 
ROOT
ATOM      1  C   UNL d   1       6.631   4.421 -12.648  0.00  0.00     0.224 C 
ATOM      2  C   UNL d   1       5.878   3.465 -11.735  0.00  0.00     0.038 C 
ATOM      3  C   UNL d   1       5.112   2.391 -12.487  0.00  0.00     0.030 C 
ATOM      4  C   UNL d   1       5.855   1.768 -13.648  0.00  0.00    -0.004 A 
ATOM      5  C   UNL d   1       6.980   2.410 -14.215  0.00  0.00    -0.022 A 
ATOM      6  C   UNL d   1       7.682   1.824 -15.276  0.00  0.00    -0.004 A 
ATOM      7  C   UNL d   1       7.245   0.603 -15.810  0.00  0.00     0.002 A 
ATOM      8  C   UNL d   1       6.114  -0.029 -15.278  0.00  0.00     0.024 A 
ATOM      9  C   UNL d   1       5.405   0.530 -14.201  0.00  0.00     0.090 A 
ATOM     10  C   UNL d   1       7.564   3.674 -13.638  0.00  0.00     0.059 C 
ENDROOT
BRANCH   1  11
ATOM     11  N   UNL d   1       7.321   5.480 -11.886  0.00  0.00     0.135 N 
BRANCH  11  12
ATOM     12  C   UNL d   1       8.542   5.077 -11.150  0.00  0.00     0.250 C 
ATOM     13  C   UNL d   1       8.271   4.825  -9.657  0.00  0.00     0.037 C 
ENDBRANCH  11  12
BRANCH  11  14
ATOM     14  C   UNL d   1       7.526   6.683 -12.700  0.00  0.00     0.250 C 
ATOM     15  C   UNL d   1       6.245   7.524 -12.832  0.00  0.00     0.037 C 
ENDBRANCH  11  14
ENDBRANCH   1  11
BRANCH   9  16
ATOM     16  O   UNL d   1       4.269  -0.039 -13.642  0.00  0.00    -0.328 OA
ATOM     17  C   UNL d   1       3.558  -0.980 -14.446  0.00  0.00     0.181 C 
ENDBRANCH   9  16
TORSDOF 4
