REMARK  4 active torsions:
REMARK  status: ('A' for Active; 'I' for Inactive)
REMARK    1  A    between atoms: N_7  and  C_8 
REMARK    2  A    between atoms: C_8  and  C_9 
REMARK    3  A    between atoms: C_9  and  C_10 
REMARK    4  A    between atoms: C_20  and  C_21 
ROOT
ATOM      1  O   UNL d   1       8.895   8.785  -6.311  0.00  0.00    -0.291 OA
ATOM      2  C   UNL d   1       9.749   8.451  -7.096  0.00  0.00     0.177 C 
ATOM      3  C   UNL d   1       9.433   8.625  -8.542  0.00  0.00     0.097 C 
ATOM      4  C   UNL d   1       9.893   7.393  -9.301  0.00  0.00     0.110 C 
ATOM      5  C   UNL d   1       9.717   7.630 -10.816  0.00  0.00     0.064 C 
ATOM      6  C   UNL d   1       9.873   6.357 -11.657  0.00  0.00     0.253 C 
ATOM      7  N   UNL d   1       9.112   5.205 -11.220  0.00  0.00     0.138 N 
ATOM      8  C   UNL d   1       9.471   4.923  -9.822  0.00  0.00     0.253 C 
ATOM      9  C   UNL d   1       9.119   6.104  -8.915  0.00  0.00     0.064 C 
ATOM     10  O   UNL d   1      11.280   7.213  -9.017  0.00  0.00    -0.333 OA
ATOM     11  C   UNL d   1      11.683   7.290  -7.699  0.00  0.00     0.119 C 
ATOM     12  C   UNL d   1      11.014   7.866  -6.700  0.00  0.00     0.059 C 
ENDROOT
BRANCH  12  13
ATOM     13  C   UNL d   1      11.441   7.830  -5.287  0.00  0.00     0.005 A 
ATOM     14  C   UNL d   1      11.801   6.631  -4.630  0.00  0.00     0.003 A 
ATOM     15  C   UNL d   1      12.214   6.655  -3.278  0.00  0.00     0.030 A 
ATOM     16  C   UNL d   1      12.261   7.878  -2.582  0.00  0.00     0.140 A 
ATOM     17  C   UNL d   1      11.896   9.069  -3.224  0.00  0.00     0.030 A 
ATOM     18  F   UNL d   1      12.662   7.925  -1.299  0.00  0.00    -0.204 F 
ATOM     19  C   UNL d   1      11.479   9.043  -4.568  0.00  0.00     0.003 A 
ENDBRANCH  12  13
BRANCH   7  20
ATOM     20  C   UNL d   1       9.504   4.098 -12.094  0.00  0.00     0.255 C 
BRANCH  20  21
ATOM     21  C   UNL d   1       8.490   3.932 -13.224  0.00  0.00     0.062 C 
BRANCH  21  22
ATOM     22  C   UNL d   1       8.830   2.788 -14.169  0.00  0.00    -0.020 A 
ATOM     23  C   UNL d   1       7.875   1.783 -14.442  0.00  0.00    -0.004 A 
ATOM     24  C   UNL d   1       8.183   0.726 -15.323  0.00  0.00    -0.000 A 
ATOM     25  C   UNL d   1       9.447   0.668 -15.938  0.00  0.00    -0.000 A 
ATOM     26  C   UNL d   1      10.405   1.663 -15.670  0.00  0.00    -0.000 A 
ATOM     27  C   UNL d   1      10.097   2.721 -14.792  0.00  0.00    -0.004 A 
ENDBRANCH  21  22
ENDBRANCH  20  21
ENDBRANCH   7  20
TORSDOF 4
