REMARK  11 active torsions:
REMARK  status: ('A' for Active; 'I' for Inactive)
REMARK    1  A    between atoms: O_2  and  C_3 
REMARK    2  A    between atoms: C_8  and  N_9 
REMARK    3  A    between atoms: N_12  and  C_13 
REMARK    4  A    between atoms: C_13  and  C_14 
REMARK    5  A    between atoms: C_14  and  C_15 
REMARK    6  A    between atoms: C_15  and  C_16 
REMARK    7  A    between atoms: C_16  and  N_17 
REMARK       I    between atoms: N_17  and  C_18 
REMARK    8  A    between atoms: C_18  and  C_20 
REMARK    9  A    between atoms: C_21  and  C_22 
REMARK   10  A    between atoms: C_26  and  O_27 
REMARK   11  A    between atoms: O_27  and  C_28 
ROOT
ATOM      1  C   UNL d   1       8.224   4.803 -13.766  0.00  0.00     0.129 C 
ENDROOT
BRANCH   1   2
ATOM      2  C   UNL d   1       8.907   3.430 -13.796  0.00  0.00     0.029 C 
BRANCH   2   3
ATOM      3  C   UNL d   1       8.335   2.579 -14.932  0.00  0.00     0.037 C 
BRANCH   3   4
ATOM      4  C   UNL d   1       8.956   1.156 -14.961  0.00  0.00     0.251 C 
BRANCH   4   5
ATOM      5  N   UNL d   1       8.986   0.541 -16.284  0.00  0.00     0.141 N 
ATOM      6  C   UNL d   1       9.395   1.487 -17.336  0.00  0.00     0.274 C 
ATOM      7  C   UNL d   1       9.501   0.819 -18.713  0.00  0.00     0.137 C 
ATOM      8  N   UNL d   1       8.220   0.192 -19.017  0.00  0.00    -0.343 N 
ATOM      9  C   UNL d   1       7.761  -0.754 -18.003  0.00  0.00     0.137 C 
ATOM     10  C   UNL d   1       7.685  -0.053 -16.627  0.00  0.00     0.274 C 
BRANCH   8  11
ATOM     11  C   UNL d   1       7.502   0.485 -20.206  0.00  0.00     0.079 A 
ATOM     12  C   UNL d   1       6.081   0.503 -20.266  0.00  0.00     0.110 A 
ATOM     13  C   UNL d   1       5.456   0.774 -21.524  0.00  0.00     0.026 A 
ATOM     14  C   UNL d   1       6.220   1.067 -22.663  0.00  0.00     0.002 A 
ATOM     15  C   UNL d   1       7.615   1.071 -22.592  0.00  0.00     0.002 A 
ATOM     16  C   UNL d   1       8.251   0.769 -21.370  0.00  0.00     0.019 A 
BRANCH  12  17
ATOM     17  O   UNL d   1       5.339   0.316 -19.119  0.00  0.00    -0.327 OA
ATOM     18  C   UNL d   1       3.966  -0.041 -19.243  0.00  0.00     0.181 C 
ENDBRANCH  12  17
ENDBRANCH   8  11
ENDBRANCH   4   5
ENDBRANCH   3   4
ENDBRANCH   2   3
ENDBRANCH   1   2
BRANCH   1  19
ATOM     19  N   UNL d   1       8.875   5.702 -12.830  0.00  0.00    -0.234 NA
ATOM     20  C   UNL d   1       8.717   5.630 -11.500  0.00  0.00     0.275 C 
ATOM     21  O   UNL d   1       7.873   4.913 -10.966  0.00  0.00    -0.266 OA
BRANCH  20  22
ATOM     22  C   UNL d   1       9.712   6.434 -10.815  0.00  0.00     0.062 C 
ATOM     23  C   UNL d   1       9.503   6.880  -9.565  0.00  0.00     0.005 C 
BRANCH  23  24
ATOM     24  C   UNL d   1      10.461   7.674  -8.779  0.00  0.00     0.002 A 
ATOM     25  C   UNL d   1      10.059   8.147  -7.514  0.00  0.00     0.025 A 
ATOM     26  C   UNL d   1      10.945   8.912  -6.727  0.00  0.00     0.100 A 
ATOM     27  C   UNL d   1      12.238   9.182  -7.186  0.00  0.00     0.025 A 
ATOM     28  C   UNL d   1      12.650   8.705  -8.430  0.00  0.00     0.002 A 
ATOM     29  C   UNL d   1      11.761   7.988  -9.244  0.00  0.00     0.000 A 
BRANCH  26  30
ATOM     30  O   UNL d   1      10.594   9.341  -5.479  0.00  0.00    -0.307 OA
BRANCH  30  31
ATOM     31  C   UNL d   1      11.258   8.755  -4.440  0.00  0.00     0.100 A 
ATOM     32  C   UNL d   1      11.491   7.356  -4.384  0.00  0.00     0.025 A 
ATOM     33  C   UNL d   1      12.120   6.787  -3.268  0.00  0.00     0.002 A 
ATOM     34  C   UNL d   1      12.502   7.592  -2.184  0.00  0.00     0.000 A 
ATOM     35  C   UNL d   1      12.265   8.974  -2.218  0.00  0.00     0.002 A 
ATOM     36  C   UNL d   1      11.641   9.556  -3.340  0.00  0.00     0.025 A 
ENDBRANCH  30  31
ENDBRANCH  26  30
ENDBRANCH  23  24
ENDBRANCH  20  22
ENDBRANCH   1  19
TORSDOF 11
