REMARK  4 active torsions:
REMARK  status: ('A' for Active; 'I' for Inactive)
REMARK    1  A    between atoms: O_2  and  C_3 
REMARK    2  A    between atoms: C_10  and  C_11 
REMARK    3  A    between atoms: C_11  and  N_12 
REMARK    4  A    between atoms: C_15  and  C_17 
ROOT
ATOM      1  N   UNL d   1      10.197   6.594 -10.269  0.00  0.00    -0.252 NA
ATOM      2  C   UNL d   1       9.193   6.202  -9.282  0.00  0.00     0.080 C 
ATOM      3  C   UNL d   1       9.747   6.368  -7.869  0.00  0.00     0.052 C 
ATOM      4  C   UNL d   1      10.175   7.812  -7.570  0.00  0.00     0.148 C 
ATOM      5  O   UNL d   1       9.039   8.646  -7.650  0.00  0.00    -0.221 OA
ATOM      6  C   UNL d   1      11.158   8.263  -8.666  0.00  0.00     0.052 C 
ATOM      7  C   UNL d   1      10.604   7.998 -10.084  0.00  0.00     0.080 C 
ENDROOT
BRANCH   1   8
ATOM      8  C   UNL d   1       9.688   6.402 -11.626  0.00  0.00     0.049 C 
BRANCH   8   9
ATOM      9  C   UNL d   1       8.540   5.497 -11.964  0.00  0.00     0.034 A 
ATOM     10  C   UNL d   1       7.341   5.495 -11.297  0.00  0.00     0.100 A 
ATOM     11  N   UNL d   1       6.527   4.515 -11.812  0.00  0.00    -0.244 NA
ATOM     12  C   UNL d   1       7.117   3.905 -12.904  0.00  0.00     0.083 A 
ATOM     13  C   UNL d   1       6.675   2.865 -13.732  0.00  0.00     0.019 A 
ATOM     14  C   UNL d   1       8.398   4.522 -13.031  0.00  0.00     0.042 A 
ATOM     15  C   UNL d   1       7.511   2.417 -14.781  0.00  0.00     0.004 A 
ATOM     16  C   UNL d   1       8.785   3.024 -14.966  0.00  0.00     0.024 A 
ATOM     17  C   UNL d   1       9.231   4.066 -14.096  0.00  0.00     0.096 A 
BRANCH  17  18
ATOM     18  O   UNL d   1      10.462   4.682 -14.217  0.00  0.00    -0.328 OA
ATOM     19  C   UNL d   1      11.328   4.274 -15.272  0.00  0.00     0.181 C 
ENDBRANCH  17  18
ENDBRANCH   8   9
ENDBRANCH   1   8
BRANCH   4  20
ATOM     20  C   UNL d   1      10.799   7.951  -6.181  0.00  0.00     0.005 A 
ATOM     21  C   UNL d   1      10.963   9.236  -5.608  0.00  0.00    -0.001 A 
ATOM     22  C   UNL d   1      11.500   9.388  -4.307  0.00  0.00     0.011 A 
ATOM     23  C   UNL d   1      11.904   8.248  -3.569  0.00  0.00     0.058 A 
ATOM     24  C   UNL d   1      11.755   6.965  -4.125  0.00  0.00     0.011 A 
ATOM     25 CL   UNL d   1      12.566   8.416  -1.988  0.00  0.00    -0.082 Cl
ATOM     26  C   UNL d   1      11.211   6.828  -5.416  0.00  0.00    -0.001 A 
ENDBRANCH   4  20
TORSDOF 4
