REMARK  8 active torsions:
REMARK  status: ('A' for Active; 'I' for Inactive)
REMARK    1  A    between atoms: C_5  and  C_6 
REMARK    2  A    between atoms: C_10  and  C_11 
REMARK       I    between atoms: C_11  and  N_13 
REMARK    3  A    between atoms: N_13  and  C_14 
REMARK    4  A    between atoms: C_17  and  C_18 
REMARK    5  A    between atoms: C_18  and  C_19 
REMARK    6  A    between atoms: C_19  and  N_20 
REMARK    7  A    between atoms: C_26  and  O_27 
REMARK    8  A    between atoms: O_27  and  S_28 
ROOT
ATOM      1  C   UNL d   1       8.211   5.242 -11.129  0.00  0.00     0.107 C 
ATOM      2  C   UNL d   1       6.939   5.813 -11.766  0.00  0.00     0.024 C 
ATOM      3  C   UNL d   1       6.300   4.756 -12.672  0.00  0.00     0.002 C 
ATOM      4  C   UNL d   1       7.316   4.261 -13.753  0.00  0.00     0.002 C 
ATOM      5  C   UNL d   1       8.694   3.801 -13.192  0.00  0.00     0.002 C 
ATOM      6  C   UNL d   1       9.247   4.819 -12.201  0.00  0.00     0.024 C 
ENDROOT
BRANCH   4   7
ATOM      7  C   UNL d   1       6.663   3.142 -14.563  0.00  0.00     0.035 C 
BRANCH   7   8
ATOM      8  C   UNL d   1       7.614   2.383 -15.545  0.00  0.00     0.250 C 
BRANCH   8   9
ATOM      9  N   UNL d   1       6.911   1.534 -16.521  0.00  0.00     0.138 N 
ATOM     10  C   UNL d   1       6.481   0.319 -15.830  0.00  0.00     0.255 C 
ATOM     11  C   UNL d   1       5.415  -0.456 -16.600  0.00  0.00     0.061 C 
ATOM     12  C   UNL d   1       5.884  -1.306 -17.749  0.00  0.00    -0.022 A 
ATOM     13  C   UNL d   1       6.736  -0.816 -18.776  0.00  0.00    -0.024 A 
ATOM     14  C   UNL d   1       5.444  -2.645 -17.793  0.00  0.00     0.021 A 
ATOM     15  C   UNL d   1       7.164   0.635 -18.853  0.00  0.00     0.061 C 
ATOM     16  C   UNL d   1       7.160  -1.707 -19.793  0.00  0.00    -0.003 A 
ATOM     17  C   UNL d   1       7.844   1.196 -17.598  0.00  0.00     0.255 C 
ATOM     18  C   UNL d   1       6.778  -3.064 -19.792  0.00  0.00     0.025 A 
ATOM     19  C   UNL d   1       5.915  -3.545 -18.764  0.00  0.00     0.113 A 
BRANCH  19  20
ATOM     20  O   UNL d   1       5.551  -4.855 -18.707  0.00  0.00    -0.230 OA
BRANCH  20  21
ATOM     21  S   UNL d   1       6.401  -5.869 -17.645  0.00  0.00     0.285 S 
ATOM     22  C   UNL d   1       5.856  -5.203 -16.014  0.00  0.00     0.172 C 
ATOM     23  O   UNL d   1       5.866  -7.224 -17.821  0.00  0.00    -0.197 OA
ATOM     24  O   UNL d   1       7.840  -5.609 -17.810  0.00  0.00    -0.197 OA
ENDBRANCH  20  21
ENDBRANCH  19  20
ENDBRANCH   8   9
ENDBRANCH   7   8
ENDBRANCH   4   7
BRANCH   1  25
ATOM     25  N   UNL d   1       8.840   6.264 -10.323  0.00  0.00    -0.236 NA
ATOM     26  C   UNL d   1       9.440   6.096  -9.142  0.00  0.00     0.275 C 
ATOM     27  O   UNL d   1       9.444   5.048  -8.503  0.00  0.00    -0.266 OA
BRANCH  26  28
ATOM     28  C   UNL d   1      10.083   7.316  -8.594  0.00  0.00     0.058 A 
ATOM     29  C   UNL d   1      10.402   8.400  -9.452  0.00  0.00     0.005 A 
ATOM     30  C   UNL d   1      11.062   9.516  -8.931  0.00  0.00     0.000 A 
ATOM     31  C   UNL d   1      11.359   9.584  -7.562  0.00  0.00     0.004 A 
ATOM     32  C   UNL d   1      11.082   8.500  -6.709  0.00  0.00     0.041 A 
ATOM     33  C   UNL d   1      10.425   7.369  -7.221  0.00  0.00     0.008 A 
BRANCH  32  34
ATOM     34  C   UNL d   1      11.443   8.581  -5.297  0.00  0.00     0.182 A 
ATOM     35  O   UNL d   1      11.691   9.813  -4.766  0.00  0.00    -0.286 OA
ATOM     36  C   UNL d   1      11.993   9.576  -3.457  0.00  0.00     0.139 A 
ATOM     37  C   UNL d   1      11.927   8.229  -3.234  0.00  0.00     0.086 A 
ATOM     38  C   UNL d   1      12.155   7.469  -1.976  0.00  0.00     0.054 C 
ATOM     39  N   UNL d   1      11.562   7.593  -4.412  0.00  0.00    -0.224 NA
ENDBRANCH  32  34
ENDBRANCH  26  28
ENDBRANCH   1  25
TORSDOF 8
