REMARK  6 active torsions:
REMARK  status: ('A' for Active; 'I' for Inactive)
REMARK       I    between atoms: C_2  and  N_3 
REMARK    1  A    between atoms: C_2  and  C_27 
REMARK    2  A    between atoms: N_3  and  C_4 
REMARK    3  A    between atoms: C_7  and  C_8 
REMARK    4  A    between atoms: C_8  and  C_9 
REMARK    5  A    between atoms: C_9  and  N_10 
REMARK    6  A    between atoms: N_13  and  C_14 
ROOT
ATOM      1  N   UNL d   1       8.741   4.939 -12.385  0.00  0.00     0.141 N 
ATOM      2  C   UNL d   1       7.425   4.447 -11.959  0.00  0.00     0.274 C 
ATOM      3  C   UNL d   1       6.582   4.091 -13.181  0.00  0.00     0.138 C 
ATOM      4  N   UNL d   1       7.286   3.139 -14.036  0.00  0.00    -0.329 N 
ATOM      5  C   UNL d   1       8.652   3.523 -14.375  0.00  0.00     0.138 C 
ATOM      6  C   UNL d   1       9.441   3.876 -13.112  0.00  0.00     0.274 C 
ENDROOT
BRANCH   1   7
ATOM      7  C   UNL d   1       9.567   5.304 -11.250  0.00  0.00     0.250 C 
BRANCH   7   8
ATOM      8  C   UNL d   1       8.981   6.442 -10.420  0.00  0.00     0.035 C 
BRANCH   8   9
ATOM      9  C   UNL d   1       9.965   7.018  -9.386  0.00  0.00     0.002 C 
ATOM     10  C   UNL d   1       9.441   8.350  -8.817  0.00  0.00     0.002 C 
ATOM     11  C   UNL d   1      10.344   8.935  -7.740  0.00  0.00     0.024 C 
ATOM     12  C   UNL d   1      10.543   7.914  -6.612  0.00  0.00     0.107 C 
ATOM     13  C   UNL d   1      11.111   6.605  -7.175  0.00  0.00     0.024 C 
ATOM     14  C   UNL d   1      10.192   6.018  -8.237  0.00  0.00     0.002 C 
BRANCH  12  15
ATOM     15  N   UNL d   1      11.423   8.484  -5.611  0.00  0.00    -0.233 NA
ATOM     16  C   UNL d   1      11.713   7.954  -4.416  0.00  0.00     0.347 C 
ATOM     17  O   UNL d   1      11.419   6.809  -4.067  0.00  0.00    -0.261 OA
BRANCH  16  18
ATOM     18  C   UNL d   1      12.439   8.887  -3.464  0.00  0.00     0.474 C 
ATOM     19  F   UNL d   1      11.552   9.703  -2.893  0.00  0.00    -0.162 F 
ATOM     20  F   UNL d   1      13.061   8.189  -2.521  0.00  0.00    -0.162 F 
ATOM     21  F   UNL d   1      13.316   9.587  -4.182  0.00  0.00    -0.162 F 
ENDBRANCH  16  18
ENDBRANCH  12  15
ENDBRANCH   8   9
ENDBRANCH   7   8
ENDBRANCH   1   7
BRANCH   4  22
ATOM     22  C   UNL d   1       6.699   1.917 -14.442  0.00  0.00     0.148 A 
ATOM     23  C   UNL d   1       6.970   1.306 -15.742  0.00  0.00     0.042 A 
ATOM     24  C   UNL d   1       6.188   0.116 -15.864  0.00  0.00     0.050 A 
ATOM     25  C   UNL d   1       7.773   1.649 -16.856  0.00  0.00     0.004 A 
ATOM     26  S   UNL d   1       5.264  -0.080 -14.392  0.00  0.00     0.015 SA
ATOM     27  C   UNL d   1       6.212  -0.683 -17.023  0.00  0.00     0.008 A 
ATOM     28  N   UNL d   1       5.843   1.303 -13.652  0.00  0.00    -0.192 NA
ATOM     29  C   UNL d   1       7.040  -0.319 -18.101  0.00  0.00     0.001 A 
ATOM     30  C   UNL d   1       7.825   0.846 -18.010  0.00  0.00     0.000 A 
ENDBRANCH   4  22
TORSDOF 6
