REMARK  7 active torsions:
REMARK  status: ('A' for Active; 'I' for Inactive)
REMARK    1  A    between atoms: C_6  and  C_7 
REMARK    2  A    between atoms: C_10  and  C_11 
REMARK       I    between atoms: C_11  and  N_13 
REMARK    3  A    between atoms: N_13  and  C_14 
REMARK    4  A    between atoms: C_14  and  C_15 
REMARK    5  A    between atoms: C_16  and  C_17 
REMARK    6  A    between atoms: C_17  and  N_18 
REMARK    7  A    between atoms: N_21  and  C_22 
ROOT
ATOM      1  C   UNL d   1       8.923   4.555 -13.989  0.00  0.00     0.155 C 
ENDROOT
BRANCH   1   2
ATOM      2  N   UNL d   1       9.244   5.205 -12.721  0.00  0.00    -0.229 NA
ATOM      3  C   UNL d   1       8.423   5.318 -11.665  0.00  0.00     0.275 C 
ATOM      4  O   UNL d   1       7.279   4.865 -11.639  0.00  0.00    -0.266 OA
BRANCH   3   5
ATOM      5  C   UNL d   1       9.026   5.979 -10.461  0.00  0.00     0.058 A 
ATOM      6  C   UNL d   1       8.700   5.515  -9.171  0.00  0.00     0.005 A 
ATOM      7  C   UNL d   1       9.229   6.156  -8.035  0.00  0.00     0.002 A 
ATOM      8  C   UNL d   1      10.097   7.264  -8.148  0.00  0.00     0.018 A 
ATOM      9  C   UNL d   1      10.398   7.737  -9.446  0.00  0.00     0.002 A 
ATOM     10  C   UNL d   1       9.862   7.107 -10.588  0.00  0.00     0.005 A 
BRANCH   8  11
ATOM     11  C   UNL d   1      10.655   7.922  -6.944  0.00  0.00     0.081 A 
ATOM     12  C   UNL d   1      10.918   9.307  -6.898  0.00  0.00     0.019 A 
ATOM     13  C   UNL d   1      11.467   9.870  -5.732  0.00  0.00     0.003 A 
ATOM     14  C   UNL d   1      11.748   9.028  -4.642  0.00  0.00     0.015 A 
ATOM     15  C   UNL d   1      11.462   7.656  -4.776  0.00  0.00     0.059 A 
ATOM     16  C   UNL d   1      11.743   6.690  -3.648  0.00  0.00     0.052 C 
ATOM     17  N   UNL d   1      10.925   7.117  -5.890  0.00  0.00    -0.250 NA
ENDBRANCH   8  11
ENDBRANCH   3   5
ENDBRANCH   1   2
BRANCH   1  18
ATOM     18  C   UNL d   1       8.438   3.130 -13.786  0.00  0.00    -0.003 C 
ATOM     19  C   UNL d   1       7.191   2.702 -14.048  0.00  0.00     0.006 C 
BRANCH  19  20
ATOM     20  C   UNL d   1       6.707   1.292 -13.779  0.00  0.00     0.276 C 
BRANCH  20  21
ATOM     21  N   UNL d   1       5.855   0.780 -14.839  0.00  0.00     0.145 N 
ATOM     22  C   UNL d   1       6.619   0.625 -16.082  0.00  0.00     0.275 C 
ATOM     23  C   UNL d   1       5.707   0.106 -17.200  0.00  0.00     0.137 C 
ATOM     24  N   UNL d   1       5.054  -1.123 -16.785  0.00  0.00    -0.344 N 
ATOM     25  C   UNL d   1       4.353  -1.068 -15.512  0.00  0.00     0.137 C 
ATOM     26  C   UNL d   1       5.299  -0.518 -14.430  0.00  0.00     0.275 C 
BRANCH  24  27
ATOM     27  C   UNL d   1       5.080  -2.292 -17.570  0.00  0.00     0.068 A 
ATOM     28  C   UNL d   1       4.724  -2.283 -18.945  0.00  0.00     0.084 A 
ATOM     29  C   UNL d   1       4.750  -3.486 -19.688  0.00  0.00     0.070 A 
ATOM     30 CL   UNL d   1       4.226  -0.823 -19.725  0.00  0.00    -0.080 Cl
ATOM     31  C   UNL d   1       5.130  -4.691 -19.076  0.00  0.00     0.012 A 
ATOM     32 CL   UNL d   1       4.304  -3.507 -21.354  0.00  0.00    -0.081 Cl
ATOM     33  C   UNL d   1       5.485  -4.708 -17.719  0.00  0.00     0.002 A 
ATOM     34  C   UNL d   1       5.457  -3.514 -16.971  0.00  0.00     0.018 A 
ENDBRANCH  24  27
ENDBRANCH  20  21
ENDBRANCH  19  20
ENDBRANCH   1  18
TORSDOF 7
