REMARK  6 active torsions:
REMARK  status: ('A' for Active; 'I' for Inactive)
REMARK       I    between atoms: C_2  and  N_3 
REMARK    1  A    between atoms: C_2  and  C_27 
REMARK    2  A    between atoms: N_3  and  C_4 
REMARK    3  A    between atoms: C_7  and  C_8 
REMARK    4  A    between atoms: C_8  and  C_9 
REMARK    5  A    between atoms: C_9  and  N_10 
REMARK    6  A    between atoms: N_13  and  C_14 
ROOT
ATOM      1  N   UNL d   1       8.946   4.139 -14.665  0.00  0.00     0.141 N 
ATOM      2  C   UNL d   1       9.499   4.785 -15.868  0.00  0.00     0.274 C 
ATOM      3  C   UNL d   1       9.465   3.813 -17.062  0.00  0.00     0.137 C 
ATOM      4  N   UNL d   1      10.156   2.580 -16.704  0.00  0.00    -0.343 N 
ATOM      5  C   UNL d   1       9.732   1.957 -15.461  0.00  0.00     0.137 C 
ATOM      6  C   UNL d   1       9.789   2.982 -14.334  0.00  0.00     0.274 C 
ENDROOT
BRANCH   1   7
ATOM      7  C   UNL d   1       8.935   5.137 -13.607  0.00  0.00     0.250 C 
BRANCH   7   8
ATOM      8  C   UNL d   1       8.498   4.596 -12.229  0.00  0.00     0.035 C 
BRANCH   8   9
ATOM      9  C   UNL d   1       8.541   5.628 -11.082  0.00  0.00     0.002 C 
ATOM     10  C   UNL d   1       8.682   4.871  -9.736  0.00  0.00     0.002 C 
ATOM     11  C   UNL d   1       8.799   5.841  -8.562  0.00  0.00     0.024 C 
ATOM     12  C   UNL d   1       9.982   6.805  -8.754  0.00  0.00     0.106 C 
ATOM     13  C   UNL d   1       9.902   7.569 -10.075  0.00  0.00     0.024 C 
ATOM     14  C   UNL d   1       9.723   6.611 -11.238  0.00  0.00     0.002 C 
BRANCH  12  15
ATOM     15  N   UNL d   1      10.002   7.738  -7.649  0.00  0.00    -0.240 NA
ATOM     16  C   UNL d   1      11.124   8.252  -7.136  0.00  0.00     0.251 C 
ATOM     17  O   UNL d   1      12.223   8.117  -7.668  0.00  0.00    -0.271 OA
BRANCH  16  18
ATOM     18  C   UNL d   1      10.957   9.013  -5.816  0.00  0.00     0.081 C 
ATOM     19  C   UNL d   1      11.687   8.377  -4.606  0.00  0.00     0.009 C 
ATOM     20  C   UNL d   1      12.167   9.763  -4.216  0.00  0.00     0.001 C 
ATOM     21  C   UNL d   1      11.878  10.229  -5.648  0.00  0.00     0.009 C 
ENDBRANCH  16  18
ENDBRANCH  12  15
ENDBRANCH   8   9
ENDBRANCH   7   8
ENDBRANCH   1   7
BRANCH   4  22
ATOM     22  C   UNL d   1      11.143   2.004 -17.505  0.00  0.00     0.081 A 
ATOM     23  C   UNL d   1      12.102   2.771 -18.207  0.00  0.00     0.135 A 
ATOM     24  C   UNL d   1      13.077   2.182 -18.977  0.00  0.00     0.121 A 
ATOM     25  O   UNL d   1      12.264   4.126 -18.235  0.00  0.00    -0.298 OA
ATOM     26  C   UNL d   1      13.169   0.785 -19.120  0.00  0.00     0.026 A 
ATOM     27  O   UNL d   1      13.879   3.133 -19.517  0.00  0.00    -0.299 OA
ATOM     28  C   UNL d   1      12.225  -0.010 -18.432  0.00  0.00     0.004 A 
ATOM     29  C   UNL d   1      11.233   0.590 -17.630  0.00  0.00     0.019 A 
ATOM     30  C   UNL d   1      13.367   4.362 -19.070  0.00  0.00     0.304 A 
ENDBRANCH   4  22
TORSDOF 6
