REMARK  3 active torsions:
REMARK  status: ('A' for Active; 'I' for Inactive)
REMARK    1  A    between atoms: C_9  and  O_10 
REMARK    2  A    between atoms: O_10  and  C_11 
REMARK    3  A    between atoms: C_11  and  C_13 
ROOT
ATOM      1  C   UNL d   1       9.211   9.135  -7.502  0.00  0.00     0.003 C 
ATOM      2  C   UNL d   1      10.724   8.834  -7.764  0.00  0.00     0.028 C 
ATOM      3  C   UNL d   1      11.152   9.217  -9.205  0.00  0.00     0.003 C 
ATOM      4  C   UNL d   1      10.295   8.543 -10.285  0.00  0.00     0.004 C 
ATOM      5  C   UNL d   1      10.309   7.029 -10.069  0.00  0.00     0.022 C 
ATOM      6  C   UNL d   1       9.428   6.286 -11.052  0.00  0.00    -0.026 A 
ATOM      7  C   UNL d   1       9.307   6.668 -12.415  0.00  0.00    -0.003 A 
ATOM      8  C   UNL d   1       8.520   5.867 -13.288  0.00  0.00     0.025 A 
ATOM      9  C   UNL d   1       7.804   4.771 -12.802  0.00  0.00     0.103 A 
ATOM     10  C   UNL d   1       7.836   4.457 -11.444  0.00  0.00     0.020 A 
ATOM     11  C   UNL d   1       8.695   5.169 -10.590  0.00  0.00    -0.024 A 
ATOM     12  C   UNL d   1       8.786   4.659  -9.172  0.00  0.00     0.026 C 
ATOM     13  C   UNL d   1       9.883   5.248  -8.391  0.00  0.00     0.005 C 
ATOM     14  C   UNL d   1       9.960   6.678  -8.597  0.00  0.00     0.004 C 
ATOM     15  C   UNL d   1      10.934   7.352  -7.598  0.00  0.00     0.003 C 
ATOM     16  C   UNL d   1      10.792   7.136  -6.063  0.00  0.00     0.003 C 
ATOM     17  C   UNL d   1      11.421   8.409  -5.449  0.00  0.00     0.033 C 
ATOM     18  C   UNL d   1      11.657   9.365  -6.642  0.00  0.00     0.152 C 
ATOM     19  O   UNL d   1      11.429  10.713  -6.295  0.00  0.00    -0.224 OA
ENDROOT
BRANCH   9  20
ATOM     20  O   UNL d   1       7.175   4.000 -13.752  0.00  0.00    -0.273 OA
BRANCH  20  21
ATOM     21  C   UNL d   1       6.080   3.307 -13.462  0.00  0.00     0.300 C 
ATOM     22  O   UNL d   1       5.143   3.739 -12.806  0.00  0.00    -0.259 OA
BRANCH  21  23
ATOM     23  C   UNL d   1       6.173   1.908 -13.966  0.00  0.00     0.064 A 
ATOM     24  C   UNL d   1       5.131   1.025 -13.612  0.00  0.00     0.005 A 
ATOM     25  C   UNL d   1       5.107  -0.287 -14.100  0.00  0.00     0.000 A 
ATOM     26  C   UNL d   1       6.180  -0.759 -14.883  0.00  0.00     0.000 A 
ATOM     27  C   UNL d   1       7.253   0.103 -15.198  0.00  0.00     0.000 A 
ATOM     28  C   UNL d   1       7.255   1.431 -14.760  0.00  0.00     0.005 A 
ENDBRANCH  21  23
ENDBRANCH  20  21
ENDBRANCH   9  20
TORSDOF 3
