REMARK  8 active torsions:
REMARK  status: ('A' for Active; 'I' for Inactive)
REMARK    1  A    between atoms: N_10  and  C_11 
REMARK    2  A    between atoms: C_11  and  C_12 
REMARK    3  A    between atoms: C_12  and  C_13 
REMARK    4  A    between atoms: C_13  and  C_14 
REMARK    5  A    between atoms: C_14  and  C_15 
REMARK    6  A    between atoms: C_15  and  C_16 
REMARK    7  A    between atoms: C_16  and  N_17 
REMARK    8  A    between atoms: N_20  and  C_21 
ROOT
ATOM      1  C   UNL d   1       8.186   5.401 -10.711  0.00  0.00     0.250 C 
ENDROOT
BRANCH   1   2
ATOM      2  C   UNL d   1       9.386   6.346 -10.788  0.00  0.00     0.035 C 
BRANCH   2   3
ATOM      3  C   UNL d   1       9.754   6.944  -9.434  0.00  0.00     0.002 C 
BRANCH   3   4
ATOM      4  C   UNL d   1      11.075   7.723  -9.477  0.00  0.00     0.002 C 
BRANCH   4   5
ATOM      5  C   UNL d   1      11.333   8.500  -8.179  0.00  0.00     0.025 C 
BRANCH   5   6
ATOM      6  C   UNL d   1      11.190   7.691  -6.869  0.00  0.00     0.111 C 
BRANCH   6   7
ATOM      7  N   UNL d   1      11.389   8.481  -5.646  0.00  0.00    -0.274 N 
ATOM      8  C   UNL d   1      11.159   9.845  -5.489  0.00  0.00     0.373 A 
ATOM      9  O   UNL d   1      10.869  10.659  -6.345  0.00  0.00    -0.237 OA
ATOM     10  O   UNL d   1      11.357  10.161  -4.198  0.00  0.00    -0.258 OA
ATOM     11  C   UNL d   1      11.818   9.067  -3.554  0.00  0.00     0.121 A 
ATOM     12  C   UNL d   1      11.808   7.997  -4.418  0.00  0.00     0.087 A 
ATOM     13  C   UNL d   1      12.249   8.959  -2.240  0.00  0.00     0.026 A 
ATOM     14  C   UNL d   1      12.154   6.704  -4.015  0.00  0.00     0.019 A 
ATOM     15  C   UNL d   1      12.593   6.565  -2.683  0.00  0.00     0.002 A 
ATOM     16  C   UNL d   1      12.653   7.683  -1.814  0.00  0.00     0.002 A 
ENDBRANCH   6   7
ENDBRANCH   5   6
ENDBRANCH   4   5
ENDBRANCH   3   4
ENDBRANCH   2   3
ENDBRANCH   1   2
BRANCH   1  17
ATOM     17  N   UNL d   1       7.765   4.987 -12.046  0.00  0.00     0.141 N 
ATOM     18  C   UNL d   1       6.480   4.293 -11.932  0.00  0.00     0.274 C 
ATOM     19  C   UNL d   1       5.962   3.898 -13.325  0.00  0.00     0.138 C 
ATOM     20  N   UNL d   1       6.952   3.091 -14.037  0.00  0.00    -0.329 N 
ATOM     21  C   UNL d   1       8.285   3.694 -14.070  0.00  0.00     0.138 C 
ATOM     22  C   UNL d   1       8.749   4.086 -12.663  0.00  0.00     0.274 C 
BRANCH  20  23
ATOM     23  C   UNL d   1       6.671   1.836 -14.569  0.00  0.00     0.148 A 
ATOM     24  C   UNL d   1       7.197   1.393 -15.864  0.00  0.00     0.042 A 
ATOM     25  C   UNL d   1       6.694   0.089 -16.157  0.00  0.00     0.050 A 
ATOM     26  C   UNL d   1       8.043   1.981 -16.838  0.00  0.00     0.004 A 
ATOM     27  S   UNL d   1       5.669  -0.408 -14.827  0.00  0.00     0.015 SA
ATOM     28  C   UNL d   1       7.029  -0.591 -17.344  0.00  0.00     0.008 A 
ATOM     29  N   UNL d   1       5.860   0.995 -13.938  0.00  0.00    -0.192 NA
ATOM     30  C   UNL d   1       7.891   0.015 -18.276  0.00  0.00     0.001 A 
ATOM     31  C   UNL d   1       8.393   1.308 -18.026  0.00  0.00     0.000 A 
ENDBRANCH  20  23
ENDBRANCH   1  17
TORSDOF 8
