REMARK  6 active torsions:
REMARK  status: ('A' for Active; 'I' for Inactive)
REMARK    1  A    between atoms: C_2  and  C_3 
REMARK    2  A    between atoms: C_3  and  N_4 
REMARK    3  A    between atoms: C_18  and  O_19 
REMARK    4  A    between atoms: O_19  and  S_20 
REMARK    5  A    between atoms: S_20  and  C_23 
REMARK    6  A    between atoms: C_27  and  O_28 
ROOT
ATOM      1  N   UNL d   1       6.114   0.574 -14.957  0.00  0.00     0.140 N 
ATOM      2  C   UNL d   1       6.857  -0.407 -15.739  0.00  0.00     0.255 C 
ATOM      3  C   UNL d   1       7.239   0.277 -17.048  0.00  0.00     0.061 C 
ATOM      4  C   UNL d   1       8.080   1.522 -16.888  0.00  0.00    -0.022 A 
ATOM      5  C   UNL d   1       8.887   2.091 -17.883  0.00  0.00    -0.004 A 
ATOM      6  C   UNL d   1       9.585   3.274 -17.623  0.00  0.00    -0.000 A 
ATOM      7  C   UNL d   1       9.504   3.873 -16.349  0.00  0.00    -0.000 A 
ATOM      8  C   UNL d   1       8.759   3.315 -15.273  0.00  0.00    -0.001 A 
ATOM      9  C   UNL d   1       8.023   2.148 -15.612  0.00  0.00     0.005 A 
ATOM     10  C   UNL d   1       7.100   1.570 -14.506  0.00  0.00     0.245 C 
ATOM     11  C   UNL d   1       6.393   2.739 -13.764  0.00  0.00     0.064 C 
ATOM     12  C   UNL d   1       7.391   3.748 -13.258  0.00  0.00    -0.018 A 
ATOM     13  C   UNL d   1       7.114   4.380 -12.029  0.00  0.00    -0.002 A 
ATOM     14  C   UNL d   1       8.019   5.257 -11.452  0.00  0.00     0.027 A 
ATOM     15  C   UNL d   1       9.252   5.497 -12.098  0.00  0.00     0.136 A 
ATOM     16  C   UNL d   1       9.531   4.888 -13.370  0.00  0.00     0.117 A 
ATOM     17  C   UNL d   1       8.594   4.010 -13.962  0.00  0.00     0.020 A 
ENDROOT
BRANCH  15  18
ATOM     18  O   UNL d   1      10.231   6.196 -11.440  0.00  0.00    -0.222 OA
BRANCH  18  19
ATOM     19  S   UNL d   1       9.779   7.462 -10.411  0.00  0.00     0.374 S 
ATOM     20  O   UNL d   1       9.209   8.539 -11.230  0.00  0.00    -0.189 OA
ATOM     21  O   UNL d   1       9.055   6.830  -9.287  0.00  0.00    -0.189 OA
BRANCH  19  22
ATOM     22  C   UNL d   1      11.407   8.062  -9.755  0.00  0.00     0.524 C 
ATOM     23  F   UNL d   1      11.341   8.048  -8.432  0.00  0.00    -0.155 F 
ATOM     24  F   UNL d   1      12.373   7.238 -10.148  0.00  0.00    -0.155 F 
ATOM     25  F   UNL d   1      11.644   9.312 -10.192  0.00  0.00    -0.155 F 
ENDBRANCH  19  22
ENDBRANCH  18  19
ENDBRANCH  15  18
BRANCH  16  26
ATOM     26  O   UNL d   1      10.743   5.144 -13.975  0.00  0.00    -0.326 OA
ATOM     27  C   UNL d   1      11.688   4.080 -13.893  0.00  0.00     0.181 C 
ENDBRANCH  16  26
BRANCH   1  28
ATOM     28  C   UNL d   1       5.423  -0.125 -13.862  0.00  0.00     0.251 C 
BRANCH  28  29
ATOM     29  C   UNL d   1       3.988  -0.513 -14.287  0.00  0.00     0.035 C 
ATOM     30  C   UNL d   1       3.909  -1.466 -15.486  0.00  0.00     0.002 C 
ENDBRANCH  28  29
ENDBRANCH   1  28
TORSDOF 6
