REMARK  8 active torsions:
REMARK  status: ('A' for Active; 'I' for Inactive)
REMARK    1  A    between atoms: S_2  and  C_4 
REMARK    2  A    between atoms: S_2  and  N_11 
REMARK    3  A    between atoms: N_11  and  C_12 
REMARK    4  A    between atoms: N_11  and  C_31 
REMARK    5  A    between atoms: C_12  and  C_13 
REMARK    6  A    between atoms: C_13  and  C_14 
REMARK    7  A    between atoms: C_14  and  N_15 
REMARK    8  A    between atoms: C_18  and  C_19 
ROOT
ATOM      1  C   UNL d   1       8.768   3.782 -14.928  0.00  0.00     0.060 C 
ENDROOT
BRANCH   1   2
ATOM      2  C   UNL d   1       9.407   4.809 -15.892  0.00  0.00     0.115 C 
BRANCH   2   3
ATOM      3  N   UNL d   1      10.389   4.163 -16.742  0.00  0.00    -0.271 N 
BRANCH   3   4
ATOM      4  S   UNL d   1       9.900   3.471 -18.255  0.00  0.00     0.264 S 
ATOM      5  O   UNL d   1       8.612   2.783 -18.060  0.00  0.00    -0.200 OA
ATOM      6  O   UNL d   1      11.059   2.751 -18.807  0.00  0.00    -0.200 OA
BRANCH   4   7
ATOM      7  C   UNL d   1       9.607   4.886 -19.312  0.00  0.00     0.103 A 
ATOM      8  C   UNL d   1       8.806   4.710 -20.458  0.00  0.00     0.014 A 
ATOM      9  C   UNL d   1       8.535   5.811 -21.294  0.00  0.00     0.012 A 
ATOM     10  C   UNL d   1       9.060   7.081 -20.979  0.00  0.00     0.058 A 
ATOM     11  C   UNL d   1       9.857   7.251 -19.829  0.00  0.00     0.012 A 
ATOM     12 CL   UNL d   1       8.738   8.434 -21.997  0.00  0.00    -0.082 Cl
ATOM     13  C   UNL d   1      10.130   6.159 -18.992  0.00  0.00     0.014 A 
ENDBRANCH   4   7
ENDBRANCH   3   4
BRANCH   3  14
ATOM     14  C   UNL d   1      11.682   3.843 -16.111  0.00  0.00     0.151 C 
ATOM     15  C   UNL d   1      12.966   4.618 -16.395  0.00  0.00     0.168 C 
ATOM     16  O   UNL d   1      13.405   4.392 -15.031  0.00  0.00    -0.350 OA
ATOM     17  C   UNL d   1      12.047   4.176 -14.653  0.00  0.00     0.168 C 
ENDBRANCH   3  14
ENDBRANCH   2   3
ENDBRANCH   1   2
BRANCH   1  18
ATOM     18  C   UNL d   1       7.856   4.415 -13.879  0.00  0.00     0.252 C 
BRANCH  18  19
ATOM     19  N   UNL d   1       8.583   5.370 -13.048  0.00  0.00     0.137 N 
ATOM     20  C   UNL d   1       7.740   6.520 -12.709  0.00  0.00     0.251 C 
ATOM     21  C   UNL d   1       8.530   7.561 -11.914  0.00  0.00     0.041 C 
ATOM     22  C   UNL d   1       9.077   6.947 -10.611  0.00  0.00     0.047 C 
ATOM     23  C   UNL d   1       9.838   5.676 -10.971  0.00  0.00     0.041 C 
ATOM     24  C   UNL d   1       9.020   4.701 -11.825  0.00  0.00     0.251 C 
BRANCH  22  25
ATOM     25  C   UNL d   1       9.915   7.934  -9.835  0.00  0.00     0.087 A 
ATOM     26  C   UNL d   1      10.090   8.136  -8.454  0.00  0.00     0.041 A 
ATOM     27  C   UNL d   1      11.024   9.151  -8.233  0.00  0.00     0.129 A 
ATOM     28  C   UNL d   1       9.511   7.476  -7.354  0.00  0.00     0.006 A 
ATOM     29  O   UNL d   1      11.421   9.555  -9.493  0.00  0.00    -0.211 OA
ATOM     30  C   UNL d   1      11.403   9.584  -6.958  0.00  0.00     0.057 A 
ATOM     31  N   UNL d   1      10.757   8.758 -10.455  0.00  0.00    -0.131 NA
ATOM     32  C   UNL d   1      10.817   8.940  -5.858  0.00  0.00     0.142 A 
ATOM     33  F   UNL d   1      11.127   9.357  -4.609  0.00  0.00    -0.204 F 
ATOM     34  C   UNL d   1       9.900   7.878  -6.064  0.00  0.00     0.030 A 
ENDBRANCH  22  25
ENDBRANCH  18  19
ENDBRANCH   1  18
TORSDOF 8
