REMARK  7 active torsions:
REMARK  status: ('A' for Active; 'I' for Inactive)
REMARK    1  A    between atoms: C_2  and  C_3 
REMARK       I    between atoms: C_2  and  N_9 
REMARK    2  A    between atoms: N_9  and  C_10 
REMARK    3  A    between atoms: N_9  and  C_29 
REMARK    4  A    between atoms: C_10  and  C_11 
REMARK    5  A    between atoms: C_11  and  C_12 
REMARK    6  A    between atoms: C_12  and  N_13 
REMARK    7  A    between atoms: C_16  and  C_17 
ROOT
ATOM      1  N   UNL d   1       8.861   4.336 -13.867  0.00  0.00     0.137 N 
ATOM      2  C   UNL d   1       8.969   5.760 -13.641  0.00  0.00     0.251 C 
ATOM      3  C   UNL d   1       8.642   6.225 -12.236  0.00  0.00     0.041 C 
ATOM      4  C   UNL d   1       9.616   5.556 -11.286  0.00  0.00     0.047 C 
ATOM      5  C   UNL d   1       9.605   4.030 -11.580  0.00  0.00     0.041 C 
ATOM      6  C   UNL d   1       9.902   3.703 -13.051  0.00  0.00     0.251 C 
ENDROOT
BRANCH   1   7
ATOM      7  C   UNL d   1       9.085   4.071 -15.295  0.00  0.00     0.252 C 
BRANCH   7   8
ATOM      8  C   UNL d   1       8.373   2.763 -15.652  0.00  0.00     0.060 C 
BRANCH   8   9
ATOM      9  C   UNL d   1       8.766   2.260 -17.055  0.00  0.00     0.107 C 
BRANCH   9  10
ATOM     10  N   UNL d   1       8.291   0.868 -17.302  0.00  0.00    -0.314 N 
ATOM     11  C   UNL d   1       7.022   0.663 -17.730  0.00  0.00     0.257 C 
ATOM     12  O   UNL d   1       6.259   1.589 -18.001  0.00  0.00    -0.267 OA
BRANCH  11  13
ATOM     13  C   UNL d   1       6.500  -0.740 -17.870  0.00  0.00     0.056 A 
ATOM     14  C   UNL d   1       5.487  -1.193 -17.003  0.00  0.00     0.005 A 
ATOM     15  C   UNL d   1       5.020  -2.515 -17.097  0.00  0.00     0.000 A 
ATOM     16  C   UNL d   1       5.543  -3.386 -18.072  0.00  0.00     0.000 A 
ATOM     17  C   UNL d   1       6.522  -2.927 -18.972  0.00  0.00     0.000 A 
ATOM     18  C   UNL d   1       6.991  -1.600 -18.884  0.00  0.00     0.005 A 
ENDBRANCH  11  13
BRANCH  10  19
ATOM     19  C   UNL d   1       9.257  -0.249 -17.023  0.00  0.00     0.143 C 
ATOM     20  C   UNL d   1      10.654  -0.022 -17.600  0.00  0.00     0.167 C 
ATOM     21  O   UNL d   1      11.082   0.499 -16.300  0.00  0.00    -0.350 OA
ATOM     22  C   UNL d   1       9.979  -0.226 -15.673  0.00  0.00     0.167 C 
ENDBRANCH  10  19
ENDBRANCH   9  10
ENDBRANCH   8   9
ENDBRANCH   7   8
ENDBRANCH   1   7
BRANCH   4  23
ATOM     23  C   UNL d   1       9.254   5.817  -9.848  0.00  0.00     0.087 A 
ATOM     24  C   UNL d   1       9.750   6.755  -8.916  0.00  0.00     0.041 A 
ATOM     25  C   UNL d   1       9.047   6.614  -7.719  0.00  0.00     0.129 A 
ATOM     26  C   UNL d   1      10.742   7.750  -9.018  0.00  0.00     0.006 A 
ATOM     27  O   UNL d   1       8.159   5.587  -7.933  0.00  0.00    -0.211 OA
ATOM     28  C   UNL d   1       9.260   7.422  -6.603  0.00  0.00     0.057 A 
ATOM     29  N   UNL d   1       8.286   5.114  -9.263  0.00  0.00    -0.131 NA
ATOM     30  C   UNL d   1      10.252   8.413  -6.693  0.00  0.00     0.142 A 
ATOM     31  F   UNL d   1      10.504   9.205  -5.628  0.00  0.00    -0.204 F 
ATOM     32  C   UNL d   1      10.991   8.575  -7.893  0.00  0.00     0.030 A 
ENDBRANCH   4  23
TORSDOF 7
