REMARK  6 active torsions:
REMARK  status: ('A' for Active; 'I' for Inactive)
REMARK    1  A    between atoms: C_2  and  C_3 
REMARK    2  A    between atoms: C_2  and  C_20 
REMARK    3  A    between atoms: C_3  and  C_4 
REMARK    4  A    between atoms: C_4  and  C_5 
REMARK    5  A    between atoms: C_5  and  N_6 
REMARK    6  A    between atoms: C_9  and  C_11 
ROOT
ATOM      1  N   UNL d   1       9.434   6.806  -9.336  0.00  0.00     0.137 N 
ATOM      2  C   UNL d   1       9.653   8.236  -9.106  0.00  0.00     0.253 C 
ATOM      3  C   UNL d   1       9.923   8.513  -7.628  0.00  0.00     0.070 C 
ATOM      4  C   UNL d   1      11.182   7.760  -7.134  0.00  0.00     0.150 C 
ATOM      5  O   UNL d   1      12.285   8.227  -7.889  0.00  0.00    -0.221 OA
ATOM      6  C   UNL d   1      10.979   6.276  -7.516  0.00  0.00     0.070 C 
ATOM      7  C   UNL d   1      10.639   6.070  -8.995  0.00  0.00     0.253 C 
ENDROOT
BRANCH   1   8
ATOM      8  C   UNL d   1       9.088   6.579 -10.735  0.00  0.00     0.251 C 
BRANCH   8   9
ATOM      9  C   UNL d   1       7.872   5.648 -10.845  0.00  0.00     0.043 C 
BRANCH   9  10
ATOM     10  C   UNL d   1       7.277   5.652 -12.262  0.00  0.00     0.071 C 
BRANCH  10  11
ATOM     11  C   UNL d   1       8.089   4.777 -13.232  0.00  0.00     0.173 C 
ATOM     12  O   UNL d   1       9.177   5.185 -13.624  0.00  0.00    -0.291 OA
BRANCH  11  13
ATOM     13  C   UNL d   1       7.539   3.450 -13.641  0.00  0.00     0.035 A 
ATOM     14  C   UNL d   1       6.257   2.991 -13.246  0.00  0.00     0.005 A 
ATOM     15  C   UNL d   1       5.815   1.712 -13.637  0.00  0.00     0.030 A 
ATOM     16  C   UNL d   1       6.616   0.888 -14.446  0.00  0.00     0.140 A 
ATOM     17  C   UNL d   1       7.883   1.336 -14.850  0.00  0.00     0.030 A 
ATOM     18  F   UNL d   1       6.161  -0.327 -14.829  0.00  0.00    -0.204 F 
ATOM     19  C   UNL d   1       8.343   2.605 -14.448  0.00  0.00     0.005 A 
ENDBRANCH  11  13
ENDBRANCH  10  11
ENDBRANCH   9  10
ENDBRANCH   8   9
ENDBRANCH   1   8
BRANCH   4  20
ATOM     20  C   UNL d   1      11.431   7.946  -5.616  0.00  0.00     0.016 A 
ATOM     21  C   UNL d   1      11.672   9.228  -5.050  0.00  0.00     0.056 A 
ATOM     22  C   UNL d   1      11.867   9.386  -3.655  0.00  0.00     0.011 A 
ATOM     23 CL   UNL d   1      11.766  10.634  -6.038  0.00  0.00    -0.083 Cl
ATOM     24  C   UNL d   1      11.885   8.268  -2.809  0.00  0.00     0.001 A 
ATOM     25  C   UNL d   1      11.700   6.988  -3.353  0.00  0.00    -0.000 A 
ATOM     26  C   UNL d   1      11.460   6.839  -4.730  0.00  0.00    -0.001 A 
ENDBRANCH   4  20
TORSDOF 6
