REMARK  8 active torsions:
REMARK  status: ('A' for Active; 'I' for Inactive)
REMARK    1  A    between atoms: O_2  and  C_3 
REMARK    2  A    between atoms: C_8  and  N_9 
REMARK    3  A    between atoms: N_12  and  C_13 
REMARK    4  A    between atoms: C_13  and  C_14 
REMARK    5  A    between atoms: C_14  and  C_15 
REMARK    6  A    between atoms: C_15  and  C_16 
REMARK    7  A    between atoms: C_16  and  C_17 
REMARK    8  A    between atoms: N_19  and  C_20 
ROOT
ATOM      1  C   UNL d   1       8.859   6.519 -12.726  0.00  0.00     0.009 C 
ENDROOT
BRANCH   1   2
ATOM      2  C   UNL d   1       9.596   6.122 -11.442  0.00  0.00     0.036 C 
BRANCH   2   3
ATOM      3  C   UNL d   1       9.114   6.899 -10.227  0.00  0.00     0.250 C 
BRANCH   3   4
ATOM      4  N   UNL d   1       9.725   6.495  -8.970  0.00  0.00     0.141 N 
ATOM      5  C   UNL d   1       8.838   6.903  -7.869  0.00  0.00     0.274 C 
ATOM      6  C   UNL d   1       9.464   6.346  -6.591  0.00  0.00     0.137 C 
ATOM      7  N   UNL d   1      10.784   6.917  -6.395  0.00  0.00    -0.343 N 
ATOM      8  C   UNL d   1      11.675   6.663  -7.497  0.00  0.00     0.137 C 
ATOM      9  C   UNL d   1      11.017   7.157  -8.800  0.00  0.00     0.274 C 
BRANCH   7  10
ATOM     10  C   UNL d   1      11.221   7.515  -5.194  0.00  0.00     0.079 A 
ATOM     11  C   UNL d   1      11.367   8.898  -5.205  0.00  0.00     0.110 A 
ATOM     12  C   UNL d   1      11.732   9.568  -4.013  0.00  0.00     0.026 A 
ATOM     13  C   UNL d   1      12.010   8.847  -2.846  0.00  0.00     0.002 A 
ATOM     14  C   UNL d   1      11.869   7.453  -2.838  0.00  0.00     0.002 A 
ATOM     15  C   UNL d   1      11.447   6.788  -4.016  0.00  0.00     0.019 A 
BRANCH  11  16
ATOM     16  O   UNL d   1      11.098   9.556  -6.379  0.00  0.00    -0.327 OA
ATOM     17  C   UNL d   1      11.712  10.797  -6.621  0.00  0.00     0.181 C 
ENDBRANCH  11  16
ENDBRANCH   7  10
ENDBRANCH   3   4
ENDBRANCH   2   3
ENDBRANCH   1   2
BRANCH   1  18
ATOM     18  C   UNL d   1       8.670   5.342 -13.706  0.00  0.00     0.049 C 
BRANCH  18  19
ATOM     19  C   UNL d   1       9.942   4.915 -14.377  0.00  0.00     0.101 A 
ATOM     20  N   UNL d   1      10.943   4.213 -13.707  0.00  0.00    -0.133 NA
ATOM     21  N   UNL d   1      11.914   3.966 -14.528  0.00  0.00    -0.060 NA
ATOM     22  N   UNL d   1      11.571   4.495 -15.726  0.00  0.00    -0.209 N 
ATOM     23  C   UNL d   1      10.333   5.101 -15.676  0.00  0.00     0.119 A 
BRANCH  22  24
ATOM     24  C   UNL d   1      12.426   4.338 -16.838  0.00  0.00     0.085 A 
ATOM     25  C   UNL d   1      13.079   5.438 -17.452  0.00  0.00     0.021 A 
ATOM     26  C   UNL d   1      13.904   5.207 -18.582  0.00  0.00     0.021 A 
ATOM     27  C   UNL d   1      12.953   6.767 -16.985  0.00  0.00     0.022 A 
ATOM     28  C   UNL d   1      14.081   3.903 -19.089  0.00  0.00     0.002 A 
ATOM     29  C   UNL d   1      14.543   6.308 -19.188  0.00  0.00     0.099 A 
ATOM     30  C   UNL d   1      13.439   2.818 -18.466  0.00  0.00     0.002 A 
ATOM     31  C   UNL d   1      12.617   3.036 -17.345  0.00  0.00     0.019 A 
ATOM     32  N   UNL d   1      14.417   7.576 -18.745  0.00  0.00    -0.242 NA
ATOM     33  C   UNL d   1      13.637   7.793 -17.667  0.00  0.00     0.099 A 
ENDBRANCH  22  24
ENDBRANCH  18  19
ENDBRANCH   1  18
TORSDOF 8
