REMARK  5 active torsions:
REMARK  status: ('A' for Active; 'I' for Inactive)
REMARK       I    between atoms: N_10  and  C_11 
REMARK    1  A    between atoms: C_11  and  C_13 
REMARK    2  A    between atoms: C_13  and  N_14 
REMARK    3  A    between atoms: N_17  and  C_18 
REMARK    4  A    between atoms: C_18  and  C_19 
REMARK    5  A    between atoms: C_18  and  C_25 
ROOT
ATOM      1  N   UNL d   1      11.754   4.011 -15.965  0.00  0.00     0.151 N 
ATOM      2  C   UNL d   1      10.344   4.444 -16.158  0.00  0.00     0.286 C 
ATOM      3  C   UNL d   1       9.540   4.178 -14.969  0.00  0.00     0.286 C 
ATOM      4  N   UNL d   1      10.098   4.882 -13.823  0.00  0.00     0.147 N 
ATOM      5  C   UNL d   1      11.501   4.472 -13.647  0.00  0.00     0.286 C 
ATOM      6  C   UNL d   1      12.355   4.718 -14.893  0.00  0.00     0.286 C 
ENDROOT
BRANCH   4   7
ATOM      7  C   UNL d   1       9.307   4.622 -12.618  0.00  0.00     0.264 C 
BRANCH   7   8
ATOM      8  C   UNL d   1       7.809   4.537 -12.873  0.00  0.00     0.013 A 
ATOM      9  C   UNL d   1       7.246   3.352 -13.404  0.00  0.00    -0.002 A 
ATOM     10  C   UNL d   1       5.871   3.258 -13.636  0.00  0.00    -0.000 A 
ATOM     11  C   UNL d   1       5.040   4.336 -13.362  0.00  0.00    -0.000 A 
ATOM     12  C   UNL d   1       5.601   5.539 -12.832  0.00  0.00    -0.000 A 
ATOM     13  C   UNL d   1       6.952   5.617 -12.605  0.00  0.00    -0.002 A 
ENDBRANCH   7   8
BRANCH   7  14
ATOM     14  C   UNL d   1       9.577   5.638 -11.516  0.00  0.00     0.013 A 
ATOM     15  C   UNL d   1       9.501   7.032 -11.764  0.00  0.00    -0.001 A 
ATOM     16  C   UNL d   1       9.715   7.952 -10.727  0.00  0.00     0.011 A 
ATOM     17  C   UNL d   1       9.999   7.492  -9.429  0.00  0.00     0.058 A 
ATOM     18  C   UNL d   1      10.067   6.110  -9.172  0.00  0.00     0.011 A 
ATOM     19 CL   UNL d   1      10.265   8.620  -8.152  0.00  0.00    -0.082 Cl
ATOM     20  C   UNL d   1       9.839   5.194 -10.209  0.00  0.00    -0.001 A 
ENDBRANCH   7  14
ENDBRANCH   4   7
BRANCH   1  21
ATOM     21  C   UNL d   1      11.973   2.565 -15.974  0.00  0.00     0.338 C 
BRANCH  21  22
ATOM     22  C   UNL d   1      11.420   1.755 -17.175  0.00  0.00     0.275 C 
ATOM     23  N   UNL d   1      11.200   2.342 -18.362  0.00  0.00    -0.284 N 
ATOM     24  C   UNL d   1      11.505   3.727 -18.758  0.00  0.00     0.026 A 
ATOM     25  C   UNL d   1      10.107   1.939 -19.157  0.00  0.00     0.062 A 
ATOM     26  C   UNL d   1      12.942   4.024 -19.026  0.00  0.00     0.046 C 
ATOM     27  C   UNL d   1      10.452   4.235 -19.722  0.00  0.00     0.068 A 
ATOM     28  C   UNL d   1       9.636   2.999 -19.920  0.00  0.00    -0.000 A 
ATOM     29  C   UNL d   1       8.521   2.851 -20.748  0.00  0.00    -0.003 A 
ATOM     30  C   UNL d   1       7.889   1.591 -20.786  0.00  0.00    -0.000 A 
ATOM     31  C   UNL d   1       8.371   0.518 -20.000  0.00  0.00     0.002 A 
ATOM     32  C   UNL d   1       9.489   0.686 -19.180  0.00  0.00     0.017 A 
ATOM     33  O   UNL d   1      11.242   0.557 -16.957  0.00  0.00    -0.269 OA
ENDBRANCH  21  22
ENDBRANCH   1  21
TORSDOF 5
