REMARK  9 active torsions:
REMARK  status: ('A' for Active; 'I' for Inactive)
REMARK       I    between atoms: C_2  and  N_3 
REMARK    1  A    between atoms: C_2  and  C_22 
REMARK    2  A    between atoms: N_3  and  C_4 
REMARK    3  A    between atoms: C_4  and  C_5 
REMARK    4  A    between atoms: C_5  and  C_6 
REMARK    5  A    between atoms: C_6  and  C_7 
REMARK    6  A    between atoms: C_7  and  N_8 
REMARK    7  A    between atoms: N_11  and  C_12 
REMARK    8  A    between atoms: C_26  and  C_27 
REMARK    9  A    between atoms: C_28  and  C_29 
ROOT
ATOM      1  C   UNL d   1       8.349   1.458 -15.965  0.00  0.00     0.129 C 
ENDROOT
BRANCH   1   2
ATOM      2  N   UNL d   1       9.625   1.425 -16.673  0.00  0.00    -0.234 NA
ATOM      3  C   UNL d   1      10.304   0.323 -17.011  0.00  0.00     0.275 C 
ATOM      4  O   UNL d   1       9.970  -0.813 -16.665  0.00  0.00    -0.266 OA
BRANCH   3   5
ATOM      5  C   UNL d   1      11.464   0.529 -17.936  0.00  0.00     0.058 A 
ATOM      6  C   UNL d   1      12.201   1.737 -17.915  0.00  0.00     0.013 A 
ATOM      7  C   UNL d   1      13.299   1.912 -18.780  0.00  0.00     0.042 A 
ATOM      8  C   UNL d   1      13.689   0.873 -19.647  0.00  0.00     0.008 A 
ATOM      9  C   UNL d   1      12.965  -0.334 -19.669  0.00  0.00     0.001 A 
ATOM     10  C   UNL d   1      11.861  -0.505 -18.812  0.00  0.00     0.005 A 
BRANCH   7  11
ATOM     11  C   UNL d   1      14.053   3.152 -18.741  0.00  0.00    -0.059 C 
ATOM     12  C   UNL d   1      14.688   4.192 -18.689  0.00  0.00    -0.059 C 
BRANCH  12  13
ATOM     13  C   UNL d   1      15.467   5.415 -18.652  0.00  0.00     0.042 A 
ATOM     14  C   UNL d   1      15.271   6.408 -19.633  0.00  0.00     0.008 A 
ATOM     15  C   UNL d   1      16.050   7.582 -19.612  0.00  0.00     0.001 A 
ATOM     16  C   UNL d   1      17.029   7.758 -18.616  0.00  0.00     0.000 A 
ATOM     17  C   UNL d   1      17.230   6.763 -17.639  0.00  0.00     0.001 A 
ATOM     18  C   UNL d   1      16.442   5.596 -17.649  0.00  0.00     0.008 A 
ENDBRANCH  12  13
ENDBRANCH   7  11
ENDBRANCH   3   5
ENDBRANCH   1   2
BRANCH   1  19
ATOM     19  C   UNL d   1       7.204   1.800 -16.934  0.00  0.00     0.029 C 
BRANCH  19  20
ATOM     20  C   UNL d   1       6.944   0.730 -18.005  0.00  0.00     0.037 C 
BRANCH  20  21
ATOM     21  C   UNL d   1       6.184  -0.488 -17.441  0.00  0.00     0.251 C 
BRANCH  21  22
ATOM     22  N   UNL d   1       6.033  -1.544 -18.435  0.00  0.00     0.141 N 
ATOM     23  C   UNL d   1       5.108  -1.121 -19.494  0.00  0.00     0.274 C 
ATOM     24  C   UNL d   1       4.978  -2.220 -20.550  0.00  0.00     0.137 C 
ATOM     25  N   UNL d   1       4.554  -3.466 -19.941  0.00  0.00    -0.344 N 
ATOM     26  C   UNL d   1       5.334  -3.896 -18.789  0.00  0.00     0.137 C 
ATOM     27  C   UNL d   1       5.487  -2.743 -17.776  0.00  0.00     0.274 C 
BRANCH  25  28
ATOM     28  C   UNL d   1       3.451  -4.188 -20.427  0.00  0.00     0.068 A 
ATOM     29  C   UNL d   1       3.293  -4.484 -21.811  0.00  0.00     0.084 A 
ATOM     30  C   UNL d   1       2.156  -5.191 -22.252  0.00  0.00     0.070 A 
ATOM     31 CL   UNL d   1       4.493  -4.042 -22.987  0.00  0.00    -0.080 Cl
ATOM     32  C   UNL d   1       1.182  -5.613 -21.337  0.00  0.00     0.012 A 
ATOM     33 CL   UNL d   1       1.951  -5.570 -23.925  0.00  0.00    -0.081 Cl
ATOM     34  C   UNL d   1       1.337  -5.335 -19.971  0.00  0.00     0.002 A 
ATOM     35  C   UNL d   1       2.462  -4.624 -19.516  0.00  0.00     0.018 A 
ENDBRANCH  25  28
ENDBRANCH  21  22
ENDBRANCH  20  21
ENDBRANCH  19  20
ENDBRANCH   1  19
TORSDOF 9
