REMARK  4 active torsions:
REMARK  status: ('A' for Active; 'I' for Inactive)
REMARK    1  A    between atoms: C_8  and  C_9 
REMARK    2  A    between atoms: C_9  and  C_10 
REMARK    3  A    between atoms: C_10  and  N_11 
REMARK    4  A    between atoms: N_14  and  C_15 
ROOT
ATOM      1  N   UNL d   1       8.227   5.316 -11.947  0.00  0.00     0.141 N 
ATOM      2  C   UNL d   1       6.874   4.739 -11.916  0.00  0.00     0.274 C 
ATOM      3  C   UNL d   1       6.454   4.268 -13.317  0.00  0.00     0.137 C 
ATOM      4  N   UNL d   1       7.461   3.388 -13.888  0.00  0.00    -0.343 N 
ATOM      5  C   UNL d   1       8.826   3.893 -13.848  0.00  0.00     0.137 C 
ATOM      6  C   UNL d   1       9.185   4.320 -12.426  0.00  0.00     0.274 C 
ENDROOT
BRANCH   1   7
ATOM      7  C   UNL d   1       8.553   5.685 -10.579  0.00  0.00     0.255 C 
BRANCH   7   8
ATOM      8  C   UNL d   1       9.949   6.354 -10.478  0.00  0.00     0.068 C 
BRANCH   8   9
ATOM      9  C   UNL d   1      10.176   7.223  -9.253  0.00  0.00     0.050 A 
ATOM     10  C   UNL d   1      10.740   8.463  -9.318  0.00  0.00     0.061 A 
ATOM     11  C   UNL d   1      11.100   9.114 -10.601  0.00  0.00     0.052 C 
ATOM     12  N   UNL d   1      11.055   9.201  -8.189  0.00  0.00    -0.234 NA
ATOM     13  C   UNL d   1      10.833   8.706  -7.036  0.00  0.00     0.153 A 
ATOM     14  C   UNL d   1      11.076   9.483  -5.741  0.00  0.00     0.208 C 
ATOM     15  N   UNL d   1      10.300   7.394  -6.872  0.00  0.00    -0.283 N 
ATOM     16  C   UNL d   1      11.740   8.624  -4.650  0.00  0.00     0.043 C 
ATOM     17  O   UNL d   1      11.891  10.608  -6.018  0.00  0.00    -0.215 OA
ATOM     18  C   UNL d   1      11.134   7.206  -4.526  0.00  0.00     0.028 C 
ATOM     19  C   UNL d   1       9.952   7.011  -5.509  0.00  0.00     0.111 C 
ATOM     20  C   UNL d   1       9.933   6.640  -7.940  0.00  0.00     0.259 A 
ATOM     21  O   UNL d   1       9.424   5.520  -7.811  0.00  0.00    -0.267 OA
ENDBRANCH   8   9
ENDBRANCH   7   8
ENDBRANCH   1   7
BRANCH   4  22
ATOM     22  C   UNL d   1       7.148   2.139 -14.458  0.00  0.00     0.075 A 
ATOM     23  C   UNL d   1       7.793   1.662 -15.626  0.00  0.00     0.103 A 
ATOM     24  C   UNL d   1       7.405   0.374 -16.122  0.00  0.00     0.050 A 
ATOM     25  N   UNL d   1       8.777   2.305 -16.394  0.00  0.00    -0.235 NA
ATOM     26  C   UNL d   1       6.410  -0.385 -15.490  0.00  0.00     0.008 A 
ATOM     27  S   UNL d   1       8.341  -0.032 -17.564  0.00  0.00    -0.064 SA
ATOM     28  C   UNL d   1       5.779   0.110 -14.346  0.00  0.00     0.002 A 
ATOM     29  C   UNL d   1       6.147   1.362 -13.826  0.00  0.00     0.018 A 
ATOM     30  C   UNL d   1       9.160   1.516 -17.401  0.00  0.00     0.135 A 
ENDBRANCH   4  22
TORSDOF 4
