REMARK  4 active torsions:
REMARK  status: ('A' for Active; 'I' for Inactive)
REMARK    1  A    between atoms: N_4  and  C_5 
REMARK    2  A    between atoms: C_5  and  C_6 
REMARK    3  A    between atoms: N_16  and  C_17 
REMARK    4  A    between atoms: C_17  and  C_18 
REMARK       I    between atoms: C_18  and  N_20 
ROOT
ATOM      1  C   UNL d   1      10.864   4.206 -14.367  0.00  0.00     0.037 C 
ATOM      2  C   UNL d   1       9.497   3.573 -14.718  0.00  0.00     0.253 C 
ATOM      3  C   UNL d   1       9.748   2.147 -15.239  0.00  0.00     0.284 C 
ATOM      4  N   UNL d   1       8.525   1.438 -15.658  0.00  0.00     0.143 N 
ATOM      5  C   UNL d   1       7.606   1.408 -14.508  0.00  0.00     0.253 C 
ATOM      6  C   UNL d   1       6.249   0.750 -14.824  0.00  0.00     0.037 C 
ATOM      7  C   UNL d   1       7.327   2.841 -13.996  0.00  0.00     0.284 C 
ATOM      8  N   UNL d   1       8.533   3.568 -13.616  0.00  0.00     0.149 N 
ENDROOT
BRANCH   8   9
ATOM      9  C   UNL d   1       8.226   4.894 -13.075  0.00  0.00     0.337 C 
BRANCH   9  10
ATOM     10  C   UNL d   1       8.946   5.102 -11.730  0.00  0.00     0.272 C 
ATOM     11  O   UNL d   1       9.464   4.129 -11.198  0.00  0.00    -0.270 OA
ATOM     12  N   UNL d   1       9.010   6.335 -11.194  0.00  0.00    -0.298 N 
ATOM     13  C   UNL d   1       9.561   6.645  -9.925  0.00  0.00     0.058 A 
ATOM     14  C   UNL d   1       8.823   7.566 -11.977  0.00  0.00     0.114 A 
ATOM     15  C   UNL d   1       9.876   8.000  -9.859  0.00  0.00    -0.004 A 
ATOM     16  C   UNL d   1       9.807   5.806  -8.819  0.00  0.00     0.017 A 
ATOM     17  C   UNL d   1       9.400   8.702 -11.100  0.00  0.00     0.052 A 
ATOM     18  C   UNL d   1      10.540   8.551  -8.751  0.00  0.00    -0.003 A 
ATOM     19  C   UNL d   1      10.872   7.709  -7.671  0.00  0.00    -0.000 A 
ATOM     20  C   UNL d   1      10.484   6.351  -7.698  0.00  0.00     0.002 A 
ENDBRANCH   9  10
ENDBRANCH   8   9
BRANCH   4  21
ATOM     21  C   UNL d   1       8.819   0.086 -16.154  0.00  0.00     0.277 C 
BRANCH  21  22
ATOM     22  C   UNL d   1       9.677   0.031 -17.403  0.00  0.00     0.011 A 
ATOM     23  C   UNL d   1      11.076   0.181 -17.307  0.00  0.00    -0.002 A 
ATOM     24  C   UNL d   1      11.874   0.163 -18.462  0.00  0.00     0.011 A 
ATOM     25  C   UNL d   1      11.282  -0.047 -19.723  0.00  0.00     0.058 A 
ATOM     26  C   UNL d   1       9.887  -0.226 -19.824  0.00  0.00     0.011 A 
ATOM     27 CL   UNL d   1      12.268  -0.085 -21.137  0.00  0.00    -0.082 Cl
ATOM     28  C   UNL d   1       9.086  -0.184 -18.666  0.00  0.00    -0.002 A 
ENDBRANCH  21  22
ENDBRANCH   4  21
TORSDOF 4
