REMARK  0 active torsions:
REMARK  status: ('A' for Active; 'I' for Inactive)
ROOT
ATOM      1  C   UNL d   1       4.954   3.163 -12.522  0.00  0.00     0.121 C 
ATOM      2  N   UNL d   1       5.707   3.585 -13.699  0.00  0.00    -0.368 N 
ATOM      3  C   UNL d   1       6.067   2.497 -14.629  0.00  0.00     0.102 C 
ATOM      4  C   UNL d   1       7.114   1.519 -14.202  0.00  0.00     0.050 C 
ATOM      5  C   UNL d   1       8.490   2.122 -14.321  0.00  0.00    -0.023 A 
ATOM      6  C   UNL d   1       9.375   1.471 -15.203  0.00  0.00     0.009 A 
ATOM      7  C   UNL d   1      10.640   2.004 -15.472  0.00  0.00     0.083 A 
ATOM      8 CL   UNL d   1      11.602   1.244 -16.695  0.00  0.00    -0.080 Cl
ATOM      9  C   UNL d   1      11.058   3.179 -14.808  0.00  0.00     0.141 A 
ATOM     10  O   UNL d   1      12.290   3.704 -15.049  0.00  0.00    -0.189 OA
ATOM     11  C   UNL d   1      10.182   3.838 -13.915  0.00  0.00     0.024 A 
ATOM     12  C   UNL d   1       8.890   3.317 -13.655  0.00  0.00    -0.018 A 
ATOM     13  C   UNL d   1       7.936   4.070 -12.683  0.00  0.00     0.064 C 
ATOM     14  C   UNL d   1       8.604   5.110 -11.775  0.00  0.00    -0.021 C 
ATOM     15  C   UNL d   1       9.446   4.683 -10.754  0.00  0.00    -0.003 C 
ATOM     16  C   UNL d   1       9.959   5.600  -9.846  0.00  0.00     0.014 C 
ATOM     17  C   UNL d   1       9.871   6.978 -10.078  0.00  0.00     0.070 C 
ATOM     18  N   UNL d   1      10.643   7.837  -9.319  0.00  0.00    -0.101 NA
ATOM     19  C   UNL d   1       9.050   7.419 -11.124  0.00  0.00     0.009 C 
ATOM     20  C   UNL d   1       8.334   6.504 -11.883  0.00  0.00    -0.025 C 
ATOM     21  C   UNL d   1       7.237   6.992 -12.773  0.00  0.00     0.028 C 
ATOM     22  C   UNL d   1       6.128   5.901 -12.816  0.00  0.00     0.027 C 
ATOM     23  C   UNL d   1       6.721   4.604 -13.447  0.00  0.00     0.085 C 
ENDROOT
TORSDOF 0
