REMARK  5 active torsions:
REMARK  status: ('A' for Active; 'I' for Inactive)
REMARK    1  A    between atoms: N_2  and  C_4 
REMARK    2  A    between atoms: C_4  and  C_5 
REMARK    3  A    between atoms: C_5  and  C_6 
REMARK    4  A    between atoms: C_6  and  C_7 
REMARK    5  A    between atoms: C_7  and  C_8 
ROOT
ATOM      1  C   UNL d   1       9.756   2.679 -15.725  0.00  0.00     0.130 C 
ATOM      2  O   UNL d   1      10.825   1.912 -15.120  0.00  0.00    -0.346 OA
ATOM      3  C   UNL d   1      10.956   0.618 -15.765  0.00  0.00     0.169 C 
ATOM      4  C   UNL d   1       9.777   0.471 -16.670  0.00  0.00     0.006 A 
ATOM      5  C   UNL d   1       9.361  -0.640 -17.420  0.00  0.00     0.008 A 
ATOM      6  C   UNL d   1       8.173  -0.506 -18.169  0.00  0.00     0.068 A 
ATOM      7  C   UNL d   1       7.680  -1.624 -18.960  0.00  0.00     0.101 C 
ATOM      8  N   UNL d   1       7.292  -2.500 -19.589  0.00  0.00    -0.191 NA
ATOM      9  C   UNL d   1       7.464   0.724 -18.162  0.00  0.00     0.010 A 
ATOM     10  C   UNL d   1       7.932   1.830 -17.424  0.00  0.00    -0.001 A 
ATOM     11  C   UNL d   1       9.094   1.676 -16.660  0.00  0.00     0.004 A 
ENDROOT
BRANCH   1  12
ATOM     12  C   UNL d   1      10.400   3.784 -16.629  0.00  0.00     0.038 C 
BRANCH  12  13
ATOM     13  C   UNL d   1      11.358   4.788 -15.956  0.00  0.00     0.038 C 
BRANCH  13  14
ATOM     14  C   UNL d   1      12.305   5.514 -16.888  0.00  0.00     0.251 C 
BRANCH  14  15
ATOM     15  N   UNL d   1      13.239   6.324 -16.092  0.00  0.00     0.141 N 
ATOM     16  C   UNL d   1      14.362   6.603 -16.958  0.00  0.00     0.285 C 
ATOM     17  C   UNL d   1      12.663   7.599 -15.647  0.00  0.00     0.285 C 
ENDBRANCH  14  15
ENDBRANCH  13  14
ENDBRANCH  12  13
ENDBRANCH   1  12
BRANCH   1  18
ATOM     18  C   UNL d   1       8.778   3.248 -14.656  0.00  0.00     0.006 C 
ATOM     19  C   UNL d   1       9.047   4.446 -13.945  0.00  0.00     0.001 C 
ATOM     20  C   UNL d   1       8.070   5.068 -13.174  0.00  0.00     0.029 C 
ATOM     21  C   UNL d   1       6.835   4.422 -12.899  0.00  0.00     0.140 C 
ATOM     22  C   UNL d   1       6.585   3.179 -13.519  0.00  0.00     0.029 C 
ATOM     23  F   UNL d   1       5.953   4.965 -12.013  0.00  0.00    -0.204 F 
ATOM     24  C   UNL d   1       7.524   2.581 -14.390  0.00  0.00     0.001 C 
ENDBRANCH   1  18
TORSDOF 5
