REMARK  7 active torsions:
REMARK  status: ('A' for Active; 'I' for Inactive)
REMARK    1  A    between atoms: C_5  and  N_6 
REMARK    2  A    between atoms: N_9  and  C_10 
REMARK    3  A    between atoms: C_10  and  C_11 
REMARK    4  A    between atoms: C_11  and  C_12 
REMARK    5  A    between atoms: C_15  and  N_16 
REMARK       I    between atoms: N_16  and  C_17 
REMARK    6  A    between atoms: C_17  and  C_19 
REMARK    7  A    between atoms: C_19  and  C_20 
ROOT
ATOM      1  C   UNL d   1       9.141   5.322 -11.826  0.00  0.00     0.250 C 
ENDROOT
BRANCH   1   2
ATOM      2  N   UNL d   1       8.848   4.864 -13.164  0.00  0.00     0.141 N 
ATOM      3  C   UNL d   1      10.019   5.026 -14.024  0.00  0.00     0.274 C 
ATOM      4  C   UNL d   1       9.649   4.596 -15.459  0.00  0.00     0.138 C 
ATOM      5  N   UNL d   1       9.278   3.178 -15.429  0.00  0.00    -0.330 N 
ATOM      6  C   UNL d   1       8.216   2.855 -14.467  0.00  0.00     0.138 C 
ATOM      7  C   UNL d   1       8.586   3.429 -13.096  0.00  0.00     0.274 C 
BRANCH   5   8
ATOM      8  C   UNL d   1       9.905   2.179 -16.201  0.00  0.00     0.142 A 
ATOM      9  N   UNL d   1       9.233   0.996 -16.298  0.00  0.00    -0.228 NA
ATOM     10  C   UNL d   1       9.686  -0.035 -17.011  0.00  0.00     0.098 A 
ATOM     11  C   UNL d   1      10.888   0.022 -17.733  0.00  0.00     0.020 A 
ATOM     12  C   UNL d   1      11.399  -1.137 -18.539  0.00  0.00     0.035 C 
ATOM     13  C   UNL d   1      11.595   1.231 -17.660  0.00  0.00     0.101 A 
ATOM     14  C   UNL d   1      11.161   2.334 -16.900  0.00  0.00     0.058 A 
ATOM     15  O   UNL d   1      12.782   1.518 -18.305  0.00  0.00    -0.305 OA
ATOM     16  C   UNL d   1      12.201   3.337 -17.072  0.00  0.00     0.032 A 
ATOM     17  C   UNL d   1      13.115   2.789 -17.937  0.00  0.00     0.123 A 
ENDBRANCH   5   8
ENDBRANCH   1   2
BRANCH   1  18
ATOM     18  C   UNL d   1       9.145   6.858 -11.732  0.00  0.00     0.035 C 
BRANCH  18  19
ATOM     19  C   UNL d   1       9.613   7.387 -10.365  0.00  0.00     0.002 C 
ATOM     20  C   UNL d   1      10.160   8.794 -10.562  0.00  0.00     0.002 C 
ATOM     21  C   UNL d   1      10.603   9.420  -9.251  0.00  0.00     0.024 C 
ATOM     22  C   UNL d   1      11.606   8.554  -8.481  0.00  0.00     0.106 C 
ATOM     23  C   UNL d   1      11.060   7.131  -8.294  0.00  0.00     0.024 C 
ATOM     24  C   UNL d   1      10.659   6.530  -9.641  0.00  0.00     0.002 C 
BRANCH  22  25
ATOM     25  N   UNL d   1      11.951   9.163  -7.201  0.00  0.00    -0.240 NA
ATOM     26  C   UNL d   1      11.121   9.370  -6.168  0.00  0.00     0.251 C 
ATOM     27  O   UNL d   1       9.923   9.102  -6.162  0.00  0.00    -0.271 OA
BRANCH  26  28
ATOM     28  C   UNL d   1      11.762   9.893  -4.903  0.00  0.00     0.090 C 
BRANCH  28  29
ATOM     29  C   UNL d   1      11.618   8.916  -3.731  0.00  0.00     0.014 C 
ATOM     30  C   UNL d   1      11.869   7.429  -4.048  0.00  0.00     0.033 C 
ATOM     31  C   UNL d   1      11.736   6.552  -2.810  0.00  0.00     0.142 C 
ATOM     32  O   UNL d   1      12.661   6.987  -1.842  0.00  0.00    -0.354 OA
ATOM     33  C   UNL d   1      12.411   8.329  -1.437  0.00  0.00     0.142 C 
ATOM     34  C   UNL d   1      12.477   9.342  -2.586  0.00  0.00     0.033 C 
ENDBRANCH  28  29
ENDBRANCH  26  28
ENDBRANCH  22  25
ENDBRANCH  18  19
ENDBRANCH   1  18
TORSDOF 7
