REMARK  4 active torsions:
REMARK  status: ('A' for Active; 'I' for Inactive)
REMARK    1  A    between atoms: C_2  and  C_3 
REMARK    2  A    between atoms: C_2  and  C_6 
REMARK    3  A    between atoms: C_10  and  O_11 
REMARK    4  A    between atoms: O_11  and  C_12 
ROOT
ATOM      1  C   UNL d   1      10.282   7.549  -8.968  0.00  0.00    -0.010 A 
ATOM      2  C   UNL d   1      11.596   7.696  -9.467  0.00  0.00    -0.004 A 
ATOM      3  C   UNL d   1      12.574   8.369  -8.723  0.00  0.00     0.002 A 
ATOM      4  C   UNL d   1      12.247   8.900  -7.464  0.00  0.00     0.025 A 
ATOM      5  C   UNL d   1      10.929   8.809  -6.976  0.00  0.00     0.100 A 
ATOM      6  C   UNL d   1       9.951   8.116  -7.720  0.00  0.00     0.021 A 
ENDROOT
BRANCH   5   7
ATOM      7  O   UNL d   1      10.633   9.306  -5.738  0.00  0.00    -0.307 OA
BRANCH   7   8
ATOM      8  C   UNL d   1      11.263   8.718  -4.661  0.00  0.00     0.100 A 
ATOM      9  C   UNL d   1      11.464   7.323  -4.589  0.00  0.00     0.025 A 
ATOM     10  C   UNL d   1      12.085   6.763  -3.456  0.00  0.00     0.002 A 
ATOM     11  C   UNL d   1      12.475   7.578  -2.389  0.00  0.00     0.000 A 
ATOM     12  C   UNL d   1      12.257   8.962  -2.445  0.00  0.00     0.002 A 
ATOM     13  C   UNL d   1      11.646   9.534  -3.579  0.00  0.00     0.025 A 
ENDBRANCH   7   8
ENDBRANCH   5   7
BRANCH   1  14
ATOM     14  C   UNL d   1       9.235   6.788  -9.775  0.00  0.00     0.110 C 
ATOM     15  C   UNL d   1       9.106   7.343 -11.215  0.00  0.00     0.016 C 
BRANCH  14  16
ATOM     16  C   UNL d   1       9.457   5.281  -9.749  0.00  0.00     0.189 C 
ATOM     17  O   UNL d   1       9.456   4.575 -10.751  0.00  0.00    -0.647 OA
ATOM     18  O   UNL d   1       9.555   4.836  -8.467  0.00  0.00    -0.647 OA
ENDBRANCH  14  16
ENDBRANCH   1  14
TORSDOF 4
