REMARK  11 active torsions:
REMARK  status: ('A' for Active; 'I' for Inactive)
REMARK    1  A    between atoms: C_2  and  C_3 
REMARK    2  A    between atoms: C_7  and  O_8 
REMARK    3  A    between atoms: C_10  and  C_11 
REMARK       I    between atoms: C_11  and  N_13 
REMARK    4  A    between atoms: N_13  and  C_14 
REMARK    5  A    between atoms: C_14  and  C_15 
REMARK    6  A    between atoms: N_19  and  C_20 
REMARK    7  A    between atoms: C_20  and  C_21 
REMARK    8  A    between atoms: C_21  and  C_22 
REMARK    9  A    between atoms: C_22  and  C_23 
REMARK   10  A    between atoms: C_23  and  N_24 
REMARK       I    between atoms: N_24  and  C_25 
REMARK   11  A    between atoms: C_25  and  C_27 
ROOT
ATOM      1  C   UNL d   1       7.223   0.219 -16.633  0.00  0.00     0.058 C 
ATOM      2  C   UNL d   1       6.210  -0.929 -16.833  0.00  0.00     0.006 C 
ATOM      3  C   UNL d   1       4.819  -0.534 -16.448  0.00  0.00     0.035 C 
ATOM      4  C   UNL d   1       4.853   0.019 -15.005  0.00  0.00     0.250 C 
ATOM      5  N   UNL d   1       5.776   1.175 -14.827  0.00  0.00     0.137 N 
ATOM      6  C   UNL d   1       7.133   0.765 -15.191  0.00  0.00     0.252 C 
ENDROOT
BRANCH   1   7
ATOM      7  C   UNL d   1       8.647  -0.286 -16.929  0.00  0.00     0.131 C 
BRANCH   7   8
ATOM      8  N   UNL d   1       9.537   0.823 -17.264  0.00  0.00    -0.234 NA
ATOM      9  C   UNL d   1       9.604   1.448 -18.432  0.00  0.00     0.279 C 
ATOM     10  O   UNL d   1       8.911   1.162 -19.408  0.00  0.00    -0.265 OA
BRANCH   9  11
ATOM     11  C   UNL d   1      10.716   2.477 -18.518  0.00  0.00     0.106 A 
ATOM     12  C   UNL d   1      11.125   3.261 -17.379  0.00  0.00     0.111 A 
ATOM     13  C   UNL d   1      12.152   4.231 -17.534  0.00  0.00     0.080 A 
ATOM     14  C   UNL d   1      12.795   4.392 -18.769  0.00  0.00     0.011 A 
ATOM     15 CL   UNL d   1      12.628   5.256 -16.226  0.00  0.00    -0.080 Cl
ATOM     16  C   UNL d   1      12.434   3.615 -19.875  0.00  0.00     0.004 A 
ATOM     17  C   UNL d   1      11.399   2.662 -19.754  0.00  0.00     0.134 A 
ATOM     18  O   UNL d   1      11.080   1.893 -20.845  0.00  0.00    -0.190 OA
BRANCH  12  19
ATOM     19  O   UNL d   1      10.520   3.121 -16.157  0.00  0.00    -0.327 OA
ATOM     20  C   UNL d   1      11.262   2.368 -15.191  0.00  0.00     0.181 C 
ENDBRANCH  12  19
BRANCH  16  21
ATOM     21  C   UNL d   1      13.157   3.823 -21.200  0.00  0.00     0.029 C 
ATOM     22  C   UNL d   1      12.414   4.782 -22.139  0.00  0.00     0.005 C 
ENDBRANCH  16  21
ENDBRANCH   9  11
ENDBRANCH   7   8
ENDBRANCH   1   7
BRANCH   5  23
ATOM     23  C   UNL d   1       5.642   1.785 -13.533  0.00  0.00     0.250 C 
BRANCH  23  24
ATOM     24  C   UNL d   1       6.010   3.260 -13.705  0.00  0.00     0.037 C 
BRANCH  24  25
ATOM     25  C   UNL d   1       7.291   3.584 -12.942  0.00  0.00     0.029 C 
BRANCH  25  26
ATOM     26  C   UNL d   1       7.975   4.919 -13.338  0.00  0.00     0.129 C 
BRANCH  26  27
ATOM     27  N   UNL d   1       8.886   5.423 -12.304  0.00  0.00    -0.233 NA
ATOM     28  C   UNL d   1       8.391   5.888 -11.172  0.00  0.00     0.298 C 
ATOM     29  O   UNL d   1       7.180   5.826 -10.935  0.00  0.00    -0.263 OA
BRANCH  28  30
ATOM     30  C   UNL d   1       9.277   6.545 -10.236  0.00  0.00     0.157 A 
ATOM     31  O   UNL d   1       9.129   6.314  -8.883  0.00  0.00    -0.302 OA
ATOM     32  C   UNL d   1      10.056   7.114  -8.236  0.00  0.00     0.100 A 
ATOM     33  C   UNL d   1      10.807   7.816  -9.197  0.00  0.00     0.025 A 
ATOM     34  C   UNL d   1      10.290   7.242  -6.859  0.00  0.00     0.025 A 
ATOM     35  C   UNL d   1      10.261   7.483 -10.464  0.00  0.00     0.032 A 
ATOM     36  C   UNL d   1      11.851   8.649  -8.756  0.00  0.00     0.002 A 
ATOM     37  C   UNL d   1      12.140   8.765  -7.385  0.00  0.00     0.000 A 
ATOM     38  C   UNL d   1      11.360   8.062  -6.436  0.00  0.00     0.002 A 
ENDBRANCH  28  30
ENDBRANCH  26  27
ENDBRANCH  25  26
ENDBRANCH  24  25
ENDBRANCH  23  24
ENDBRANCH   5  23
TORSDOF 11
