REMARK  4 active torsions:
REMARK  status: ('A' for Active; 'I' for Inactive)
REMARK    1  A    between atoms: C_4  and  C_5 
REMARK    2  A    between atoms: C_9  and  C_10 
REMARK    3  A    between atoms: C_10  and  N_11 
REMARK    4  A    between atoms: N_14  and  C_15 
ROOT
ATOM      1  C   UNL d   1       8.928   5.982  -9.663  0.00  0.00     0.275 C 
ENDROOT
BRANCH   1   2
ATOM      2  C   UNL d   1      10.129   6.929  -9.424  0.00  0.00     0.140 C 
ATOM      3  C   UNL d   1       9.993   8.311 -10.083  0.00  0.00     0.053 C 
ATOM      4  C   UNL d   1      11.222   9.145  -9.664  0.00  0.00     0.129 C 
ATOM      5  N   UNL d   1      11.457   9.151  -8.217  0.00  0.00    -0.253 NA
ATOM      6  C   UNL d   1      11.052   8.169  -7.485  0.00  0.00     0.153 C 
ATOM      7  N   UNL d   1      10.296   7.120  -8.004  0.00  0.00    -0.253 NA
BRANCH   6   8
ATOM      8  C   UNL d   1      11.312   8.157  -6.013  0.00  0.00     0.035 A 
ATOM      9  C   UNL d   1      11.484   9.362  -5.295  0.00  0.00     0.003 A 
ATOM     10  C   UNL d   1      11.757   9.310  -3.908  0.00  0.00     0.000 A 
ATOM     11  C   UNL d   1      11.880   8.070  -3.255  0.00  0.00     0.000 A 
ATOM     12  C   UNL d   1      11.717   6.875  -3.971  0.00  0.00     0.000 A 
ATOM     13  C   UNL d   1      11.430   6.919  -5.353  0.00  0.00     0.003 A 
ENDBRANCH   6   8
ENDBRANCH   1   2
BRANCH   1  14
ATOM     14  N   UNL d   1       8.652   5.841 -11.086  0.00  0.00     0.143 N 
ATOM     15  C   UNL d   1       9.722   5.094 -11.729  0.00  0.00     0.274 C 
ATOM     16  C   UNL d   1       9.482   4.960 -13.220  0.00  0.00     0.137 C 
ATOM     17  N   UNL d   1       8.176   4.362 -13.476  0.00  0.00    -0.344 N 
ATOM     18  C   UNL d   1       7.073   5.036 -12.784  0.00  0.00     0.137 C 
ATOM     19  C   UNL d   1       7.378   5.155 -11.286  0.00  0.00     0.274 C 
BRANCH  17  20
ATOM     20  C   UNL d   1       8.034   3.227 -14.285  0.00  0.00     0.056 A 
ATOM     21  C   UNL d   1       8.993   2.920 -15.291  0.00  0.00     0.017 A 
ATOM     22  C   UNL d   1       8.833   1.804 -16.122  0.00  0.00     0.002 A 
ATOM     23  C   UNL d   1       7.711   0.966 -15.980  0.00  0.00     0.000 A 
ATOM     24  C   UNL d   1       6.753   1.258 -14.990  0.00  0.00     0.002 A 
ATOM     25  C   UNL d   1       6.912   2.369 -14.152  0.00  0.00     0.017 A 
ENDBRANCH  17  20
ENDBRANCH   1  14
TORSDOF 4
