REMARK  3 active torsions:
REMARK  status: ('A' for Active; 'I' for Inactive)
REMARK    1  A    between atoms: C_2  and  C_3 
REMARK    2  A    between atoms: C_3  and  N_4 
REMARK    3  A    between atoms: N_4  and  C_5 
ROOT
ATOM      1  C   UNL d   1      11.302   9.164  -5.468  0.00  0.00     0.265 C 
ATOM      2  C   UNL d   1      11.414   9.823  -6.864  0.00  0.00     0.062 C 
ATOM      3  C   UNL d   1      10.783   8.816  -7.809  0.00  0.00    -0.022 A 
ATOM      4  C   UNL d   1      10.479   8.921  -9.208  0.00  0.00     0.015 A 
ATOM      5  C   UNL d   1       9.893   7.822  -9.886  0.00  0.00     0.089 A 
ATOM      6  N   UNL d   1       9.492   7.689 -11.249  0.00  0.00    -0.225 NA
ATOM      7  C   UNL d   1       8.997   6.462 -11.464  0.00  0.00     0.181 A 
ATOM      8  N   UNL d   1       8.542   5.980 -12.677  0.00  0.00    -0.072 NA
ATOM      9  S   UNL d   1       8.957   5.342 -10.120  0.00  0.00    -0.052 SA
ATOM     10  C   UNL d   1       9.657   6.621  -9.153  0.00  0.00     0.049 A 
ATOM     11  C   UNL d   1       9.967   6.529  -7.779  0.00  0.00     0.004 A 
ATOM     12  C   UNL d   1      10.503   7.636  -7.174  0.00  0.00    -0.023 A 
ATOM     13  C   UNL d   1      10.909   7.695  -5.769  0.00  0.00     0.062 C 
ENDROOT
BRANCH   1  14
ATOM     14  N   UNL d   1      12.500   9.268  -4.626  0.00  0.00     0.338 N 
BRANCH  14  15
ATOM     15  C   UNL d   1      12.329   8.779  -3.250  0.00  0.00     0.290 C 
BRANCH  15  16
ATOM     16  C   UNL d   1      12.202   7.251  -3.195  0.00  0.00     0.038 C 
ATOM     17  C   UNL d   1      11.895   6.672  -1.874  0.00  0.00     0.002 C 
ENDBRANCH  15  16
ENDBRANCH  14  15
ENDBRANCH   1  14
TORSDOF 3
