REMARK  5 active torsions:
REMARK  status: ('A' for Active; 'I' for Inactive)
REMARK    1  A    between atoms: C_8  and  C_9 
REMARK       I    between atoms: C_9  and  N_11 
REMARK    2  A    between atoms: N_14  and  C_15 
REMARK    3  A    between atoms: C_15  and  C_16 
REMARK    4  A    between atoms: C_16  and  O_17 
REMARK    5  A    between atoms: O_17  and  C_18 
ROOT
ATOM      1  C   UNL d   1       8.190   4.280 -13.266  0.00  0.00     0.275 C 
ATOM      2  O   UNL d   1       7.011   4.383 -13.601  0.00  0.00    -0.266 OA
ATOM      3  N   UNL d   1       9.035   3.375 -13.807  0.00  0.00    -0.311 N 
ATOM      4  C   UNL d   1      10.501   3.500 -13.851  0.00  0.00     0.140 C 
ATOM      5  C   UNL d   1      11.028   3.358 -15.294  0.00  0.00     0.274 C 
ATOM      6  N   UNL d   1      10.622   2.080 -15.868  0.00  0.00     0.144 N 
ATOM      7  C   UNL d   1       9.153   2.048 -15.870  0.00  0.00     0.274 C 
ATOM      8  C   UNL d   1       8.559   2.169 -14.472  0.00  0.00     0.140 C 
ENDROOT
BRANCH   1   9
ATOM      9  C   UNL d   1       8.700   5.157 -12.194  0.00  0.00     0.137 A 
ATOM     10  N   UNL d   1       8.827   6.509 -12.455  0.00  0.00    -0.241 NA
ATOM     11  C   UNL d   1       9.291   7.169 -11.335  0.00  0.00     0.081 A 
ATOM     12  C   UNL d   1       9.574   8.515 -11.105  0.00  0.00     0.019 A 
ATOM     13  C   UNL d   1       9.436   6.186 -10.319  0.00  0.00     0.015 A 
ATOM     14  C   UNL d   1      10.019   8.922  -9.832  0.00  0.00     0.001 A 
ATOM     15  C   UNL d   1      10.166   7.984  -8.799  0.00  0.00    -0.004 A 
ATOM     16  C   UNL d   1       9.867   6.625  -9.041  0.00  0.00    -0.020 A 
ATOM     17  C   UNL d   1      10.004   5.630  -7.925  0.00  0.00     0.031 C 
ATOM     18  C   UNL d   1       9.062   4.923 -10.903  0.00  0.00     0.025 A 
ENDBRANCH   1   9
BRANCH   6  19
ATOM     19  C   UNL d   1      11.172   1.984 -17.229  0.00  0.00     0.283 C 
BRANCH  19  20
ATOM     20  C   UNL d   1      11.114   0.537 -17.799  0.00  0.00     0.184 C 
BRANCH  20  21
ATOM     21  O   UNL d   1      11.134   0.523 -19.235  0.00  0.00    -0.327 OA
BRANCH  21  22
ATOM     22  C   UNL d   1      10.007   0.992 -19.893  0.00  0.00     0.113 A 
ATOM     23  C   UNL d   1       8.855   1.446 -19.205  0.00  0.00     0.123 A 
ATOM     24  N   UNL d   1       7.777   1.957 -19.827  0.00  0.00    -0.240 NA
ATOM     25  C   UNL d   1       7.763   2.025 -21.177  0.00  0.00     0.099 A 
ATOM     26  C   UNL d   1       8.842   1.572 -21.967  0.00  0.00     0.023 A 
ATOM     27  C   UNL d   1       9.989   1.044 -21.316  0.00  0.00     0.027 A 
ENDBRANCH  21  22
ENDBRANCH  20  21
ENDBRANCH  19  20
ENDBRANCH   6  19
TORSDOF 5
