REMARK  6 active torsions:
REMARK  status: ('A' for Active; 'I' for Inactive)
REMARK       I    between atoms: C_2  and  N_3 
REMARK    1  A    between atoms: C_2  and  C_27 
REMARK    2  A    between atoms: N_3  and  C_4 
REMARK    3  A    between atoms: C_7  and  C_8 
REMARK    4  A    between atoms: C_8  and  C_9 
REMARK    5  A    between atoms: C_9  and  N_10 
REMARK    6  A    between atoms: N_13  and  C_14 
ROOT
ATOM      1  C   UNL d   1       8.499   5.439 -11.440  0.00  0.00     0.250 C 
ENDROOT
BRANCH   1   2
ATOM      2  C   UNL d   1       9.222   5.141 -10.112  0.00  0.00     0.035 C 
BRANCH   2   3
ATOM      3  C   UNL d   1       9.246   6.366  -9.185  0.00  0.00     0.002 C 
ATOM      4  C   UNL d   1       9.566   5.962  -7.747  0.00  0.00     0.002 C 
ATOM      5  C   UNL d   1       9.570   7.177  -6.812  0.00  0.00     0.024 C 
ATOM      6  C   UNL d   1      10.582   8.233  -7.332  0.00  0.00     0.106 C 
ATOM      7  C   UNL d   1      10.217   8.684  -8.738  0.00  0.00     0.024 C 
ATOM      8  C   UNL d   1      10.201   7.473  -9.684  0.00  0.00     0.002 C 
BRANCH   6   9
ATOM      9  N   UNL d   1      10.663   9.361  -6.421  0.00  0.00    -0.240 NA
ATOM     10  C   UNL d   1      11.153   9.361  -5.175  0.00  0.00     0.256 C 
ATOM     11  O   UNL d   1      10.995  10.352  -4.472  0.00  0.00    -0.270 OA
BRANCH  10  12
ATOM     12  C   UNL d   1      11.853   8.122  -4.707  0.00  0.00     0.147 A 
ATOM     13  C   UNL d   1      11.818   7.737  -3.245  0.00  0.00     0.273 A 
ATOM     14  C   UNL d   1      13.060   8.309  -3.819  0.00  0.00     0.082 A 
ATOM     15  F   UNL d   1      11.157   8.522  -2.333  0.00  0.00    -0.204 F 
ATOM     16  F   UNL d   1      11.758   6.381  -2.990  0.00  0.00    -0.204 F 
ENDBRANCH  10  12
ENDBRANCH   6   9
ENDBRANCH   2   3
ENDBRANCH   1   2
BRANCH   1  17
ATOM     17  N   UNL d   1       8.523   4.263 -12.303  0.00  0.00     0.141 N 
ATOM     18  C   UNL d   1       9.795   4.155 -13.034  0.00  0.00     0.274 C 
ATOM     19  C   UNL d   1       9.818   2.874 -13.893  0.00  0.00     0.137 C 
ATOM     20  N   UNL d   1       8.663   2.838 -14.770  0.00  0.00    -0.343 N 
ATOM     21  C   UNL d   1       7.372   3.054 -14.145  0.00  0.00     0.137 C 
ATOM     22  C   UNL d   1       7.425   4.337 -13.265  0.00  0.00     0.274 C 
BRANCH  20  23
ATOM     23  C   UNL d   1       8.810   2.667 -16.172  0.00  0.00     0.081 A 
ATOM     24  C   UNL d   1       7.863   1.961 -16.948  0.00  0.00     0.135 A 
ATOM     25  C   UNL d   1       8.024   1.807 -18.315  0.00  0.00     0.121 A 
ATOM     26  O   UNL d   1       6.716   1.341 -16.563  0.00  0.00    -0.298 OA
ATOM     27  C   UNL d   1       9.122   2.347 -18.997  0.00  0.00     0.026 A 
ATOM     28  O   UNL d   1       6.984   1.102 -18.821  0.00  0.00    -0.299 OA
ATOM     29  C   UNL d   1      10.075   3.066 -18.253  0.00  0.00     0.004 A 
ATOM     30  C   UNL d   1       9.917   3.229 -16.852  0.00  0.00     0.019 A 
ATOM     31  C   UNL d   1       6.157   0.785 -17.733  0.00  0.00     0.304 A 
ENDBRANCH  20  23
ENDBRANCH   1  17
TORSDOF 6
