REMARK  6 active torsions:
REMARK  status: ('A' for Active; 'I' for Inactive)
REMARK    1  A    between atoms: C_2  and  N_3 
REMARK       I    between atoms: N_3  and  C_5 
REMARK       I    between atoms: C_5  and  N_7 
REMARK    2  A    between atoms: N_7  and  C_8 
REMARK    3  A    between atoms: C_11  and  C_12 
REMARK    4  A    between atoms: C_12  and  C_13 
REMARK    5  A    between atoms: C_13  and  N_14 
REMARK    6  A    between atoms: N_17  and  C_18 
ROOT
ATOM      1  N   UNL d   1       8.641   4.543 -11.988  0.00  0.00     0.141 N 
ATOM      2  C   UNL d   1       8.507   5.616 -12.972  0.00  0.00     0.274 C 
ATOM      3  C   UNL d   1       8.269   5.043 -14.379  0.00  0.00     0.138 C 
ATOM      4  N   UNL d   1       9.321   4.090 -14.741  0.00  0.00    -0.329 N 
ATOM      5  C   UNL d   1       9.503   3.052 -13.738  0.00  0.00     0.138 C 
ATOM      6  C   UNL d   1       9.727   3.660 -12.357  0.00  0.00     0.274 C 
ENDROOT
BRANCH   1   7
ATOM      7  C   UNL d   1       8.811   5.050 -10.614  0.00  0.00     0.250 C 
BRANCH   7   8
ATOM      8  C   UNL d   1       9.770   6.256 -10.546  0.00  0.00     0.035 C 
BRANCH   8   9
ATOM      9  C   UNL d   1      10.234   6.638  -9.148  0.00  0.00     0.002 C 
ATOM     10  C   UNL d   1      11.399   7.646  -9.298  0.00  0.00     0.002 C 
ATOM     11  C   UNL d   1      11.902   8.066  -7.929  0.00  0.00     0.025 C 
ATOM     12  C   UNL d   1      10.746   8.624  -7.060  0.00  0.00     0.108 C 
ATOM     13  C   UNL d   1       9.533   7.665  -6.965  0.00  0.00     0.025 C 
ATOM     14  C   UNL d   1       9.067   7.252  -8.348  0.00  0.00     0.002 C 
BRANCH  12  15
ATOM     15  N   UNL d   1      11.230   8.959  -5.726  0.00  0.00    -0.221 NA
ATOM     16  C   UNL d   1      11.635   8.071  -4.805  0.00  0.00     0.342 C 
ATOM     17  N   UNL d   1      11.859   8.588  -3.588  0.00  0.00    -0.299 N 
ATOM     18  O   UNL d   1      11.787   6.880  -5.086  0.00  0.00    -0.245 OA
ATOM     19  C   UNL d   1      11.560   9.979  -3.245  0.00  0.00     0.130 C 
BRANCH  17  20
ATOM     20  C   UNL d   1      12.393   7.832  -2.437  0.00  0.00     0.106 C 
ATOM     21  C   UNL d   1      12.199   6.297  -2.396  0.00  0.00     0.026 C 
ENDBRANCH  17  20
ENDBRANCH  12  15
ENDBRANCH   8   9
ENDBRANCH   7   8
ENDBRANCH   1   7
BRANCH   4  22
ATOM     22  C   UNL d   1      10.095   4.191 -15.900  0.00  0.00     0.148 A 
ATOM     23  C   UNL d   1      10.616   3.018 -16.609  0.00  0.00     0.042 A 
ATOM     24  C   UNL d   1      11.387   3.441 -17.742  0.00  0.00     0.050 A 
ATOM     25  C   UNL d   1      10.497   1.617 -16.424  0.00  0.00     0.004 A 
ATOM     26  S   UNL d   1      11.342   5.192 -17.802  0.00  0.00     0.015 SA
ATOM     27  C   UNL d   1      12.020   2.531 -18.606  0.00  0.00     0.008 A 
ATOM     28  N   UNL d   1      10.372   5.361 -16.428  0.00  0.00    -0.192 NA
ATOM     29  C   UNL d   1      11.900   1.148 -18.366  0.00  0.00     0.001 A 
ATOM     30  C   UNL d   1      11.137   0.703 -17.274  0.00  0.00     0.000 A 
ENDBRANCH   4  22
TORSDOF 6
