REMARK  3 active torsions:
REMARK  status: ('A' for Active; 'I' for Inactive)
REMARK    1  A    between atoms: C_2  and  N_3 
REMARK    2  A    between atoms: N_3  and  C_4 
REMARK       I    between atoms: N_3  and  C_6 
REMARK       I    between atoms: C_6  and  N_8 
REMARK    3  A    between atoms: N_8  and  C_9 
ROOT
ATOM      1  C   UNL d   1       8.675   3.085 -14.610  0.00  0.00     0.142 C 
ATOM      2  C   UNL d   1       7.902   1.730 -14.556  0.00  0.00     0.033 C 
ATOM      3  C   UNL d   1       7.303   1.480 -15.937  0.00  0.00     0.055 C 
ATOM      4  C   UNL d   1       6.313   0.304 -15.935  0.00  0.00    -0.024 A 
ATOM      5  C   UNL d   1       5.185   0.093 -15.105  0.00  0.00    -0.004 A 
ATOM      6  C   UNL d   1       4.220  -0.892 -15.438  0.00  0.00    -0.000 A 
ATOM      7  C   UNL d   1       4.336  -1.646 -16.634  0.00  0.00    -0.000 A 
ATOM      8  C   UNL d   1       5.447  -1.456 -17.472  0.00  0.00    -0.004 A 
ATOM      9  C   UNL d   1       6.400  -0.534 -17.051  0.00  0.00    -0.022 A 
ATOM     10  C   UNL d   1       7.538  -0.535 -18.035  0.00  0.00     0.046 C 
ATOM     11  C   UNL d   1       6.954  -1.371 -19.157  0.00  0.00    -0.022 C 
ATOM     12  C   UNL d   1       5.804  -1.955 -18.792  0.00  0.00    -0.005 C 
ATOM     13  C   UNL d   1       8.002   0.887 -18.326  0.00  0.00     0.042 C 
ATOM     14  C   UNL d   1       8.470   1.456 -16.965  0.00  0.00     0.224 C 
ATOM     15  N   UNL d   1       9.103   2.789 -17.006  0.00  0.00     0.140 N 
ATOM     16  C   UNL d   1      10.162   2.880 -17.999  0.00  0.00     0.285 C 
ATOM     17  C   UNL d   1       9.723   3.086 -15.709  0.00  0.00     0.274 C 
ENDROOT
BRANCH   1  18
ATOM     18  N   UNL d   1       9.207   3.382 -13.316  0.00  0.00    -0.219 NA
ATOM     19  C   UNL d   1       8.829   4.381 -12.440  0.00  0.00     0.342 C 
ATOM     20  N   UNL d   1       7.641   4.985 -12.692  0.00  0.00    -0.301 N 
ATOM     21  O   UNL d   1       9.602   4.630 -11.542  0.00  0.00    -0.245 OA
BRANCH  20  22
ATOM     22  C   UNL d   1       6.406   4.309 -13.187  0.00  0.00     0.106 C 
ATOM     23  C   UNL d   1       5.601   3.651 -12.051  0.00  0.00     0.026 C 
ENDBRANCH  20  22
BRANCH  20  24
ATOM     24  C   UNL d   1       7.352   6.386 -12.309  0.00  0.00     0.106 C 
ATOM     25  C   UNL d   1       8.574   7.279 -11.992  0.00  0.00     0.026 C 
ENDBRANCH  20  24
ENDBRANCH   1  18
TORSDOF 3
