REMARK  4 active torsions:
REMARK  status: ('A' for Active; 'I' for Inactive)
REMARK    1  A    between atoms: O_2  and  C_3 
REMARK    2  A    between atoms: C_8  and  O_9 
REMARK    3  A    between atoms: N_12  and  C_13 
REMARK    4  A    between atoms: N_14  and  C_15 
ROOT
ATOM      1  C   UNL d   1      10.132   4.456 -12.868  0.00  0.00     0.175 C 
ATOM      2  N   UNL d   1       9.783   5.639 -12.489  0.00  0.00    -0.226 NA
ENDROOT
BRANCH   1   3
ATOM      3  N   UNL d   1      10.534   4.115 -14.152  0.00  0.00    -0.327 N 
ATOM      4  C   UNL d   1      10.461   2.734 -14.609  0.00  0.00     0.130 C 
ATOM      5  C   UNL d   1       9.825   2.553 -15.982  0.00  0.00    -0.002 A 
ATOM      6  C   UNL d   1       9.539   3.666 -16.801  0.00  0.00    -0.020 A 
ATOM      7  C   UNL d   1       9.521   1.255 -16.441  0.00  0.00     0.024 A 
ATOM      8  C   UNL d   1       8.952   3.461 -18.063  0.00  0.00     0.022 A 
ATOM      9  C   UNL d   1       9.855   5.082 -16.327  0.00  0.00     0.050 C 
ATOM     10  C   UNL d   1       8.636   2.169 -18.525  0.00  0.00     0.116 A 
ATOM     11  C   UNL d   1       8.919   1.044 -17.698  0.00  0.00     0.116 A 
ATOM     12  C   UNL d   1      10.887   5.092 -15.183  0.00  0.00     0.108 C 
BRANCH  10  13
ATOM     13  O   UNL d   1       8.079   2.102 -19.776  0.00  0.00    -0.326 OA
ATOM     14  C   UNL d   1       8.764   1.293 -20.717  0.00  0.00     0.181 C 
ENDBRANCH  10  13
BRANCH  11  15
ATOM     15  O   UNL d   1       8.623  -0.259 -18.015  0.00  0.00    -0.326 OA
ATOM     16  C   UNL d   1       7.276  -0.533 -18.374  0.00  0.00     0.181 C 
ENDBRANCH  11  15
ENDBRANCH   1   3
BRANCH   2  17
ATOM     17  C   UNL d   1       9.545   5.847 -11.121  0.00  0.00     0.083 A 
ATOM     18  C   UNL d   1      10.192   6.903 -10.436  0.00  0.00     0.015 A 
ATOM     19  C   UNL d   1       9.938   7.175  -9.082  0.00  0.00    -0.014 A 
ATOM     20  C   UNL d   1       9.081   6.331  -8.367  0.00  0.00    -0.025 A 
ATOM     21  C   UNL d   1      10.643   8.331  -8.403  0.00  0.00     0.079 C 
ATOM     22  C   UNL d   1       8.462   5.257  -9.019  0.00  0.00    -0.003 A 
ATOM     23  C   UNL d   1       8.742   6.617  -6.926  0.00  0.00     0.027 C 
ATOM     24  C   UNL d   1       8.658   5.034 -10.390  0.00  0.00     0.019 A 
ATOM     25  C   UNL d   1       9.706   7.558  -6.213  0.00  0.00     0.017 C 
ATOM     26  C   UNL d   1       9.998   8.764  -7.092  0.00  0.00     0.062 C 
ATOM     27  S   UNL d   1      10.887  10.059  -6.167  0.00  0.00    -0.139 SA
ATOM     28  C   UNL d   1      12.488   9.353  -5.861  0.00  0.00     0.069 C 
ATOM     29  C   UNL d   1      13.057   8.924  -7.196  0.00  0.00     0.070 C 
ATOM     30  S   UNL d   1      12.233   7.590  -8.002  0.00  0.00    -0.135 SA
ENDBRANCH   2  17
TORSDOF 4
