REMARK  0 active torsions:
REMARK  status: ('A' for Active; 'I' for Inactive)
ROOT
ATOM      1  N   UNL d   1      10.150   6.812  -9.666  0.00  0.00    -0.191 NA
ATOM      2  C   UNL d   1      10.456   7.281  -8.652  0.00  0.00     0.101 C 
ATOM      3  C   UNL d   1      10.851   7.868  -7.378  0.00  0.00     0.068 A 
ATOM      4  C   UNL d   1      11.064   9.254  -7.260  0.00  0.00     0.010 A 
ATOM      5  C   UNL d   1      11.453   9.813  -6.027  0.00  0.00    -0.002 A 
ATOM      6  C   UNL d   1      11.643   8.988  -4.905  0.00  0.00     0.010 A 
ATOM      7  C   UNL d   1      11.455   7.597  -5.026  0.00  0.00    -0.021 A 
ATOM      8  C   UNL d   1      11.056   7.039  -6.256  0.00  0.00     0.006 A 
ATOM      9  C   UNL d   1      11.653   6.706  -3.815  0.00  0.00     0.064 C 
ATOM     10  C   UNL d   1      12.444   7.391  -2.698  0.00  0.00     0.295 C 
ATOM     11  N   UNL d   1      11.873   8.700  -2.437  0.00  0.00     0.344 N 
ATOM     12  C   UNL d   1      12.084   9.581  -3.578  0.00  0.00     0.316 C 
ENDROOT
TORSDOF 0
