REMARK  8 active torsions:
REMARK  status: ('A' for Active; 'I' for Inactive)
REMARK    1  A    between atoms: O_2  and  C_3 
REMARK    2  A    between atoms: C_7  and  N_8 
REMARK    3  A    between atoms: N_11  and  C_12 
REMARK    4  A    between atoms: C_12  and  C_13 
REMARK    5  A    between atoms: C_13  and  C_14 
REMARK    6  A    between atoms: C_14  and  C_15 
REMARK    7  A    between atoms: C_15  and  N_16 
REMARK       I    between atoms: N_16  and  C_17 
REMARK    8  A    between atoms: C_17  and  C_19 
ROOT
ATOM      1  N   UNL d   1       7.053   3.339 -13.767  0.00  0.00    -0.330 N 
ATOM      2  C   UNL d   1       8.401   3.888 -13.856  0.00  0.00     0.138 C 
ATOM      3  C   UNL d   1       8.898   4.310 -12.468  0.00  0.00     0.274 C 
ATOM      4  N   UNL d   1       7.956   5.247 -11.850  0.00  0.00     0.141 N 
ATOM      5  C   UNL d   1       6.646   4.600 -11.698  0.00  0.00     0.274 C 
ATOM      6  C   UNL d   1       6.087   4.182 -13.067  0.00  0.00     0.138 C 
ENDROOT
BRANCH   4   7
ATOM      7  C   UNL d   1       8.453   5.630 -10.532  0.00  0.00     0.251 C 
BRANCH   7   8
ATOM      8  C   UNL d   1       9.510   6.751 -10.638  0.00  0.00     0.037 C 
BRANCH   8   9
ATOM      9  C   UNL d   1      10.217   7.059  -9.310  0.00  0.00     0.029 C 
BRANCH   9  10
ATOM     10  C   UNL d   1       9.277   7.618  -8.227  0.00  0.00     0.129 C 
BRANCH  10  11
ATOM     11  N   UNL d   1       9.916   7.624  -6.922  0.00  0.00    -0.234 NA
ATOM     12  C   UNL d   1      10.759   8.554  -6.459  0.00  0.00     0.275 C 
ATOM     13  O   UNL d   1      11.064   9.573  -7.079  0.00  0.00    -0.266 OA
BRANCH  12  14
ATOM     14  C   UNL d   1      11.264   8.310  -5.068  0.00  0.00     0.058 A 
ATOM     15  C   UNL d   1      11.565   9.406  -4.229  0.00  0.00     0.005 A 
ATOM     16  C   UNL d   1      12.043   9.188  -2.923  0.00  0.00     0.000 A 
ATOM     17  C   UNL d   1      12.235   7.883  -2.443  0.00  0.00     0.000 A 
ATOM     18  C   UNL d   1      11.938   6.786  -3.272  0.00  0.00     0.000 A 
ATOM     19  C   UNL d   1      11.464   6.997  -4.582  0.00  0.00     0.005 A 
ENDBRANCH  12  14
ENDBRANCH  10  11
ENDBRANCH   9  10
ENDBRANCH   8   9
ENDBRANCH   7   8
ENDBRANCH   4   7
BRANCH   1  20
ATOM     20  C   UNL d   1       6.718   2.067 -14.282  0.00  0.00     0.142 A 
ATOM     21  C   UNL d   1       7.426   1.518 -15.374  0.00  0.00     0.037 A 
ATOM     22  C   UNL d   1       7.037   0.267 -15.888  0.00  0.00     0.007 A 
ATOM     23  C   UNL d   1       5.940  -0.394 -15.313  0.00  0.00     0.044 A 
ATOM     24  C   UNL d   1       5.286   0.231 -14.233  0.00  0.00     0.179 A 
ATOM     25  N   UNL d   1       5.687   1.409 -13.705  0.00  0.00    -0.205 NA
BRANCH  24  26
ATOM     26  O   UNL d   1       4.207  -0.332 -13.602  0.00  0.00    -0.312 OA
ATOM     27  C   UNL d   1       3.116  -0.702 -14.434  0.00  0.00     0.183 C 
ENDBRANCH  24  26
ENDBRANCH   1  20
TORSDOF 8
