REMARK  2 active torsions:
REMARK  status: ('A' for Active; 'I' for Inactive)
REMARK    1  A    between atoms: C_6  and  N_7 
REMARK    2  A    between atoms: C_20  and  C_21 
ROOT
ATOM      1  C   UNL d   1       6.274   3.998 -12.172  0.00  0.00     0.027 C 
ATOM      2  C   UNL d   1       7.305   3.989 -13.310  0.00  0.00     0.116 C 
ATOM      3  C   UNL d   1       8.697   4.327 -12.741  0.00  0.00     0.171 C 
ATOM      4  O   UNL d   1       9.632   4.447 -13.801  0.00  0.00    -0.326 OA
ATOM      5  C   UNL d   1       9.579   3.435 -14.737  0.00  0.00     0.128 A 
ATOM      6  C   UNL d   1      10.662   3.203 -15.630  0.00  0.00     0.108 A 
ATOM      7  C   UNL d   1      10.623   2.104 -16.532  0.00  0.00     0.158 A 
ATOM      8  F   UNL d   1      11.648   1.780 -17.359  0.00  0.00    -0.203 F 
ATOM      9  C   UNL d   1       9.515   1.288 -16.615  0.00  0.00     0.036 A 
ATOM     10  C   UNL d   1       8.402   1.465 -15.786  0.00  0.00     0.059 A 
ATOM     11  C   UNL d   1       7.278   0.517 -15.874  0.00  0.00     0.204 A 
ATOM     12  O   UNL d   1       7.289  -0.384 -16.720  0.00  0.00    -0.286 OA
ATOM     13  C   UNL d   1       6.186   0.713 -14.891  0.00  0.00     0.120 A 
ATOM     14  C   UNL d   1       6.275   1.774 -14.056  0.00  0.00     0.085 A 
ATOM     15  N   UNL d   1       7.329   2.710 -14.048  0.00  0.00    -0.324 N 
ATOM     16  C   UNL d   1       8.484   2.546 -14.875  0.00  0.00     0.087 A 
ENDROOT
BRANCH   6  17
ATOM     17  N   UNL d   1      11.759   4.078 -15.606  0.00  0.00    -0.341 N 
ATOM     18  C   UNL d   1      12.967   3.642 -16.279  0.00  0.00     0.137 C 
ATOM     19  C   UNL d   1      12.909   3.959 -17.787  0.00  0.00     0.274 C 
ATOM     20  N   UNL d   1      12.685   5.383 -17.996  0.00  0.00     0.143 N 
ATOM     21  C   UNL d   1      11.413   5.758 -17.374  0.00  0.00     0.274 C 
ATOM     22  C   UNL d   1      12.601   5.622 -19.430  0.00  0.00     0.286 C 
ATOM     23  C   UNL d   1      11.487   5.490 -15.862  0.00  0.00     0.137 C 
ENDBRANCH   6  17
BRANCH  13  24
ATOM     24  C   UNL d   1       5.010  -0.148 -14.814  0.00  0.00     0.215 C 
ATOM     25  O   UNL d   1       4.284  -0.256 -13.827  0.00  0.00    -0.644 OA
ATOM     26  O   UNL d   1       4.757  -0.818 -15.978  0.00  0.00    -0.644 OA
ENDBRANCH  13  24
TORSDOF 2
