REMARK  6 active torsions:
REMARK  status: ('A' for Active; 'I' for Inactive)
REMARK    1  A    between atoms: C_8  and  O_9 
REMARK    2  A    between atoms: O_9  and  C_10 
REMARK    3  A    between atoms: C_10  and  C_11 
REMARK    4  A    between atoms: C_11  and  C_12 
REMARK    5  A    between atoms: C_12  and  N_13 
REMARK    6  A    between atoms: N_17  and  C_18 
ROOT
ATOM      1  N   UNL d   1       9.127   4.829 -12.471  0.00  0.00     0.139 N 
ATOM      2  C   UNL d   1      10.057   3.764 -12.848  0.00  0.00     0.252 C 
ATOM      3  C   UNL d   1      10.237   3.631 -14.366  0.00  0.00     0.059 C 
ATOM      4  C   UNL d   1       9.272   2.650 -15.028  0.00  0.00     0.104 C 
ATOM      5  N   UNL d   1       7.868   2.854 -14.664  0.00  0.00    -0.345 N 
ATOM      6  C   UNL d   1       7.424   4.177 -14.185  0.00  0.00     0.137 C 
ATOM      7  C   UNL d   1       7.733   4.443 -12.707  0.00  0.00     0.274 C 
ENDROOT
BRANCH   1   8
ATOM      8  C   UNL d   1       9.258   5.073 -11.035  0.00  0.00     0.253 C 
BRANCH   8   9
ATOM      9  C   UNL d   1       9.303   6.570 -10.766  0.00  0.00     0.068 C 
BRANCH   9  10
ATOM     10  C   UNL d   1       9.134   6.841  -9.265  0.00  0.00     0.151 C 
BRANCH  10  11
ATOM     11  O   UNL d   1      10.285   6.486  -8.502  0.00  0.00    -0.331 OA
BRANCH  11  12
ATOM     12  C   UNL d   1      10.606   7.322  -7.447  0.00  0.00     0.096 A 
ATOM     13  C   UNL d   1      10.494   8.744  -7.467  0.00  0.00     0.024 A 
ATOM     14  C   UNL d   1      10.796   9.497  -6.324  0.00  0.00     0.004 A 
ATOM     15  C   UNL d   1      11.250   8.856  -5.161  0.00  0.00     0.018 A 
ATOM     16  C   UNL d   1      11.584   9.594  -3.951  0.00  0.00     0.006 A 
ATOM     17  C   UNL d   1      11.417   7.460  -5.143  0.00  0.00     0.087 A 
ATOM     18  C   UNL d   1      12.056   8.960  -2.857  0.00  0.00     0.063 A 
ATOM     19  C   UNL d   1      12.234   7.503  -2.830  0.00  0.00     0.279 A 
ATOM     20  O   UNL d   1      12.660   6.885  -1.875  0.00  0.00    -0.265 OA
ATOM     21  N   UNL d   1      11.885   6.844  -3.951  0.00  0.00    -0.208 NA
ATOM     22  C   UNL d   1      11.124   6.707  -6.294  0.00  0.00     0.043 A 
ENDBRANCH  11  12
ENDBRANCH  10  11
ENDBRANCH   9  10
ENDBRANCH   8   9
ENDBRANCH   1   8
BRANCH   5  23
ATOM     23  C   UNL d   1       6.962   1.790 -14.771  0.00  0.00     0.068 A 
ATOM     24  C   UNL d   1       6.834   0.962 -15.944  0.00  0.00     0.084 A 
ATOM     25  C   UNL d   1       5.937  -0.127 -15.953  0.00  0.00     0.070 A 
ATOM     26 CL   UNL d   1       7.694   1.300 -17.416  0.00  0.00    -0.080 Cl
ATOM     27  C   UNL d   1       5.147  -0.415 -14.831  0.00  0.00     0.012 A 
ATOM     28 CL   UNL d   1       5.769  -1.110 -17.362  0.00  0.00    -0.081 Cl
ATOM     29  C   UNL d   1       5.236   0.395 -13.692  0.00  0.00     0.002 A 
ATOM     30  C   UNL d   1       6.110   1.489 -13.661  0.00  0.00     0.018 A 
ENDBRANCH   5  23
TORSDOF 6
