REMARK  7 active torsions:
REMARK  status: ('A' for Active; 'I' for Inactive)
REMARK    1  A    between atoms: C_2  and  C_3 
REMARK    2  A    between atoms: C_3  and  C_4 
REMARK    3  A    between atoms: C_4  and  O_5 
REMARK    4  A    between atoms: O_5  and  C_6 
REMARK    5  A    between atoms: C_8  and  C_9 
REMARK    6  A    between atoms: C_9  and  C_10 
REMARK    7  A    between atoms: C_18  and  O_19 
ROOT
ATOM      1  C   UNL d   1       9.464   6.572 -10.523  0.00  0.00     0.116 A 
ATOM      2  C   UNL d   1      10.385   7.464  -9.945  0.00  0.00     0.022 A 
ATOM      3  C   UNL d   1      10.904   7.191  -8.688  0.00  0.00    -0.018 A 
ATOM      4  C   UNL d   1      10.498   6.022  -8.009  0.00  0.00    -0.002 A 
ATOM      5  C   UNL d   1       9.557   5.148  -8.587  0.00  0.00     0.026 A 
ATOM      6  C   UNL d   1       9.056   5.401  -9.871  0.00  0.00     0.116 A 
ENDROOT
BRANCH   3   7
ATOM      7  C   UNL d   1      11.916   8.147  -8.104  0.00  0.00     0.053 C 
BRANCH   7   8
ATOM      8  C   UNL d   1      11.368   8.919  -6.881  0.00  0.00     0.137 C 
ATOM      9  N   UNL d   1      10.913   8.038  -5.821  0.00  0.00    -0.217 NA
ATOM     10  C   UNL d   1      11.603   8.160  -4.695  0.00  0.00     0.360 C 
ATOM     11  N   UNL d   1      12.432   9.190  -4.821  0.00  0.00    -0.215 NA
ATOM     12  O   UNL d   1      11.513   7.419  -3.713  0.00  0.00    -0.243 OA
ATOM     13  C   UNL d   1      12.447   9.722  -6.169  0.00  0.00     0.155 C 
ENDBRANCH   7   8
ENDBRANCH   3   7
BRANCH   1  14
ATOM     14  O   UNL d   1       8.889   6.806 -11.709  0.00  0.00    -0.329 OA
BRANCH  14  15
ATOM     15  C   UNL d   1       9.051   8.060 -12.277  0.00  0.00     0.149 C 
BRANCH  15  16
ATOM     16  C   UNL d   1       7.785   8.893 -12.326  0.00  0.00     0.033 C 
BRANCH  16  17
ATOM     17  C   UNL d   1       6.470   8.012 -12.506  0.00  0.00     0.003 C 
ATOM     18  C   UNL d   1       5.134   8.734 -12.184  0.00  0.00     0.000 C 
ENDBRANCH  16  17
ENDBRANCH  15  16
ENDBRANCH  14  15
ENDBRANCH   1  14
BRANCH   6  19
ATOM     19  O   UNL d   1       8.142   4.536 -10.431  0.00  0.00    -0.326 OA
ATOM     20  C   UNL d   1       8.401   4.042 -11.746  0.00  0.00     0.181 C 
ENDBRANCH   6  19
TORSDOF 7
