REMARK  11 active torsions:
REMARK  status: ('A' for Active; 'I' for Inactive)
REMARK    1  A    between atoms: N_2  and  C_5 
REMARK    2  A    between atoms: C_5  and  C_6 
REMARK    3  A    between atoms: C_6  and  O_7 
REMARK    4  A    between atoms: O_7  and  C_8 
REMARK    5  A    between atoms: C_8  and  C_10 
REMARK    6  A    between atoms: C_10  and  C_11 
REMARK    7  A    between atoms: C_11  and  C_12 
REMARK    8  A    between atoms: C_12  and  O_14 
REMARK    9  A    between atoms: O_14  and  C_15 
REMARK   10  A    between atoms: C_15  and  C_16 
REMARK   11  A    between atoms: C_16  and  N_17 
ROOT
ATOM      1  C   UNL d   1       9.812   4.171 -14.578  0.00  0.00     0.106 C 
ENDROOT
BRANCH   1   2
ATOM      2  C   UNL d   1      11.156   4.643 -15.135  0.00  0.00     0.272 C 
ATOM      3  O   UNL d   1      12.187   4.623 -14.463  0.00  0.00    -0.264 OA
BRANCH   2   4
ATOM      4  O   UNL d   1      11.060   5.092 -16.398  0.00  0.00    -0.300 OA
BRANCH   4   5
ATOM      5  C   UNL d   1      12.208   5.659 -17.010  0.00  0.00     0.185 C 
BRANCH   5   6
ATOM      6  C   UNL d   1      11.782   6.443 -18.268  0.00  0.00     0.250 C 
BRANCH   6   7
ATOM      7  N   UNL d   1      12.846   7.299 -18.880  0.00  0.00     0.002 N 
ATOM      8  C   UNL d   1      12.217   8.122 -19.948  0.00  0.00     0.250 C 
ATOM      9  C   UNL d   1      13.904   6.455 -19.491  0.00  0.00     0.250 C 
ATOM     10  C   UNL d   1      13.463   8.212 -17.876  0.00  0.00     0.250 C 
ENDBRANCH   6   7
ENDBRANCH   5   6
ENDBRANCH   4   5
ENDBRANCH   2   4
ENDBRANCH   1   2
BRANCH   1  11
ATOM     11  C   UNL d   1       9.826   3.835 -13.071  0.00  0.00     0.106 C 
BRANCH  11  12
ATOM     12  C   UNL d   1       8.844   4.690 -12.282  0.00  0.00     0.272 C 
ATOM     13  O   UNL d   1       7.652   4.388 -12.198  0.00  0.00    -0.264 OA
BRANCH  12  14
ATOM     14  O   UNL d   1       9.429   5.765 -11.730  0.00  0.00    -0.300 OA
BRANCH  14  15
ATOM     15  C   UNL d   1       8.703   6.608 -10.840  0.00  0.00     0.185 C 
BRANCH  15  16
ATOM     16  C   UNL d   1       9.232   6.429  -9.397  0.00  0.00     0.250 C 
BRANCH  16  17
ATOM     17  N   UNL d   1      10.153   7.497  -8.899  0.00  0.00     0.002 N 
ATOM     18  C   UNL d   1      10.706   7.073  -7.585  0.00  0.00     0.250 C 
ATOM     19  C   UNL d   1      11.274   7.724  -9.847  0.00  0.00     0.250 C 
ATOM     20  C   UNL d   1       9.425   8.779  -8.699  0.00  0.00     0.250 C 
ENDBRANCH  16  17
ENDBRANCH  15  16
ENDBRANCH  14  15
ENDBRANCH  12  14
ENDBRANCH  11  12
ENDBRANCH   1  11
TORSDOF 11
