REMARK  6 active torsions:
REMARK  status: ('A' for Active; 'I' for Inactive)
REMARK       I    between atoms: C_2  and  N_3 
REMARK    1  A    between atoms: C_2  and  C_21 
REMARK    2  A    between atoms: N_3  and  C_4 
REMARK    3  A    between atoms: C_4  and  C_5 
REMARK    4  A    between atoms: C_5  and  C_6 
REMARK    5  A    between atoms: C_6  and  N_7 
REMARK    6  A    between atoms: N_10  and  C_11 
ROOT
ATOM      1  C   UNL d   1       9.314   3.433 -14.542  0.00  0.00     0.131 C 
ENDROOT
BRANCH   1   2
ATOM      2  N   UNL d   1      10.096   3.314 -15.772  0.00  0.00    -0.237 NA
ATOM      3  C   UNL d   1       9.617   2.921 -16.964  0.00  0.00     0.259 C 
ATOM      4  O   UNL d   1       8.491   2.446 -17.115  0.00  0.00    -0.270 OA
BRANCH   3   5
ATOM      5  C   UNL d   1      10.534   3.141 -18.177  0.00  0.00     0.125 A 
ATOM      6  C   UNL d   1      10.747   1.855 -18.964  0.00  0.00    -0.009 A 
ATOM      7  C   UNL d   1      10.239   1.959 -20.265  0.00  0.00    -0.004 A 
ATOM      8  C   UNL d   1      11.368   0.676 -18.514  0.00  0.00    -0.004 A 
ATOM      9  C   UNL d   1       9.672   3.288 -20.433  0.00  0.00    -0.004 A 
ATOM     10  C   UNL d   1      10.329   0.880 -21.165  0.00  0.00    -0.000 A 
ATOM     11  C   UNL d   1       9.839   3.994 -19.235  0.00  0.00    -0.009 A 
ATOM     12  C   UNL d   1       9.049   3.889 -21.544  0.00  0.00    -0.000 A 
ATOM     13  C   UNL d   1       9.395   5.324 -19.105  0.00  0.00    -0.004 A 
ATOM     14  C   UNL d   1       8.767   5.932 -20.215  0.00  0.00    -0.000 A 
ATOM     15  C   UNL d   1       8.597   5.220 -21.425  0.00  0.00    -0.000 A 
ATOM     16  C   UNL d   1      10.946  -0.310 -20.724  0.00  0.00    -0.000 A 
ATOM     17  C   UNL d   1      11.463  -0.412 -19.409  0.00  0.00    -0.000 A 
ENDBRANCH   3   5
ENDBRANCH   1   2
BRANCH   1  18
ATOM     18  C   UNL d   1       8.951   4.904 -14.269  0.00  0.00     0.062 C 
BRANCH  18  19
ATOM     19  C   UNL d   1       8.212   5.087 -12.928  0.00  0.00     0.253 C 
BRANCH  19  20
ATOM     20  N   UNL d   1       9.139   5.306 -11.832  0.00  0.00     0.141 N 
ATOM     21  C   UNL d   1       8.459   5.024 -10.561  0.00  0.00     0.274 C 
ATOM     22  C   UNL d   1       9.437   5.186  -9.381  0.00  0.00     0.137 C 
ATOM     23  N   UNL d   1      10.047   6.504  -9.424  0.00  0.00    -0.344 N 
ATOM     24  C   UNL d   1      10.522   6.984 -10.684  0.00  0.00     0.137 C 
ATOM     25  C   UNL d   1       9.527   6.720 -11.810  0.00  0.00     0.274 C 
BRANCH  23  26
ATOM     26  C   UNL d   1      10.088   7.363  -8.320  0.00  0.00     0.068 A 
ATOM     27  C   UNL d   1      11.207   8.164  -7.929  0.00  0.00     0.084 A 
ATOM     28  C   UNL d   1      11.059   8.999  -6.790  0.00  0.00     0.070 A 
ATOM     29 CL   UNL d   1      12.744   8.136  -8.719  0.00  0.00    -0.080 Cl
ATOM     30  C   UNL d   1       9.889   9.023  -6.077  0.00  0.00     0.012 A 
ATOM     31 CL   UNL d   1      12.265   9.991  -6.080  0.00  0.00    -0.081 Cl
ATOM     32  C   UNL d   1       8.819   8.234  -6.456  0.00  0.00     0.002 A 
ATOM     33  C   UNL d   1       8.912   7.413  -7.560  0.00  0.00     0.018 A 
ENDBRANCH  23  26
ENDBRANCH  19  20
ENDBRANCH  18  19
ENDBRANCH   1  18
TORSDOF 6
