REMARK  8 active torsions:
REMARK  status: ('A' for Active; 'I' for Inactive)
REMARK    1  A    between atoms: C_6  and  C_7 
REMARK    2  A    between atoms: C_10  and  S_11 
REMARK    3  A    between atoms: S_11  and  C_12 
REMARK    4  A    between atoms: C_12  and  C_13 
REMARK    5  A    between atoms: C_13  and  C_14 
REMARK    6  A    between atoms: C_14  and  N_15 
REMARK    7  A    between atoms: C_19  and  C_20 
REMARK    8  A    between atoms: C_25  and  C_26 
ROOT
ATOM      1  N   UNL d   1       9.469   3.159 -16.255  0.00  0.00     0.137 N 
ATOM      2  C   UNL d   1       9.932   2.049 -17.089  0.00  0.00     0.251 C 
ATOM      3  C   UNL d   1      11.067   2.655 -17.865  0.00  0.00     0.039 A 
ATOM      4  C   UNL d   1      12.479   2.674 -17.341  0.00  0.00     0.008 A 
ATOM      5  C   UNL d   1      11.549   3.842 -17.088  0.00  0.00     0.052 A 
ATOM      6  C   UNL d   1      10.668   3.904 -15.859  0.00  0.00     0.254 C 
ENDROOT
BRANCH   1   7
ATOM      7  C   UNL d   1       8.692   2.676 -15.114  0.00  0.00     0.251 C 
BRANCH   7   8
ATOM      8  C   UNL d   1       8.216   3.848 -14.238  0.00  0.00     0.047 C 
BRANCH   8   9
ATOM      9  C   UNL d   1       6.821   3.631 -13.615  0.00  0.00     0.067 C 
BRANCH   9  10
ATOM     10  S   UNL d   1       6.206   5.144 -12.818  0.00  0.00    -0.075 SA
BRANCH  10  11
ATOM     11  C   UNL d   1       7.527   5.413 -11.684  0.00  0.00     0.193 A 
ATOM     12  N   UNL d   1       7.888   4.500 -10.799  0.00  0.00    -0.122 NA
ATOM     13  N   UNL d   1       8.915   5.052 -10.083  0.00  0.00    -0.126 NA
ATOM     14  C   UNL d   1       9.095   6.277 -10.586  0.00  0.00     0.191 A 
ATOM     15  N   UNL d   1       8.283   6.525 -11.639  0.00  0.00    -0.287 N 
ATOM     16  C   UNL d   1       8.189   7.729 -12.447  0.00  0.00     0.134 C 
BRANCH  14  17
ATOM     17  C   UNL d   1      10.078   7.192 -10.023  0.00  0.00     0.151 A 
ATOM     18  C   UNL d   1      10.781   7.193  -8.844  0.00  0.00     0.087 A 
ATOM     19  C   UNL d   1      10.737   6.232  -7.694  0.00  0.00     0.054 C 
ATOM     20  N   UNL d   1      11.637   8.286  -8.834  0.00  0.00    -0.221 NA
ATOM     21  C   UNL d   1      11.383   8.902  -9.985  0.00  0.00     0.225 A 
ATOM     22  O   UNL d   1      10.412   8.318 -10.728  0.00  0.00    -0.282 OA
ENDBRANCH  14  17
ENDBRANCH  10  11
ENDBRANCH   9  10
ENDBRANCH   8   9
ENDBRANCH   7   8
ENDBRANCH   1   7
BRANCH   5  23
ATOM     23  C   UNL d   1      11.729   5.170 -17.781  0.00  0.00    -0.017 A 
ATOM     24  C   UNL d   1      12.949   5.901 -17.729  0.00  0.00     0.068 A 
ATOM     25  C   UNL d   1      13.061   7.107 -18.459  0.00  0.00     0.004 A 
ATOM     26  C   UNL d   1      11.982   7.595 -19.214  0.00  0.00    -0.000 A 
ATOM     27  C   UNL d   1      10.768   6.892 -19.243  0.00  0.00    -0.000 A 
ATOM     28  C   UNL d   1      10.645   5.685 -18.527  0.00  0.00    -0.004 A 
BRANCH  24  29
ATOM     29  C   UNL d   1      14.159   5.431 -16.923  0.00  0.00     0.418 C 
ATOM     30  F   UNL d   1      14.970   6.445 -16.621  0.00  0.00    -0.166 F 
ATOM     31  F   UNL d   1      13.780   4.872 -15.775  0.00  0.00    -0.166 F 
ATOM     32  F   UNL d   1      14.854   4.549 -17.639  0.00  0.00    -0.166 F 
ENDBRANCH  24  29
ENDBRANCH   5  23
TORSDOF 8
