REMARK  6 active torsions:
REMARK  status: ('A' for Active; 'I' for Inactive)
REMARK    1  A    between atoms: C_2  and  C_3 
REMARK    2  A    between atoms: C_3  and  N_4 
REMARK    3  A    between atoms: N_4  and  C_5 
REMARK    4  A    between atoms: C_12  and  C_13 
REMARK    5  A    between atoms: C_13  and  S_14 
REMARK    6  A    between atoms: S_14  and  C_17 
ROOT
ATOM      1  C   UNL d   1       7.407   4.194 -12.716  0.00  0.00     0.261 C 
ATOM      2  C   UNL d   1       5.887   4.321 -12.721  0.00  0.00     0.041 C 
ATOM      3  C   UNL d   1       5.256   2.924 -12.656  0.00  0.00     0.028 C 
ATOM      4  C   UNL d   1       5.875   1.917 -13.621  0.00  0.00    -0.026 A 
ATOM      5  C   UNL d   1       5.169   0.721 -13.872  0.00  0.00    -0.005 A 
ATOM      6  C   UNL d   1       5.697  -0.233 -14.757  0.00  0.00    -0.001 A 
ATOM      7  C   UNL d   1       6.946  -0.011 -15.361  0.00  0.00    -0.004 A 
ATOM      8  C   UNL d   1       7.677   1.175 -15.109  0.00  0.00    -0.010 A 
ATOM      9  C   UNL d   1       7.139   2.149 -14.233  0.00  0.00    -0.027 A 
ATOM     10  C   UNL d   1       7.920   3.428 -13.932  0.00  0.00     0.062 C 
ENDROOT
BRANCH   8  11
ATOM     11  C   UNL d   1       9.026   1.366 -15.806  0.00  0.00     0.157 C 
BRANCH  11  12
ATOM     12  S   UNL d   1       8.853   1.324 -17.633  0.00  0.00     0.262 S 
ATOM     13  O   UNL d   1       8.648  -0.065 -18.066  0.00  0.00    -0.217 OA
ATOM     14  O   UNL d   1       7.889   2.359 -18.033  0.00  0.00    -0.217 OA
BRANCH  12  15
ATOM     15  C   UNL d   1      10.538   1.845 -18.157  0.00  0.00     0.499 C 
ATOM     16  F   UNL d   1      10.589   1.856 -19.488  0.00  0.00    -0.157 F 
ATOM     17  F   UNL d   1      10.789   3.066 -17.685  0.00  0.00    -0.157 F 
ATOM     18  F   UNL d   1      11.427   0.978 -17.675  0.00  0.00    -0.157 F 
ENDBRANCH  12  15
ENDBRANCH  11  12
ENDBRANCH   8  11
BRANCH   1  19
ATOM     19  N   UNL d   1       8.066   5.509 -12.682  0.00  0.00     0.337 N 
BRANCH  19  20
ATOM     20  C   UNL d   1       8.063   6.100 -11.362  0.00  0.00     0.290 C 
BRANCH  20  21
ATOM     21  C   UNL d   1       9.131   5.470 -10.450  0.00  0.00     0.038 C 
ATOM     22  C   UNL d   1       9.069   6.015  -9.027  0.00  0.00     0.002 C 
ENDBRANCH  20  21
ENDBRANCH  19  20
ENDBRANCH   1  19
TORSDOF 6
