REMARK  6 active torsions:
REMARK  status: ('A' for Active; 'I' for Inactive)
REMARK       I    between atoms: C_2  and  N_3 
REMARK    1  A    between atoms: C_2  and  C_27 
REMARK    2  A    between atoms: N_3  and  C_4 
REMARK    3  A    between atoms: C_7  and  C_8 
REMARK    4  A    between atoms: C_8  and  C_9 
REMARK    5  A    between atoms: C_9  and  N_10 
REMARK    6  A    between atoms: C_13  and  C_14 
ROOT
ATOM      1  C   UNL d   1       9.356   5.037 -12.113  0.00  0.00     0.035 C 
ENDROOT
BRANCH   1   2
ATOM      2  C   UNL d   1       9.177   3.756 -12.977  0.00  0.00     0.002 C 
ATOM      3  C   UNL d   1       7.790   3.759 -13.646  0.00  0.00     0.002 C 
ATOM      4  C   UNL d   1       7.569   2.529 -14.535  0.00  0.00     0.024 C 
ATOM      5  C   UNL d   1       8.689   2.383 -15.580  0.00  0.00     0.106 C 
ATOM      6  C   UNL d   1      10.072   2.338 -14.916  0.00  0.00     0.024 C 
ATOM      7  C   UNL d   1      10.289   3.588 -14.047  0.00  0.00     0.002 C 
BRANCH   5   8
ATOM      8  N   UNL d   1       8.470   1.169 -16.357  0.00  0.00    -0.240 NA
ATOM      9  C   UNL d   1       8.017   1.109 -17.617  0.00  0.00     0.251 C 
ATOM     10  O   UNL d   1       7.822   2.104 -18.313  0.00  0.00    -0.271 OA
BRANCH   9  11
ATOM     11  C   UNL d   1       7.732  -0.290 -18.174  0.00  0.00     0.086 C 
ATOM     12  C   UNL d   1       6.261  -0.686 -17.949  0.00  0.00     0.042 C 
ATOM     13  C   UNL d   1       5.995  -2.073 -18.556  0.00  0.00     0.143 C 
ATOM     14  O   UNL d   1       6.316  -2.056 -19.943  0.00  0.00    -0.354 OA
ATOM     15  C   UNL d   1       7.689  -1.783 -20.198  0.00  0.00     0.143 C 
ATOM     16  C   UNL d   1       8.051  -0.386 -19.677  0.00  0.00     0.042 C 
ENDBRANCH   9  11
ENDBRANCH   5   8
ENDBRANCH   1   2
BRANCH   1  17
ATOM     17  C   UNL d   1       8.574   5.006 -10.765  0.00  0.00     0.250 C 
BRANCH  17  18
ATOM     18  N   UNL d   1       9.067   5.911  -9.727  0.00  0.00     0.137 N 
ATOM     19  C   UNL d   1       8.140   5.978  -8.637  0.00  0.00     0.251 C 
ATOM     20  C   UNL d   1       8.549   7.123  -7.671  0.00  0.00     0.040 C 
ATOM     21  C   UNL d   1       9.850   6.783  -6.998  0.00  0.00     0.028 C 
ATOM     22  C   UNL d   1      10.834   6.442  -8.071  0.00  0.00     0.040 C 
ATOM     23  C   UNL d   1      10.253   5.438  -9.065  0.00  0.00     0.251 C 
BRANCH  21  24
ATOM     24  C   UNL d   1      10.385   7.866  -6.139  0.00  0.00     0.004 A 
ATOM     25  C   UNL d   1      11.098   7.731  -4.918  0.00  0.00     0.021 A 
ATOM     26  C   UNL d   1      11.321   9.049  -4.452  0.00  0.00     0.100 A 
ATOM     27  C   UNL d   1      11.556   6.665  -4.125  0.00  0.00     0.002 A 
ATOM     28  O   UNL d   1      10.794   9.949  -5.348  0.00  0.00    -0.305 OA
ATOM     29  C   UNL d   1      11.946   9.318  -3.223  0.00  0.00     0.025 A 
ATOM     30  C   UNL d   1      10.291   9.198  -6.387  0.00  0.00     0.118 A 
ATOM     31  C   UNL d   1      12.384   8.235  -2.441  0.00  0.00     0.002 A 
ATOM     32  C   UNL d   1      12.197   6.908  -2.887  0.00  0.00     0.000 A 
ENDBRANCH  21  24
ENDBRANCH  17  18
ENDBRANCH   1  17
TORSDOF 6
