REMARK  6 active torsions:
REMARK  status: ('A' for Active; 'I' for Inactive)
REMARK    1  A    between atoms: C_5  and  C_6 
REMARK    2  A    between atoms: C_6  and  O_7 
REMARK    3  A    between atoms: C_6  and  C_25 
REMARK    4  A    between atoms: O_7  and  C_8 
REMARK    5  A    between atoms: N_15  and  C_16 
REMARK    6  A    between atoms: C_16  and  C_17 
ROOT
ATOM      1  C   UNL d   1       9.500   3.592 -13.990  0.00  0.00     0.120 C 
ATOM      2  C   UNL d   1       9.787   3.721 -12.511  0.00  0.00     0.063 C 
ATOM      3  C   UNL d   1       8.843   4.643 -11.727  0.00  0.00     0.222 C 
ATOM      4  C   UNL d   1       7.341   4.296 -11.953  0.00  0.00     0.035 C 
ATOM      5  C   UNL d   1       6.956   5.066 -13.190  0.00  0.00     0.035 C 
ATOM      6  C   UNL d   1       8.264   5.790 -13.563  0.00  0.00     0.222 C 
ATOM      7  C   UNL d   1       9.145   4.995 -14.515  0.00  0.00     0.063 C 
ATOM      8  N   UNL d   1       9.077   5.929 -12.376  0.00  0.00     0.138 N 
ENDROOT
BRANCH   1   9
ATOM      9  O   UNL d   1       8.393   2.741 -14.299  0.00  0.00    -0.350 OA
BRANCH   9  10
ATOM     10  C   UNL d   1       8.686   1.413 -14.698  0.00  0.00     0.160 C 
BRANCH  10  11
ATOM     11  C   UNL d   1       7.393   0.675 -15.020  0.00  0.00     0.009 A 
ATOM     12  C   UNL d   1       6.788  -0.183 -14.075  0.00  0.00     0.001 A 
ATOM     13  C   UNL d   1       5.618  -0.887 -14.421  0.00  0.00     0.029 A 
ATOM     14  C   UNL d   1       5.040  -0.732 -15.694  0.00  0.00     0.140 A 
ATOM     15  F   UNL d   1       3.906  -1.398 -16.013  0.00  0.00    -0.204 F 
ATOM     16  C   UNL d   1       5.634   0.128 -16.632  0.00  0.00     0.029 A 
ATOM     17  C   UNL d   1       6.799   0.836 -16.290  0.00  0.00     0.001 A 
ENDBRANCH  10  11
BRANCH  10  18
ATOM     18  C   UNL d   1       9.681   1.361 -15.869  0.00  0.00     0.009 A 
ATOM     19  C   UNL d   1      10.071   2.545 -16.550  0.00  0.00     0.001 A 
ATOM     20  C   UNL d   1      11.040   2.502 -17.553  0.00  0.00     0.029 A 
ATOM     21  C   UNL d   1      11.569   1.271 -17.984  0.00  0.00     0.140 A 
ATOM     22  C   UNL d   1      11.129   0.073 -17.363  0.00  0.00     0.029 A 
ATOM     23  F   UNL d   1      12.516   1.229 -18.973  0.00  0.00    -0.204 F 
ATOM     24  C   UNL d   1      10.197   0.116 -16.297  0.00  0.00     0.001 A 
ENDBRANCH  10  18
ENDBRANCH   9  10
ENDBRANCH   1   9
BRANCH   8  25
ATOM     25  C   UNL d   1       8.594   7.013 -11.579  0.00  0.00     0.277 C 
BRANCH  25  26
ATOM     26  C   UNL d   1       9.501   7.397 -10.433  0.00  0.00     0.012 C 
ATOM     27  C   UNL d   1       9.393   6.842  -9.138  0.00  0.00     0.010 C 
ATOM     28  C   UNL d   1      10.249   7.324  -8.132  0.00  0.00     0.068 C 
ATOM     29  C   UNL d   1      11.239   8.282  -8.430  0.00  0.00     0.068 C 
ATOM     30 CL   UNL d   1      10.077   6.833  -6.492  0.00  0.00    -0.082 Cl
ATOM     31  C   UNL d   1      11.363   8.802  -9.716  0.00  0.00     0.012 C 
ATOM     32 CL   UNL d   1      12.226   8.921  -7.187  0.00  0.00    -0.082 Cl
ATOM     33  C   UNL d   1      10.431   8.408 -10.667  0.00  0.00    -0.001 C 
ENDBRANCH  25  26
ENDBRANCH   8  25
TORSDOF 6
