REMARK  9 active torsions:
REMARK  status: ('A' for Active; 'I' for Inactive)
REMARK       I    between atoms: C_2  and  N_4 
REMARK    1  A    between atoms: N_4  and  C_5 
REMARK    2  A    between atoms: C_8  and  C_9 
REMARK    3  A    between atoms: C_12  and  S_13 
REMARK    4  A    between atoms: S_13  and  C_14 
REMARK    5  A    between atoms: C_14  and  C_15 
REMARK    6  A    between atoms: C_15  and  C_16 
REMARK    7  A    between atoms: C_16  and  N_17 
REMARK    8  A    between atoms: C_22  and  C_23 
REMARK    9  A    between atoms: C_26  and  C_27 
ROOT
ATOM      1  C   UNL d   1      10.256   5.097 -13.890  0.00  0.00     0.047 C 
ENDROOT
BRANCH   1   2
ATOM      2  C   UNL d   1       9.294   4.306 -12.997  0.00  0.00     0.067 C 
BRANCH   2   3
ATOM      3  S   UNL d   1       7.902   5.341 -12.439  0.00  0.00    -0.075 SA
BRANCH   3   4
ATOM      4  C   UNL d   1       8.794   6.502 -11.450  0.00  0.00     0.193 A 
ATOM      5  N   UNL d   1       9.221   7.686 -11.915  0.00  0.00    -0.122 NA
ATOM      6  N   UNL d   1       9.847   8.297 -10.848  0.00  0.00    -0.133 NA
ATOM      7  C   UNL d   1       9.728   7.439  -9.829  0.00  0.00     0.143 A 
ATOM      8  N   UNL d   1       9.063   6.309 -10.144  0.00  0.00    -0.292 N 
ATOM      9  C   UNL d   1       8.665   5.212  -9.271  0.00  0.00     0.134 C 
BRANCH   7  10
ATOM     10  C   UNL d   1      10.149   7.779  -8.429  0.00  0.00     0.059 C 
ATOM     11  C   UNL d   1       9.096   8.585  -7.641  0.00  0.00     0.009 C 
ATOM     12  C   UNL d   1       9.590   8.824  -6.213  0.00  0.00     0.025 C 
ATOM     13  C   UNL d   1      10.944   9.546  -6.168  0.00  0.00     0.106 C 
ATOM     14  C   UNL d   1      11.989   8.794  -7.008  0.00  0.00     0.025 C 
ATOM     15  C   UNL d   1      11.499   8.521  -8.426  0.00  0.00     0.009 C 
BRANCH  13  16
ATOM     16  N   UNL d   1      11.389   9.727  -4.787  0.00  0.00    -0.240 NA
ATOM     17  C   UNL d   1      11.679   8.743  -3.914  0.00  0.00     0.252 C 
ATOM     18  C   UNL d   1      12.152   9.168  -2.554  0.00  0.00     0.100 C 
ATOM     19  O   UNL d   1      11.577   7.544  -4.168  0.00  0.00    -0.271 OA
ENDBRANCH  13  16
ENDBRANCH   7  10
ENDBRANCH   3   4
ENDBRANCH   2   3
ENDBRANCH   1   2
BRANCH   1  20
ATOM     20  C   UNL d   1      11.416   4.266 -14.437  0.00  0.00     0.251 C 
BRANCH  20  21
ATOM     21  N   UNL d   1      12.350   5.111 -15.159  0.00  0.00     0.137 N 
ATOM     22  C   UNL d   1      11.850   5.675 -16.395  0.00  0.00     0.251 C 
ATOM     23  C   UNL d   1      13.110   6.069 -17.164  0.00  0.00     0.037 A 
ATOM     24  C   UNL d   1      14.200   5.194 -16.621  0.00  0.00     0.038 C 
ATOM     25  C   UNL d   1      13.061   6.476 -18.623  0.00  0.00     0.024 A 
ATOM     26  C   UNL d   1      13.392   7.501 -17.578  0.00  0.00     0.007 A 
ATOM     27  C   UNL d   1      13.457   4.330 -15.607  0.00  0.00     0.250 C 
BRANCH  25  28
ATOM     28  C   UNL d   1      11.755   6.495 -19.350  0.00  0.00    -0.022 A 
ATOM     29  C   UNL d   1      11.241   7.715 -19.838  0.00  0.00    -0.004 A 
ATOM     30  C   UNL d   1       9.993   7.757 -20.470  0.00  0.00     0.004 A 
ATOM     31  C   UNL d   1       9.226   6.578 -20.625  0.00  0.00     0.071 A 
ATOM     32  C   UNL d   1       9.742   5.356 -20.129  0.00  0.00     0.004 A 
ATOM     33  C   UNL d   1      10.998   5.317 -19.515  0.00  0.00    -0.004 A 
BRANCH  31  34
ATOM     34  C   UNL d   1       7.882   6.635 -21.308  0.00  0.00     0.419 C 
ATOM     35  F   UNL d   1       7.000   7.203 -20.488  0.00  0.00    -0.166 F 
ATOM     36  F   UNL d   1       7.960   7.361 -22.422  0.00  0.00    -0.166 F 
ATOM     37  F   UNL d   1       7.461   5.414 -21.642  0.00  0.00    -0.166 F 
ENDBRANCH  31  34
ENDBRANCH  25  28
ENDBRANCH  20  21
ENDBRANCH   1  20
TORSDOF 9
