REMARK  9 active torsions:
REMARK  status: ('A' for Active; 'I' for Inactive)
REMARK    1  A    between atoms: C_2  and  C_3 
REMARK    2  A    between atoms: C_3  and  N_4 
REMARK    3  A    between atoms: N_4  and  C_5 
REMARK    4  A    between atoms: N_4  and  C_8 
REMARK    5  A    between atoms: C_5  and  C_6 
REMARK    6  A    between atoms: C_13  and  C_14 
REMARK    7  A    between atoms: C_14  and  S_15 
REMARK    8  A    between atoms: S_15  and  C_16 
REMARK    9  A    between atoms: C_19  and  O_20 
ROOT
ATOM      1  C   UNL d   1       7.254   1.513 -14.854  0.00  0.00     0.224 C 
ATOM      2  C   UNL d   1       8.611   2.052 -15.346  0.00  0.00     0.038 C 
ATOM      3  C   UNL d   1       9.440   2.688 -14.243  0.00  0.00     0.028 C 
ATOM      4  C   UNL d   1       8.648   3.632 -13.370  0.00  0.00    -0.026 A 
ATOM      5  C   UNL d   1       9.344   4.505 -12.513  0.00  0.00    -0.008 A 
ATOM      6  C   UNL d   1       8.629   5.364 -11.651  0.00  0.00    -0.011 A 
ATOM      7  C   UNL d   1       7.221   5.343 -11.646  0.00  0.00    -0.004 A 
ATOM      8  C   UNL d   1       6.532   4.476 -12.494  0.00  0.00    -0.005 A 
ATOM      9  C   UNL d   1       7.235   3.619 -13.361  0.00  0.00    -0.024 A 
ATOM     10  C   UNL d   1       6.441   2.693 -14.241  0.00  0.00     0.059 C 
ENDROOT
BRANCH   6  11
ATOM     11  C   UNL d   1       9.372   6.311 -10.744  0.00  0.00     0.088 C 
BRANCH  11  12
ATOM     12  S   UNL d   1       9.731   5.484  -9.168  0.00  0.00    -0.109 SA
BRANCH  12  13
ATOM     13  C   UNL d   1      10.202   6.728  -8.011  0.00  0.00     0.026 A 
ATOM     14  C   UNL d   1      11.067   6.403  -6.947  0.00  0.00     0.008 A 
ATOM     15  C   UNL d   1      11.398   7.359  -5.966  0.00  0.00     0.025 A 
ATOM     16  C   UNL d   1      10.895   8.679  -6.065  0.00  0.00     0.094 A 
ATOM     17  C   UNL d   1      10.061   8.998  -7.150  0.00  0.00     0.025 A 
ATOM     18  C   UNL d   1       9.705   8.040  -8.108  0.00  0.00     0.008 A 
BRANCH  16  19
ATOM     19  O   UNL d   1      11.173   9.690  -5.169  0.00  0.00    -0.328 OA
ATOM     20  C   UNL d   1      11.932   9.362  -4.019  0.00  0.00     0.181 C 
ENDBRANCH  16  19
ENDBRANCH  12  13
ENDBRANCH  11  12
ENDBRANCH   6  11
BRANCH   1  21
ATOM     21  N   UNL d   1       6.469   0.836 -15.922  0.00  0.00     0.135 N 
BRANCH  21  22
ATOM     22  C   UNL d   1       5.676  -0.314 -15.450  0.00  0.00     0.250 C 
BRANCH  22  23
ATOM     23  C   UNL d   1       4.859   0.019 -14.187  0.00  0.00     0.035 C 
ATOM     24  C   UNL d   1       3.460  -0.591 -14.153  0.00  0.00     0.002 C 
ENDBRANCH  22  23
ENDBRANCH  21  22
BRANCH  21  25
ATOM     25  C   UNL d   1       7.279   0.447 -17.089  0.00  0.00     0.250 C 
BRANCH  25  26
ATOM     26  C   UNL d   1       6.468   0.035 -18.320  0.00  0.00     0.035 C 
ATOM     27  C   UNL d   1       7.381  -0.270 -19.515  0.00  0.00     0.002 C 
ENDBRANCH  25  26
ENDBRANCH  21  25
ENDBRANCH   1  21
TORSDOF 9
