REMARK  5 active torsions:
REMARK  status: ('A' for Active; 'I' for Inactive)
REMARK    1  A    between atoms: C_7  and  C_8 
REMARK    2  A    between atoms: C_8  and  C_9 
REMARK    3  A    between atoms: C_9  and  C_10 
REMARK    4  A    between atoms: C_10  and  N_11 
REMARK    5  A    between atoms: N_14  and  C_15 
ROOT
ATOM      1  C   UNL d   1      10.597   7.029  -9.838  0.00  0.00     0.257 C 
ENDROOT
BRANCH   1   2
ATOM      2  C   UNL d   1       9.380   6.237 -10.391  0.00  0.00     0.084 C 
BRANCH   2   3
ATOM      3  C   UNL d   1       9.063   6.414 -11.874  0.00  0.00     0.090 C 
ATOM      4  N   UNL d   1       8.869   7.533 -12.429  0.00  0.00    -0.101 NA
ATOM      5  O   UNL d   1       8.961   8.626 -11.527  0.00  0.00    -0.061 OA
BRANCH   3   6
ATOM      6  C   UNL d   1       8.897   5.173 -12.656  0.00  0.00     0.015 A 
ATOM      7  C   UNL d   1       9.995   4.483 -13.229  0.00  0.00    -0.003 A 
ATOM      8  C   UNL d   1       9.797   3.329 -14.016  0.00  0.00    -0.022 A 
ATOM      9  C   UNL d   1       8.489   2.850 -14.224  0.00  0.00    -0.009 A 
ATOM     10  C   UNL d   1      10.981   2.610 -14.634  0.00  0.00     0.031 C 
ATOM     11  C   UNL d   1       7.390   3.516 -13.645  0.00  0.00    -0.022 A 
ATOM     12  C   UNL d   1       5.989   2.995 -13.864  0.00  0.00     0.031 C 
ATOM     13  C   UNL d   1       7.594   4.672 -12.870  0.00  0.00    -0.003 A 
ENDBRANCH   3   6
ENDBRANCH   2   3
ENDBRANCH   1   2
BRANCH   1  14
ATOM     14  N   UNL d   1      10.309   7.669  -8.547  0.00  0.00     0.141 N 
ATOM     15  C   UNL d   1      11.484   8.439  -8.131  0.00  0.00     0.274 C 
ATOM     16  C   UNL d   1      11.227   9.175  -6.798  0.00  0.00     0.138 C 
ATOM     17  N   UNL d   1      10.806   8.210  -5.804  0.00  0.00    -0.330 N 
ATOM     18  C   UNL d   1       9.688   7.359  -6.178  0.00  0.00     0.138 C 
ATOM     19  C   UNL d   1       9.976   6.671  -7.520  0.00  0.00     0.274 C 
BRANCH  17  20
ATOM     20  C   UNL d   1      11.460   8.111  -4.572  0.00  0.00     0.140 A 
ATOM     21  N   UNL d   1      11.640   9.263  -3.902  0.00  0.00    -0.227 NA
ATOM     22  C   UNL d   1      12.169   9.195  -2.659  0.00  0.00     0.101 A 
ATOM     23  C   UNL d   1      12.569   7.998  -2.057  0.00  0.00     0.021 A 
ATOM     24  C   UNL d   1      12.395   6.798  -2.763  0.00  0.00     0.005 A 
ATOM     25  C   UNL d   1      11.804   6.856  -4.050  0.00  0.00     0.037 A 
ENDBRANCH  17  20
ENDBRANCH   1  14
TORSDOF 5
