REMARK  6 active torsions:
REMARK  status: ('A' for Active; 'I' for Inactive)
REMARK       I    between atoms: C_2  and  N_3 
REMARK    1  A    between atoms: C_2  and  C_22 
REMARK    2  A    between atoms: N_3  and  C_4 
REMARK    3  A    between atoms: C_4  and  C_5 
REMARK    4  A    between atoms: C_5  and  C_6 
REMARK    5  A    between atoms: C_6  and  C_7 
REMARK    6  A    between atoms: C_7  and  N_8 
ROOT
ATOM      1  C   UNL d   1       9.318   5.432 -11.895  0.00  0.00     0.037 C 
ENDROOT
BRANCH   1   2
ATOM      2  C   UNL d   1       9.985   5.858 -10.574  0.00  0.00     0.029 C 
BRANCH   2   3
ATOM      3  C   UNL d   1       9.120   6.784  -9.745  0.00  0.00     0.129 C 
BRANCH   3   4
ATOM      4  N   UNL d   1       9.755   7.123  -8.479  0.00  0.00    -0.234 NA
ATOM      5  C   UNL d   1      10.357   8.294  -8.216  0.00  0.00     0.275 C 
ATOM      6  O   UNL d   1      10.530   9.184  -9.051  0.00  0.00    -0.266 OA
BRANCH   5   7
ATOM      7  C   UNL d   1      10.734   8.505  -6.781  0.00  0.00     0.058 A 
ATOM      8  C   UNL d   1      11.112   7.426  -5.955  0.00  0.00     0.005 A 
ATOM      9  C   UNL d   1      11.475   7.664  -4.616  0.00  0.00     0.000 A 
ATOM     10  C   UNL d   1      11.467   8.976  -4.087  0.00  0.00     0.000 A 
ATOM     11  C   UNL d   1      11.869   6.593  -3.798  0.00  0.00     0.000 A 
ATOM     12  C   UNL d   1      11.066  10.046  -4.900  0.00  0.00     0.000 A 
ATOM     13  C   UNL d   1      11.867   9.210  -2.762  0.00  0.00     0.000 A 
ATOM     14  C   UNL d   1      10.726   9.810  -6.241  0.00  0.00     0.005 A 
ATOM     15  C   UNL d   1      12.259   8.129  -1.950  0.00  0.00     0.000 A 
ATOM     16  C   UNL d   1      12.255   6.820  -2.466  0.00  0.00     0.000 A 
ENDBRANCH   5   7
ENDBRANCH   3   4
ENDBRANCH   2   3
ENDBRANCH   1   2
BRANCH   1  17
ATOM     17  C   UNL d   1      10.191   4.437 -12.680  0.00  0.00     0.251 C 
BRANCH  17  18
ATOM     18  N   UNL d   1       9.600   3.981 -13.940  0.00  0.00     0.143 N 
ATOM     19  C   UNL d   1      10.573   3.486 -14.927  0.00  0.00     0.280 C 
ATOM     20  C   UNL d   1       9.823   3.027 -16.200  0.00  0.00     0.173 C 
ATOM     21  C   UNL d   1      11.660   4.494 -15.376  0.00  0.00     0.185 C 
ATOM     22  O   UNL d   1       8.918   1.972 -15.879  0.00  0.00    -0.348 OA
ATOM     23  C   UNL d   1      10.785   2.647 -17.312  0.00  0.00     0.029 A 
ATOM     24  C   UNL d   1       7.952   2.342 -14.896  0.00  0.00     0.178 C 
ATOM     25  C   UNL d   1       8.662   2.889 -13.661  0.00  0.00     0.282 C 
ATOM     26  C   UNL d   1      12.120   3.116 -17.279  0.00  0.00     0.092 A 
ATOM     27  C   UNL d   1      10.345   1.858 -18.395  0.00  0.00     0.000 A 
ATOM     28  C   UNL d   1      13.012   2.754 -18.307  0.00  0.00     0.024 A 
ATOM     29  O   UNL d   1      12.607   3.901 -16.260  0.00  0.00    -0.329 OA
ATOM     30  C   UNL d   1      12.574   1.955 -19.379  0.00  0.00     0.002 A 
ATOM     31  C   UNL d   1      11.239   1.512 -19.426  0.00  0.00    -0.000 A 
ENDBRANCH  17  18
ENDBRANCH   1  17
TORSDOF 6
