REMARK  6 active torsions:
REMARK  status: ('A' for Active; 'I' for Inactive)
REMARK    1  A    between atoms: O_2  and  C_3 
REMARK    2  A    between atoms: C_7  and  O_8 
REMARK    3  A    between atoms: O_8  and  C_9 
REMARK    4  A    between atoms: C_9  and  C_10 
REMARK    5  A    between atoms: C_10  and  N_11 
REMARK       I    between atoms: N_14  and  C_15 
REMARK    6  A    between atoms: C_15  and  C_17 
ROOT
ATOM      1  N   UNL d   1       8.727   3.863 -13.488  0.00  0.00     0.144 N 
ATOM      2  C   UNL d   1       9.706   3.935 -12.412  0.00  0.00     0.274 C 
ATOM      3  C   UNL d   1       9.203   4.833 -11.275  0.00  0.00     0.140 C 
ATOM      4  N   UNL d   1       8.949   6.191 -11.798  0.00  0.00    -0.310 N 
ATOM      5  C   UNL d   1       9.441   7.372 -11.323  0.00  0.00     0.293 C 
ATOM      6  O   UNL d   1       9.379   8.422 -11.976  0.00  0.00    -0.264 OA
ATOM      7  C   UNL d   1       8.014   6.157 -12.931  0.00  0.00     0.140 C 
ATOM      8  C   UNL d   1       8.544   5.208 -14.024  0.00  0.00     0.274 C 
ENDROOT
BRANCH   1   9
ATOM      9  C   UNL d   1       9.203   2.954 -14.531  0.00  0.00     0.283 C 
BRANCH   9  10
ATOM     10  C   UNL d   1       8.548   1.567 -14.421  0.00  0.00     0.184 C 
BRANCH  10  11
ATOM     11  O   UNL d   1       7.154   1.729 -14.138  0.00  0.00    -0.329 OA
BRANCH  11  12
ATOM     12  C   UNL d   1       6.257   0.763 -14.542  0.00  0.00     0.096 A 
ATOM     13  C   UNL d   1       5.162   0.514 -13.686  0.00  0.00     0.024 A 
ATOM     14  C   UNL d   1       4.153  -0.391 -14.060  0.00  0.00     0.004 A 
ATOM     15  C   UNL d   1       4.239  -1.075 -15.283  0.00  0.00     0.024 A 
ATOM     16  C   UNL d   1       5.331  -0.848 -16.162  0.00  0.00     0.096 A 
ATOM     17  C   UNL d   1       6.330   0.084 -15.788  0.00  0.00     0.048 A 
BRANCH  16  18
ATOM     18  O   UNL d   1       5.453  -1.483 -17.379  0.00  0.00    -0.328 OA
ATOM     19  C   UNL d   1       4.563  -2.554 -17.644  0.00  0.00     0.181 C 
ENDBRANCH  16  18
ENDBRANCH  11  12
ENDBRANCH  10  11
ENDBRANCH   9  10
ENDBRANCH   1   9
BRANCH   5  20
ATOM     20  C   UNL d   1       9.936   7.455  -9.926  0.00  0.00     0.220 A 
ATOM     21  N   UNL d   1       9.872   8.631  -9.246  0.00  0.00    -0.221 NA
ATOM     22  C   UNL d   1      10.354   8.419  -7.966  0.00  0.00     0.101 A 
ATOM     23  C   UNL d   1      10.702   7.038  -7.989  0.00  0.00     0.101 A 
ATOM     24  C   UNL d   1      10.550   9.199  -6.805  0.00  0.00     0.021 A 
ATOM     25  N   UNL d   1      10.450   6.473  -9.195  0.00  0.00    -0.221 NA
ATOM     26  C   UNL d   1      11.255   6.471  -6.809  0.00  0.00     0.021 A 
ATOM     27  C   UNL d   1      11.427   7.227  -5.642  0.00  0.00     0.002 A 
ATOM     28  C   UNL d   1      11.089   8.598  -5.630  0.00  0.00     0.002 A 
ENDBRANCH   5  20
TORSDOF 6
