REMARK  12 active torsions:
REMARK  status: ('A' for Active; 'I' for Inactive)
REMARK    1  A    between atoms: C_2  and  C_3 
REMARK    2  A    between atoms: C_3  and  N_4 
REMARK    3  A    between atoms: N_4  and  C_5 
REMARK    4  A    between atoms: N_4  and  C_24 
REMARK    5  A    between atoms: C_5  and  C_6 
REMARK    6  A    between atoms: C_6  and  C_7 
REMARK    7  A    between atoms: C_7  and  C_8 
REMARK    8  A    between atoms: C_8  and  N_9 
REMARK       I    between atoms: N_9  and  C_10 
REMARK    9  A    between atoms: C_10  and  C_12 
REMARK   10  A    between atoms: C_15  and  C_16 
REMARK   11  A    between atoms: C_24  and  C_25 
REMARK   12  A    between atoms: C_27  and  C_28 
ROOT
ATOM      1  C   UNL d   1       8.772   4.383 -13.873  0.00  0.00     0.037 C 
ENDROOT
BRANCH   1   2
ATOM      2  C   UNL d   1       9.985   4.560 -14.818  0.00  0.00     0.250 C 
BRANCH   2   3
ATOM      3  N   UNL d   1       9.625   4.403 -16.232  0.00  0.00     0.137 N 
BRANCH   3   4
ATOM      4  C   UNL d   1      10.710   4.812 -17.128  0.00  0.00     0.250 C 
BRANCH   4   5
ATOM      5  C   UNL d   1      10.255   4.939 -18.597  0.00  0.00     0.035 C 
ATOM      6  C   UNL d   1       9.343   6.150 -18.823  0.00  0.00     0.002 C 
ENDBRANCH   4   5
ENDBRANCH   3   4
BRANCH   3   7
ATOM      7  C   UNL d   1       9.085   3.071 -16.546  0.00  0.00     0.251 C 
BRANCH   7   8
ATOM      8  C   UNL d   1      10.106   1.931 -16.493  0.00  0.00     0.038 A 
ATOM      9  C   UNL d   1       9.633   0.541 -16.137  0.00  0.00     0.024 A 
ATOM     10  C   UNL d   1      10.063   0.860 -17.556  0.00  0.00     0.007 A 
BRANCH   9  11
ATOM     11  C   UNL d   1       8.187   0.328 -15.773  0.00  0.00    -0.022 A 
ATOM     12  C   UNL d   1       7.244  -0.027 -16.745  0.00  0.00    -0.002 A 
ATOM     13  C   UNL d   1       5.889  -0.204 -16.402  0.00  0.00     0.029 A 
ATOM     14  C   UNL d   1       5.474  -0.020 -15.066  0.00  0.00     0.140 A 
ATOM     15  C   UNL d   1       6.413   0.345 -14.085  0.00  0.00     0.029 A 
ATOM     16  F   UNL d   1       4.172  -0.179 -14.733  0.00  0.00    -0.204 F 
ATOM     17  C   UNL d   1       7.772   0.517 -14.435  0.00  0.00    -0.002 A 
ENDBRANCH   9  11
ENDBRANCH   7   8
ENDBRANCH   3   7
ENDBRANCH   2   3
ENDBRANCH   1   2
BRANCH   1  18
ATOM     18  C   UNL d   1       9.058   4.749 -12.416  0.00  0.00     0.029 C 
BRANCH  18  19
ATOM     19  C   UNL d   1       9.059   6.258 -12.158  0.00  0.00     0.129 C 
BRANCH  19  20
ATOM     20  N   UNL d   1       9.484   6.530 -10.796  0.00  0.00    -0.234 NA
ATOM     21  C   UNL d   1       9.862   7.731 -10.348  0.00  0.00     0.275 C 
ATOM     22  O   UNL d   1       9.896   8.737 -11.060  0.00  0.00    -0.266 OA
BRANCH  21  23
ATOM     23  C   UNL d   1      10.305   7.784  -8.920  0.00  0.00     0.058 A 
ATOM     24  C   UNL d   1       9.700   6.964  -7.943  0.00  0.00     0.005 A 
ATOM     25  C   UNL d   1      10.100   7.047  -6.600  0.00  0.00     0.002 A 
ATOM     26  C   UNL d   1      11.094   7.965  -6.195  0.00  0.00     0.018 A 
ATOM     27  C   UNL d   1      11.688   8.791  -7.174  0.00  0.00     0.002 A 
ATOM     28  C   UNL d   1      11.299   8.705  -8.524  0.00  0.00     0.005 A 
BRANCH  26  29
ATOM     29  C   UNL d   1      11.504   8.049  -4.786  0.00  0.00     0.081 A 
ATOM     30  N   UNL d   1      11.552   9.294  -4.262  0.00  0.00    -0.244 NA
ATOM     31  C   UNL d   1      11.918   9.431  -2.974  0.00  0.00     0.099 A 
ATOM     32  C   UNL d   1      12.258   8.347  -2.148  0.00  0.00     0.021 A 
ATOM     33  C   UNL d   1      12.207   7.049  -2.686  0.00  0.00     0.003 A 
ATOM     34  C   UNL d   1      11.822   6.900  -4.031  0.00  0.00     0.019 A 
ENDBRANCH  26  29
ENDBRANCH  21  23
ENDBRANCH  19  20
ENDBRANCH  18  19
ENDBRANCH   1  18
TORSDOF 12
