REMARK  8 active torsions:
REMARK  status: ('A' for Active; 'I' for Inactive)
REMARK    1  A    between atoms: N_9  and  C_10 
REMARK    2  A    between atoms: C_10  and  C_11 
REMARK    3  A    between atoms: C_11  and  C_12 
REMARK    4  A    between atoms: C_12  and  C_13 
REMARK    5  A    between atoms: C_13  and  C_14 
REMARK    6  A    between atoms: C_14  and  N_15 
REMARK    7  A    between atoms: N_18  and  C_19 
REMARK    8  A    between atoms: C_28  and  C_29 
ROOT
ATOM      1  C   UNL d   1      14.420   0.931 -19.647  0.00  0.00     0.139 C 
ATOM      2  N   UNL d   1      13.108   1.245 -19.089  0.00  0.00    -0.246 N 
ATOM      3  C   UNL d   1      12.120   0.324 -19.207  0.00  0.00     0.284 A 
ATOM      4  O   UNL d   1      12.225  -0.790 -19.751  0.00  0.00    -0.265 OA
ATOM      5  C   UNL d   1      10.837   0.771 -18.670  0.00  0.00     0.172 A 
ATOM      6  C   UNL d   1      10.624   2.002 -18.130  0.00  0.00     0.187 A 
ATOM      7  N   UNL d   1       9.287   2.228 -17.797  0.00  0.00    -0.043 NA
ATOM      8  C   UNL d   1       8.760   1.050 -18.009  0.00  0.00     0.718 A 
ATOM      9  N   UNL d   1       7.550   0.470 -17.784  0.00  0.00    -0.161 N 
ATOM     10  C   UNL d   1       7.591  -0.823 -18.388  0.00  0.00     0.095 A 
ATOM     11  C   UNL d   1       8.891  -0.992 -18.845  0.00  0.00     0.116 A 
ATOM     12  N   UNL d   1       9.608   0.138 -18.592  0.00  0.00    -0.131 N 
ATOM     13  N   UNL d   1      11.756   2.855 -17.984  0.00  0.00    -0.263 N 
ATOM     14  C   UNL d   1      11.585   4.152 -17.296  0.00  0.00     0.137 C 
ATOM     15  C   UNL d   1      12.991   2.498 -18.484  0.00  0.00     0.335 A 
ATOM     16  O   UNL d   1      13.938   3.268 -18.404  0.00  0.00    -0.246 OA
ENDROOT
BRANCH   9  17
ATOM     17  C   UNL d   1       6.539   1.218 -17.020  0.00  0.00     0.124 C 
BRANCH  17  18
ATOM     18  C   UNL d   1       6.768   1.268 -15.491  0.00  0.00     0.025 C 
BRANCH  18  19
ATOM     19  C   UNL d   1       7.904   2.211 -15.104  0.00  0.00     0.004 C 
BRANCH  19  20
ATOM     20  C   UNL d   1       7.623   3.186 -13.998  0.00  0.00     0.035 C 
BRANCH  20  21
ATOM     21  C   UNL d   1       8.916   3.937 -13.626  0.00  0.00     0.250 C 
BRANCH  21  22
ATOM     22  N   UNL d   1       8.593   4.993 -12.685  0.00  0.00     0.141 N 
ATOM     23  C   UNL d   1       8.444   4.409 -11.347  0.00  0.00     0.274 C 
ATOM     24  C   UNL d   1       8.103   5.486 -10.317  0.00  0.00     0.137 C 
ATOM     25  N   UNL d   1       9.127   6.514 -10.347  0.00  0.00    -0.343 N 
ATOM     26  C   UNL d   1       9.368   7.096 -11.657  0.00  0.00     0.137 C 
ATOM     27  C   UNL d   1       9.688   5.963 -12.647  0.00  0.00     0.274 C 
BRANCH  25  28
ATOM     28  C   UNL d   1       9.765   6.957  -9.178  0.00  0.00     0.082 A 
ATOM     29  C   UNL d   1       9.954   8.335  -8.883  0.00  0.00     0.146 A 
ATOM     30  C   UNL d   1      10.639   8.734  -7.705  0.00  0.00     0.029 A 
ATOM     31  O   UNL d   1       9.445   9.277  -9.693  0.00  0.00    -0.189 OA
ATOM     32  C   UNL d   1      11.132   7.756  -6.823  0.00  0.00     0.002 A 
ATOM     33  C   UNL d   1      10.948   6.400  -7.111  0.00  0.00     0.002 A 
ATOM     34  C   UNL d   1      10.258   5.997  -8.272  0.00  0.00     0.019 A 
ENDBRANCH  25  28
ENDBRANCH  21  22
ENDBRANCH  20  21
ENDBRANCH  19  20
ENDBRANCH  18  19
ENDBRANCH  17  18
ENDBRANCH   9  17
BRANCH  10  35
ATOM     35  C   UNL d   1       6.439  -1.736 -18.461  0.00  0.00     0.018 A 
ATOM     36  C   UNL d   1       6.655  -3.139 -18.440  0.00  0.00     0.002 A 
ATOM     37  C   UNL d   1       5.567  -4.043 -18.479  0.00  0.00     0.000 A 
ATOM     38  C   UNL d   1       4.243  -3.559 -18.494  0.00  0.00     0.000 A 
ATOM     39  C   UNL d   1       4.016  -2.170 -18.535  0.00  0.00     0.000 A 
ATOM     40  C   UNL d   1       5.103  -1.269 -18.587  0.00  0.00     0.002 A 
ENDBRANCH  10  35
TORSDOF 8
