REMARK  4 active torsions:
REMARK  status: ('A' for Active; 'I' for Inactive)
REMARK       I    between atoms: N_2  and  C_4 
REMARK       I    between atoms: C_4  and  N_6 
REMARK    1  A    between atoms: N_6  and  C_7 
REMARK    2  A    between atoms: C_10  and  C_11 
REMARK    3  A    between atoms: C_11  and  C_12 
REMARK    4  A    between atoms: C_12  and  N_13 
ROOT
ATOM      1  C   UNL d   1       7.377   4.501 -13.393  0.00  0.00     0.108 C 
ATOM      2  C   UNL d   1       6.929   4.238 -11.962  0.00  0.00     0.025 C 
ATOM      3  C   UNL d   1       8.055   4.588 -10.963  0.00  0.00     0.002 C 
ATOM      4  C   UNL d   1       8.583   6.014 -11.101  0.00  0.00     0.002 C 
ATOM      5  C   UNL d   1       9.049   6.280 -12.523  0.00  0.00     0.002 C 
ATOM      6  C   UNL d   1       7.912   5.937 -13.478  0.00  0.00     0.025 C 
ENDROOT
BRANCH   4   7
ATOM      7  C   UNL d   1       9.693   6.346 -10.106  0.00  0.00     0.035 C 
BRANCH   7   8
ATOM      8  C   UNL d   1       9.265   6.318  -8.625  0.00  0.00     0.251 C 
BRANCH   8   9
ATOM      9  N   UNL d   1      10.230   7.066  -7.836  0.00  0.00     0.142 N 
ATOM     10  C   UNL d   1      10.150   6.656  -6.428  0.00  0.00     0.276 C 
ATOM     11  C   UNL d   1      11.046   7.466  -5.504  0.00  0.00     0.007 A 
ATOM     12  C   UNL d   1      11.459   8.746  -5.908  0.00  0.00    -0.022 A 
ATOM     13  C   UNL d   1      11.463   6.958  -4.259  0.00  0.00    -0.003 A 
ATOM     14  C   UNL d   1      11.097   9.261  -7.285  0.00  0.00     0.061 C 
ATOM     15  C   UNL d   1      12.265   9.514  -5.065  0.00  0.00    -0.004 A 
ATOM     16  C   UNL d   1       9.931   8.493  -7.919  0.00  0.00     0.255 C 
ATOM     17  C   UNL d   1      12.641   9.031  -3.796  0.00  0.00    -0.000 A 
ATOM     18  C   UNL d   1      12.241   7.748  -3.388  0.00  0.00    -0.000 A 
ENDBRANCH   8   9
ENDBRANCH   7   8
ENDBRANCH   4   7
BRANCH   1  19
ATOM     19  N   UNL d   1       8.452   3.604 -13.792  0.00  0.00    -0.221 NA
ATOM     20  C   UNL d   1       8.371   2.468 -14.514  0.00  0.00     0.342 C 
ATOM     21  N   UNL d   1       9.575   1.860 -14.680  0.00  0.00    -0.297 N 
ATOM     22  O   UNL d   1       7.322   2.029 -14.957  0.00  0.00    -0.245 OA
ATOM     23  C   UNL d   1      10.865   2.407 -14.226  0.00  0.00     0.130 C 
ATOM     24  C   UNL d   1       9.652   0.595 -15.414  0.00  0.00     0.130 C 
ENDBRANCH   1  19
TORSDOF 4
