REMARK  4 active torsions:
REMARK  status: ('A' for Active; 'I' for Inactive)
REMARK    1  A    between atoms: C_5  and  C_6 
REMARK    2  A    between atoms: C_8  and  C_9 
REMARK    3  A    between atoms: N_13  and  C_14 
REMARK    4  A    between atoms: C_14  and  C_15 
ROOT
ATOM      1  C   UNL d   1       8.503   5.197 -11.159  0.00  0.00     0.075 C 
ATOM      2  C   UNL d   1       7.282   5.876 -11.806  0.00  0.00     0.010 C 
ATOM      3  C   UNL d   1       6.603   4.904 -12.764  0.00  0.00     0.036 C 
ATOM      4  C   UNL d   1       7.617   4.365 -13.779  0.00  0.00     0.251 C 
ATOM      5  N   UNL d   1       8.696   3.646 -13.107  0.00  0.00     0.142 N 
ATOM      6  C   UNL d   1       9.425   4.569 -12.234  0.00  0.00     0.257 C 
ENDROOT
BRANCH   1   7
ATOM      7  C   UNL d   1       9.263   6.155 -10.277  0.00  0.00     0.084 A 
ATOM      8  C   UNL d   1       9.431   6.113  -8.862  0.00  0.00     0.037 A 
ATOM      9  C   UNL d   1      10.174   7.229  -8.582  0.00  0.00     0.104 A 
ATOM     10  N   UNL d   1      10.418   7.852  -9.783  0.00  0.00    -0.148 NA
ATOM     11  N   UNL d   1       9.860   7.206 -10.820  0.00  0.00    -0.152 NA
BRANCH   9  12
ATOM     12  C   UNL d   1      10.682   7.756  -7.314  0.00  0.00     0.019 A 
ATOM     13  C   UNL d   1      10.592   6.972  -6.147  0.00  0.00     0.002 A 
ATOM     14  C   UNL d   1      11.093   7.444  -4.922  0.00  0.00     0.011 A 
ATOM     15  C   UNL d   1      11.667   8.722  -4.839  0.00  0.00     0.058 A 
ATOM     16 CL   UNL d   1      12.254   9.266  -3.314  0.00  0.00    -0.082 Cl
ATOM     17  C   UNL d   1      11.762   9.527  -5.992  0.00  0.00     0.011 A 
ATOM     18  C   UNL d   1      11.275   9.039  -7.224  0.00  0.00     0.002 A 
ENDBRANCH   9  12
ENDBRANCH   1   7
BRANCH   5  19
ATOM     19  C   UNL d   1       9.638   3.055 -14.059  0.00  0.00     0.277 C 
BRANCH  19  20
ATOM     20  C   UNL d   1       8.988   2.149 -15.091  0.00  0.00     0.011 A 
ATOM     21  C   UNL d   1       9.162   2.418 -16.466  0.00  0.00    -0.002 A 
ATOM     22  C   UNL d   1       8.523   1.619 -17.435  0.00  0.00    -0.000 A 
ATOM     23  C   UNL d   1       7.699   0.551 -17.032  0.00  0.00    -0.000 A 
ATOM     24  C   UNL d   1       7.518   0.283 -15.661  0.00  0.00    -0.000 A 
ATOM     25  C   UNL d   1       8.168   1.073 -14.694  0.00  0.00    -0.002 A 
ENDBRANCH  19  20
ENDBRANCH   5  19
TORSDOF 4
