REMARK  6 active torsions:
REMARK  status: ('A' for Active; 'I' for Inactive)
REMARK    1  A    between atoms: C_6  and  O_7 
REMARK    2  A    between atoms: O_7  and  C_8 
REMARK    3  A    between atoms: C_8  and  C_9 
REMARK    4  A    between atoms: C_9  and  N_10 
REMARK    5  A    between atoms: C_13  and  C_14 
REMARK    6  A    between atoms: C_14  and  C_15 
ROOT
ATOM      1  N   UNL d   1       9.176   5.980 -11.879  0.00  0.00     0.140 N 
ATOM      2  C   UNL d   1       7.774   5.972 -11.430  0.00  0.00     0.250 C 
ATOM      3  C   UNL d   1       6.847   5.356 -12.475  0.00  0.00     0.036 C 
ATOM      4  C   UNL d   1       7.282   3.932 -12.787  0.00  0.00     0.008 C 
ATOM      5  C   UNL d   1       8.801   3.950 -13.000  0.00  0.00     0.036 C 
ATOM      6  C   UNL d   1       9.602   4.601 -11.933  0.00  0.00     0.250 C 
ENDROOT
BRANCH   1   7
ATOM      7  C   UNL d   1      10.061   6.608 -10.934  0.00  0.00     0.283 C 
BRANCH   7   8
ATOM      8  C   UNL d   1       9.889   8.133 -10.864  0.00  0.00     0.184 C 
BRANCH   8   9
ATOM      9  O   UNL d   1      10.327   8.735  -9.641  0.00  0.00    -0.329 OA
BRANCH   9  10
ATOM     10  C   UNL d   1       9.951   8.142  -8.453  0.00  0.00     0.098 A 
ATOM     11  C   UNL d   1      10.632   8.466  -7.260  0.00  0.00     0.040 A 
ATOM     12  C   UNL d   1      11.606   9.465  -7.275  0.00  0.00     0.005 A 
ATOM     13  C   UNL d   1      10.385   7.794  -6.041  0.00  0.00     0.085 A 
ATOM     14  C   UNL d   1      12.245   9.809  -6.077  0.00  0.00     0.015 A 
ATOM     15  C   UNL d   1      11.907   9.099  -4.919  0.00  0.00     0.059 A 
ATOM     16  C   UNL d   1      12.542   9.394  -3.586  0.00  0.00     0.052 C 
ATOM     17  N   UNL d   1      11.038   8.088  -4.909  0.00  0.00    -0.250 NA
ATOM     18  C   UNL d   1       9.427   6.804  -6.033  0.00  0.00     0.049 A 
ATOM     19  C   UNL d   1       8.712   6.499  -7.196  0.00  0.00     0.144 A 
ATOM     20  C   UNL d   1       8.944   7.183  -8.346  0.00  0.00     0.054 A 
ATOM     21  F   UNL d   1       7.789   5.546  -7.235  0.00  0.00    -0.204 F 
ENDBRANCH   9  10
ENDBRANCH   8   9
ENDBRANCH   7   8
ENDBRANCH   1   7
BRANCH   4  22
ATOM     22  C   UNL d   1       6.492   3.336 -13.973  0.00  0.00     0.029 C 
BRANCH  22  23
ATOM     23  C   UNL d   1       7.226   2.289 -14.806  0.00  0.00     0.007 A 
ATOM     24  C   UNL d   1       6.724   0.979 -14.880  0.00  0.00     0.138 A 
ATOM     25  C   UNL d   1       7.446  -0.001 -15.600  0.00  0.00     0.055 A 
ATOM     26  F   UNL d   1       5.551   0.646 -14.284  0.00  0.00    -0.204 F 
ATOM     27  C   UNL d   1       8.684   0.297 -16.208  0.00  0.00     0.115 A 
ATOM     28  C   UNL d   1       9.184   1.604 -16.121  0.00  0.00     0.106 A 
ATOM     29  O   UNL d   1       9.414  -0.665 -16.872  0.00  0.00    -0.319 OA
ATOM     30  C   UNL d   1       8.433   2.595 -15.501  0.00  0.00     0.019 A 
ATOM     31  N   UNL d   1      10.458   1.913 -16.621  0.00  0.00    -0.208 NA
ATOM     32  C   UNL d   1      11.116   1.071 -17.431  0.00  0.00     0.286 C 
ATOM     33  C   UNL d   1      10.342  -0.195 -17.864  0.00  0.00     0.238 C 
ATOM     34  O   UNL d   1      12.246   1.302 -17.851  0.00  0.00    -0.267 OA
ENDBRANCH  22  23
ENDBRANCH   4  22
TORSDOF 6
