REMARK  0 active torsions:
REMARK  status: ('A' for Active; 'I' for Inactive)
ROOT
ATOM      1  O   UNL d   1      11.455   6.388  -6.341  0.00  0.00    -0.169 OA
ATOM      2  C   UNL d   1      11.339   7.620  -5.790  0.00  0.00     0.219 A 
ATOM      3  N   UNL d   1      10.960   8.657  -6.560  0.00  0.00    -0.198 NA
ATOM      4  C   UNL d   1      10.852   9.863  -6.016  0.00  0.00     0.202 A 
ATOM      5  N   UNL d   1      11.057  10.244  -4.755  0.00  0.00    -0.203 NA
ATOM      6  C   UNL d   1      11.501   9.197  -4.012  0.00  0.00     0.190 A 
ATOM      7  N   UNL d   1      11.899   9.186  -2.691  0.00  0.00    -0.128 NA
ATOM      8  N   UNL d   1      12.268   7.956  -2.248  0.00  0.00    -0.145 NA
ATOM      9  C   UNL d   1      12.134   7.155  -3.278  0.00  0.00     0.129 A 
ATOM     10  C   UNL d   1      11.661   7.856  -4.435  0.00  0.00     0.102 A 
ENDROOT
TORSDOF 0
