REMARK  4 active torsions:
REMARK  status: ('A' for Active; 'I' for Inactive)
REMARK    1  A    between atoms: C_5  and  O_6 
REMARK    2  A    between atoms: O_6  and  C_7 
REMARK    3  A    between atoms: C_7  and  C_8 
REMARK    4  A    between atoms: N_13  and  C_14 
ROOT
ATOM      1  C   UNL d   1       8.618   5.428 -11.689  0.00  0.00     0.064 C 
ATOM      2  C   UNL d   1       9.743   6.450 -11.811  0.00  0.00     0.007 C 
ATOM      3  C   UNL d   1       9.639   7.530 -10.757  0.00  0.00     0.035 C 
ATOM      4  C   UNL d   1       9.650   6.913  -9.361  0.00  0.00     0.241 C 
ATOM      5  C   UNL d   1       9.478   8.022  -8.303  0.00  0.00     0.136 C 
ATOM      6  N   UNL d   1       9.441   7.417  -6.994  0.00  0.00    -0.330 N 
ATOM      7  C   UNL d   1       8.402   6.410  -6.851  0.00  0.00     0.138 C 
ATOM      8  C   UNL d   1       8.538   5.343  -7.963  0.00  0.00     0.274 C 
ATOM      9  N   UNL d   1       8.554   5.946  -9.274  0.00  0.00     0.139 N 
ATOM     10  C   UNL d   1       8.661   4.874 -10.251  0.00  0.00     0.253 C 
ENDROOT
BRANCH   1  11
ATOM     11  C   UNL d   1       8.883   4.302 -12.716  0.00  0.00     0.151 C 
BRANCH  11  12
ATOM     12  O   UNL d   1       9.026   4.845 -14.038  0.00  0.00    -0.331 OA
BRANCH  12  13
ATOM     13  C   UNL d   1       9.749   4.162 -14.996  0.00  0.00     0.094 A 
ATOM     14  C   UNL d   1       9.861   4.777 -16.264  0.00  0.00     0.026 A 
ATOM     15  C   UNL d   1      10.575   4.162 -17.311  0.00  0.00     0.032 A 
ATOM     16  C   UNL d   1      11.203   2.920 -17.097  0.00  0.00     0.140 A 
ATOM     17  F   UNL d   1      11.888   2.315 -18.100  0.00  0.00    -0.204 F 
ATOM     18  C   UNL d   1      11.107   2.302 -15.837  0.00  0.00     0.032 A 
ATOM     19  C   UNL d   1      10.380   2.908 -14.795  0.00  0.00     0.026 A 
ENDBRANCH  12  13
ENDBRANCH  11  12
ENDBRANCH   1  11
BRANCH   6  20
ATOM     20  C   UNL d   1      10.320   7.781  -5.974  0.00  0.00     0.140 A 
ATOM     21  N   UNL d   1      10.744   6.786  -5.168  0.00  0.00    -0.226 NA
ATOM     22  C   UNL d   1      11.533   7.065  -4.121  0.00  0.00     0.112 A 
ATOM     23  C   UNL d   1      11.927   8.372  -3.814  0.00  0.00     0.077 A 
ATOM     24  C   UNL d   1      11.540   9.396  -4.693  0.00  0.00     0.016 A 
ATOM     25 CL   UNL d   1      12.761   8.713  -2.357  0.00  0.00    -0.081 Cl
ATOM     26  C   UNL d   1      10.706   9.113  -5.773  0.00  0.00     0.038 A 
ENDBRANCH   6  20
TORSDOF 4
