REMARK  7 active torsions:
REMARK  status: ('A' for Active; 'I' for Inactive)
REMARK    1  A    between atoms: C_2  and  C_5 
REMARK    2  A    between atoms: C_5  and  C_6 
REMARK       I    between atoms: C_6  and  N_8 
REMARK    3  A    between atoms: N_8  and  C_9 
REMARK    4  A    between atoms: C_12  and  C_13 
REMARK    5  A    between atoms: C_13  and  C_14 
REMARK    6  A    between atoms: C_14  and  N_15 
REMARK    7  A    between atoms: N_18  and  C_19 
ROOT
ATOM      1  C   UNL d   1      10.513   4.758 -15.053  0.00  0.00     0.250 C 
ENDROOT
BRANCH   1   2
ATOM      2  C   UNL d   1       9.630   4.131 -13.963  0.00  0.00     0.035 C 
BRANCH   2   3
ATOM      3  C   UNL d   1       9.689   4.902 -12.639  0.00  0.00     0.002 C 
ATOM      4  C   UNL d   1       8.808   6.121 -12.595  0.00  0.00     0.002 C 
ATOM      5  C   UNL d   1       8.933   6.865 -11.267  0.00  0.00     0.024 C 
ATOM      6  C   UNL d   1       8.537   5.940 -10.072  0.00  0.00     0.106 C 
ATOM      7  C   UNL d   1       9.304   4.634 -10.101  0.00  0.00     0.024 C 
ATOM      8  C   UNL d   1       9.264   3.990 -11.498  0.00  0.00     0.002 C 
BRANCH   6   9
ATOM      9  N   UNL d   1       8.724   6.578  -8.762  0.00  0.00    -0.240 NA
ATOM     10  C   UNL d   1       9.833   7.160  -8.325  0.00  0.00     0.251 C 
ATOM     11  O   UNL d   1      10.915   6.964  -8.889  0.00  0.00    -0.271 OA
BRANCH  10  12
ATOM     12  C   UNL d   1       9.732   8.187  -7.191  0.00  0.00     0.090 C 
BRANCH  12  13
ATOM     13  C   UNL d   1      11.064   8.575  -6.472  0.00  0.00     0.009 C 
ATOM     14  C   UNL d   1      11.426   7.461  -5.477  0.00  0.00     0.001 C 
ATOM     15  C   UNL d   1      10.847   9.886  -5.720  0.00  0.00     0.001 C 
ATOM     16  C   UNL d   1      12.266   8.851  -7.417  0.00  0.00     0.001 C 
ENDBRANCH  12  13
ENDBRANCH  10  12
ENDBRANCH   6   9
ENDBRANCH   2   3
ENDBRANCH   1   2
BRANCH   1  17
ATOM     17  N   UNL d   1      10.664   3.906 -16.220  0.00  0.00     0.141 N 
ATOM     18  C   UNL d   1      11.693   2.907 -15.933  0.00  0.00     0.274 C 
ATOM     19  C   UNL d   1      11.851   1.967 -17.120  0.00  0.00     0.138 C 
ATOM     20  N   UNL d   1      12.147   2.721 -18.321  0.00  0.00    -0.330 N 
ATOM     21  C   UNL d   1      11.263   3.833 -18.619  0.00  0.00     0.138 C 
ATOM     22  C   UNL d   1      11.098   4.719 -17.370  0.00  0.00     0.274 C 
BRANCH  20  23
ATOM     23  C   UNL d   1      13.260   2.407 -19.137  0.00  0.00     0.138 A 
ATOM     24  C   UNL d   1      13.619   1.071 -19.412  0.00  0.00     0.036 A 
ATOM     25  C   UNL d   1      14.725   0.798 -20.206  0.00  0.00     0.095 A 
ATOM     26  C   UNL d   1      12.958  -0.222 -19.040  0.00  0.00     0.064 C 
ATOM     27  C   UNL d   1      15.489   1.853 -20.718  0.00  0.00     0.045 A 
ATOM     28  O   UNL d   1      14.916  -0.536 -20.406  0.00  0.00    -0.331 OA
ATOM     29  C   UNL d   1      15.059   3.158 -20.415  0.00  0.00     0.103 A 
ATOM     30  N   UNL d   1      13.974   3.436 -19.643  0.00  0.00    -0.228 NA
ATOM     31  C   UNL d   1      13.809  -1.237 -19.817  0.00  0.00     0.154 C 
ENDBRANCH  20  23
ENDBRANCH   1  17
TORSDOF 7
