REMARK  5 active torsions:
REMARK  status: ('A' for Active; 'I' for Inactive)
REMARK    1  A    between atoms: C_9  and  C_10 
REMARK       I    between atoms: C_10  and  N_12 
REMARK    2  A    between atoms: N_12  and  C_13 
REMARK    3  A    between atoms: C_13  and  C_14 
REMARK    4  A    between atoms: C_14  and  N_15 
REMARK    5  A    between atoms: C_18  and  C_20 
ROOT
ATOM      1  C   UNL d   1       9.267   4.421 -11.591  0.00  0.00     0.164 C 
ENDROOT
BRANCH   1   2
ATOM      2  N   UNL d   1       9.078   4.059 -12.979  0.00  0.00    -0.232 NA
ATOM      3  C   UNL d   1       9.987   4.213 -13.947  0.00  0.00     0.282 C 
ATOM      4  O   UNL d   1      11.063   4.783 -13.773  0.00  0.00    -0.265 OA
BRANCH   3   5
ATOM      5  C   UNL d   1       9.602   3.665 -15.263  0.00  0.00     0.101 A 
ATOM      6  C   UNL d   1       8.837   2.564 -15.603  0.00  0.00     0.082 A 
ATOM      7  C   UNL d   1       8.741   2.389 -17.048  0.00  0.00     0.034 A 
ATOM      8  N   UNL d   1       8.207   1.677 -14.709  0.00  0.00    -0.100 NA
ATOM      9  C   UNL d   1       8.085   1.448 -17.888  0.00  0.00    -0.018 A 
ATOM     10  C   UNL d   1       9.467   3.409 -17.745  0.00  0.00     0.111 A 
ATOM     11  C   UNL d   1       8.165   1.582 -19.290  0.00  0.00     0.011 A 
ATOM     12  C   UNL d   1       7.285   0.296 -17.307  0.00  0.00     0.031 C 
ATOM     13  C   UNL d   1       8.906   2.648 -19.837  0.00  0.00     0.060 A 
ATOM     14  C   UNL d   1       9.009   2.818 -21.340  0.00  0.00     0.052 C 
ATOM     15  N   UNL d   1       9.564   3.565 -19.099  0.00  0.00    -0.243 NA
ATOM     16  S   UNL d   1      10.276   4.498 -16.637  0.00  0.00    -0.062 SA
ENDBRANCH   3   5
ENDBRANCH   1   2
BRANCH   1  17
ATOM     17  C   UNL d   1       9.322   5.950 -11.389  0.00  0.00     0.276 C 
BRANCH  17  18
ATOM     18  N   UNL d   1       9.841   6.300 -10.063  0.00  0.00     0.139 N 
ATOM     19  C   UNL d   1      10.106   7.740 -10.030  0.00  0.00     0.253 C 
ATOM     20  C   UNL d   1      10.732   8.150  -8.680  0.00  0.00     0.070 C 
ATOM     21  C   UNL d   1       9.843   7.752  -7.500  0.00  0.00     0.149 C 
ATOM     22  C   UNL d   1       9.444   6.277  -7.652  0.00  0.00     0.070 C 
ATOM     23  O   UNL d   1       8.675   8.544  -7.562  0.00  0.00    -0.221 OA
ATOM     24  C   UNL d   1       8.861   5.933  -9.035  0.00  0.00     0.253 C 
BRANCH  21  25
ATOM     25  C   UNL d   1      10.581   8.010  -6.165  0.00  0.00     0.005 A 
ATOM     26  C   UNL d   1      11.114   6.940  -5.393  0.00  0.00    -0.001 A 
ATOM     27  C   UNL d   1      11.756   7.176  -4.160  0.00  0.00     0.011 A 
ATOM     28  C   UNL d   1      11.876   8.490  -3.673  0.00  0.00     0.058 A 
ATOM     29  C   UNL d   1      11.374   9.569  -4.435  0.00  0.00     0.011 A 
ATOM     30 CL   UNL d   1      12.641   8.760  -2.153  0.00  0.00    -0.082 Cl
ATOM     31  C   UNL d   1      10.739   9.326  -5.669  0.00  0.00    -0.001 A 
ENDBRANCH  21  25
ENDBRANCH  17  18
ENDBRANCH   1  17
TORSDOF 5
