REMARK  3 active torsions:
REMARK  status: ('A' for Active; 'I' for Inactive)
REMARK    1  A    between atoms: N_5  and  C_6 
REMARK    2  A    between atoms: C_12  and  S_13 
REMARK    3  A    between atoms: S_13  and  C_16 
ROOT
ATOM      1  C   UNL d   1       7.736   1.724 -14.371  0.00  0.00     0.056 A 
ATOM      2  C   UNL d   1       8.860   1.438 -15.201  0.00  0.00     0.018 A 
ATOM      3  C   UNL d   1       9.902   2.381 -15.376  0.00  0.00     0.022 A 
ATOM      4  C   UNL d   1       9.817   3.610 -14.697  0.00  0.00     0.105 A 
ATOM      5  N   UNL d   1      10.715   4.625 -14.744  0.00  0.00    -0.147 NA
ATOM      6  N   UNL d   1      10.165   5.592 -13.915  0.00  0.00    -0.136 NA
ATOM      7  C   UNL d   1       8.947   5.160 -13.395  0.00  0.00     0.192 A 
ATOM      8  C   UNL d   1       8.729   3.894 -13.899  0.00  0.00     0.051 A 
ATOM      9  C   UNL d   1       7.674   2.989 -13.740  0.00  0.00     0.021 A 
ENDROOT
BRANCH   7  10
ATOM     10  S   UNL d   1       7.867   6.089 -12.318  0.00  0.00     0.228 S 
ATOM     11  O   UNL d   1       7.927   7.470 -12.800  0.00  0.00    -0.216 OA
ATOM     12  O   UNL d   1       6.575   5.354 -12.270  0.00  0.00    -0.216 OA
BRANCH  10  13
ATOM     13  C   UNL d   1       8.661   5.959 -10.701  0.00  0.00     0.089 A 
ATOM     14  C   UNL d   1       9.639   6.850 -10.156  0.00  0.00     0.011 A 
ATOM     15  C   UNL d   1      10.109   6.624  -8.824  0.00  0.00     0.001 A 
ATOM     16  C   UNL d   1      10.157   7.963 -10.844  0.00  0.00     0.001 A 
ATOM     17  C   UNL d   1       9.643   5.541  -8.071  0.00  0.00     0.000 A 
ATOM     18  C   UNL d   1      11.078   7.451  -8.203  0.00  0.00     0.000 A 
ATOM     19  C   UNL d   1       8.750   4.620  -8.647  0.00  0.00     0.001 A 
ATOM     20  C   UNL d   1       8.266   4.848  -9.940  0.00  0.00     0.011 A 
ATOM     21  C   UNL d   1      11.584   8.549  -8.912  0.00  0.00     0.000 A 
ATOM     22  C   UNL d   1      11.096   8.794 -10.205  0.00  0.00     0.000 A 
ENDBRANCH  10  13
ENDBRANCH   7  10
BRANCH   1  23
ATOM     23  N   UNL d   1       6.750   0.758 -14.059  0.00  0.00    -0.344 N 
ATOM     24  C   UNL d   1       5.381   1.091 -13.712  0.00  0.00     0.137 C 
ATOM     25  C   UNL d   1       4.432   0.377 -14.703  0.00  0.00     0.274 C 
ATOM     26  N   UNL d   1       4.628  -1.042 -14.686  0.00  0.00     0.143 N 
ATOM     27  C   UNL d   1       3.722  -1.669 -15.636  0.00  0.00     0.286 C 
ATOM     28  C   UNL d   1       5.988  -1.305 -15.129  0.00  0.00     0.274 C 
ATOM     29  C   UNL d   1       6.992  -0.666 -14.152  0.00  0.00     0.137 C 
ENDBRANCH   1  23
TORSDOF 3
