REMARK  6 active torsions:
REMARK  status: ('A' for Active; 'I' for Inactive)
REMARK    1  A    between atoms: C_2  and  O_3 
REMARK    2  A    between atoms: O_3  and  C_4 
REMARK    3  A    between atoms: C_8  and  C_9 
REMARK    4  A    between atoms: C_9  and  N_10 
REMARK    5  A    between atoms: N_13  and  C_14 
REMARK    6  A    between atoms: C_14  and  C_15 
ROOT
ATOM      1  N   UNL d   1       9.262   4.450 -14.593  0.00  0.00     0.146 N 
ATOM      2  C   UNL d   1      10.166   5.200 -13.736  0.00  0.00     0.286 C 
ATOM      3  C   UNL d   1       9.453   5.872 -12.585  0.00  0.00     0.286 C 
ATOM      4  N   UNL d   1       8.779   4.923 -11.726  0.00  0.00     0.148 N 
ATOM      5  C   UNL d   1       7.814   4.191 -12.557  0.00  0.00     0.286 C 
ATOM      6  C   UNL d   1       8.538   3.479 -13.746  0.00  0.00     0.286 C 
ENDROOT
BRANCH   1   7
ATOM      7  C   UNL d   1       9.992   3.803 -15.691  0.00  0.00     0.277 C 
BRANCH   7   8
ATOM      8  C   UNL d   1      10.657   4.758 -16.699  0.00  0.00     0.013 A 
ATOM      9  C   UNL d   1      10.129   4.825 -18.008  0.00  0.00    -0.002 A 
ATOM     10  C   UNL d   1      10.704   5.693 -18.960  0.00  0.00     0.002 A 
ATOM     11  C   UNL d   1      11.776   6.538 -18.615  0.00  0.00     0.024 A 
ATOM     12  C   UNL d   1      12.298   6.506 -17.296  0.00  0.00     0.094 A 
ATOM     13  C   UNL d   1      11.781   5.567 -16.363  0.00  0.00     0.022 A 
BRANCH  12  14
ATOM     14  O   UNL d   1      13.271   7.380 -16.849  0.00  0.00    -0.331 OA
BRANCH  14  15
ATOM     15  C   UNL d   1      13.921   8.257 -17.769  0.00  0.00     0.149 C 
ATOM     16  C   UNL d   1      14.958   7.441 -18.559  0.00  0.00     0.035 C 
ENDBRANCH  14  15
ENDBRANCH  12  14
ENDBRANCH   7   8
ENDBRANCH   1   7
BRANCH   4  17
ATOM     17  C   UNL d   1       8.150   5.606 -10.593  0.00  0.00     0.301 C 
BRANCH  17  18
ATOM     18  C   UNL d   1       9.094   6.389  -9.697  0.00  0.00     0.111 A 
ATOM     19  O   UNL d   1       9.020   6.126  -8.348  0.00  0.00    -0.309 OA
ATOM     20  C   UNL d   1       9.893   6.999  -7.719  0.00  0.00     0.100 A 
ATOM     21  C   UNL d   1      10.565   7.758  -8.703  0.00  0.00     0.025 A 
ATOM     22  C   UNL d   1      10.128   7.146  -6.346  0.00  0.00     0.025 A 
ATOM     23  C   UNL d   1      10.000   7.399  -9.954  0.00  0.00     0.024 A 
ATOM     24  C   UNL d   1      11.575   8.644  -8.270  0.00  0.00     0.002 A 
ATOM     25  C   UNL d   1      11.853   8.800  -6.902  0.00  0.00     0.000 A 
ATOM     26  C   UNL d   1      11.127   8.066  -5.935  0.00  0.00     0.002 A 
ENDBRANCH  17  18
ENDBRANCH   4  17
TORSDOF 6
