REMARK  1 active torsions:
REMARK  status: ('A' for Active; 'I' for Inactive)
REMARK    1  A    between atoms: N_5  and  C_6 
ROOT
ATOM      1  C   UNL d   1       7.478   3.268 -14.106  0.00  0.00     0.246 C 
ATOM      2  C   UNL d   1       7.058   3.994 -12.793  0.00  0.00     0.065 C 
ATOM      3  C   UNL d   1       7.377   5.450 -12.690  0.00  0.00    -0.014 A 
ATOM      4  C   UNL d   1       6.381   6.407 -12.808  0.00  0.00    -0.004 A 
ATOM      5  C   UNL d   1       6.709   7.763 -12.731  0.00  0.00    -0.000 A 
ATOM      6  C   UNL d   1       8.035   8.143 -12.432  0.00  0.00     0.001 A 
ATOM      7  C   UNL d   1       9.033   7.167 -12.232  0.00  0.00     0.006 A 
ATOM      8  C   UNL d   1       8.684   5.835 -12.396  0.00  0.00     0.025 A 
ATOM      9  S   UNL d   1       9.861   4.553 -12.232  0.00  0.00    -0.087 SA
ATOM     10  C   UNL d   1      10.004   4.065 -13.908  0.00  0.00     0.027 A 
ATOM     11  C   UNL d   1      11.269   4.249 -14.506  0.00  0.00     0.007 A 
ATOM     12  C   UNL d   1      11.478   3.930 -15.864  0.00  0.00     0.012 A 
ATOM     13  C   UNL d   1      10.404   3.446 -16.625  0.00  0.00     0.058 A 
ATOM     14 CL   UNL d   1      10.613   3.029 -18.287  0.00  0.00    -0.082 Cl
ATOM     15  C   UNL d   1       9.147   3.301 -16.034  0.00  0.00     0.009 A 
ATOM     16  C   UNL d   1       8.907   3.546 -14.660  0.00  0.00     0.016 A 
ENDROOT
BRANCH   1  17
ATOM     17  N   UNL d   1       7.125   1.824 -14.072  0.00  0.00     0.144 N 
ATOM     18  C   UNL d   1       7.044   1.218 -15.407  0.00  0.00     0.286 C 
ATOM     19  C   UNL d   1       6.664  -0.252 -15.373  0.00  0.00     0.286 C 
ATOM     20  N   UNL d   1       5.386  -0.452 -14.719  0.00  0.00     0.143 N 
ATOM     21  C   UNL d   1       5.053  -1.855 -14.693  0.00  0.00     0.285 C 
ATOM     22  C   UNL d   1       5.462   0.104 -13.377  0.00  0.00     0.286 C 
ATOM     23  C   UNL d   1       5.840   1.576 -13.415  0.00  0.00     0.286 C 
ENDBRANCH   1  17
TORSDOF 1
