REMARK  6 active torsions:
REMARK  status: ('A' for Active; 'I' for Inactive)
REMARK    1  A    between atoms: C_2  and  C_3 
REMARK    2  A    between atoms: N_12  and  C_13 
REMARK    3  A    between atoms: C_13  and  C_14 
REMARK    4  A    between atoms: C_14  and  C_16 
REMARK    5  A    between atoms: C_16  and  N_17 
REMARK    6  A    between atoms: N_20  and  C_21 
ROOT
ATOM      1  C   UNL d   1       9.117   3.091 -14.294  0.00  0.00     0.066 A 
ATOM      2  C   UNL d   1       8.096   2.117 -14.412  0.00  0.00     0.018 A 
ATOM      3  C   UNL d   1       8.224   1.014 -15.289  0.00  0.00     0.002 A 
ATOM      4  C   UNL d   1       9.370   0.895 -16.077  0.00  0.00     0.001 A 
ATOM      5  C   UNL d   1      10.389   1.851 -15.995  0.00  0.00     0.012 A 
ATOM      6  C   UNL d   1      10.279   2.957 -15.110  0.00  0.00     0.084 A 
ATOM      7  C   UNL d   1      11.385   3.912 -15.146  0.00  0.00     0.102 C 
ATOM      8  N   UNL d   1      12.256   4.673 -15.156  0.00  0.00    -0.191 NA
ENDROOT
BRANCH   1   9
ATOM      9  N   UNL d   1       8.925   4.143 -13.362  0.00  0.00    -0.344 N 
ATOM     10  C   UNL d   1      10.005   4.680 -12.542  0.00  0.00     0.137 C 
ATOM     11  C   UNL d   1       9.594   4.723 -11.082  0.00  0.00     0.274 C 
ATOM     12  N   UNL d   1       8.378   5.448 -10.888  0.00  0.00     0.144 N 
ATOM     13  C   UNL d   1       7.298   4.832 -11.655  0.00  0.00     0.274 C 
ATOM     14  C   UNL d   1       7.628   4.785 -13.156  0.00  0.00     0.137 C 
BRANCH  12  15
ATOM     15  C   UNL d   1       8.082   5.486  -9.476  0.00  0.00     0.285 C 
BRANCH  15  16
ATOM     16  C   UNL d   1       9.100   6.173  -8.541  0.00  0.00     0.208 C 
ATOM     17  O   UNL d   1       8.380   6.193  -7.325  0.00  0.00    -0.219 OA
BRANCH  16  18
ATOM     18  C   UNL d   1       9.566   7.583  -9.016  0.00  0.00     0.148 C 
BRANCH  18  19
ATOM     19  N   UNL d   1      10.541   8.205  -8.125  0.00  0.00    -0.247 N 
ATOM     20  C   UNL d   1      11.856   8.354  -8.357  0.00  0.00     0.348 A 
ATOM     21  N   UNL d   1      12.394   8.959  -7.286  0.00  0.00    -0.209 NA
ATOM     22  O   UNL d   1      12.469   7.991  -9.355  0.00  0.00    -0.245 OA
ATOM     23  C   UNL d   1      11.431   9.269  -6.242  0.00  0.00     0.179 A 
ATOM     24  C   UNL d   1      11.339  10.781  -6.042  0.00  0.00     0.039 C 
ATOM     25  C   UNL d   1      10.189   8.733  -6.935  0.00  0.00     0.265 A 
ATOM     26  O   UNL d   1       9.070   8.786  -6.447  0.00  0.00    -0.269 OA
BRANCH  23  27
ATOM     27  C   UNL d   1      11.687   8.523  -4.919  0.00  0.00     0.006 A 
ATOM     28  C   UNL d   1      11.842   9.211  -3.685  0.00  0.00    -0.002 A 
ATOM     29  C   UNL d   1      12.109   8.526  -2.489  0.00  0.00    -0.000 A 
ATOM     30  C   UNL d   1      12.240   7.131  -2.505  0.00  0.00    -0.000 A 
ATOM     31  C   UNL d   1      12.117   6.452  -3.720  0.00  0.00    -0.000 A 
ATOM     32  C   UNL d   1      11.810   7.117  -4.913  0.00  0.00    -0.002 A 
ENDBRANCH  23  27
ENDBRANCH  18  19
ENDBRANCH  16  18
ENDBRANCH  15  16
ENDBRANCH  12  15
ENDBRANCH   1   9
TORSDOF 6
