REMARK  6 active torsions:
REMARK  status: ('A' for Active; 'I' for Inactive)
REMARK    1  A    between atoms: N_10  and  C_11 
REMARK    2  A    between atoms: C_11  and  C_12 
REMARK    3  A    between atoms: C_12  and  C_13 
REMARK    4  A    between atoms: C_13  and  C_14 
REMARK    5  A    between atoms: C_14  and  N_15 
REMARK    6  A    between atoms: N_18  and  C_19 
ROOT
ATOM      1  C   UNL d   1      10.236   7.356 -10.839  0.00  0.00     0.251 C 
ENDROOT
BRANCH   1   2
ATOM      2  C   UNL d   1       9.054   6.721 -11.607  0.00  0.00     0.037 C 
BRANCH   2   3
ATOM      3  C   UNL d   1       9.433   5.357 -12.209  0.00  0.00     0.027 C 
BRANCH   3   4
ATOM      4  C   UNL d   1       8.574   4.943 -13.425  0.00  0.00     0.109 C 
BRANCH   4   5
ATOM      5  N   UNL d   1       9.038   3.701 -14.060  0.00  0.00    -0.299 N 
ATOM      6  C   UNL d   1      10.285   3.453 -14.527  0.00  0.00     0.242 A 
ATOM      7  O   UNL d   1      11.245   4.224 -14.504  0.00  0.00    -0.272 OA
ATOM      8  C   UNL d   1      10.383   2.054 -15.147  0.00  0.00     0.116 A 
ATOM      9  C   UNL d   1       8.957   1.615 -14.978  0.00  0.00     0.003 A 
ATOM     10  C   UNL d   1       8.204   2.602 -14.352  0.00  0.00     0.059 A 
ATOM     11  C   UNL d   1       8.392   0.389 -15.356  0.00  0.00    -0.002 A 
ATOM     12  C   UNL d   1       6.834   2.409 -14.078  0.00  0.00     0.017 A 
ATOM     13  C   UNL d   1       6.255   1.173 -14.446  0.00  0.00     0.002 A 
ATOM     14  C   UNL d   1       7.027   0.171 -15.080  0.00  0.00    -0.000 A 
ENDBRANCH   4   5
ENDBRANCH   3   4
ENDBRANCH   2   3
ENDBRANCH   1   2
BRANCH   1  15
ATOM     15  N   UNL d   1       9.858   7.859  -9.534  0.00  0.00     0.141 N 
ATOM     16  C   UNL d   1      10.848   8.833  -9.071  0.00  0.00     0.274 C 
ATOM     17  C   UNL d   1      10.398   9.391  -7.721  0.00  0.00     0.137 C 
ATOM     18  N   UNL d   1      10.193   8.315  -6.779  0.00  0.00    -0.344 N 
ATOM     19  C   UNL d   1       9.301   7.252  -7.218  0.00  0.00     0.137 C 
ATOM     20  C   UNL d   1       9.760   6.743  -8.590  0.00  0.00     0.274 C 
BRANCH  18  21
ATOM     21  C   UNL d   1      10.835   8.323  -5.542  0.00  0.00     0.056 A 
ATOM     22  C   UNL d   1      11.066   9.558  -4.881  0.00  0.00     0.018 A 
ATOM     23  C   UNL d   1      11.689   9.569  -3.627  0.00  0.00     0.013 A 
ATOM     24  C   UNL d   1      12.066   8.360  -3.028  0.00  0.00     0.058 A 
ATOM     25  C   UNL d   1      11.859   7.134  -3.674  0.00  0.00     0.013 A 
ATOM     26 CL   UNL d   1      12.707   8.388  -1.458  0.00  0.00    -0.082 Cl
ATOM     27  C   UNL d   1      11.234   7.109  -4.932  0.00  0.00     0.018 A 
ENDBRANCH  18  21
ENDBRANCH   1  15
TORSDOF 6
