REMARK  8 active torsions:
REMARK  status: ('A' for Active; 'I' for Inactive)
REMARK    1  A    between atoms: O_2  and  C_3 
REMARK    2  A    between atoms: C_8  and  N_9 
REMARK    3  A    between atoms: N_12  and  C_13 
REMARK    4  A    between atoms: C_13  and  C_14 
REMARK    5  A    between atoms: C_14  and  C_15 
REMARK    6  A    between atoms: C_15  and  C_16 
REMARK    7  A    between atoms: C_16  and  N_17 
REMARK       I    between atoms: N_17  and  C_18 
REMARK    8  A    between atoms: C_18  and  C_20 
ROOT
ATOM      1  N   UNL d   1       7.271   0.591 -17.143  0.00  0.00    -0.343 N 
ATOM      2  C   UNL d   1       6.853   0.408 -15.765  0.00  0.00     0.137 C 
ATOM      3  C   UNL d   1       7.916   0.990 -14.822  0.00  0.00     0.274 C 
ATOM      4  N   UNL d   1       8.168   2.399 -15.142  0.00  0.00     0.141 N 
ATOM      5  C   UNL d   1       8.669   2.510 -16.516  0.00  0.00     0.274 C 
ATOM      6  C   UNL d   1       7.637   1.946 -17.511  0.00  0.00     0.137 C 
ENDROOT
BRANCH   4   7
ATOM      7  C   UNL d   1       9.143   2.948 -14.207  0.00  0.00     0.251 C 
BRANCH   7   8
ATOM      8  C   UNL d   1       8.941   4.467 -14.034  0.00  0.00     0.037 C 
BRANCH   8   9
ATOM      9  C   UNL d   1       9.495   4.945 -12.685  0.00  0.00     0.029 C 
BRANCH   9  10
ATOM     10  C   UNL d   1       8.873   6.267 -12.197  0.00  0.00     0.129 C 
BRANCH  10  11
ATOM     11  N   UNL d   1       9.463   6.739 -10.952  0.00  0.00    -0.234 NA
ATOM     12  C   UNL d   1       9.447   6.114  -9.763  0.00  0.00     0.275 C 
ATOM     13  O   UNL d   1       8.980   4.991  -9.580  0.00  0.00    -0.266 OA
BRANCH  12  14
ATOM     14  C   UNL d   1       9.987   6.916  -8.618  0.00  0.00     0.058 A 
ATOM     15  C   UNL d   1       9.433   6.729  -7.335  0.00  0.00     0.005 A 
ATOM     16  C   UNL d   1       9.944   7.430  -6.230  0.00  0.00     0.006 A 
ATOM     17  C   UNL d   1      11.009   8.333  -6.400  0.00  0.00     0.030 A 
ATOM     18  C   UNL d   1      11.574   8.519  -7.677  0.00  0.00     0.006 A 
ATOM     19  I   UNL d   1      11.755   9.382  -4.752  0.00  0.00    -0.043 I 
ATOM     20  C   UNL d   1      11.071   7.809  -8.784  0.00  0.00     0.005 A 
ENDBRANCH  12  14
ENDBRANCH  10  11
ENDBRANCH   9  10
ENDBRANCH   8   9
ENDBRANCH   7   8
ENDBRANCH   4   7
BRANCH   1  21
ATOM     21  C   UNL d   1       7.281  -0.470 -18.063  0.00  0.00     0.079 A 
ATOM     22  C   UNL d   1       6.188  -1.372 -18.154  0.00  0.00     0.110 A 
ATOM     23  C   UNL d   1       6.262  -2.447 -19.075  0.00  0.00     0.026 A 
ATOM     24  C   UNL d   1       7.392  -2.614 -19.895  0.00  0.00     0.002 A 
ATOM     25  C   UNL d   1       8.459  -1.704 -19.815  0.00  0.00     0.002 A 
ATOM     26  C   UNL d   1       8.407  -0.643 -18.895  0.00  0.00     0.019 A 
BRANCH  22  27
ATOM     27  O   UNL d   1       5.089  -1.141 -17.348  0.00  0.00    -0.327 OA
ATOM     28  C   UNL d   1       3.979  -2.015 -17.444  0.00  0.00     0.181 C 
ENDBRANCH  22  27
ENDBRANCH   1  21
TORSDOF 8
