REMARK  6 active torsions:
REMARK  status: ('A' for Active; 'I' for Inactive)
REMARK    1  A    between atoms: C_2  and  C_3 
REMARK    2  A    between atoms: C_3  and  N_4 
REMARK    3  A    between atoms: N_4  and  C_5 
REMARK    4  A    between atoms: N_4  and  C_8 
REMARK    5  A    between atoms: C_5  and  C_6 
REMARK    6  A    between atoms: C_14  and  C_15 
ROOT
ATOM      1  C   UNL d   1       8.429   2.564 -14.510  0.00  0.00     0.227 C 
ATOM      2  C   UNL d   1       9.955   2.392 -14.319  0.00  0.00     0.060 C 
ATOM      3  C   UNL d   1      10.394   0.972 -14.743  0.00  0.00     0.129 C 
ATOM      4  N   UNL d   1       9.782   0.564 -15.990  0.00  0.00    -0.255 N 
ATOM      5  N   UNL d   1      10.264  -0.515 -16.659  0.00  0.00    -0.168 NA
ATOM      6  C   UNL d   1       9.460  -0.621 -17.707  0.00  0.00     0.125 A 
ATOM      7  C   UNL d   1       8.461   0.376 -17.709  0.00  0.00     0.076 A 
ATOM      8  C   UNL d   1       8.691   1.127 -16.585  0.00  0.00     0.062 A 
ATOM      9  C   UNL d   1       8.021   2.325 -16.011  0.00  0.00     0.079 C 
ENDROOT
BRANCH   1  10
ATOM     10  N   UNL d   1       7.819   3.801 -13.979  0.00  0.00     0.135 N 
BRANCH  10  11
ATOM     11  C   UNL d   1       8.297   4.197 -12.642  0.00  0.00     0.250 C 
BRANCH  11  12
ATOM     12  C   UNL d   1       8.073   5.697 -12.417  0.00  0.00     0.035 C 
ATOM     13  C   UNL d   1       9.408   6.436 -12.319  0.00  0.00     0.002 C 
ENDBRANCH  11  12
ENDBRANCH  10  11
BRANCH  10  14
ATOM     14  C   UNL d   1       6.332   3.747 -13.997  0.00  0.00     0.250 C 
BRANCH  14  15
ATOM     15  C   UNL d   1       5.678   2.710 -13.045  0.00  0.00     0.035 C 
ATOM     16  C   UNL d   1       5.731   1.222 -13.507  0.00  0.00     0.002 C 
ENDBRANCH  14  15
ENDBRANCH  10  14
ENDBRANCH   1  10
BRANCH   7  17
ATOM     17  C   UNL d   1       7.401   0.574 -18.718  0.00  0.00     0.237 C 
ATOM     18  O   UNL d   1       6.667   1.549 -18.754  0.00  0.00    -0.283 OA
ENDBRANCH   7  17
TORSDOF 6
