REMARK  9 active torsions:
REMARK  status: ('A' for Active; 'I' for Inactive)
REMARK    1  A    between atoms: C_2  and  O_3 
REMARK    2  A    between atoms: O_3  and  C_4 
REMARK    3  A    between atoms: C_9  and  N_10 
REMARK    4  A    between atoms: N_13  and  C_14 
REMARK    5  A    between atoms: C_14  and  C_15 
REMARK    6  A    between atoms: C_15  and  C_16 
REMARK    7  A    between atoms: C_16  and  C_17 
REMARK    8  A    between atoms: C_17  and  C_18 
REMARK    9  A    between atoms: C_20  and  C_21 
ROOT
ATOM      1  N   UNL d   1       9.055   3.224 -15.252  0.00  0.00    -0.343 N 
ATOM      2  C   UNL d   1       9.557   4.591 -15.343  0.00  0.00     0.137 C 
ATOM      3  C   UNL d   1       9.985   5.070 -13.948  0.00  0.00     0.274 C 
ATOM      4  N   UNL d   1       8.827   5.034 -13.051  0.00  0.00     0.141 N 
ATOM      5  C   UNL d   1       8.405   3.639 -12.919  0.00  0.00     0.274 C 
ATOM      6  C   UNL d   1       7.975   3.053 -14.281  0.00  0.00     0.137 C 
ENDROOT
BRANCH   4   7
ATOM      7  C   UNL d   1       9.185   5.542 -11.729  0.00  0.00     0.250 C 
BRANCH   7   8
ATOM      8  C   UNL d   1       9.166   7.084 -11.692  0.00  0.00     0.036 C 
BRANCH   8   9
ATOM      9  C   UNL d   1       9.454   7.646 -10.287  0.00  0.00     0.009 C 
BRANCH   9  10
ATOM     10  C   UNL d   1      10.872   7.422  -9.780  0.00  0.00     0.054 C 
BRANCH  10  11
ATOM     11  C   UNL d   1      11.073   7.893  -8.386  0.00  0.00     0.104 A 
ATOM     12  O   UNL d   1      11.060   9.229  -8.182  0.00  0.00    -0.215 OA
ATOM     13  N   UNL d   1      11.289   9.475  -6.827  0.00  0.00    -0.127 NA
ATOM     14  C   UNL d   1      11.426   8.286  -6.255  0.00  0.00     0.110 A 
ATOM     15  C   UNL d   1      11.295   7.237  -7.212  0.00  0.00     0.044 A 
BRANCH  14  16
ATOM     16  C   UNL d   1      11.703   8.171  -4.817  0.00  0.00     0.020 A 
ATOM     17  C   UNL d   1      11.843   6.902  -4.213  0.00  0.00     0.002 A 
ATOM     18  C   UNL d   1      12.123   6.786  -2.838  0.00  0.00     0.000 A 
ATOM     19  C   UNL d   1      12.277   7.941  -2.054  0.00  0.00     0.000 A 
ATOM     20  C   UNL d   1      12.140   9.201  -2.644  0.00  0.00     0.000 A 
ATOM     21  C   UNL d   1      11.855   9.326  -4.013  0.00  0.00     0.002 A 
ENDBRANCH  14  16
ENDBRANCH  10  11
ENDBRANCH   9  10
ENDBRANCH   8   9
ENDBRANCH   7   8
ENDBRANCH   4   7
BRANCH   1  22
ATOM     22  C   UNL d   1       9.580   2.140 -15.974  0.00  0.00     0.079 A 
ATOM     23  C   UNL d   1      10.975   2.003 -16.233  0.00  0.00     0.109 A 
ATOM     24  C   UNL d   1      11.439   0.918 -17.020  0.00  0.00     0.026 A 
ATOM     25  C   UNL d   1      10.546  -0.035 -17.534  0.00  0.00     0.002 A 
ATOM     26  C   UNL d   1       9.174   0.080 -17.265  0.00  0.00     0.002 A 
ATOM     27  C   UNL d   1       8.698   1.163 -16.498  0.00  0.00     0.019 A 
BRANCH  23  28
ATOM     28  O   UNL d   1      11.852   2.905 -15.669  0.00  0.00    -0.329 OA
BRANCH  28  29
ATOM     29  C   UNL d   1      12.921   3.401 -16.474  0.00  0.00     0.149 C 
ATOM     30  C   UNL d   1      12.450   4.308 -17.619  0.00  0.00     0.035 C 
ENDBRANCH  28  29
ENDBRANCH  23  28
ENDBRANCH   1  22
TORSDOF 9
