REMARK  4 active torsions:
REMARK  status: ('A' for Active; 'I' for Inactive)
REMARK    1  A    between atoms: O_2  and  C_3 
REMARK    2  A    between atoms: C_6  and  N_7 
REMARK    3  A    between atoms: N_10  and  C_11 
REMARK    4  A    between atoms: C_11  and  C_12 
ROOT
ATOM      1  N   UNL d   1       9.457   6.840 -10.637  0.00  0.00    -0.344 N 
ATOM      2  C   UNL d   1       8.712   7.552 -11.669  0.00  0.00     0.137 C 
ATOM      3  C   UNL d   1       7.520   6.657 -12.106  0.00  0.00     0.275 C 
ATOM      4  N   UNL d   1       8.011   5.356 -12.588  0.00  0.00     0.147 N 
ATOM      5  C   UNL d   1       8.656   4.674 -11.458  0.00  0.00     0.275 C 
ATOM      6  C   UNL d   1       9.832   5.499 -10.949  0.00  0.00     0.137 C 
ENDROOT
BRANCH   4   7
ATOM      7  C   UNL d   1       6.923   4.529 -13.070  0.00  0.00     0.295 C 
BRANCH   7   8
ATOM      8  C   UNL d   1       7.385   3.378 -13.926  0.00  0.00     0.091 A 
ATOM      9  N   UNL d   1       6.693   2.176 -14.033  0.00  0.00    -0.275 N 
ATOM     10  C   UNL d   1       7.401   1.383 -14.966  0.00  0.00     0.150 A 
ATOM     11  C   UNL d   1       5.558   1.706 -13.422  0.00  0.00     0.183 A 
ATOM     12  N   UNL d   1       8.481   2.025 -15.404  0.00  0.00    -0.231 NA
ATOM     13  C   UNL d   1       6.858   0.114 -15.255  0.00  0.00     0.052 A 
ATOM     14  C   UNL d   1       8.480   3.244 -14.748  0.00  0.00     0.075 A 
ATOM     15  C   UNL d   1       9.550   4.253 -15.040  0.00  0.00     0.053 C 
ATOM     16  C   UNL d   1       5.712  -0.255 -14.598  0.00  0.00     0.064 A 
ATOM     17  C   UNL d   1       5.072  -1.593 -14.890  0.00  0.00     0.052 C 
ATOM     18  N   UNL d   1       5.076   0.523 -13.662  0.00  0.00    -0.230 NA
ENDBRANCH   7   8
ENDBRANCH   4   7
BRANCH   1  19
ATOM     19  C   UNL d   1       9.714   7.379  -9.377  0.00  0.00     0.056 A 
ATOM     20  C   UNL d   1      10.497   8.542  -9.283  0.00  0.00     0.019 A 
ATOM     21  C   UNL d   1      10.788   9.097  -8.037  0.00  0.00     0.026 A 
ATOM     22  C   UNL d   1      10.291   8.529  -6.832  0.00  0.00     0.094 A 
ATOM     23  C   UNL d   1       9.497   7.365  -6.937  0.00  0.00     0.026 A 
ATOM     24  C   UNL d   1       9.225   6.786  -8.191  0.00  0.00     0.019 A 
BRANCH  22  25
ATOM     25  O   UNL d   1      10.530   9.032  -5.577  0.00  0.00    -0.328 OA
ATOM     26  C   UNL d   1      11.294  10.226  -5.461  0.00  0.00     0.181 C 
ENDBRANCH  22  25
ENDBRANCH   1  19
TORSDOF 4
