REMARK  7 active torsions:
REMARK  status: ('A' for Active; 'I' for Inactive)
REMARK    1  A    between atoms: C_8  and  O_9 
REMARK    2  A    between atoms: O_9  and  C_10 
REMARK    3  A    between atoms: C_10  and  C_11 
REMARK    4  A    between atoms: C_11  and  C_12 
REMARK    5  A    between atoms: C_12  and  C_13 
REMARK    6  A    between atoms: C_13  and  N_14 
REMARK    7  A    between atoms: N_17  and  C_18 
ROOT
ATOM      1  C   UNL d   1       9.058   6.128 -11.334  0.00  0.00     0.251 C 
ENDROOT
BRANCH   1   2
ATOM      2  C   UNL d   1       9.472   7.621 -11.443  0.00  0.00     0.038 C 
BRANCH   2   3
ATOM      3  C   UNL d   1      10.395   8.070 -10.290  0.00  0.00     0.035 C 
BRANCH   3   4
ATOM      4  C   UNL d   1       9.640   8.819  -9.179  0.00  0.00     0.149 C 
BRANCH   4   5
ATOM      5  O   UNL d   1      10.509   9.465  -8.259  0.00  0.00    -0.331 OA
BRANCH   5   6
ATOM      6  C   UNL d   1      10.881   8.772  -7.148  0.00  0.00     0.096 A 
ATOM      7  C   UNL d   1      11.037   7.367  -7.197  0.00  0.00     0.024 A 
ATOM      8  C   UNL d   1      11.426   6.675  -6.047  0.00  0.00     0.004 A 
ATOM      9  C   UNL d   1      11.629   7.371  -4.854  0.00  0.00     0.018 A 
ATOM     10  C   UNL d   1      12.030   6.667  -3.647  0.00  0.00     0.006 A 
ATOM     11  C   UNL d   1      11.492   8.769  -4.799  0.00  0.00     0.087 A 
ATOM     12  C   UNL d   1      12.263   7.327  -2.502  0.00  0.00     0.063 A 
ATOM     13  C   UNL d   1      12.134   8.784  -2.426  0.00  0.00     0.279 A 
ATOM     14  O   UNL d   1      12.287   9.396  -1.377  0.00  0.00    -0.265 OA
ATOM     15  N   UNL d   1      11.754   9.421  -3.560  0.00  0.00    -0.208 NA
ATOM     16  C   UNL d   1      11.125   9.483  -5.950  0.00  0.00     0.043 A 
ENDBRANCH   5   6
ENDBRANCH   4   5
ENDBRANCH   3   4
ENDBRANCH   2   3
ENDBRANCH   1   2
BRANCH   1  17
ATOM     17  N   UNL d   1       8.664   5.547 -12.618  0.00  0.00     0.141 N 
ATOM     18  C   UNL d   1       8.129   4.198 -12.407  0.00  0.00     0.274 C 
ATOM     19  C   UNL d   1       7.678   3.574 -13.751  0.00  0.00     0.137 C 
ATOM     20  N   UNL d   1       8.775   3.594 -14.707  0.00  0.00    -0.344 N 
ATOM     21  C   UNL d   1       9.426   4.877 -14.862  0.00  0.00     0.137 C 
ATOM     22  C   UNL d   1       9.834   5.412 -13.488  0.00  0.00     0.274 C 
BRANCH  20  23
ATOM     23  C   UNL d   1       9.190   2.458 -15.427  0.00  0.00     0.057 A 
ATOM     24  C   UNL d   1       9.509   2.538 -16.810  0.00  0.00     0.022 A 
ATOM     25  C   UNL d   1       9.938   1.333 -17.458  0.00  0.00     0.031 A 
ATOM     26  C   UNL d   1       9.458   3.649 -17.749  0.00  0.00     0.009 A 
ATOM     27  C   UNL d   1      10.038   0.116 -16.762  0.00  0.00     0.007 A 
ATOM     28  S   UNL d   1      10.288   1.609 -19.158  0.00  0.00    -0.086 SA
ATOM     29  C   UNL d   1       9.719   0.074 -15.398  0.00  0.00     0.002 A 
ATOM     30  C   UNL d   1       9.291   1.234 -14.737  0.00  0.00     0.017 A 
ATOM     31  C   UNL d   1       9.859   3.284 -19.006  0.00  0.00     0.035 A 
ENDBRANCH  20  23
ENDBRANCH   1  17
TORSDOF 7
