REMARK  2 active torsions:
REMARK  status: ('A' for Active; 'I' for Inactive)
REMARK    1  A    between atoms: C_8  and  C_9 
REMARK    2  A    between atoms: C_9  and  C_10 
ROOT
ATOM      1  C   UNL d   1       6.016  -1.054 -14.474  0.00  0.00     0.286 C 
ATOM      2  N   UNL d   1       6.118   0.198 -13.749  0.00  0.00     0.142 N 
ATOM      3  C   UNL d   1       4.808   0.794 -13.820  0.00  0.00     0.255 C 
ATOM      4  C   UNL d   1       4.836   1.956 -12.834  0.00  0.00     0.061 C 
ATOM      5  C   UNL d   1       5.869   3.004 -13.123  0.00  0.00    -0.022 C 
ATOM      6  C   UNL d   1       5.909   4.223 -12.445  0.00  0.00    -0.005 C 
ATOM      7  C   UNL d   1       7.075   4.979 -12.495  0.00  0.00    -0.004 C 
ATOM      8  C   UNL d   1       8.210   4.536 -13.227  0.00  0.00    -0.018 C 
ATOM      9  C   UNL d   1       8.162   3.365 -14.049  0.00  0.00    -0.004 C 
ATOM     10  C   UNL d   1       7.000   2.577 -13.863  0.00  0.00     0.005 C 
ATOM     11  C   UNL d   1       7.047   1.129 -14.413  0.00  0.00     0.246 C 
ATOM     12  C   UNL d   1       8.480   0.550 -14.313  0.00  0.00     0.064 C 
ATOM     13  C   UNL d   1       9.496   1.468 -14.967  0.00  0.00    -0.018 C 
ATOM     14  C   UNL d   1      10.541   0.917 -15.741  0.00  0.00    -0.002 C 
ATOM     15  C   UNL d   1      11.346   1.749 -16.535  0.00  0.00     0.029 C 
ATOM     16  C   UNL d   1      11.064   3.126 -16.593  0.00  0.00     0.156 C 
ATOM     17  O   UNL d   1      11.780   3.934 -17.428  0.00  0.00    -0.188 OA
ATOM     18  C   UNL d   1      10.006   3.669 -15.827  0.00  0.00     0.156 C 
ATOM     19  O   UNL d   1       9.653   4.969 -16.038  0.00  0.00    -0.188 OA
ATOM     20  C   UNL d   1       9.264   2.862 -14.924  0.00  0.00     0.023 C 
ENDROOT
BRANCH   8  21
ATOM     21  C   UNL d   1       9.512   5.303 -13.012  0.00  0.00     0.053 C 
BRANCH  21  22
ATOM     22  C   UNL d   1       9.543   6.148 -11.742  0.00  0.00    -0.018 A 
ATOM     23  C   UNL d   1       9.444   7.561 -11.815  0.00  0.00    -0.002 A 
ATOM     24  C   UNL d   1       9.553   8.332 -10.646  0.00  0.00     0.027 A 
ATOM     25  C   UNL d   1       9.759   7.711  -9.396  0.00  0.00     0.131 A 
ATOM     26  C   UNL d   1       9.836   6.311  -9.313  0.00  0.00     0.027 A 
ATOM     27  O   UNL d   1       9.779   8.463  -8.258  0.00  0.00    -0.190 OA
ATOM     28  C   UNL d   1       9.716   5.539 -10.488  0.00  0.00    -0.002 A 
ENDBRANCH  21  22
ENDBRANCH   8  21
TORSDOF 2
