REMARK  10 active torsions:
REMARK  status: ('A' for Active; 'I' for Inactive)
REMARK    1  A    between atoms: O_2  and  C_3 
REMARK    2  A    between atoms: C_8  and  O_9 
REMARK    3  A    between atoms: N_12  and  C_13 
REMARK    4  A    between atoms: C_13  and  C_14 
REMARK    5  A    between atoms: C_14  and  C_15 
REMARK    6  A    between atoms: C_15  and  C_16 
REMARK    7  A    between atoms: C_16  and  N_17 
REMARK       I    between atoms: N_17  and  C_18 
REMARK    8  A    between atoms: C_18  and  C_20 
REMARK    9  A    between atoms: C_25  and  O_26 
REMARK   10  A    between atoms: C_28  and  O_29 
ROOT
ATOM      1  C   UNL d   1       8.994   6.511 -11.355  0.00  0.00     0.037 C 
ENDROOT
BRANCH   1   2
ATOM      2  C   UNL d   1       9.658   7.710 -10.646  0.00  0.00     0.251 C 
BRANCH   2   3
ATOM      3  N   UNL d   1       9.806   7.407  -9.236  0.00  0.00     0.142 N 
ATOM      4  C   UNL d   1      10.282   8.576  -8.511  0.00  0.00     0.277 C 
ATOM      5  C   UNL d   1      10.676   8.271  -7.080  0.00  0.00     0.009 A 
ATOM      6  C   UNL d   1      10.990   6.961  -6.693  0.00  0.00    -0.020 A 
ATOM      7  C   UNL d   1      10.771   9.284  -6.105  0.00  0.00     0.024 A 
ATOM      8  C   UNL d   1      11.394   6.621  -5.405  0.00  0.00     0.022 A 
ATOM      9  C   UNL d   1      10.814   5.875  -7.683  0.00  0.00     0.061 C 
ATOM     10  C   UNL d   1      11.463   7.634  -4.413  0.00  0.00     0.116 A 
ATOM     11  C   UNL d   1      11.157   8.955  -4.794  0.00  0.00     0.116 A 
ATOM     12  C   UNL d   1      10.836   6.395  -9.109  0.00  0.00     0.255 C 
BRANCH  10  13
ATOM     13  O   UNL d   1      11.631   7.333  -3.098  0.00  0.00    -0.326 OA
ATOM     14  C   UNL d   1      12.767   6.565  -2.797  0.00  0.00     0.181 C 
ENDBRANCH  10  13
BRANCH  11  15
ATOM     15  O   UNL d   1      11.120   9.955  -3.858  0.00  0.00    -0.326 OA
ATOM     16  C   UNL d   1      12.229  10.045  -2.990  0.00  0.00     0.181 C 
ENDBRANCH  11  15
ENDBRANCH   2   3
ENDBRANCH   1   2
BRANCH   1  17
ATOM     17  C   UNL d   1       8.921   6.811 -12.821  0.00  0.00     0.029 C 
BRANCH  17  18
ATOM     18  C   UNL d   1       8.221   5.717 -13.662  0.00  0.00     0.129 C 
BRANCH  18  19
ATOM     19  N   UNL d   1       8.852   4.409 -13.561  0.00  0.00    -0.234 NA
ATOM     20  C   UNL d   1       9.934   3.952 -14.209  0.00  0.00     0.277 C 
ATOM     21  O   UNL d   1      10.484   2.921 -13.822  0.00  0.00    -0.266 OA
BRANCH  20  22
ATOM     22  C   UNL d   1      10.486   4.780 -15.367  0.00  0.00     0.082 A 
ATOM     23  C   UNL d   1      11.764   5.365 -15.302  0.00  0.00     0.121 A 
ATOM     24  C   UNL d   1      12.309   6.149 -16.373  0.00  0.00     0.117 A 
ATOM     25  C   UNL d   1      11.515   6.347 -17.524  0.00  0.00     0.033 A 
ATOM     26  C   UNL d   1      10.238   5.785 -17.593  0.00  0.00     0.037 A 
ATOM     27  C   UNL d   1       9.735   4.967 -16.544  0.00  0.00     0.014 A 
ATOM     28 BR   UNL d   1       9.091   6.244 -19.034  0.00  0.00    -0.049 Br
BRANCH  23  29
ATOM     29  O   UNL d   1      12.525   5.173 -14.192  0.00  0.00    -0.326 OA
ATOM     30  C   UNL d   1      13.416   4.116 -14.416  0.00  0.00     0.181 C 
ENDBRANCH  23  29
BRANCH  24  31
ATOM     31  O   UNL d   1      13.566   6.693 -16.233  0.00  0.00    -0.326 OA
ATOM     32  C   UNL d   1      14.129   7.343 -17.369  0.00  0.00     0.181 C 
ENDBRANCH  24  31
ENDBRANCH  20  22
ENDBRANCH  18  19
ENDBRANCH  17  18
ENDBRANCH   1  17
TORSDOF 10
