REMARK  5 active torsions:
REMARK  status: ('A' for Active; 'I' for Inactive)
REMARK       I    between atoms: C_2  and  N_4 
REMARK    1  A    between atoms: N_4  and  C_5 
REMARK    2  A    between atoms: C_8  and  O_9 
REMARK    3  A    between atoms: O_9  and  C_10 
REMARK    4  A    between atoms: C_10  and  C_11 
REMARK    5  A    between atoms: N_16  and  C_17 
ROOT
ATOM      1  C   UNL d   1       8.758   6.264 -10.674  0.00  0.00     0.064 C 
ATOM      2  C   UNL d   1       7.494   5.431 -10.857  0.00  0.00     0.007 C 
ATOM      3  C   UNL d   1       7.274   5.130 -12.328  0.00  0.00     0.035 C 
ATOM      4  C   UNL d   1       8.501   4.405 -12.920  0.00  0.00     0.242 C 
ATOM      5  C   UNL d   1       8.248   4.127 -14.403  0.00  0.00     0.153 C 
ATOM      6  N   UNL d   1       9.392   3.476 -15.036  0.00  0.00    -0.179 N 
ATOM      7  C   UNL d   1      10.606   4.266 -14.879  0.00  0.00     0.155 C 
ATOM      8  C   UNL d   1      10.816   4.566 -13.385  0.00  0.00     0.275 C 
ATOM      9  N   UNL d   1       9.673   5.272 -12.799  0.00  0.00     0.139 N 
ATOM     10  C   UNL d   1       9.887   5.552 -11.383  0.00  0.00     0.253 C 
ENDROOT
BRANCH   1  11
ATOM     11  C   UNL d   1       9.079   6.480  -9.181  0.00  0.00     0.151 C 
BRANCH  11  12
ATOM     12  O   UNL d   1      10.005   7.558  -9.017  0.00  0.00    -0.331 OA
BRANCH  12  13
ATOM     13  C   UNL d   1      10.398   7.887  -7.738  0.00  0.00     0.094 A 
ATOM     14  C   UNL d   1      10.272   7.019  -6.631  0.00  0.00     0.026 A 
ATOM     15  C   UNL d   1      10.741   7.404  -5.372  0.00  0.00     0.021 A 
ATOM     16  C   UNL d   1      11.322   8.672  -5.168  0.00  0.00     0.085 A 
ATOM     17  C   UNL d   1      11.431   9.563  -6.261  0.00  0.00     0.021 A 
ATOM     18  C   UNL d   1      10.984   9.155  -7.538  0.00  0.00     0.026 A 
BRANCH  16  19
ATOM     19  N   UNL d   1      11.729   9.108  -3.877  0.00  0.00    -0.212 NA
ATOM     20  C   UNL d   1      12.287   8.320  -2.934  0.00  0.00     0.256 C 
ATOM     21  C   UNL d   1      12.498   8.924  -1.561  0.00  0.00     0.100 C 
ATOM     22  O   UNL d   1      12.650   7.161  -3.126  0.00  0.00    -0.270 OA
ENDBRANCH  16  19
ENDBRANCH  12  13
ENDBRANCH  11  12
ENDBRANCH   1  11
BRANCH   6  23
ATOM     23  C   UNL d   1       9.346   2.216 -15.667  0.00  0.00     0.727 A 
ATOM     24  N   UNL d   1       8.148   1.639 -15.805  0.00  0.00    -0.060 NA
ATOM     25  C   UNL d   1       8.102   0.443 -16.419  0.00  0.00     0.120 A 
ATOM     26  C   UNL d   1       9.262  -0.182 -16.915  0.00  0.00     0.043 A 
ATOM     27  C   UNL d   1      10.466   0.517 -16.719  0.00  0.00     0.120 A 
ATOM     28  N   UNL d   1      10.503   1.707 -16.100  0.00  0.00    -0.060 NA
ENDBRANCH   6  23
TORSDOF 5
