REMARK  7 active torsions:
REMARK  status: ('A' for Active; 'I' for Inactive)
REMARK    1  A    between atoms: C_2  and  C_3 
REMARK       I    between atoms: C_2  and  N_10 
REMARK    2  A    between atoms: C_3  and  C_4 
REMARK    3  A    between atoms: N_10  and  C_11 
REMARK    4  A    between atoms: C_14  and  C_15 
REMARK    5  A    between atoms: C_15  and  C_16 
REMARK    6  A    between atoms: C_16  and  N_17 
REMARK    7  A    between atoms: C_20  and  C_21 
ROOT
ATOM      1  C   UNL d   1       8.318   4.504 -10.914  0.00  0.00     0.035 C 
ENDROOT
BRANCH   1   2
ATOM      2  C   UNL d   1       8.558   5.843 -10.241  0.00  0.00     0.002 C 
ATOM      3  C   UNL d   1       8.893   5.621  -8.758  0.00  0.00     0.002 C 
ATOM      4  C   UNL d   1       9.127   6.962  -8.087  0.00  0.00     0.024 C 
ATOM      5  C   UNL d   1      10.263   7.769  -8.771  0.00  0.00     0.106 C 
ATOM      6  C   UNL d   1       9.953   7.992 -10.248  0.00  0.00     0.024 C 
ATOM      7  C   UNL d   1       9.659   6.696 -10.900  0.00  0.00     0.002 C 
BRANCH   5   8
ATOM      8  N   UNL d   1      10.434   9.080  -8.192  0.00  0.00    -0.240 NA
ATOM      9  C   UNL d   1      10.857   9.321  -6.941  0.00  0.00     0.251 C 
ATOM     10  O   UNL d   1      11.249  10.425  -6.613  0.00  0.00    -0.271 OA
BRANCH   9  11
ATOM     11  C   UNL d   1      10.762   8.158  -5.949  0.00  0.00     0.090 C 
BRANCH  11  12
ATOM     12  C   UNL d   1      11.680   8.218  -4.762  0.00  0.00     0.014 C 
ATOM     13  C   UNL d   1      11.335   9.343  -3.785  0.00  0.00     0.033 C 
ATOM     14  C   UNL d   1      12.297   9.305  -2.613  0.00  0.00     0.142 C 
ATOM     15  O   UNL d   1      12.267   8.031  -1.977  0.00  0.00    -0.354 OA
ATOM     16  C   UNL d   1      12.677   6.973  -2.833  0.00  0.00     0.142 C 
ATOM     17  C   UNL d   1      11.740   6.863  -4.031  0.00  0.00     0.033 C 
ENDBRANCH  11  12
ENDBRANCH   9  11
ENDBRANCH   5   8
ENDBRANCH   1   2
BRANCH   1  18
ATOM     18  C   UNL d   1       7.638   4.554 -12.326  0.00  0.00     0.250 C 
BRANCH  18  19
ATOM     19  N   UNL d   1       8.523   4.336 -13.470  0.00  0.00     0.137 N 
ATOM     20  C   UNL d   1       9.456   5.423 -13.544  0.00  0.00     0.251 C 
ATOM     21  C   UNL d   1      10.406   5.422 -14.700  0.00  0.00     0.040 C 
ATOM     22  C   UNL d   1      11.254   4.132 -14.635  0.00  0.00     0.026 C 
ATOM     23  C   UNL d   1      10.267   2.949 -14.489  0.00  0.00     0.040 C 
ATOM     24  C   UNL d   1       9.320   3.112 -13.311  0.00  0.00     0.251 C 
BRANCH  22  25
ATOM     25  C   UNL d   1      12.136   4.018 -15.871  0.00  0.00    -0.020 A 
ATOM     26  C   UNL d   1      12.873   5.154 -16.332  0.00  0.00     0.023 A 
ATOM     27  C   UNL d   1      13.609   4.969 -17.546  0.00  0.00     0.127 A 
ATOM     28  C   UNL d   1      13.120   6.528 -15.947  0.00  0.00     0.029 A 
ATOM     29  C   UNL d   1      13.630   3.759 -18.245  0.00  0.00     0.163 A 
ATOM     30  O   UNL d   1      14.260   6.136 -17.877  0.00  0.00    -0.303 OA
ATOM     31  C   UNL d   1      12.898   2.669 -17.778  0.00  0.00     0.031 A 
ATOM     32  F   UNL d   1      14.372   3.630 -19.376  0.00  0.00    -0.202 F 
ATOM     33  C   UNL d   1      12.157   2.800 -16.590  0.00  0.00    -0.002 A 
ATOM     34  C   UNL d   1      13.936   7.056 -16.913  0.00  0.00     0.123 A 
ENDBRANCH  22  25
ENDBRANCH  18  19
ENDBRANCH   1  18
TORSDOF 7
