REMARK  3 active torsions:
REMARK  status: ('A' for Active; 'I' for Inactive)
REMARK    1  A    between atoms: C_8  and  C_9 
REMARK    2  A    between atoms: C_9  and  N_10 
REMARK    3  A    between atoms: N_13  and  C_14 
ROOT
ATOM      1  N   UNL d   1       7.093   0.887 -15.534  0.00  0.00    -0.191 NA
ATOM      2  C   UNL d   1       7.135   1.829 -14.871  0.00  0.00     0.101 C 
ATOM      3  C   UNL d   1       7.192   3.015 -14.032  0.00  0.00     0.068 A 
ATOM      4  C   UNL d   1       6.011   3.559 -13.474  0.00  0.00     0.012 A 
ATOM      5  C   UNL d   1       6.072   4.707 -12.648  0.00  0.00     0.020 A 
ATOM      6  C   UNL d   1       7.323   5.297 -12.384  0.00  0.00     0.081 A 
ATOM      7  N   UNL d   1       7.698   6.385 -11.635  0.00  0.00    -0.248 NA
ATOM      8  C   UNL d   1       9.073   6.560 -11.666  0.00  0.00     0.092 A 
ATOM      9  C   UNL d   1       9.609   5.552 -12.426  0.00  0.00     0.018 A 
ATOM     10  C   UNL d   1       8.529   4.755 -12.916  0.00  0.00     0.019 A 
ATOM     11  C   UNL d   1       8.440   3.615 -13.746  0.00  0.00     0.012 A 
ENDROOT
BRANCH   8  12
ATOM     12  C   UNL d   1       9.758   7.675 -10.928  0.00  0.00     0.296 C 
BRANCH  12  13
ATOM     13  N   UNL d   1      10.559   7.241  -9.783  0.00  0.00     0.147 N 
ATOM     14  C   UNL d   1      11.338   8.390  -9.297  0.00  0.00     0.275 C 
ATOM     15  C   UNL d   1      12.239   7.973  -8.112  0.00  0.00     0.137 C 
ATOM     16  N   UNL d   1      11.409   7.387  -7.069  0.00  0.00    -0.344 N 
ATOM     17  C   UNL d   1      10.508   6.324  -7.505  0.00  0.00     0.137 C 
ATOM     18  C   UNL d   1       9.668   6.785  -8.709  0.00  0.00     0.275 C 
BRANCH  16  19
ATOM     19  C   UNL d   1      11.461   7.796  -5.713  0.00  0.00     0.067 A 
ATOM     20  C   UNL d   1      11.466   9.157  -5.311  0.00  0.00     0.073 A 
ATOM     21  C   UNL d   1      11.534   9.518  -3.953  0.00  0.00     0.013 A 
ATOM     22 CL   UNL d   1      11.368  10.484  -6.407  0.00  0.00    -0.081 Cl
ATOM     23  C   UNL d   1      11.653   8.544  -2.963  0.00  0.00     0.001 A 
ATOM     24  C   UNL d   1      11.637   7.188  -3.342  0.00  0.00     0.002 A 
ATOM     25  C   UNL d   1      11.519   6.813  -4.695  0.00  0.00     0.018 A 
ENDBRANCH  16  19
ENDBRANCH  12  13
ENDBRANCH   8  12
TORSDOF 3
