REMARK  7 active torsions:
REMARK  status: ('A' for Active; 'I' for Inactive)
REMARK    1  A    between atoms: C_3  and  S_4 
REMARK    2  A    between atoms: S_4  and  C_5 
REMARK    3  A    between atoms: C_5  and  C_6 
REMARK    4  A    between atoms: C_6  and  C_7 
REMARK    5  A    between atoms: C_7  and  N_8 
REMARK    6  A    between atoms: N_13  and  C_14 
REMARK    7  A    between atoms: C_25  and  C_26 
ROOT
ATOM      1  C   UNL d   1       8.864   4.298 -12.972  0.00  0.00     0.251 C 
ENDROOT
BRANCH   1   2
ATOM      2  C   UNL d   1       8.828   5.836 -12.949  0.00  0.00     0.047 C 
BRANCH   2   3
ATOM      3  C   UNL d   1       8.106   6.413 -11.730  0.00  0.00     0.067 C 
BRANCH   3   4
ATOM      4  S   UNL d   1       8.476   5.471 -10.216  0.00  0.00    -0.075 SA
BRANCH   4   5
ATOM      5  C   UNL d   1       9.588   6.574  -9.425  0.00  0.00     0.193 A 
ATOM      6  N   UNL d   1       9.481   6.894  -8.123  0.00  0.00    -0.287 N 
ATOM      7  C   UNL d   1       8.463   6.500  -7.157  0.00  0.00     0.134 C 
ATOM      8  C   UNL d   1      10.524   7.727  -7.960  0.00  0.00     0.186 A 
ATOM      9  N   UNL d   1      11.251   7.895  -9.070  0.00  0.00    -0.127 NA
ATOM     10  N   UNL d   1      10.635   7.137 -10.031  0.00  0.00    -0.122 NA
BRANCH   8  11
ATOM     11  C   UNL d   1      10.879   8.381  -6.721  0.00  0.00     0.136 A 
ATOM     12  N   UNL d   1      11.073   9.715  -6.775  0.00  0.00    -0.238 NA
ATOM     13  C   UNL d   1      11.450  10.316  -5.633  0.00  0.00     0.120 A 
ATOM     14  C   UNL d   1      11.633   9.585  -4.436  0.00  0.00     0.120 A 
ATOM     15  N   UNL d   1      11.462   8.248  -4.374  0.00  0.00    -0.239 NA
ATOM     16  C   UNL d   1      11.069   7.649  -5.521  0.00  0.00     0.121 A 
ENDBRANCH   8  11
ENDBRANCH   4   5
ENDBRANCH   3   4
ENDBRANCH   2   3
ENDBRANCH   1   2
BRANCH   1  17
ATOM     17  N   UNL d   1       9.358   3.769 -14.234  0.00  0.00     0.139 N 
ATOM     18  C   UNL d   1      10.720   4.193 -14.537  0.00  0.00     0.272 C 
ATOM     19  C   UNL d   1      11.239   3.140 -15.520  0.00  0.00     0.117 C 
ATOM     20  C   UNL d   1      10.320   1.937 -15.345  0.00  0.00     0.058 C 
ATOM     21  N   UNL d   1      11.140   3.566 -16.916  0.00  0.00    -0.348 N 
ATOM     22  C   UNL d   1       9.414   2.313 -14.177  0.00  0.00     0.252 C 
ATOM     23  C   UNL d   1       9.610   1.771 -16.690  0.00  0.00     0.028 C 
ATOM     24  C   UNL d   1      10.555   2.466 -17.667  0.00  0.00     0.102 C 
BRANCH  21  25
ATOM     25  C   UNL d   1      12.220   4.271 -17.487  0.00  0.00     0.058 A 
ATOM     26  C   UNL d   1      13.186   4.924 -16.678  0.00  0.00     0.046 A 
ATOM     27  C   UNL d   1      14.292   5.576 -17.251  0.00  0.00     0.142 A 
ATOM     28  C   UNL d   1      14.450   5.606 -18.649  0.00  0.00     0.030 A 
ATOM     29  F   UNL d   1      15.217   6.159 -16.449  0.00  0.00    -0.204 F 
ATOM     30  C   UNL d   1      13.488   4.988 -19.470  0.00  0.00     0.004 A 
ATOM     31  C   UNL d   1      12.382   4.331 -18.897  0.00  0.00     0.017 A 
ENDBRANCH  21  25
ENDBRANCH   1  17
TORSDOF 7
