REMARK  2 active torsions:
REMARK  status: ('A' for Active; 'I' for Inactive)
REMARK    1  A    between atoms: C_2  and  C_3 
REMARK    2  A    between atoms: C_3  and  N_4 
ROOT
ATOM      1  N   UNL d   1      10.043   6.402 -10.140  0.00  0.00     0.135 N 
ATOM      2  C   UNL d   1       9.742   5.064  -9.640  0.00  0.00     0.251 C 
ATOM      3  C   UNL d   1       9.992   5.241  -8.165  0.00  0.00     0.042 C 
ATOM      4  C   UNL d   1       9.474   6.623  -7.833  0.00  0.00     0.055 C 
ATOM      5  C   UNL d   1      10.334   7.325  -6.798  0.00  0.00    -0.022 A 
ATOM      6  C   UNL d   1      10.353   6.807  -5.501  0.00  0.00    -0.004 A 
ATOM      7  C   UNL d   1      11.154   7.415  -4.516  0.00  0.00     0.002 A 
ATOM      8  C   UNL d   1      11.880   8.572  -4.831  0.00  0.00     0.027 A 
ATOM      9  C   UNL d   1      11.853   9.088  -6.141  0.00  0.00     0.127 A 
ATOM     10  O   UNL d   1      12.618  10.177  -6.426  0.00  0.00    -0.191 OA
ATOM     11  C   UNL d   1      11.108   8.460  -7.139  0.00  0.00    -0.001 A 
ATOM     12  C   UNL d   1      11.108   8.965  -8.572  0.00  0.00     0.030 C 
ATOM     13  C   UNL d   1       9.765   8.745  -9.256  0.00  0.00     0.038 C 
ATOM     14  C   UNL d   1       9.343   7.284  -9.199  0.00  0.00     0.224 C 
ENDROOT
BRANCH   1  15
ATOM     15  C   UNL d   1       9.645   6.587 -11.537  0.00  0.00     0.250 C 
BRANCH  15  16
ATOM     16  C   UNL d   1       8.168   6.253 -11.875  0.00  0.00     0.035 C 
ATOM     17  C   UNL d   1       8.059   4.877 -12.586  0.00  0.00     0.002 C 
ENDBRANCH  15  16
ENDBRANCH   1  15
TORSDOF 2
