REMARK  8 active torsions:
REMARK  status: ('A' for Active; 'I' for Inactive)
REMARK    1  A    between atoms: C_6  and  S_7 
REMARK    2  A    between atoms: S_7  and  N_10 
REMARK    3  A    between atoms: N_10  and  C_11 
REMARK    4  A    between atoms: C_11  and  C_12 
REMARK    5  A    between atoms: C_12  and  C_13 
REMARK    6  A    between atoms: C_13  and  C_14 
REMARK    7  A    between atoms: C_14  and  N_15 
REMARK    8  A    between atoms: C_18  and  C_19 
ROOT
ATOM      1  N   UNL d   1       8.627   5.818  -9.884  0.00  0.00     0.137 N 
ATOM      2  C   UNL d   1      10.013   6.219 -10.101  0.00  0.00     0.251 C 
ATOM      3  C   UNL d   1      10.427   7.328  -9.149  0.00  0.00     0.041 C 
ATOM      4  C   UNL d   1      10.263   6.884  -7.685  0.00  0.00     0.047 C 
ATOM      5  C   UNL d   1       8.839   6.366  -7.477  0.00  0.00     0.041 C 
ATOM      6  C   UNL d   1       8.507   5.279  -8.522  0.00  0.00     0.251 C 
ENDROOT
BRANCH   1   7
ATOM      7  C   UNL d   1       8.231   4.817 -10.870  0.00  0.00     0.250 C 
BRANCH   7   8
ATOM      8  C   UNL d   1       8.064   5.389 -12.297  0.00  0.00     0.037 C 
BRANCH   8   9
ATOM      9  C   UNL d   1       7.889   4.264 -13.324  0.00  0.00     0.029 C 
BRANCH   9  10
ATOM     10  C   UNL d   1       6.418   3.862 -13.548  0.00  0.00     0.139 C 
BRANCH  10  11
ATOM     11  N   UNL d   1       6.253   2.413 -13.633  0.00  0.00    -0.185 NA
BRANCH  11  12
ATOM     12  S   UNL d   1       7.115   1.445 -14.777  0.00  0.00     0.281 S 
ATOM     13  O   UNL d   1       8.106   0.643 -14.048  0.00  0.00    -0.199 OA
ATOM     14  O   UNL d   1       7.523   2.282 -15.908  0.00  0.00    -0.199 OA
BRANCH  12  15
ATOM     15  C   UNL d   1       5.863   0.328 -15.327  0.00  0.00     0.105 A 
ATOM     16  C   UNL d   1       5.011  -0.278 -14.385  0.00  0.00     0.013 A 
ATOM     17  C   UNL d   1       3.989  -1.128 -14.840  0.00  0.00     0.000 A 
ATOM     18  C   UNL d   1       3.837  -1.365 -16.223  0.00  0.00    -0.004 A 
ATOM     19  C   UNL d   1       4.697  -0.754 -17.159  0.00  0.00    -0.021 A 
ATOM     20  C   UNL d   1       4.511  -0.978 -18.642  0.00  0.00     0.031 C 
ATOM     21  C   UNL d   1       5.715   0.104 -16.706  0.00  0.00     0.009 A 
ENDBRANCH  12  15
ENDBRANCH  11  12
ENDBRANCH  10  11
ENDBRANCH   9  10
ENDBRANCH   8   9
ENDBRANCH   7   8
ENDBRANCH   1   7
BRANCH   4  22
ATOM     22  C   UNL d   1      10.587   7.993  -6.720  0.00  0.00     0.087 A 
ATOM     23  C   UNL d   1      11.143   7.967  -5.424  0.00  0.00     0.041 A 
ATOM     24  C   UNL d   1      11.213   9.271  -4.918  0.00  0.00     0.129 A 
ATOM     25  C   UNL d   1      11.581   6.893  -4.622  0.00  0.00     0.006 A 
ATOM     26  O   UNL d   1      10.666  10.065  -5.908  0.00  0.00    -0.211 OA
ATOM     27  C   UNL d   1      11.707   9.576  -3.649  0.00  0.00     0.057 A 
ATOM     28  N   UNL d   1      10.264   9.254  -7.004  0.00  0.00    -0.131 NA
ATOM     29  C   UNL d   1      12.169   8.507  -2.858  0.00  0.00     0.142 A 
ATOM     30  F   UNL d   1      12.667   8.755  -1.626  0.00  0.00    -0.204 F 
ATOM     31  C   UNL d   1      12.100   7.173  -3.339  0.00  0.00     0.030 A 
ENDBRANCH   4  22
TORSDOF 8
