REMARK  5 active torsions:
REMARK  status: ('A' for Active; 'I' for Inactive)
REMARK    1  A    between atoms: S_2  and  C_4 
REMARK    2  A    between atoms: S_2  and  C_10 
REMARK    3  A    between atoms: N_13  and  C_14 
REMARK    4  A    between atoms: C_14  and  C_15 
REMARK    5  A    between atoms: C_15  and  C_16 
ROOT
ATOM      1  C   UNL d   1       9.979   7.497  -9.542  0.00  0.00     0.116 C 
ATOM      2  C   UNL d   1      10.420   6.029  -9.499  0.00  0.00     0.052 C 
ATOM      3  C   UNL d   1       9.482   5.075 -10.228  0.00  0.00     0.251 C 
ATOM      4  N   UNL d   1       9.295   5.485 -11.625  0.00  0.00     0.137 N 
ATOM      5  C   UNL d   1       8.701   6.814 -11.654  0.00  0.00     0.251 C 
ATOM      6  C   UNL d   1       9.618   7.877 -10.998  0.00  0.00     0.052 C 
ENDROOT
BRANCH   1   7
ATOM      7  S   UNL d   1      11.428   8.582  -8.990  0.00  0.00     0.189 S 
ATOM      8  O   UNL d   1      11.128   9.932  -9.428  0.00  0.00    -0.222 OA
ATOM      9  O   UNL d   1      12.703   7.950  -9.356  0.00  0.00    -0.222 OA
BRANCH   7  10
ATOM     10  C   UNL d   1      11.351   8.453  -7.183  0.00  0.00     0.084 A 
ATOM     11  C   UNL d   1      11.478   7.177  -6.574  0.00  0.00     0.011 A 
ATOM     12  C   UNL d   1      11.466   7.063  -5.174  0.00  0.00     0.001 A 
ATOM     13  C   UNL d   1      11.415   8.216  -4.360  0.00  0.00     0.000 A 
ATOM     14  C   UNL d   1      11.244   9.494  -4.962  0.00  0.00     0.001 A 
ATOM     15  C   UNL d   1      11.204   9.612  -6.381  0.00  0.00     0.011 A 
ENDBRANCH   7  10
ENDBRANCH   1   7
BRANCH   4  16
ATOM     16  C   UNL d   1       8.366   4.530 -12.210  0.00  0.00     0.255 C 
BRANCH  16  17
ATOM     17  C   UNL d   1       8.635   4.409 -13.720  0.00  0.00     0.062 C 
BRANCH  17  18
ATOM     18  C   UNL d   1       8.250   3.048 -14.278  0.00  0.00    -0.020 A 
ATOM     19  C   UNL d   1       6.910   2.606 -14.234  0.00  0.00    -0.004 A 
ATOM     20  C   UNL d   1       6.571   1.350 -14.772  0.00  0.00    -0.000 A 
ATOM     21  C   UNL d   1       7.560   0.532 -15.350  0.00  0.00    -0.000 A 
ATOM     22  C   UNL d   1       8.895   0.966 -15.382  0.00  0.00    -0.000 A 
ATOM     23  C   UNL d   1       9.242   2.217 -14.841  0.00  0.00    -0.004 A 
ENDBRANCH  17  18
ENDBRANCH  16  17
ENDBRANCH   4  16
TORSDOF 5
