REMARK  8 active torsions:
REMARK  status: ('A' for Active; 'I' for Inactive)
REMARK    1  A    between atoms: S_2  and  C_3 
REMARK    2  A    between atoms: C_8  and  N_9 
REMARK    3  A    between atoms: N_12  and  C_13 
REMARK    4  A    between atoms: C_13  and  C_14 
REMARK    5  A    between atoms: C_14  and  C_15 
REMARK    6  A    between atoms: C_15  and  C_16 
REMARK    7  A    between atoms: C_16  and  N_17 
REMARK       I    between atoms: N_17  and  C_18 
REMARK    8  A    between atoms: C_18  and  C_20 
ROOT
ATOM      1  C   UNL d   1       9.536   6.351 -12.452  0.00  0.00     0.251 C 
ENDROOT
BRANCH   1   2
ATOM      2  N   UNL d   1       9.011   5.011 -12.558  0.00  0.00     0.141 N 
ATOM      3  C   UNL d   1       9.914   4.268 -13.461  0.00  0.00     0.274 C 
ATOM      4  C   UNL d   1       9.403   2.840 -13.562  0.00  0.00     0.137 C 
ATOM      5  N   UNL d   1       8.019   2.836 -14.032  0.00  0.00    -0.344 N 
ATOM      6  C   UNL d   1       7.107   3.673 -13.266  0.00  0.00     0.137 C 
ATOM      7  C   UNL d   1       7.688   5.077 -13.178  0.00  0.00     0.274 C 
BRANCH   5   8
ATOM      8  C   UNL d   1       7.585   1.983 -15.048  0.00  0.00     0.062 A 
ATOM      9  C   UNL d   1       6.454   1.121 -14.937  0.00  0.00     0.041 A 
ATOM     10  C   UNL d   1       6.081   0.311 -16.028  0.00  0.00     0.008 A 
ATOM     11  C   UNL d   1       6.791   0.372 -17.232  0.00  0.00     0.001 A 
ATOM     12  C   UNL d   1       7.900   1.219 -17.358  0.00  0.00     0.002 A 
ATOM     13  C   UNL d   1       8.303   2.009 -16.263  0.00  0.00     0.017 A 
BRANCH   9  14
ATOM     14  S   UNL d   1       5.471   0.953 -13.482  0.00  0.00    -0.111 SA
ATOM     15  C   UNL d   1       6.385  -0.305 -12.585  0.00  0.00     0.074 C 
ENDBRANCH   9  14
ENDBRANCH   5   8
ENDBRANCH   1   2
BRANCH   1  16
ATOM     16  C   UNL d   1       8.916   7.271 -11.405  0.00  0.00     0.037 C 
BRANCH  16  17
ATOM     17  C   UNL d   1       9.777   7.286 -10.142  0.00  0.00     0.029 C 
BRANCH  17  18
ATOM     18  C   UNL d   1       9.205   8.121  -8.985  0.00  0.00     0.129 C 
BRANCH  18  19
ATOM     19  N   UNL d   1      10.107   8.278  -7.879  0.00  0.00    -0.233 NA
ATOM     20  C   UNL d   1      10.628   7.258  -7.197  0.00  0.00     0.294 C 
ATOM     21  O   UNL d   1      10.668   6.091  -7.583  0.00  0.00    -0.264 OA
BRANCH  20  22
ATOM     22  C   UNL d   1      11.095   7.619  -5.852  0.00  0.00     0.160 A 
ATOM     23  N   UNL d   1      11.063   8.826  -5.335  0.00  0.00    -0.160 NA
ATOM     24  N   UNL d   1      11.587   8.656  -4.098  0.00  0.00    -0.228 N 
ATOM     25  C   UNL d   1      11.941   7.327  -3.838  0.00  0.00     0.085 A 
ATOM     26  C   UNL d   1      11.733   9.638  -3.188  0.00  0.00     0.101 A 
ATOM     27  C   UNL d   1      11.645   6.651  -4.973  0.00  0.00     0.045 A 
ATOM     28  C   UNL d   1      12.507   6.997  -2.589  0.00  0.00     0.019 A 
ATOM     29  C   UNL d   1      12.653   7.994  -1.659  0.00  0.00     0.003 A 
ATOM     30  C   UNL d   1      12.230   9.302  -1.960  0.00  0.00     0.021 A 
ENDBRANCH  20  22
ENDBRANCH  18  19
ENDBRANCH  17  18
ENDBRANCH  16  17
ENDBRANCH   1  16
TORSDOF 8
