REMARK  6 active torsions:
REMARK  status: ('A' for Active; 'I' for Inactive)
REMARK    1  A    between atoms: O_2  and  C_3 
REMARK    2  A    between atoms: C_3  and  C_4 
REMARK    3  A    between atoms: C_3  and  C_17 
REMARK    4  A    between atoms: C_4  and  N_5 
REMARK    5  A    between atoms: N_8  and  C_9 
REMARK    6  A    between atoms: C_17  and  C_20 
ROOT
ATOM      1  C   UNL d   1       9.937   7.922  -9.853  0.00  0.00     0.191 C 
ENDROOT
BRANCH   1   2
ATOM      2  O   UNL d   1      10.013   8.499 -11.166  0.00  0.00    -0.346 OA
ATOM      3  C   UNL d   1       8.794   8.883 -11.801  0.00  0.00     0.175 C 
ENDBRANCH   1   2
BRANCH   1   4
ATOM      4  C   UNL d   1       9.604   6.421  -9.935  0.00  0.00     0.286 C 
BRANCH   4   5
ATOM      5  N   UNL d   1       8.713   6.026 -11.028  0.00  0.00     0.144 N 
ATOM      6  C   UNL d   1       8.080   4.758 -10.758  0.00  0.00     0.274 C 
ATOM      7  C   UNL d   1       7.064   4.354 -11.856  0.00  0.00     0.138 C 
ATOM      8  N   UNL d   1       7.708   4.394 -13.164  0.00  0.00    -0.330 N 
ATOM      9  C   UNL d   1       8.486   5.587 -13.448  0.00  0.00     0.138 C 
ATOM     10  C   UNL d   1       9.456   5.904 -12.300  0.00  0.00     0.274 C 
BRANCH   8  11
ATOM     11  C   UNL d   1       7.726   3.279 -14.037  0.00  0.00     0.140 A 
ATOM     12  N   UNL d   1       8.774   3.177 -14.872  0.00  0.00    -0.227 NA
ATOM     13  C   UNL d   1       8.805   2.147 -15.752  0.00  0.00     0.101 A 
ATOM     14  C   UNL d   1       7.787   1.180 -15.826  0.00  0.00     0.021 A 
ATOM     15  C   UNL d   1       6.693   1.294 -14.950  0.00  0.00     0.005 A 
ATOM     16  C   UNL d   1       6.659   2.365 -14.039  0.00  0.00     0.037 A 
ENDBRANCH   8  11
ENDBRANCH   4   5
ENDBRANCH   1   4
BRANCH   1  17
ATOM     17  C   UNL d   1      11.240   8.133  -9.092  0.00  0.00     0.117 C 
ATOM     18  N   UNL d   1      12.300   8.416  -9.738  0.00  0.00    -0.098 NA
ATOM     19  O   UNL d   1      13.401   8.545  -8.836  0.00  0.00    -0.061 OA
BRANCH  17  20
ATOM     20  C   UNL d   1      11.168   7.987  -7.629  0.00  0.00     0.018 A 
ATOM     21  C   UNL d   1      11.054   9.133  -6.819  0.00  0.00    -0.003 A 
ATOM     22  C   UNL d   1      11.009   8.996  -5.421  0.00  0.00    -0.022 A 
ATOM     23  C   UNL d   1      11.114   7.727  -4.835  0.00  0.00    -0.004 A 
ATOM     24  C   UNL d   1      10.894  10.197  -4.529  0.00  0.00     0.031 C 
ATOM     25  C   UNL d   1      11.242   6.589  -5.632  0.00  0.00    -0.000 A 
ATOM     26  C   UNL d   1      11.263   6.710  -7.030  0.00  0.00     0.001 A 
ENDBRANCH  17  20
ENDBRANCH   1  17
TORSDOF 6
