REMARK  8 active torsions:
REMARK  status: ('A' for Active; 'I' for Inactive)
REMARK    1  A    between atoms: C_7  and  N_8 
REMARK    2  A    between atoms: N_11  and  C_12 
REMARK    3  A    between atoms: C_12  and  C_13 
REMARK    4  A    between atoms: C_13  and  C_14 
REMARK    5  A    between atoms: C_14  and  C_15 
REMARK    6  A    between atoms: C_15  and  N_16 
REMARK    7  A    between atoms: N_16  and  C_17 
REMARK    8  A    between atoms: C_20  and  C_21 
ROOT
ATOM      1  C   UNL d   1       9.292   4.220 -13.781  0.00  0.00     0.037 C 
ENDROOT
BRANCH   1   2
ATOM      2  C   UNL d   1      10.357   3.345 -14.498  0.00  0.00     0.251 C 
BRANCH   2   3
ATOM      3  N   UNL d   1       9.799   2.298 -15.360  0.00  0.00     0.141 N 
ATOM      4  C   UNL d   1       8.661   2.784 -16.142  0.00  0.00     0.274 C 
ATOM      5  C   UNL d   1       8.096   1.720 -17.103  0.00  0.00     0.137 C 
ATOM      6  N   UNL d   1       7.781   0.530 -16.340  0.00  0.00    -0.343 N 
ATOM      7  C   UNL d   1       8.847   0.031 -15.493  0.00  0.00     0.137 C 
ATOM      8  C   UNL d   1       9.396   1.136 -14.574  0.00  0.00     0.274 C 
BRANCH   6   9
ATOM      9  C   UNL d   1       6.483  -0.031 -16.332  0.00  0.00     0.084 A 
ATOM     10  C   UNL d   1       5.851  -0.453 -15.136  0.00  0.00     0.155 A 
ATOM     11  F   UNL d   1       6.431  -0.282 -13.920  0.00  0.00    -0.203 F 
ATOM     12  C   UNL d   1       4.573  -1.046 -15.182  0.00  0.00     0.031 A 
ATOM     13  C   UNL d   1       3.914  -1.226 -16.411  0.00  0.00     0.002 A 
ATOM     14  C   UNL d   1       4.537  -0.811 -17.603  0.00  0.00     0.002 A 
ATOM     15  C   UNL d   1       5.809  -0.203 -17.556  0.00  0.00     0.019 A 
ENDBRANCH   6   9
ENDBRANCH   2   3
ENDBRANCH   1   2
BRANCH   1  16
ATOM     16  C   UNL d   1       9.895   5.413 -13.060  0.00  0.00     0.028 C 
BRANCH  16  17
ATOM     17  C   UNL d   1       8.817   6.274 -12.376  0.00  0.00     0.127 C 
BRANCH  17  18
ATOM     18  N   UNL d   1       9.406   7.464 -11.783  0.00  0.00    -0.253 NA
BRANCH  18  19
ATOM     19  C   UNL d   1       9.799   7.511 -10.441  0.00  0.00     0.158 A 
ATOM     20  N   UNL d   1      10.290   8.699 -10.036  0.00  0.00    -0.226 NA
ATOM     21  C   UNL d   1      10.670   8.837  -8.750  0.00  0.00     0.101 A 
ATOM     22  C   UNL d   1      10.588   7.809  -7.779  0.00  0.00     0.019 A 
ATOM     23  C   UNL d   1      10.058   6.580  -8.226  0.00  0.00     0.005 A 
ATOM     24  C   UNL d   1       9.680   6.412  -9.565  0.00  0.00     0.038 A 
BRANCH  22  25
ATOM     25  C   UNL d   1      11.028   7.990  -6.375  0.00  0.00     0.002 A 
ATOM     26  C   UNL d   1      11.045   9.262  -5.756  0.00  0.00     0.000 A 
ATOM     27  C   UNL d   1      11.459   9.413  -4.415  0.00  0.00     0.000 A 
ATOM     28  C   UNL d   1      11.870   8.295  -3.668  0.00  0.00     0.000 A 
ATOM     29  C   UNL d   1      11.857   7.022  -4.262  0.00  0.00     0.000 A 
ATOM     30  C   UNL d   1      11.445   6.878  -5.600  0.00  0.00     0.000 A 
ENDBRANCH  22  25
ENDBRANCH  18  19
ENDBRANCH  17  18
ENDBRANCH  16  17
ENDBRANCH   1  16
TORSDOF 8
