REMARK  12 active torsions:
REMARK  status: ('A' for Active; 'I' for Inactive)
REMARK    1  A    between atoms: C_2  and  C_3 
REMARK    2  A    between atoms: C_3  and  N_4 
REMARK    3  A    between atoms: N_4  and  C_5 
REMARK    4  A    between atoms: N_4  and  C_21 
REMARK    5  A    between atoms: C_5  and  C_6 
REMARK    6  A    between atoms: C_6  and  C_7 
REMARK    7  A    between atoms: C_7  and  C_8 
REMARK    8  A    between atoms: C_8  and  N_9 
REMARK       I    between atoms: N_9  and  C_10 
REMARK    9  A    between atoms: C_10  and  C_12 
REMARK   10  A    between atoms: C_21  and  C_22 
REMARK   11  A    between atoms: C_24  and  C_25 
REMARK   12  A    between atoms: C_31  and  O_32 
ROOT
ATOM      1  N   UNL d   1       9.786   5.101 -11.720  0.00  0.00     0.137 N 
ENDROOT
BRANCH   1   2
ATOM      2  C   UNL d   1       9.688   4.356 -10.470  0.00  0.00     0.250 C 
BRANCH   2   3
ATOM      3  C   UNL d   1       8.336   4.477  -9.753  0.00  0.00     0.035 C 
ATOM      4  C   UNL d   1       8.447   3.934  -8.337  0.00  0.00     0.002 C 
ENDBRANCH   2   3
ENDBRANCH   1   2
BRANCH   1   5
ATOM      5  C   UNL d   1       9.347   6.481 -11.588  0.00  0.00     0.250 C 
BRANCH   5   6
ATOM      6  C   UNL d   1      10.243   7.189 -10.572  0.00  0.00     0.037 C 
BRANCH   6   7
ATOM      7  C   UNL d   1      10.056   8.698 -10.621  0.00  0.00     0.029 C 
BRANCH   7   8
ATOM      8  C   UNL d   1      11.227   9.431  -9.934  0.00  0.00     0.129 C 
BRANCH   8   9
ATOM      9  N   UNL d   1      11.436   9.042  -8.548  0.00  0.00    -0.233 NA
ATOM     10  C   UNL d   1      10.484   8.947  -7.611  0.00  0.00     0.293 C 
ATOM     11  O   UNL d   1       9.299   9.198  -7.779  0.00  0.00    -0.264 OA
BRANCH  10  12
ATOM     12  C   UNL d   1      10.951   8.529  -6.303  0.00  0.00     0.139 A 
ATOM     13  N   UNL d   1      11.297   9.504  -5.389  0.00  0.00    -0.241 NA
ATOM     14  C   UNL d   1      11.667   8.922  -4.198  0.00  0.00     0.082 A 
ATOM     15  C   UNL d   1      11.542   7.515  -4.405  0.00  0.00     0.019 A 
ATOM     16  C   UNL d   1      12.082   9.462  -2.978  0.00  0.00     0.019 A 
ATOM     17  C   UNL d   1      11.077   7.291  -5.738  0.00  0.00     0.025 A 
ATOM     18  C   UNL d   1      11.861   6.677  -3.319  0.00  0.00     0.002 A 
ATOM     19  C   UNL d   1      12.289   7.207  -2.094  0.00  0.00     0.000 A 
ATOM     20  C   UNL d   1      12.413   8.597  -1.925  0.00  0.00     0.002 A 
ENDBRANCH  10  12
ENDBRANCH   8   9
ENDBRANCH   7   8
ENDBRANCH   6   7
ENDBRANCH   5   6
ENDBRANCH   1   5
BRANCH   1  21
ATOM     21  C   UNL d   1       9.076   4.354 -12.730  0.00  0.00     0.251 C 
BRANCH  21  22
ATOM     22  C   UNL d   1       9.336   4.896 -14.110  0.00  0.00     0.038 A 
ATOM     23  C   UNL d   1       9.084   4.011 -15.314  0.00  0.00     0.026 A 
ATOM     24  C   UNL d   1      10.496   4.387 -14.946  0.00  0.00     0.007 A 
BRANCH  23  25
ATOM     25  C   UNL d   1       8.564   2.632 -15.114  0.00  0.00     0.002 A 
ATOM     26  C   UNL d   1       7.318   2.378 -14.476  0.00  0.00     0.090 A 
ATOM     27  C   UNL d   1       6.936   1.045 -14.248  0.00  0.00     0.026 A 
ATOM     28  C   UNL d   1       7.780  -0.009 -14.630  0.00  0.00     0.032 A 
ATOM     29  C   UNL d   1       9.013   0.246 -15.272  0.00  0.00     0.140 A 
ATOM     30  C   UNL d   1       9.398   1.567 -15.508  0.00  0.00     0.027 A 
ATOM     31  F   UNL d   1       9.849  -0.758 -15.638  0.00  0.00    -0.204 F 
BRANCH  26  32
ATOM     32  O   UNL d   1       6.536   3.448 -14.088  0.00  0.00    -0.328 OA
ATOM     33  C   UNL d   1       5.630   3.265 -13.003  0.00  0.00     0.181 C 
ENDBRANCH  26  32
ENDBRANCH  23  25
ENDBRANCH  21  22
ENDBRANCH   1  21
TORSDOF 12
