REMARK  2 active torsions:
REMARK  status: ('A' for Active; 'I' for Inactive)
REMARK    1  A    between atoms: N_5  and  C_6 
REMARK    2  A    between atoms: C_18  and  C_19 
ROOT
ATOM      1  C   UNL d   1      11.000   2.176 -17.784  0.00  0.00     0.246 C 
ATOM      2  C   UNL d   1      12.038   2.687 -18.817  0.00  0.00     0.065 C 
ATOM      3  C   UNL d   1      11.957   4.150 -19.171  0.00  0.00    -0.014 A 
ATOM      4  C   UNL d   1      11.448   4.561 -20.422  0.00  0.00    -0.004 A 
ATOM      5  C   UNL d   1      11.443   5.931 -20.757  0.00  0.00    -0.000 A 
ATOM      6  C   UNL d   1      11.939   6.878 -19.836  0.00  0.00     0.001 A 
ATOM      7  C   UNL d   1      12.450   6.465 -18.586  0.00  0.00     0.006 A 
ATOM      8  C   UNL d   1      12.460   5.095 -18.264  0.00  0.00     0.025 A 
ATOM      9  S   UNL d   1      13.076   4.537 -16.717  0.00  0.00    -0.087 SA
ATOM     10  C   UNL d   1      11.531   4.070 -16.000  0.00  0.00     0.027 A 
ATOM     11  C   UNL d   1      11.150   4.772 -14.841  0.00  0.00     0.006 A 
ATOM     12  C   UNL d   1       9.927   4.487 -14.209  0.00  0.00     0.001 A 
ATOM     13  C   UNL d   1       9.041   3.533 -14.758  0.00  0.00    -0.000 A 
ATOM     14  C   UNL d   1       9.411   2.882 -15.962  0.00  0.00    -0.002 A 
ATOM     15  C   UNL d   1      10.673   3.087 -16.567  0.00  0.00     0.015 A 
ENDROOT
BRANCH   1  16
ATOM     16  N   UNL d   1      11.274   0.782 -17.348  0.00  0.00     0.144 N 
ATOM     17  C   UNL d   1      10.082   0.058 -16.832  0.00  0.00     0.286 C 
ATOM     18  C   UNL d   1       9.093  -0.259 -17.996  0.00  0.00     0.286 C 
ATOM     19  N   UNL d   1       9.728  -1.049 -19.066  0.00  0.00     0.143 N 
ATOM     20  C   UNL d   1       8.801  -1.313 -20.163  0.00  0.00     0.285 C 
ATOM     21  C   UNL d   1      10.924  -0.358 -19.547  0.00  0.00     0.286 C 
ATOM     22  C   UNL d   1      11.901  -0.073 -18.393  0.00  0.00     0.286 C 
ENDBRANCH   1  16
BRANCH  13  23
ATOM     23  C   UNL d   1       7.760   3.202 -14.095  0.00  0.00    -0.000 A 
ATOM     24  C   UNL d   1       7.127   4.140 -13.236  0.00  0.00    -0.000 A 
ATOM     25  C   UNL d   1       5.904   3.847 -12.606  0.00  0.00    -0.000 A 
ATOM     26  C   UNL d   1       5.278   2.609 -12.828  0.00  0.00     0.000 A 
ATOM     27  C   UNL d   1       5.886   1.656 -13.667  0.00  0.00    -0.000 A 
ATOM     28  C   UNL d   1       7.116   1.952 -14.290  0.00  0.00    -0.000 A 
ENDBRANCH  13  23
TORSDOF 2
