REMARK  4 active torsions:
REMARK  status: ('A' for Active; 'I' for Inactive)
REMARK    1  A    between atoms: C_8  and  C_9 
REMARK    2  A    between atoms: C_10  and  C_11 
REMARK    3  A    between atoms: C_14  and  S_15 
REMARK    4  A    between atoms: S_15  and  C_18 
ROOT
ATOM      1  C   UNL d   1       9.652   6.213  -8.455  0.00  0.00     0.082 A 
ATOM      2  C   UNL d   1       8.839   5.077  -8.655  0.00  0.00     0.020 A 
ATOM      3  C   UNL d   1       8.282   4.831  -9.911  0.00  0.00     0.015 A 
ATOM      4  C   UNL d   1       8.558   5.747 -10.923  0.00  0.00     0.107 A 
ATOM      5  C   UNL d   1       9.395   6.850 -10.659  0.00  0.00     0.110 A 
ATOM      6  N   UNL d   1       9.934   7.088  -9.445  0.00  0.00    -0.243 NA
ENDROOT
BRANCH   1   7
ATOM      7  C   UNL d   1      10.177   6.493  -7.109  0.00  0.00     0.019 C 
ATOM      8  C   UNL d   1      10.726   7.643  -6.690  0.00  0.00     0.001 C 
BRANCH   8   9
ATOM      9  C   UNL d   1      11.331   7.854  -5.351  0.00  0.00    -0.004 A 
ATOM     10  C   UNL d   1      11.635   9.165  -4.907  0.00  0.00    -0.020 A 
ATOM     11  C   UNL d   1      11.333  10.340  -5.818  0.00  0.00     0.031 C 
ATOM     12  C   UNL d   1      12.180   9.375  -3.616  0.00  0.00     0.025 A 
ATOM     13  C   UNL d   1      12.459   8.287  -2.770  0.00  0.00     0.140 A 
ATOM     14  F   UNL d   1      12.997   8.509  -1.552  0.00  0.00    -0.204 F 
ATOM     15  C   UNL d   1      12.189   6.979  -3.200  0.00  0.00     0.030 A 
ATOM     16  C   UNL d   1      11.614   6.772  -4.470  0.00  0.00     0.002 A 
ENDBRANCH   8   9
ENDBRANCH   1   7
BRANCH   4  17
ATOM     17  S   UNL d   1       7.799   5.507 -12.507  0.00  0.00     0.214 S 
ATOM     18  O   UNL d   1       6.490   4.872 -12.291  0.00  0.00    -0.217 OA
ATOM     19  O   UNL d   1       7.879   6.782 -13.216  0.00  0.00    -0.217 OA
BRANCH  17  20
ATOM     20  C   UNL d   1       8.922   4.383 -13.335  0.00  0.00     0.115 A 
ATOM     21  C   UNL d   1       8.502   3.151 -13.869  0.00  0.00     0.151 A 
ATOM     22  C   UNL d   1       9.448   2.292 -14.456  0.00  0.00     0.030 A 
ATOM     23  F   UNL d   1       7.202   2.775 -13.826  0.00  0.00    -0.203 F 
ATOM     24  C   UNL d   1      10.805   2.668 -14.553  0.00  0.00     0.002 A 
ATOM     25  C   UNL d   1      11.219   3.919 -14.057  0.00  0.00     0.001 A 
ATOM     26  C   UNL d   1      10.271   4.766 -13.450  0.00  0.00     0.014 A 
ENDBRANCH  17  20
ENDBRANCH   4  17
TORSDOF 4
