REMARK  3 active torsions:
REMARK  status: ('A' for Active; 'I' for Inactive)
REMARK    1  A    between atoms: C_5  and  N_6 
REMARK    2  A    between atoms: C_18  and  C_19 
REMARK    3  A    between atoms: N_23  and  C_24 
ROOT
ATOM      1  C   UNL d   1      12.352   3.668 -15.394  0.00  0.00     0.034 C 
ATOM      2  C   UNL d   1      11.034   2.921 -15.517  0.00  0.00     0.011 A 
ATOM      3  C   UNL d   1      10.968   1.919 -16.518  0.00  0.00     0.146 A 
ATOM      4  F   UNL d   1      12.080   1.632 -17.240  0.00  0.00    -0.203 F 
ATOM      5  C   UNL d   1       9.763   1.217 -16.765  0.00  0.00     0.066 A 
ATOM      6  C   UNL d   1       8.649   1.515 -15.946  0.00  0.00     0.031 A 
ATOM      7  C   UNL d   1       8.690   2.486 -14.920  0.00  0.00     0.064 A 
ATOM      8  C   UNL d   1       9.889   3.201 -14.698  0.00  0.00     0.053 A 
ATOM      9  C   UNL d   1       9.901   4.237 -13.605  0.00  0.00     0.204 C 
ATOM     10  O   UNL d   1      10.951   4.793 -13.281  0.00  0.00    -0.286 OA
ATOM     11  C   UNL d   1       8.611   4.578 -12.935  0.00  0.00     0.120 C 
ATOM     12  C   UNL d   1       7.529   3.833 -13.260  0.00  0.00     0.085 C 
ATOM     13  N   UNL d   1       7.530   2.768 -14.146  0.00  0.00    -0.328 N 
ENDROOT
BRANCH   5  14
ATOM     14  N   UNL d   1       9.682   0.256 -17.812  0.00  0.00    -0.247 NA
ATOM     15  C   UNL d   1       8.456  -0.549 -17.843  0.00  0.00     0.113 C 
ATOM     16  C   UNL d   1       8.495  -1.668 -18.892  0.00  0.00     0.273 C 
ATOM     17  N   UNL d   1       8.726  -1.080 -20.212  0.00  0.00     0.340 N 
ATOM     18  C   UNL d   1       7.146  -2.401 -18.904  0.00  0.00     0.040 C 
ATOM     19  C   UNL d   1      10.010  -0.390 -20.192  0.00  0.00     0.308 C 
ATOM     20  C   UNL d   1      10.011   0.748 -19.151  0.00  0.00     0.115 C 
ENDBRANCH   5  14
BRANCH  13  21
ATOM     21  C   UNL d   1       6.370   1.877 -14.268  0.00  0.00     0.086 A 
ATOM     22  C   UNL d   1       6.391   0.468 -13.695  0.00  0.00     0.025 A 
ATOM     23  C   UNL d   1       5.509   1.521 -13.062  0.00  0.00     0.025 A 
ENDBRANCH  13  21
BRANCH  11  24
ATOM     24  C   UNL d   1       8.479   5.617 -11.910  0.00  0.00     0.215 C 
ATOM     25  O   UNL d   1       9.421   6.185 -11.353  0.00  0.00    -0.644 OA
ATOM     26  O   UNL d   1       7.185   5.972 -11.621  0.00  0.00    -0.644 OA
ENDBRANCH  11  24
TORSDOF 3
