REMARK  7 active torsions:
REMARK  status: ('A' for Active; 'I' for Inactive)
REMARK       I    between atoms: C_2  and  N_3 
REMARK    1  A    between atoms: C_2  and  C_24 
REMARK    2  A    between atoms: N_3  and  C_4 
REMARK    3  A    between atoms: N_7  and  C_8 
REMARK    4  A    between atoms: C_8  and  C_9 
REMARK    5  A    between atoms: C_9  and  O_10 
REMARK    6  A    between atoms: O_10  and  C_11 
REMARK    7  A    between atoms: C_16  and  C_17 
ROOT
ATOM      1  C   UNL d   1       8.037   5.392 -11.138  0.00  0.00     0.142 C 
ATOM      2  C   UNL d   1       7.473   6.264 -12.263  0.00  0.00     0.062 C 
ATOM      3  C   UNL d   1       8.042   5.628 -13.525  0.00  0.00     0.253 C 
ATOM      4  N   UNL d   1       9.285   5.036 -13.089  0.00  0.00     0.142 N 
ATOM      5  C   UNL d   1       8.895   4.367 -11.865  0.00  0.00     0.275 C 
ENDROOT
BRANCH   4   6
ATOM      6  C   UNL d   1       9.759   4.049 -14.042  0.00  0.00     0.283 C 
BRANCH   6   7
ATOM      7  C   UNL d   1      11.251   4.244 -14.318  0.00  0.00     0.184 C 
BRANCH   7   8
ATOM      8  O   UNL d   1      11.837   3.022 -14.770  0.00  0.00    -0.329 OA
BRANCH   8   9
ATOM      9  C   UNL d   1      11.187   2.396 -15.807  0.00  0.00     0.094 A 
ATOM     10  C   UNL d   1      11.170   2.919 -17.126  0.00  0.00     0.022 A 
ATOM     11  C   UNL d   1      10.428   2.226 -18.112  0.00  0.00     0.002 A 
ATOM     12  C   UNL d   1       9.732   1.044 -17.802  0.00  0.00     0.000 A 
ATOM     13  C   UNL d   1       9.772   0.525 -16.495  0.00  0.00     0.002 A 
ATOM     14  C   UNL d   1      10.507   1.198 -15.507  0.00  0.00     0.024 A 
BRANCH  10  15
ATOM     15  C   UNL d   1      11.899   4.149 -17.491  0.00  0.00     0.002 A 
ATOM     16  C   UNL d   1      13.218   4.373 -17.040  0.00  0.00     0.000 A 
ATOM     17  C   UNL d   1      13.908   5.558 -17.353  0.00  0.00     0.000 A 
ATOM     18  C   UNL d   1      13.288   6.538 -18.155  0.00  0.00     0.000 A 
ATOM     19  C   UNL d   1      11.980   6.323 -18.633  0.00  0.00     0.000 A 
ATOM     20  C   UNL d   1      11.293   5.140 -18.301  0.00  0.00     0.000 A 
ENDBRANCH  10  15
ENDBRANCH   8   9
ENDBRANCH   7   8
ENDBRANCH   6   7
ENDBRANCH   4   6
BRANCH   1  21
ATOM     21  N   UNL d   1       8.836   6.167 -10.210  0.00  0.00    -0.233 NA
ATOM     22  C   UNL d   1       9.441   5.705  -9.112  0.00  0.00     0.293 C 
ATOM     23  O   UNL d   1       9.441   4.511  -8.801  0.00  0.00    -0.264 OA
BRANCH  22  24
ATOM     24  C   UNL d   1      10.080   6.760  -8.250  0.00  0.00     0.139 A 
ATOM     25  N   UNL d   1      10.405   6.410  -6.985  0.00  0.00    -0.241 NA
ATOM     26  C   UNL d   1      10.976   7.312  -6.162  0.00  0.00     0.082 A 
ATOM     27  C   UNL d   1      11.264   8.633  -6.588  0.00  0.00     0.018 A 
ATOM     28  C   UNL d   1      11.308   6.954  -4.839  0.00  0.00     0.019 A 
ATOM     29  C   UNL d   1      10.942   8.998  -7.906  0.00  0.00     0.003 A 
ATOM     30  C   UNL d   1      11.858   9.568  -5.714  0.00  0.00     0.002 A 
ATOM     31  C   UNL d   1      10.344   8.054  -8.753  0.00  0.00     0.024 A 
ATOM     32  C   UNL d   1      12.175   9.189  -4.396  0.00  0.00     0.000 A 
ATOM     33  C   UNL d   1      11.900   7.879  -3.958  0.00  0.00     0.002 A 
ENDBRANCH  22  24
ENDBRANCH   1  21
TORSDOF 7
