REMARK  6 active torsions:
REMARK  status: ('A' for Active; 'I' for Inactive)
REMARK    1  A    between atoms: C_2  and  C_3 
REMARK    2  A    between atoms: C_2  and  C_20 
REMARK    3  A    between atoms: C_3  and  C_4 
REMARK    4  A    between atoms: C_4  and  C_5 
REMARK    5  A    between atoms: C_5  and  N_6 
REMARK    6  A    between atoms: N_11  and  C_12 
ROOT
ATOM      1  N   UNL d   1       9.976   1.016 -17.563  0.00  0.00     0.156 N 
ATOM      2  C   UNL d   1       9.672  -0.426 -17.466  0.00  0.00     0.255 C 
ATOM      3  C   UNL d   1       8.172  -0.401 -17.134  0.00  0.00     0.060 C 
ATOM      4  C   UNL d   1       7.723   0.845 -17.857  0.00  0.00     0.061 C 
ATOM      5  C   UNL d   1       8.743   1.692 -17.111  0.00  0.00     0.304 C 
ATOM      6  N   UNL d   1       8.480   1.399 -15.698  0.00  0.00    -0.324 N 
ATOM      7  C   UNL d   1       8.007   0.021 -15.670  0.00  0.00     0.105 C 
ENDROOT
BRANCH   1   8
ATOM      8  C   UNL d   1      11.202   1.371 -16.846  0.00  0.00     0.253 C 
BRANCH   8   9
ATOM      9  C   UNL d   1      11.508   2.887 -16.888  0.00  0.00     0.043 C 
BRANCH   9  10
ATOM     10  C   UNL d   1      12.423   3.317 -15.736  0.00  0.00     0.071 C 
BRANCH  10  11
ATOM     11  C   UNL d   1      12.296   4.800 -15.401  0.00  0.00     0.173 C 
ATOM     12  O   UNL d   1      11.593   5.131 -14.447  0.00  0.00    -0.291 OA
BRANCH  11  13
ATOM     13  C   UNL d   1      13.007   5.789 -16.258  0.00  0.00     0.035 A 
ATOM     14  C   UNL d   1      12.767   7.171 -16.072  0.00  0.00     0.005 A 
ATOM     15  C   UNL d   1      13.453   8.132 -16.847  0.00  0.00     0.030 A 
ATOM     16  C   UNL d   1      14.395   7.713 -17.807  0.00  0.00     0.140 A 
ATOM     17  C   UNL d   1      14.641   6.341 -17.997  0.00  0.00     0.030 A 
ATOM     18  F   UNL d   1      15.067   8.634 -18.539  0.00  0.00    -0.204 F 
ATOM     19  C   UNL d   1      13.946   5.380 -17.233  0.00  0.00     0.005 A 
ENDBRANCH  11  13
ENDBRANCH  10  11
ENDBRANCH   9  10
ENDBRANCH   8   9
ENDBRANCH   1   8
BRANCH   6  20
ATOM     20  C   UNL d   1       7.922   2.382 -14.855  0.00  0.00     0.058 A 
ATOM     21  C   UNL d   1       8.714   3.491 -14.485  0.00  0.00     0.018 A 
ATOM     22  C   UNL d   1       8.221   4.493 -13.616  0.00  0.00     0.013 A 
ATOM     23  C   UNL d   1       6.912   4.383 -13.103  0.00  0.00     0.058 A 
ATOM     24  C   UNL d   1       6.115   3.286 -13.458  0.00  0.00     0.013 A 
ATOM     25 CL   UNL d   1       6.279   5.597 -12.050  0.00  0.00    -0.082 Cl
ATOM     26  C   UNL d   1       6.612   2.289 -14.332  0.00  0.00     0.018 A 
ENDBRANCH   6  20
TORSDOF 6
