REMARK  7 active torsions:
REMARK  status: ('A' for Active; 'I' for Inactive)
REMARK    1  A    between atoms: C_2  and  S_3 
REMARK    2  A    between atoms: S_3  and  C_6 
REMARK    3  A    between atoms: C_9  and  O_10 
REMARK    4  A    between atoms: C_12  and  C_13 
REMARK    5  A    between atoms: C_16  and  C_17 
REMARK    6  A    between atoms: N_21  and  C_22 
REMARK    7  A    between atoms: C_22  and  C_23 
ROOT
ATOM      1  C   UNL d   1       6.338   3.176 -13.593  0.00  0.00     0.083 A 
ATOM      2  C   UNL d   1       5.450   3.631 -12.651  0.00  0.00     0.020 A 
ATOM      3  C   UNL d   1       5.928   4.817 -12.084  0.00  0.00     0.018 A 
ATOM      4  C   UNL d   1       7.035   5.168 -12.783  0.00  0.00     0.090 A 
ATOM      5  N   UNL d   1       7.296   4.143 -13.657  0.00  0.00    -0.248 NA
ENDROOT
BRANCH   1   6
ATOM      6  C   UNL d   1       6.421   1.950 -14.425  0.00  0.00     0.041 A 
ATOM      7  C   UNL d   1       5.685   0.776 -14.117  0.00  0.00     0.096 A 
ATOM      8  C   UNL d   1       5.718  -0.308 -15.032  0.00  0.00     0.025 A 
ATOM      9  C   UNL d   1       6.485  -0.254 -16.201  0.00  0.00     0.013 A 
ATOM     10  C   UNL d   1       7.254   0.897 -16.468  0.00  0.00     0.084 A 
ATOM     11  C   UNL d   1       7.253   1.977 -15.571  0.00  0.00     0.015 A 
BRANCH   7  12
ATOM     12  O   UNL d   1       4.872   0.587 -13.033  0.00  0.00    -0.328 OA
ATOM     13  C   UNL d   1       5.506   0.615 -11.748  0.00  0.00     0.181 C 
ENDBRANCH   7  12
BRANCH  10  14
ATOM     14  S   UNL d   1       8.216   1.012 -17.975  0.00  0.00     0.190 S 
ATOM     15  O   UNL d   1       9.583   0.532 -17.659  0.00  0.00    -0.222 OA
ATOM     16  O   UNL d   1       8.030   2.352 -18.515  0.00  0.00    -0.222 OA
BRANCH  14  17
ATOM     17  C   UNL d   1       7.457  -0.193 -19.155  0.00  0.00     0.127 C 
ATOM     18  C   UNL d   1       6.056   0.290 -19.575  0.00  0.00     0.018 C 
ENDBRANCH  14  17
ENDBRANCH  10  14
ENDBRANCH   1   6
BRANCH   4  19
ATOM     19  C   UNL d   1       7.861   6.402 -12.758  0.00  0.00     0.259 C 
ATOM     20  N   UNL d   1       8.423   6.732 -11.473  0.00  0.00     0.145 N 
ATOM     21  C   UNL d   1       8.780   8.151 -11.637  0.00  0.00     0.251 C 
ATOM     22  C   UNL d   1       7.628   8.818 -12.340  0.00  0.00     0.038 C 
ATOM     23  C   UNL d   1       6.972   7.636 -13.005  0.00  0.00     0.042 C 
BRANCH  20  24
ATOM     24  C   UNL d   1       9.484   5.880 -11.021  0.00  0.00     0.277 C 
BRANCH  24  25
ATOM     25  C   UNL d   1      10.142   6.389  -9.739  0.00  0.00     0.011 A 
ATOM     26  C   UNL d   1       9.862   5.816  -8.491  0.00  0.00    -0.002 A 
ATOM     27  C   UNL d   1      10.525   6.317  -7.346  0.00  0.00    -0.000 A 
ATOM     28  C   UNL d   1      11.436   7.378  -7.430  0.00  0.00    -0.000 A 
ATOM     29  C   UNL d   1      11.701   7.974  -8.679  0.00  0.00    -0.000 A 
ATOM     30  C   UNL d   1      11.053   7.476  -9.811  0.00  0.00    -0.002 A 
ENDBRANCH  24  25
ENDBRANCH  20  24
ENDBRANCH   4  19
TORSDOF 7
