REMARK  3 active torsions:
REMARK  status: ('A' for Active; 'I' for Inactive)
REMARK    1  A    between atoms: O_2  and  C_3 
REMARK    2  A    between atoms: C_6  and  C_7 
REMARK    3  A    between atoms: C_7  and  N_8 
ROOT
ATOM      1  N   UNL d   1       7.833   5.054 -12.152  0.00  0.00     0.142 N 
ATOM      2  C   UNL d   1       8.108   6.484 -12.236  0.00  0.00     0.255 C 
ATOM      3  C   UNL d   1       9.562   6.826 -11.887  0.00  0.00     0.061 C 
ATOM      4  C   UNL d   1       9.849   6.960 -10.399  0.00  0.00    -0.022 A 
ATOM      5  C   UNL d   1      10.329   8.186  -9.884  0.00  0.00     0.015 A 
ATOM      6  C   UNL d   1      10.588   8.353  -8.508  0.00  0.00     0.089 A 
ATOM      7  N   UNL d   1      11.065   9.498  -7.876  0.00  0.00    -0.219 NA
ATOM      8  C   UNL d   1      11.158   9.288  -6.566  0.00  0.00     0.215 A 
ATOM      9  N   UNL d   1      11.530  10.283  -5.686  0.00  0.00    -0.120 N 
ATOM     10  S   UNL d   1      10.731   7.683  -5.983  0.00  0.00    -0.045 SA
ATOM     11  C   UNL d   1      10.351   7.246  -7.649  0.00  0.00     0.050 A 
ATOM     12  C   UNL d   1       9.879   6.024  -8.152  0.00  0.00     0.004 A 
ATOM     13  C   UNL d   1       9.637   5.874  -9.530  0.00  0.00    -0.024 A 
ATOM     14  C   UNL d   1       9.147   4.543 -10.046  0.00  0.00     0.061 C 
ATOM     15  C   UNL d   1       7.787   4.626 -10.755  0.00  0.00     0.255 C 
ENDROOT
BRANCH   1  16
ATOM     16  C   UNL d   1       6.513   4.766 -12.711  0.00  0.00     0.277 C 
BRANCH  16  17
ATOM     17  C   UNL d   1       6.414   3.377 -13.316  0.00  0.00     0.011 A 
ATOM     18  C   UNL d   1       7.249   3.015 -14.395  0.00  0.00    -0.000 A 
ATOM     19  C   UNL d   1       7.139   1.744 -14.988  0.00  0.00     0.024 A 
ATOM     20  C   UNL d   1       6.229   0.797 -14.487  0.00  0.00     0.094 A 
ATOM     21  C   UNL d   1       5.411   1.154 -13.384  0.00  0.00     0.024 A 
ATOM     22  C   UNL d   1       5.477   2.448 -12.827  0.00  0.00    -0.000 A 
BRANCH  20  23
ATOM     23  O   UNL d   1       6.169  -0.415 -15.136  0.00  0.00    -0.328 OA
ATOM     24  C   UNL d   1       5.436  -1.463 -14.523  0.00  0.00     0.181 C 
ENDBRANCH  20  23
ENDBRANCH  16  17
ENDBRANCH   1  16
TORSDOF 3
