REMARK  7 active torsions:
REMARK  status: ('A' for Active; 'I' for Inactive)
REMARK    1  A    between atoms: O_2  and  C_3 
REMARK    2  A    between atoms: C_3  and  C_4 
REMARK       I    between atoms: C_4  and  N_6 
REMARK    3  A    between atoms: N_6  and  C_7 
REMARK    4  A    between atoms: C_10  and  C_11 
REMARK    5  A    between atoms: C_11  and  C_12 
REMARK    6  A    between atoms: C_12  and  N_13 
REMARK    7  A    between atoms: C_16  and  C_17 
ROOT
ATOM      1  N   UNL d   1       8.938   3.634 -12.565  0.00  0.00     0.137 N 
ATOM      2  C   UNL d   1       9.884   2.982 -13.459  0.00  0.00     0.251 C 
ATOM      3  C   UNL d   1       9.138   1.937 -14.288  0.00  0.00     0.040 C 
ATOM      4  C   UNL d   1       7.985   2.595 -15.044  0.00  0.00     0.028 C 
ATOM      5  C   UNL d   1       7.104   3.432 -14.086  0.00  0.00     0.040 C 
ATOM      6  C   UNL d   1       7.943   4.417 -13.293  0.00  0.00     0.251 C 
ENDROOT
BRANCH   1   7
ATOM      7  C   UNL d   1       9.659   4.476 -11.616  0.00  0.00     0.250 C 
BRANCH   7   8
ATOM      8  C   UNL d   1       8.790   5.196 -10.581  0.00  0.00     0.035 C 
BRANCH   8   9
ATOM      9  C   UNL d   1       9.587   5.699  -9.365  0.00  0.00     0.002 C 
ATOM     10  C   UNL d   1      10.440   6.942  -9.710  0.00  0.00     0.002 C 
ATOM     11  C   UNL d   1      11.136   7.532  -8.476  0.00  0.00     0.024 C 
ATOM     12  C   UNL d   1      10.121   7.885  -7.380  0.00  0.00     0.106 C 
ATOM     13  C   UNL d   1       9.207   6.679  -7.058  0.00  0.00     0.024 C 
ATOM     14  C   UNL d   1       8.582   6.038  -8.275  0.00  0.00     0.002 C 
BRANCH  12  15
ATOM     15  N   UNL d   1      10.791   8.392  -6.174  0.00  0.00    -0.238 NA
ATOM     16  C   UNL d   1      11.504   7.662  -5.295  0.00  0.00     0.282 C 
ATOM     17  O   UNL d   1      11.757   6.469  -5.474  0.00  0.00    -0.268 OA
BRANCH  16  18
ATOM     18  C   UNL d   1      12.143   8.405  -4.105  0.00  0.00     0.232 C 
BRANCH  18  19
ATOM     19  O   UNL d   1      12.642   7.485  -3.133  0.00  0.00    -0.342 OA
ATOM     20  C   UNL d   1      11.643   6.781  -2.399  0.00  0.00     0.175 C 
ENDBRANCH  18  19
ENDBRANCH  16  18
ENDBRANCH  12  15
ENDBRANCH   8   9
ENDBRANCH   7   8
ENDBRANCH   1   7
BRANCH   4  21
ATOM     21  C   UNL d   1       7.176   1.565 -15.817  0.00  0.00     0.002 A 
ATOM     22  C   UNL d   1       7.294   1.431 -17.217  0.00  0.00     0.115 A 
ATOM     23  C   UNL d   1       6.557   0.497 -17.918  0.00  0.00     0.119 A 
ATOM     24  O   UNL d   1       8.080   2.126 -18.086  0.00  0.00    -0.300 OA
ATOM     25  C   UNL d   1       5.646  -0.362 -17.270  0.00  0.00     0.026 A 
ATOM     26  O   UNL d   1       6.862   0.572 -19.239  0.00  0.00    -0.300 OA
ATOM     27  C   UNL d   1       5.510  -0.250 -15.869  0.00  0.00     0.002 A 
ATOM     28  C   UNL d   1       6.278   0.694 -15.150  0.00  0.00    -0.002 A 
ATOM     29  C   UNL d   1       7.840   1.574 -19.356  0.00  0.00     0.304 A 
ENDBRANCH   4  21
TORSDOF 7
