REMARK  11 active torsions:
REMARK  status: ('A' for Active; 'I' for Inactive)
REMARK    1  A    between atoms: O_2  and  C_3 
REMARK    2  A    between atoms: C_6  and  C_7 
REMARK    3  A    between atoms: C_12  and  N_13 
REMARK    4  A    between atoms: N_16  and  C_17 
REMARK    5  A    between atoms: C_17  and  C_18 
REMARK    6  A    between atoms: C_18  and  C_19 
REMARK    7  A    between atoms: C_19  and  C_20 
REMARK    8  A    between atoms: C_20  and  C_21 
REMARK    9  A    between atoms: C_21  and  C_22 
REMARK       I    between atoms: C_22  and  N_24 
REMARK   10  A    between atoms: N_24  and  C_25 
REMARK   11  A    between atoms: C_25  and  C_26 
ROOT
ATOM      1  C   UNL d   1      10.085   6.915  -9.029  0.00  0.00     0.002 A 
ATOM      2  C   UNL d   1      11.231   7.736  -9.005  0.00  0.00    -0.002 A 
ATOM      3  C   UNL d   1      11.482   8.549  -7.885  0.00  0.00     0.010 A 
ATOM      4  C   UNL d   1      10.590   8.542  -6.799  0.00  0.00     0.068 A 
ATOM      5  C   UNL d   1      10.869   9.368  -5.642  0.00  0.00     0.101 C 
ATOM      6  N   UNL d   1      11.101  10.025  -4.719  0.00  0.00    -0.191 NA
ATOM      7  C   UNL d   1       9.439   7.726  -6.831  0.00  0.00     0.010 A 
ATOM      8  C   UNL d   1       9.191   6.905  -7.943  0.00  0.00    -0.002 A 
ENDROOT
BRANCH   1   9
ATOM      9  C   UNL d   1       9.807   6.069 -10.243  0.00  0.00     0.155 C 
BRANCH   9  10
ATOM     10  N   UNL d   1       8.492   6.282 -10.819  0.00  0.00    -0.233 NA
ATOM     11  C   UNL d   1       7.972   5.559 -11.783  0.00  0.00     0.252 C 
ATOM     12  O   UNL d   1       8.634   4.671 -12.366  0.00  0.00    -0.271 OA
BRANCH  11  13
ATOM     13  C   UNL d   1       6.521   5.820 -12.216  0.00  0.00     0.090 C 
BRANCH  13  14
ATOM     14  C   UNL d   1       5.536   4.628 -12.296  0.00  0.00     0.010 C 
BRANCH  14  15
ATOM     15  C   UNL d   1       6.201   3.293 -12.662  0.00  0.00     0.003 C 
BRANCH  15  16
ATOM     16  C   UNL d   1       6.669   3.292 -14.145  0.00  0.00     0.035 C 
BRANCH  16  17
ATOM     17  C   UNL d   1       7.359   1.968 -14.531  0.00  0.00     0.250 C 
BRANCH  17  18
ATOM     18  N   UNL d   1       7.827   1.986 -15.909  0.00  0.00     0.141 N 
ATOM     19  C   UNL d   1       8.184   0.624 -16.332  0.00  0.00     0.274 C 
ATOM     20  C   UNL d   1       8.649   0.612 -17.805  0.00  0.00     0.137 C 
ATOM     21  N   UNL d   1       9.731   1.553 -17.987  0.00  0.00    -0.344 N 
ATOM     22  C   UNL d   1       9.493   2.892 -17.470  0.00  0.00     0.137 C 
ATOM     23  C   UNL d   1       9.025   2.836 -16.020  0.00  0.00     0.274 C 
BRANCH  21  24
ATOM     24  C   UNL d   1      10.965   1.180 -18.615  0.00  0.00     0.056 A 
ATOM     25  C   UNL d   1      11.665   2.058 -19.473  0.00  0.00     0.015 A 
ATOM     26  C   UNL d   1      12.909   1.645 -20.000  0.00  0.00     0.001 A 
ATOM     27  C   UNL d   1      13.436   0.373 -19.722  0.00  0.00     0.000 A 
ATOM     28  C   UNL d   1      12.713  -0.503 -18.901  0.00  0.00     0.002 A 
ATOM     29  C   UNL d   1      11.492  -0.100 -18.339  0.00  0.00     0.017 A 
BRANCH  25  30
ATOM     30  C   UNL d   1      11.181   3.402 -19.853  0.00  0.00     0.002 A 
ATOM     31  C   UNL d   1      12.010   4.524 -19.647  0.00  0.00     0.002 A 
ATOM     32  C   UNL d   1      11.552   5.812 -19.934  0.00  0.00     0.024 A 
ATOM     33  C   UNL d   1      10.258   6.036 -20.437  0.00  0.00     0.094 A 
ATOM     34  C   UNL d   1       9.414   4.909 -20.657  0.00  0.00     0.024 A 
ATOM     35  C   UNL d   1       9.888   3.610 -20.380  0.00  0.00     0.002 A 
BRANCH  33  36
ATOM     36  O   UNL d   1       9.768   7.293 -20.718  0.00  0.00    -0.328 OA
ATOM     37  C   UNL d   1      10.662   8.388 -20.508  0.00  0.00     0.181 C 
ENDBRANCH  33  36
ENDBRANCH  25  30
ENDBRANCH  21  24
ENDBRANCH  17  18
ENDBRANCH  16  17
ENDBRANCH  15  16
ENDBRANCH  14  15
ENDBRANCH  13  14
ENDBRANCH  11  13
ENDBRANCH   9  10
ENDBRANCH   1   9
TORSDOF 11
