REMARK  8 active torsions:
REMARK  status: ('A' for Active; 'I' for Inactive)
REMARK    1  A    between atoms: C_2  and  N_4 
REMARK    2  A    between atoms: N_4  and  C_5 
REMARK    3  A    between atoms: C_5  and  C_6 
REMARK    4  A    between atoms: C_6  and  C_8 
REMARK    5  A    between atoms: C_8  and  O_9 
REMARK    6  A    between atoms: O_9  and  C_10 
REMARK    7  A    between atoms: C_13  and  C_14 
REMARK    8  A    between atoms: C_14  and  C_15 
ROOT
ATOM      1  C   UNL d   1      10.046   7.123  -8.881  0.00  0.00     0.094 A 
ATOM      2  C   UNL d   1       9.968   7.899 -10.059  0.00  0.00     0.024 A 
ATOM      3  C   UNL d   1       9.454   7.351 -11.245  0.00  0.00    -0.002 A 
ATOM      4  C   UNL d   1       9.023   6.010 -11.279  0.00  0.00    -0.013 A 
ATOM      5  C   UNL d   1       9.085   5.227 -10.116  0.00  0.00    -0.002 A 
ATOM      6  C   UNL d   1       9.594   5.776  -8.920  0.00  0.00     0.024 A 
ENDROOT
BRANCH   1   7
ATOM      7  O   UNL d   1      10.554   7.581  -7.682  0.00  0.00    -0.328 OA
BRANCH   7   8
ATOM      8  C   UNL d   1      10.754   8.991  -7.579  0.00  0.00     0.184 C 
BRANCH   8   9
ATOM      9  C   UNL d   1      11.652   9.383  -6.406  0.00  0.00     0.206 C 
ATOM     10  O   UNL d   1      11.785  10.789  -6.426  0.00  0.00    -0.219 OA
BRANCH   9  11
ATOM     11  C   UNL d   1      11.068   8.977  -5.058  0.00  0.00     0.155 C 
BRANCH  11  12
ATOM     12  N   UNL d   1      12.056   9.150  -3.994  0.00  0.00    -0.295 NA
BRANCH  12  13
ATOM     13  C   UNL d   1      11.845   8.317  -2.810  0.00  0.00     0.098 C 
ATOM     14  C   UNL d   1      12.800   8.747  -1.690  0.00  0.00     0.026 C 
ATOM     15  C   UNL d   1      12.025   6.821  -3.127  0.00  0.00     0.026 C 
ENDBRANCH  12  13
ENDBRANCH  11  12
ENDBRANCH   9  11
ENDBRANCH   8   9
ENDBRANCH   7   8
ENDBRANCH   1   7
BRANCH   4  16
ATOM     16  C   UNL d   1       8.428   5.476 -12.580  0.00  0.00     0.118 C 
BRANCH  16  17
ATOM     17  C   UNL d   1       6.935   5.182 -12.437  0.00  0.00     0.278 C 
ATOM     18  N   UNL d   1       6.202   5.986 -11.665  0.00  0.00    -0.107 N 
ATOM     19  O   UNL d   1       6.430   4.241 -13.052  0.00  0.00    -0.268 OA
ENDBRANCH  16  17
ENDBRANCH   4  16
TORSDOF 8
