REMARK  2 active torsions:
REMARK  status: ('A' for Active; 'I' for Inactive)
REMARK    1  A    between atoms: C_5  and  C_6 
REMARK    2  A    between atoms: C_6  and  N_7 
ROOT
ATOM      1  N   UNL d   1       9.380   6.721 -10.961  0.00  0.00     0.144 N 
ATOM      2  C   UNL d   1       9.454   5.741  -9.877  0.00  0.00     0.255 C 
ATOM      3  C   UNL d   1       8.826   6.249  -8.570  0.00  0.00     0.061 C 
ATOM      4  C   UNL d   1       9.721   7.175  -7.765  0.00  0.00    -0.022 A 
ATOM      5  C   UNL d   1      10.078   6.811  -6.460  0.00  0.00     0.015 A 
ATOM      6  C   UNL d   1      10.978   7.533  -5.676  0.00  0.00     0.089 A 
ATOM      7  N   UNL d   1      11.461   7.197  -4.409  0.00  0.00    -0.219 NA
ATOM      8  C   UNL d   1      12.154   8.214  -3.912  0.00  0.00     0.215 A 
ATOM      9  N   UNL d   1      12.634   8.259  -2.625  0.00  0.00    -0.120 N 
ATOM     10  S   UNL d   1      12.422   9.547  -4.992  0.00  0.00    -0.045 SA
ATOM     11  C   UNL d   1      11.432   8.766  -6.200  0.00  0.00     0.050 A 
ATOM     12  C   UNL d   1      11.069   9.190  -7.490  0.00  0.00     0.004 A 
ATOM     13  C   UNL d   1      10.222   8.391  -8.281  0.00  0.00    -0.024 A 
ATOM     14  C   UNL d   1       9.866   8.865  -9.674  0.00  0.00     0.061 C 
ATOM     15  C   UNL d   1      10.271   7.864 -10.765  0.00  0.00     0.255 C 
ENDROOT
BRANCH   1  16
ATOM     16  C   UNL d   1       9.659   6.086 -12.250  0.00  0.00     0.297 C 
BRANCH  16  17
ATOM     17  C   UNL d   1       8.594   5.145 -12.733  0.00  0.00     0.114 A 
ATOM     18  C   UNL d   1       7.207   5.147 -12.418  0.00  0.00     0.039 A 
ATOM     19  C   UNL d   1       6.708   4.089 -13.122  0.00  0.00     0.097 A 
ATOM     20  N   UNL d   1       7.761   3.534 -13.817  0.00  0.00    -0.248 N 
ATOM     21  C   UNL d   1       7.756   2.391 -14.704  0.00  0.00     0.154 C 
ATOM     22  N   UNL d   1       8.919   4.184 -13.584  0.00  0.00    -0.172 NA
ENDBRANCH  16  17
ENDBRANCH   1  16
TORSDOF 2
