REMARK  8 active torsions:
REMARK  status: ('A' for Active; 'I' for Inactive)
REMARK    1  A    between atoms: O_2  and  C_3 
REMARK    2  A    between atoms: C_8  and  N_9 
REMARK    3  A    between atoms: N_12  and  C_13 
REMARK    4  A    between atoms: C_17  and  N_18 
REMARK    5  A    between atoms: N_18  and  C_19 
REMARK    6  A    between atoms: C_23  and  N_24 
REMARK    7  A    between atoms: N_27  and  C_28 
REMARK    8  A    between atoms: C_33  and  O_34 
ROOT
ATOM      1  N   UNL d   1       5.289  -0.862 -16.868  0.00  0.00     0.335 N 
ENDROOT
BRANCH   1   2
ATOM      2  C   UNL d   1       5.900   0.205 -16.081  0.00  0.00     0.257 C 
ATOM      3  C   UNL d   1       7.431   0.218 -16.157  0.00  0.00     0.036 C 
ATOM      4  C   UNL d   1       7.915   0.853 -14.851  0.00  0.00     0.004 C 
ATOM      5  C   UNL d   1       8.239   2.351 -14.976  0.00  0.00     0.033 C 
ATOM      6  C   UNL d   1       6.738   0.736 -13.869  0.00  0.00     0.004 C 
ATOM      7  C   UNL d   1       7.660   2.993 -13.719  0.00  0.00     0.220 C 
ATOM      8  C   UNL d   1       6.374   2.175 -13.472  0.00  0.00     0.033 C 
ATOM      9  C   UNL d   1       5.619  -0.010 -14.598  0.00  0.00     0.036 C 
BRANCH   7  10
ATOM     10  N   UNL d   1       7.428   4.424 -13.824  0.00  0.00     0.139 N 
ATOM     11  C   UNL d   1       8.690   5.165 -13.981  0.00  0.00     0.274 C 
ATOM     12  C   UNL d   1       9.676   4.980 -12.796  0.00  0.00     0.137 C 
ATOM     13  N   UNL d   1       8.984   5.288 -11.544  0.00  0.00    -0.343 N 
ATOM     14  C   UNL d   1       7.641   4.763 -11.405  0.00  0.00     0.137 C 
ATOM     15  C   UNL d   1       6.771   4.963 -12.624  0.00  0.00     0.274 C 
BRANCH  13  16
ATOM     16  C   UNL d   1       9.474   6.171 -10.594  0.00  0.00     0.079 A 
ATOM     17  C   UNL d   1       9.781   5.771  -9.253  0.00  0.00     0.110 A 
ATOM     18  C   UNL d   1      10.322   6.708  -8.362  0.00  0.00     0.026 A 
ATOM     19  C   UNL d   1      10.573   8.044  -8.758  0.00  0.00     0.002 A 
ATOM     20  C   UNL d   1      10.256   8.431 -10.078  0.00  0.00     0.002 A 
ATOM     21  C   UNL d   1       9.719   7.515 -10.974  0.00  0.00     0.019 A 
BRANCH  17  22
ATOM     22  O   UNL d   1       9.636   4.448  -8.864  0.00  0.00    -0.327 OA
ATOM     23  C   UNL d   1       8.335   3.978  -8.509  0.00  0.00     0.181 C 
ENDBRANCH  17  22
ENDBRANCH  13  16
ENDBRANCH   7  10
ENDBRANCH   1   2
BRANCH   1  24
ATOM     24  C   UNL d   1       5.549  -0.721 -18.295  0.00  0.00     0.257 C 
ATOM     25  C   UNL d   1       5.009  -1.903 -19.097  0.00  0.00     0.036 C 
ATOM     26  C   UNL d   1       4.799  -1.373 -20.524  0.00  0.00     0.004 C 
ATOM     27  C   UNL d   1       4.571   0.142 -20.391  0.00  0.00     0.004 C 
ATOM     28  C   UNL d   1       6.024  -1.541 -21.442  0.00  0.00     0.033 C 
ATOM     29  C   UNL d   1       4.834   0.484 -18.918  0.00  0.00     0.036 C 
ATOM     30  C   UNL d   1       5.540   0.810 -21.367  0.00  0.00     0.033 C 
ATOM     31  C   UNL d   1       6.730  -0.163 -21.518  0.00  0.00     0.220 C 
BRANCH  31  32
ATOM     32  N   UNL d   1       7.751   0.013 -20.472  0.00  0.00     0.139 N 
ATOM     33  C   UNL d   1       8.829  -0.981 -20.610  0.00  0.00     0.274 C 
ATOM     34  C   UNL d   1       9.848  -0.841 -19.468  0.00  0.00     0.137 C 
ATOM     35  N   UNL d   1      10.372   0.517 -19.410  0.00  0.00    -0.343 N 
ATOM     36  C   UNL d   1       9.370   1.573 -19.415  0.00  0.00     0.137 C 
ATOM     37  C   UNL d   1       8.349   1.356 -20.541  0.00  0.00     0.274 C 
BRANCH  35  38
ATOM     38  C   UNL d   1      11.733   0.803 -19.489  0.00  0.00     0.079 A 
ATOM     39  C   UNL d   1      12.325   1.859 -18.731  0.00  0.00     0.110 A 
ATOM     40  C   UNL d   1      13.702   2.091 -18.848  0.00  0.00     0.026 A 
ATOM     41  C   UNL d   1      14.511   1.296 -19.692  0.00  0.00     0.002 A 
ATOM     42  C   UNL d   1      13.920   0.257 -20.439  0.00  0.00     0.002 A 
ATOM     43  C   UNL d   1      12.553   0.018 -20.340  0.00  0.00     0.019 A 
BRANCH  39  44
ATOM     44  O   UNL d   1      11.500   2.593 -17.889  0.00  0.00    -0.327 OA
ATOM     45  C   UNL d   1      12.080   3.622 -17.102  0.00  0.00     0.181 C 
ENDBRANCH  39  44
ENDBRANCH  35  38
ENDBRANCH  31  32
ENDBRANCH   1  24
TORSDOF 8
