REMARK  5 active torsions:
REMARK  status: ('A' for Active; 'I' for Inactive)
REMARK    1  A    between atoms: C_2  and  C_4 
REMARK    2  A    between atoms: C_7  and  C_8 
REMARK    3  A    between atoms: C_8  and  N_9 
REMARK    4  A    between atoms: N_12  and  C_13 
REMARK    5  A    between atoms: C_13  and  C_14 
REMARK       I    between atoms: C_14  and  N_16 
ROOT
ATOM      1  N   UNL d   1       8.200   4.842 -12.196  0.00  0.00     0.146 N 
ATOM      2  C   UNL d   1       9.437   4.083 -12.413  0.00  0.00     0.286 C 
ATOM      3  C   UNL d   1       9.666   3.771 -13.901  0.00  0.00     0.286 C 
ATOM      4  N   UNL d   1       8.540   3.080 -14.484  0.00  0.00     0.151 N 
ATOM      5  C   UNL d   1       7.332   3.903 -14.257  0.00  0.00     0.286 C 
ATOM      6  C   UNL d   1       7.070   4.132 -12.765  0.00  0.00     0.286 C 
ENDROOT
BRANCH   4   7
ATOM      7  C   UNL d   1       8.772   2.718 -15.890  0.00  0.00     0.337 C 
BRANCH   7   8
ATOM      8  C   UNL d   1       7.675   1.872 -16.604  0.00  0.00     0.271 C 
ATOM      9  O   UNL d   1       7.580   2.091 -17.805  0.00  0.00    -0.270 OA
ATOM     10  N   UNL d   1       6.913   0.969 -15.944  0.00  0.00    -0.299 N 
ATOM     11  C   UNL d   1       6.915   0.762 -14.465  0.00  0.00     0.093 A 
ATOM     12  C   UNL d   1       5.906   0.146 -16.523  0.00  0.00     0.058 A 
ATOM     13  C   UNL d   1       5.704  -0.132 -14.159  0.00  0.00     0.051 A 
ATOM     14  C   UNL d   1       8.226   0.095 -14.051  0.00  0.00     0.025 C 
ATOM     15  C   UNL d   1       5.172  -0.478 -15.515  0.00  0.00    -0.004 A 
ATOM     16  C   UNL d   1       4.113  -1.352 -15.824  0.00  0.00    -0.003 A 
ATOM     17  C   UNL d   1       3.849  -1.611 -17.177  0.00  0.00    -0.000 A 
ATOM     18  C   UNL d   1       4.596  -1.007 -18.196  0.00  0.00     0.002 A 
ATOM     19  C   UNL d   1       5.641  -0.114 -17.891  0.00  0.00     0.017 A 
ENDBRANCH   7   8
ENDBRANCH   4   7
BRANCH   1  20
ATOM     20  C   UNL d   1       8.000   5.166 -10.786  0.00  0.00     0.277 C 
BRANCH  20  21
ATOM     21  C   UNL d   1       9.022   6.124 -10.219  0.00  0.00     0.011 A 
ATOM     22  C   UNL d   1       9.461   7.221 -10.992  0.00  0.00    -0.003 A 
ATOM     23  C   UNL d   1      10.366   8.135 -10.449  0.00  0.00    -0.004 A 
ATOM     24  C   UNL d   1      10.857   7.967  -9.139  0.00  0.00    -0.022 A 
ATOM     25  C   UNL d   1      10.407   6.877  -8.366  0.00  0.00    -0.004 A 
ATOM     26  C   UNL d   1       9.491   5.962  -8.902  0.00  0.00    -0.003 A 
BRANCH  24  27
ATOM     27  C   UNL d   1      11.865   8.950  -8.603  0.00  0.00     0.022 C 
ATOM     28  C   UNL d   1      13.296   8.418  -8.732  0.00  0.00     0.005 C 
ATOM     29  C   UNL d   1      11.556   9.392  -7.158  0.00  0.00     0.005 C 
ENDBRANCH  24  27
ENDBRANCH  20  21
ENDBRANCH   1  20
TORSDOF 5
