REMARK  3 active torsions:
REMARK  status: ('A' for Active; 'I' for Inactive)
REMARK    1  A    between atoms: C_10  and  C_11 
REMARK    2  A    between atoms: C_11  and  N_12 
REMARK    3  A    between atoms: C_15  and  C_16 
ROOT
ATOM      1  N   UNL d   1       7.775   3.928 -13.791  0.00  0.00     0.137 N 
ATOM      2  C   UNL d   1       9.089   3.639 -13.220  0.00  0.00     0.251 C 
ATOM      3  C   UNL d   1       9.671   4.876 -12.568  0.00  0.00     0.041 C 
ATOM      4  C   UNL d   1       8.754   5.420 -11.474  0.00  0.00     0.047 C 
ATOM      5  C   UNL d   1       7.348   5.637 -12.052  0.00  0.00     0.041 C 
ATOM      6  C   UNL d   1       6.836   4.358 -12.749  0.00  0.00     0.251 C 
ENDROOT
BRANCH   1   7
ATOM      7  C   UNL d   1       7.224   2.759 -14.487  0.00  0.00     0.251 C 
BRANCH   7   8
ATOM      8  C   UNL d   1       8.046   2.338 -15.732  0.00  0.00     0.048 C 
ATOM      9  C   UNL d   1       7.098   1.927 -16.911  0.00  0.00     0.072 C 
ATOM     10  C   UNL d   1       7.804   1.384 -18.174  0.00  0.00     0.176 C 
ATOM     11  C   UNL d   1       9.049   0.648 -17.889  0.00  0.00     0.071 A 
ATOM     12  O   UNL d   1       7.330   1.570 -19.284  0.00  0.00    -0.291 OA
ATOM     13  C   UNL d   1       9.942  -0.079 -18.702  0.00  0.00     0.091 A 
ATOM     14  C   UNL d   1       9.575   0.605 -16.637  0.00  0.00     0.107 A 
ATOM     15  C   UNL d   1       9.874  -0.389 -20.165  0.00  0.00     0.055 C 
ATOM     16  N   UNL d   1      10.958  -0.533 -17.975  0.00  0.00    -0.131 NA
ATOM     17  O   UNL d   1      10.731  -0.091 -16.662  0.00  0.00    -0.216 OA
ATOM     18  C   UNL d   1       9.092   1.228 -15.400  0.00  0.00     0.056 C 
ENDBRANCH   7   8
ENDBRANCH   1   7
BRANCH   4  19
ATOM     19  C   UNL d   1       9.322   6.692 -10.880  0.00  0.00     0.087 A 
ATOM     20  C   UNL d   1       9.797   6.967  -9.585  0.00  0.00     0.041 A 
ATOM     21  C   UNL d   1      10.226   8.296  -9.539  0.00  0.00     0.129 A 
ATOM     22  C   UNL d   1       9.861   6.179  -8.415  0.00  0.00     0.006 A 
ATOM     23  O   UNL d   1      10.019   8.791 -10.814  0.00  0.00    -0.211 OA
ATOM     24  C   UNL d   1      10.735   8.897  -8.383  0.00  0.00     0.057 A 
ATOM     25  N   UNL d   1       9.467   7.775 -11.637  0.00  0.00    -0.131 NA
ATOM     26  C   UNL d   1      10.791   8.116  -7.210  0.00  0.00     0.142 A 
ATOM     27  F   UNL d   1      11.268   8.659  -6.066  0.00  0.00    -0.204 F 
ATOM     28  C   UNL d   1      10.358   6.767  -7.230  0.00  0.00     0.030 A 
ENDBRANCH   4  19
TORSDOF 3
