REMARK  12 active torsions:
REMARK  status: ('A' for Active; 'I' for Inactive)
REMARK    1  A    between atoms: C_2  and  C_3 
REMARK    2  A    between atoms: C_3  and  C_4 
REMARK    3  A    between atoms: C_4  and  C_5 
REMARK    4  A    between atoms: C_5  and  C_6 
REMARK    5  A    between atoms: C_6  and  C_7 
REMARK    6  A    between atoms: C_7  and  C_8 
REMARK    7  A    between atoms: C_8  and  N_9 
REMARK    8  A    between atoms: N_9  and  C_10 
REMARK    9  A    between atoms: C_10  and  C_12 
REMARK   10  A    between atoms: C_12  and  C_14 
REMARK   11  A    between atoms: C_17  and  S_18 
REMARK   12  A    between atoms: S_18  and  C_19 
ROOT
ATOM      1  C   UNL d   1       9.170   6.734  -9.004  0.00  0.00     0.196 C 
ATOM      2  O   UNL d   1       8.165   5.945  -8.426  0.00  0.00    -0.216 OA
ENDROOT
BRANCH   1   3
ATOM      3  C   UNL d   1       9.970   5.883 -10.020  0.00  0.00     0.133 C 
ATOM      4  C   UNL d   1       9.662   4.361  -9.977  0.00  0.00     0.029 C 
BRANCH   3   5
ATOM      5  N   UNL d   1       9.874   6.401 -11.388  0.00  0.00    -0.295 NA
BRANCH   5   6
ATOM      6  C   UNL d   1       8.511   6.865 -11.832  0.00  0.00     0.120 C 
BRANCH   6   7
ATOM      7  C   UNL d   1       7.357   5.863 -11.561  0.00  0.00     0.026 C 
BRANCH   7   8
ATOM      8  C   UNL d   1       7.371   4.732 -12.595  0.00  0.00     0.002 C 
BRANCH   8   9
ATOM      9  C   UNL d   1       6.254   3.707 -12.361  0.00  0.00     0.000 C 
BRANCH   9  10
ATOM     10  C   UNL d   1       6.202   2.635 -13.457  0.00  0.00     0.000 C 
BRANCH  10  11
ATOM     11  C   UNL d   1       5.279   1.467 -13.088  0.00  0.00     0.000 C 
BRANCH  11  12
ATOM     12  C   UNL d   1       5.278   0.352 -14.143  0.00  0.00     0.000 C 
ATOM     13  C   UNL d   1       6.602  -0.423 -14.184  0.00  0.00     0.000 C 
ENDBRANCH  11  12
ENDBRANCH  10  11
ENDBRANCH   9  10
ENDBRANCH   8   9
ENDBRANCH   7   8
ENDBRANCH   6   7
ENDBRANCH   5   6
ENDBRANCH   3   5
ENDBRANCH   1   3
BRANCH   1  14
ATOM     14  C   UNL d   1      10.021   7.351  -7.923  0.00  0.00     0.010 C 
ATOM     15  C   UNL d   1      10.849   8.473  -8.158  0.00  0.00    -0.001 C 
ATOM     16  C   UNL d   1      11.570   9.043  -7.081  0.00  0.00     0.006 C 
ATOM     17  C   UNL d   1      11.386   8.500  -5.770  0.00  0.00     0.025 C 
ATOM     18  C   UNL d   1      10.481   7.481  -5.603  0.00  0.00     0.006 C 
ATOM     19  C   UNL d   1       9.859   6.851  -6.624  0.00  0.00    -0.001 C 
BRANCH  17  20
ATOM     20  S   UNL d   1      12.274   9.157  -4.394  0.00  0.00    -0.115 SA
BRANCH  20  21
ATOM     21  C   UNL d   1      12.822   7.833  -3.256  0.00  0.00     0.052 C 
ATOM     22  C   UNL d   1      12.078   6.512  -3.373  0.00  0.00     0.012 C 
ATOM     23  C   UNL d   1      12.742   8.304  -1.808  0.00  0.00     0.012 C 
ENDBRANCH  20  21
ENDBRANCH  17  20
ENDBRANCH   1  14
TORSDOF 12
