REMARK  4 active torsions:
REMARK  status: ('A' for Active; 'I' for Inactive)
REMARK    1  A    between atoms: N_3  and  C_4 
REMARK    2  A    between atoms: C_4  and  C_5 
REMARK    3  A    between atoms: C_5  and  N_6 
REMARK    4  A    between atoms: N_15  and  C_16 
ROOT
ATOM      1  O   UNL d   1      10.011   5.373 -13.386  0.00  0.00    -0.247 OA
ATOM      2  C   UNL d   1       8.827   5.346 -13.029  0.00  0.00     0.328 A 
ATOM      3  N   UNL d   1       8.227   6.328 -12.354  0.00  0.00    -0.298 N 
ATOM      4  C   UNL d   1       6.836   6.047 -12.050  0.00  0.00     0.131 A 
ATOM      5  C   UNL d   1       6.619   4.693 -12.718  0.00  0.00     0.135 A 
ATOM      6  N   UNL d   1       7.939   4.361 -13.265  0.00  0.00    -0.280 N 
ENDROOT
BRANCH   3   7
ATOM      7  C   UNL d   1       8.886   7.551 -11.916  0.00  0.00     0.141 C 
BRANCH   7   8
ATOM      8  C   UNL d   1       9.423   7.298 -10.510  0.00  0.00     0.274 C 
BRANCH   8   9
ATOM      9  N   UNL d   1       9.853   8.510  -9.815  0.00  0.00     0.139 N 
ATOM     10  C   UNL d   1       9.606   8.455  -8.382  0.00  0.00     0.250 C 
ATOM     11  C   UNL d   1      10.136   7.166  -7.709  0.00  0.00     0.035 C 
ATOM     12  C   UNL d   1      11.589   7.266  -7.254  0.00  0.00     0.002 C 
ATOM     13  C   UNL d   1      12.547   8.018  -8.200  0.00  0.00     0.002 C 
ATOM     14  C   UNL d   1      12.308   7.922  -9.703  0.00  0.00     0.035 C 
ATOM     15  C   UNL d   1      11.222   8.915 -10.126  0.00  0.00     0.250 C 
ENDBRANCH   8   9
ENDBRANCH   7   8
ENDBRANCH   3   7
BRANCH   6  16
ATOM     16  C   UNL d   1       8.184   3.164 -14.003  0.00  0.00     0.066 A 
ATOM     17  C   UNL d   1       9.497   2.624 -14.123  0.00  0.00     0.047 A 
ATOM     18  C   UNL d   1       9.732   1.447 -14.852  0.00  0.00     0.142 A 
ATOM     19  C   UNL d   1       8.666   0.766 -15.462  0.00  0.00     0.030 A 
ATOM     20  F   UNL d   1      10.999   0.978 -14.964  0.00  0.00    -0.204 F 
ATOM     21  C   UNL d   1       7.353   1.266 -15.333  0.00  0.00     0.004 A 
ATOM     22  C   UNL d   1       7.117   2.450 -14.602  0.00  0.00     0.018 A 
ENDBRANCH   6  16
TORSDOF 4
