REMARK  2 active torsions:
REMARK  status: ('A' for Active; 'I' for Inactive)
REMARK    1  A    between atoms: C_7  and  N_8 
REMARK    2  A    between atoms: N_8  and  C_9 
ROOT
ATOM      1  N   UNL d   1       8.756   6.546  -7.230  0.00  0.00     0.063 N 
ATOM      2  C   UNL d   1       9.841   7.362  -7.320  0.00  0.00     0.799 A 
ATOM      3  N   UNL d   1      10.383   7.486  -8.532  0.00  0.00     0.138 NA
ATOM      4  C   UNL d   1      11.492   8.219  -8.515  0.00  0.00     0.799 A 
ATOM      5  N   UNL d   1      12.138   8.376  -9.709  0.00  0.00     0.063 N 
ATOM      6  N   UNL d   1      12.071   8.802  -7.469  0.00  0.00     0.136 NA
ATOM      7  C   UNL d   1      11.387   8.616  -6.342  0.00  0.00     0.776 A 
ATOM      8  N   UNL d   1      10.265   7.909  -6.178  0.00  0.00     0.136 NA
ENDROOT
BRANCH   7   9
ATOM      9  N   UNL d   1      11.964   9.197  -5.234  0.00  0.00    -0.087 NA
BRANCH   9  10
ATOM     10  C   UNL d   1      11.463   9.033  -3.883  0.00  0.00     0.122 A 
ATOM     11  C   UNL d   1      11.861   7.814  -3.065  0.00  0.00     0.027 A 
ATOM     12  C   UNL d   1      12.395   9.180  -2.713  0.00  0.00     0.027 A 
ENDBRANCH   9  10
ENDBRANCH   7   9
TORSDOF 2
