REMARK  6 active torsions:
REMARK  status: ('A' for Active; 'I' for Inactive)
REMARK       I    between atoms: C_2  and  N_3 
REMARK    1  A    between atoms: C_2  and  C_26 
REMARK    2  A    between atoms: N_3  and  C_4 
REMARK    3  A    between atoms: C_7  and  C_8 
REMARK    4  A    between atoms: C_8  and  C_9 
REMARK    5  A    between atoms: C_9  and  N_10 
REMARK    6  A    between atoms: N_13  and  C_14 
ROOT
ATOM      1  C   UNL d   1       9.450   5.809 -11.420  0.00  0.00     0.035 C 
ENDROOT
BRANCH   1   2
ATOM      2  C   UNL d   1       9.858   5.830  -9.935  0.00  0.00     0.002 C 
ATOM      3  C   UNL d   1      10.784   7.034  -9.716  0.00  0.00     0.002 C 
ATOM      4  C   UNL d   1      11.122   7.250  -8.239  0.00  0.00     0.024 C 
ATOM      5  C   UNL d   1       9.855   7.375  -7.376  0.00  0.00     0.107 C 
ATOM      6  C   UNL d   1       8.993   6.120  -7.549  0.00  0.00     0.024 C 
ATOM      7  C   UNL d   1       8.652   5.902  -9.002  0.00  0.00     0.002 C 
BRANCH   5   8
ATOM      8  N   UNL d   1      10.257   7.436  -5.995  0.00  0.00    -0.236 NA
ATOM      9  C   UNL d   1      10.905   8.464  -5.448  0.00  0.00     0.281 C 
ATOM     10  O   UNL d   1      11.012   9.570  -5.979  0.00  0.00    -0.265 OA
BRANCH   9  11
ATOM     11  C   UNL d   1      11.482   8.177  -4.136  0.00  0.00     0.087 A 
ATOM     12  S   UNL d   1      11.872   9.560  -3.154  0.00  0.00    -0.082 SA
ATOM     13  C   UNL d   1      12.517   8.527  -1.918  0.00  0.00     0.036 A 
ATOM     14  C   UNL d   1      12.380   7.199  -2.229  0.00  0.00     0.008 A 
ATOM     15  C   UNL d   1      11.813   6.998  -3.516  0.00  0.00     0.012 A 
ENDBRANCH   9  11
ENDBRANCH   5   8
ENDBRANCH   1   2
BRANCH   1  16
ATOM     16  C   UNL d   1       8.097   5.129 -11.639  0.00  0.00     0.250 C 
BRANCH  16  17
ATOM     17  N   UNL d   1       7.538   5.444 -12.945  0.00  0.00     0.141 N 
ATOM     18  C   UNL d   1       6.177   4.896 -13.052  0.00  0.00     0.274 C 
ATOM     19  C   UNL d   1       6.196   3.369 -13.027  0.00  0.00     0.137 C 
ATOM     20  N   UNL d   1       7.128   2.849 -14.036  0.00  0.00    -0.344 N 
ATOM     21  C   UNL d   1       8.473   3.453 -14.094  0.00  0.00     0.137 C 
ATOM     22  C   UNL d   1       8.380   4.999 -14.063  0.00  0.00     0.274 C 
BRANCH  20  23
ATOM     23  C   UNL d   1       6.778   1.808 -14.899  0.00  0.00     0.068 A 
ATOM     24  C   UNL d   1       5.987   0.691 -14.492  0.00  0.00     0.084 A 
ATOM     25  C   UNL d   1       5.613  -0.277 -15.459  0.00  0.00     0.070 A 
ATOM     26 CL   UNL d   1       5.467   0.450 -12.855  0.00  0.00    -0.080 Cl
ATOM     27  C   UNL d   1       6.031  -0.162 -16.790  0.00  0.00     0.012 A 
ATOM     28 CL   UNL d   1       4.622  -1.616 -15.038  0.00  0.00    -0.081 Cl
ATOM     29  C   UNL d   1       6.830   0.915 -17.195  0.00  0.00     0.002 A 
ATOM     30  C   UNL d   1       7.195   1.887 -16.245  0.00  0.00     0.018 A 
ENDBRANCH  20  23
ENDBRANCH  16  17
ENDBRANCH   1  16
TORSDOF 6
