REMARK  8 active torsions:
REMARK  status: ('A' for Active; 'I' for Inactive)
REMARK    1  A    between atoms: S_2  and  C_4 
REMARK    2  A    between atoms: S_2  and  C_23 
REMARK    3  A    between atoms: C_4  and  C_5 
REMARK    4  A    between atoms: N_8  and  C_9 
REMARK    5  A    between atoms: C_9  and  C_10 
REMARK    6  A    between atoms: C_10  and  C_11 
REMARK    7  A    between atoms: C_11  and  C_12 
REMARK    8  A    between atoms: C_27  and  C_28 
ROOT
ATOM      1  C   UNL d   1       8.229   5.417 -12.176  0.00  0.00     0.052 C 
ATOM      2  C   UNL d   1       7.606   5.271 -10.800  0.00  0.00     0.038 C 
ATOM      3  C   UNL d   1       8.634   5.797  -9.808  0.00  0.00     0.250 C 
ATOM      4  N   UNL d   1       9.384   6.782 -10.580  0.00  0.00     0.137 N 
ATOM      5  C   UNL d   1       9.541   6.091 -11.838  0.00  0.00     0.251 C 
ENDROOT
BRANCH   1   6
ATOM      6  C   UNL d   1       8.387   4.071 -12.927  0.00  0.00     0.129 C 
BRANCH   6   7
ATOM      7  S   UNL d   1       9.587   4.138 -14.329  0.00  0.00     0.190 S 
ATOM      8  O   UNL d   1       9.090   5.076 -15.315  0.00  0.00    -0.222 OA
ATOM      9  O   UNL d   1      10.971   4.280 -13.786  0.00  0.00    -0.222 OA
BRANCH   7  10
ATOM     10  C   UNL d   1       9.492   2.518 -15.027  0.00  0.00     0.084 A 
ATOM     11  C   UNL d   1       8.314   2.116 -15.692  0.00  0.00     0.015 A 
ATOM     12  C   UNL d   1       8.261   0.838 -16.294  0.00  0.00     0.072 A 
ATOM     13  C   UNL d   1       9.376  -0.010 -16.180  0.00  0.00     0.004 A 
ATOM     14  C   UNL d   1      10.521   0.387 -15.468  0.00  0.00     0.001 A 
ATOM     15  C   UNL d   1      10.586   1.661 -14.893  0.00  0.00     0.011 A 
BRANCH  12  16
ATOM     16  C   UNL d   1       7.013   0.392 -17.038  0.00  0.00     0.419 C 
ATOM     17  F   UNL d   1       6.123  -0.058 -16.157  0.00  0.00    -0.166 F 
ATOM     18  F   UNL d   1       6.502   1.437 -17.692  0.00  0.00    -0.166 F 
ATOM     19  F   UNL d   1       7.269  -0.565 -17.933  0.00  0.00    -0.166 F 
ENDBRANCH  12  16
ENDBRANCH   7  10
ENDBRANCH   6   7
ENDBRANCH   1   6
BRANCH   4  20
ATOM     20  C   UNL d   1      10.664   7.130  -9.983  0.00  0.00     0.251 C 
BRANCH  20  21
ATOM     21  C   UNL d   1      10.478   7.896  -8.662  0.00  0.00     0.042 C 
BRANCH  21  22
ATOM     22  C   UNL d   1      11.803   8.253  -7.994  0.00  0.00     0.050 C 
BRANCH  22  23
ATOM     23  C   UNL d   1      11.540   8.936  -6.681  0.00  0.00     0.088 C 
ATOM     24  C   UNL d   1      11.558   8.479  -5.344  0.00  0.00     0.041 A 
ATOM     25  C   UNL d   1      11.397   9.565  -4.493  0.00  0.00     0.129 A 
ATOM     26  C   UNL d   1      11.827   7.202  -4.800  0.00  0.00     0.006 A 
ATOM     27  O   UNL d   1      11.084  10.633  -5.314  0.00  0.00    -0.211 OA
ATOM     28  C   UNL d   1      11.574   9.480  -3.120  0.00  0.00     0.057 A 
ATOM     29  N   UNL d   1      11.257  10.243  -6.665  0.00  0.00    -0.131 NA
ATOM     30  C   UNL d   1      11.947   8.242  -2.569  0.00  0.00     0.142 A 
ATOM     31  F   UNL d   1      12.182   8.144  -1.240  0.00  0.00    -0.204 F 
ATOM     32  C   UNL d   1      12.054   7.095  -3.391  0.00  0.00     0.030 A 
ENDBRANCH  22  23
ENDBRANCH  21  22
ENDBRANCH  20  21
ENDBRANCH   4  20
TORSDOF 8
