REMARK  6 active torsions:
REMARK  status: ('A' for Active; 'I' for Inactive)
REMARK    1  A    between atoms: C_6  and  C_7 
REMARK    2  A    between atoms: C_10  and  S_11 
REMARK    3  A    between atoms: S_11  and  C_12 
REMARK    4  A    between atoms: C_12  and  C_13 
REMARK    5  A    between atoms: C_13  and  C_14 
REMARK    6  A    between atoms: C_14  and  N_16 
ROOT
ATOM      1  C   UNL d   1       7.241  -0.641 -22.569  0.00  0.00     0.067 C 
ENDROOT
BRANCH   1   2
ATOM      2  S   UNL d   1       5.824  -1.572 -21.923  0.00  0.00    -0.075 SA
BRANCH   2   3
ATOM      3  C   UNL d   1       6.287  -1.581 -20.224  0.00  0.00     0.193 A 
ATOM      4  N   UNL d   1       7.477  -1.988 -19.781  0.00  0.00    -0.122 NA
ATOM      5  N   UNL d   1       7.478  -1.699 -18.439  0.00  0.00    -0.128 NA
ATOM      6  C   UNL d   1       6.271  -1.180 -18.167  0.00  0.00     0.167 A 
ATOM      7  N   UNL d   1       5.486  -1.086 -19.263  0.00  0.00    -0.289 N 
ATOM      8  C   UNL d   1       4.138  -0.552 -19.398  0.00  0.00     0.134 C 
BRANCH   6   9
ATOM      9  C   UNL d   1       5.871  -0.746 -16.828  0.00  0.00     0.037 A 
ATOM     10  C   UNL d   1       6.527   0.313 -16.140  0.00  0.00     0.021 A 
ATOM     11  C   UNL d   1       7.622   1.012 -16.703  0.00  0.00     0.003 A 
ATOM     12  C   UNL d   1       6.086   0.703 -14.840  0.00  0.00     0.081 A 
ATOM     13  C   UNL d   1       8.232   2.042 -15.967  0.00  0.00     0.015 A 
ATOM     14  C   UNL d   1       7.712   2.365 -14.703  0.00  0.00     0.059 A 
ATOM     15  C   UNL d   1       8.319   3.487 -13.887  0.00  0.00     0.052 C 
ATOM     16  N   UNL d   1       6.661   1.718 -14.159  0.00  0.00    -0.250 NA
ATOM     17  C   UNL d   1       5.000   0.021 -14.257  0.00  0.00     0.019 A 
ATOM     18  C   UNL d   1       4.353  -1.027 -14.932  0.00  0.00     0.002 A 
ATOM     19  C   UNL d   1       4.793  -1.413 -16.209  0.00  0.00     0.003 A 
ENDBRANCH   6   9
ENDBRANCH   2   3
ENDBRANCH   1   2
BRANCH   1  20
ATOM     20  C   UNL d   1       7.483   0.700 -21.844  0.00  0.00     0.045 C 
BRANCH  20  21
ATOM     21  C   UNL d   1       8.642   1.539 -22.419  0.00  0.00     0.220 C 
ATOM     22  C   UNL d   1       9.963   0.744 -22.561  0.00  0.00     0.035 C 
BRANCH  21  23
ATOM     23  N   UNL d   1       8.798   2.782 -21.636  0.00  0.00     0.136 N 
ATOM     24  C   UNL d   1       9.508   2.592 -20.358  0.00  0.00     0.255 C 
ATOM     25  C   UNL d   1       9.303   3.740 -19.358  0.00  0.00     0.061 C 
ATOM     26  C   UNL d   1      10.211   4.927 -19.587  0.00  0.00    -0.024 A 
ATOM     27  C   UNL d   1      10.159   5.652 -20.810  0.00  0.00    -0.024 A 
ATOM     28  C   UNL d   1      11.118   5.307 -18.568  0.00  0.00    -0.000 A 
ATOM     29  C   UNL d   1       9.183   5.258 -21.904  0.00  0.00     0.061 C 
ATOM     30  C   UNL d   1      11.019   6.758 -21.022  0.00  0.00    -0.007 A 
ATOM     31  C   UNL d   1       9.402   3.837 -22.458  0.00  0.00     0.255 C 
ATOM     32  C   UNL d   1      11.909   7.107 -19.998  0.00  0.00     0.004 A 
ATOM     33  C   UNL d   1      12.934   8.208 -19.948  0.00  0.00     0.131 A 
ATOM     34  C   UNL d   1      11.956   6.405 -18.809  0.00  0.00     0.053 A 
ATOM     35  N   UNL d   1      13.528   8.023 -18.614  0.00  0.00    -0.311 N 
ATOM     36  C   UNL d   1      12.986   6.997 -17.924  0.00  0.00     0.257 A 
ATOM     37  C   UNL d   1      14.571   8.919 -18.141  0.00  0.00     0.129 C 
ATOM     38  O   UNL d   1      13.271   6.605 -16.790  0.00  0.00    -0.267 OA
ENDBRANCH  21  23
ENDBRANCH  20  21
ENDBRANCH   1  20
TORSDOF 6
