REMARK  4 active torsions:
REMARK  status: ('A' for Active; 'I' for Inactive)
REMARK    1  A    between atoms: C_4  and  C_5 
REMARK    2  A    between atoms: C_5  and  N_6 
REMARK    3  A    between atoms: N_9  and  C_10 
REMARK    4  A    between atoms: C_10  and  C_11 
ROOT
ATOM      1  N   UNL d   1       4.878  -1.413 -18.250  0.00  0.00     0.146 N 
ATOM      2  C   UNL d   1       5.494  -0.101 -18.088  0.00  0.00     0.286 C 
ATOM      3  C   UNL d   1       6.159   0.044 -16.712  0.00  0.00     0.286 C 
ATOM      4  N   UNL d   1       5.199  -0.132 -15.617  0.00  0.00     0.148 N 
ATOM      5  C   UNL d   1       4.572  -1.446 -15.771  0.00  0.00     0.286 C 
ATOM      6  C   UNL d   1       3.922  -1.609 -17.156  0.00  0.00     0.286 C 
ENDROOT
BRANCH   4   7
ATOM      7  C   UNL d   1       5.813   0.007 -14.296  0.00  0.00     0.301 C 
BRANCH   7   8
ATOM      8  C   UNL d   1       6.360   1.375 -14.037  0.00  0.00     0.111 A 
ATOM      9  O   UNL d   1       5.617   2.206 -13.238  0.00  0.00    -0.309 OA
ATOM     10  C   UNL d   1       6.314   3.394 -13.154  0.00  0.00     0.100 A 
ATOM     11  C   UNL d   1       7.514   3.296 -13.905  0.00  0.00     0.025 A 
ATOM     12  C   UNL d   1       5.965   4.537 -12.421  0.00  0.00     0.025 A 
ATOM     13  C   UNL d   1       7.523   1.978 -14.469  0.00  0.00     0.024 A 
ATOM     14  C   UNL d   1       8.369   4.423 -13.911  0.00  0.00     0.002 A 
ATOM     15  C   UNL d   1       8.034   5.585 -13.181  0.00  0.00     0.000 A 
ATOM     16  C   UNL d   1       6.838   5.642 -12.434  0.00  0.00     0.002 A 
ENDBRANCH   7   8
ENDBRANCH   4   7
BRANCH   1  17
ATOM     17  C   UNL d   1       4.251  -1.561 -19.564  0.00  0.00     0.277 C 
BRANCH  17  18
ATOM     18  C   UNL d   1       4.072  -3.008 -19.995  0.00  0.00     0.011 A 
ATOM     19  C   UNL d   1       4.929  -3.558 -20.974  0.00  0.00    -0.002 A 
ATOM     20  C   UNL d   1       4.766  -4.896 -21.393  0.00  0.00    -0.000 A 
ATOM     21  C   UNL d   1       3.752  -5.696 -20.830  0.00  0.00    -0.000 A 
ATOM     22  C   UNL d   1       2.897  -5.153 -19.853  0.00  0.00    -0.000 A 
ATOM     23  C   UNL d   1       3.053  -3.814 -19.448  0.00  0.00    -0.002 A 
ENDBRANCH  17  18
ENDBRANCH   1  17
TORSDOF 4
