REMARK  6 active torsions:
REMARK  status: ('A' for Active; 'I' for Inactive)
REMARK    1  A    between atoms: C_2  and  C_3 
REMARK    2  A    between atoms: C_3  and  N_4 
REMARK    3  A    between atoms: N_4  and  C_5 
REMARK    4  A    between atoms: N_4  and  C_14 
REMARK    5  A    between atoms: C_5  and  C_6 
REMARK    6  A    between atoms: C_6  and  C_7 
ROOT
ATOM      1  N   UNL d   1      11.822   8.206  -9.152  0.00  0.00     0.136 N 
ENDROOT
BRANCH   1   2
ATOM      2  C   UNL d   1      13.295   8.108  -9.310  0.00  0.00     0.250 C 
BRANCH   2   3
ATOM      3  C   UNL d   1      13.728   8.114 -10.759  0.00  0.00     0.035 C 
ATOM      4  C   UNL d   1      15.237   8.299 -10.982  0.00  0.00     0.002 C 
ENDBRANCH   2   3
ENDBRANCH   1   2
BRANCH   1   5
ATOM      5  C   UNL d   1      11.069   7.115  -9.786  0.00  0.00     0.255 C 
BRANCH   5   6
ATOM      6  C   UNL d   1       9.669   7.551 -10.193  0.00  0.00     0.062 C 
BRANCH   6   7
ATOM      7  C   UNL d   1       9.018   6.483 -11.043  0.00  0.00    -0.020 A 
ATOM      8  C   UNL d   1       8.261   5.460 -10.441  0.00  0.00    -0.003 A 
ATOM      9  C   UNL d   1       7.606   4.508 -11.249  0.00  0.00     0.014 A 
ATOM     10  C   UNL d   1       7.713   4.559 -12.645  0.00  0.00     0.070 A 
ATOM     11  C   UNL d   1       8.481   5.574 -13.244  0.00  0.00     0.014 A 
ATOM     12  N   UNL d   1       7.060   3.614 -13.437  0.00  0.00    -0.101 NA
ATOM     13  C   UNL d   1       9.124   6.536 -12.441  0.00  0.00    -0.003 A 
ENDBRANCH   6   7
ENDBRANCH   5   6
ENDBRANCH   1   5
BRANCH   1  14
ATOM     14  C   UNL d   1      11.374   8.340  -7.758  0.00  0.00     0.224 C 
ATOM     15  C   UNL d   1      11.724   7.112  -6.914  0.00  0.00     0.059 C 
ATOM     16  C   UNL d   1      11.646   7.394  -5.404  0.00  0.00    -0.022 A 
ATOM     17  C   UNL d   1      11.497   8.674  -4.844  0.00  0.00    -0.001 A 
ATOM     18  C   UNL d   1      11.816   6.314  -4.553  0.00  0.00    -0.004 A 
ATOM     19  C   UNL d   1      11.374   9.879  -5.719  0.00  0.00     0.030 C 
ATOM     20  C   UNL d   1      11.485   8.810  -3.440  0.00  0.00     0.127 A 
ATOM     21  C   UNL d   1      11.867   9.639  -7.125  0.00  0.00     0.038 C 
ATOM     22  O   UNL d   1      11.545  10.011  -2.864  0.00  0.00    -0.191 OA
ATOM     23  C   UNL d   1      11.550   7.677  -2.607  0.00  0.00     0.027 A 
ATOM     24  C   UNL d   1      11.738   6.381  -3.162  0.00  0.00     0.002 A 
ENDBRANCH   1  14
TORSDOF 6
