REMARK  6 active torsions:
REMARK  status: ('A' for Active; 'I' for Inactive)
REMARK    1  A    between atoms: O_2  and  C_3 
REMARK    2  A    between atoms: C_7  and  N_8 
REMARK    3  A    between atoms: N_11  and  C_12 
REMARK    4  A    between atoms: C_12  and  C_13 
REMARK    5  A    between atoms: C_13  and  N_14 
REMARK    6  A    between atoms: C_17  and  C_18 
ROOT
ATOM      1  N   UNL d   1       7.204   4.016 -13.139  0.00  0.00    -0.280 N 
ATOM      2  C   UNL d   1       6.063   4.836 -12.727  0.00  0.00     0.135 A 
ATOM      3  C   UNL d   1       6.705   5.958 -11.917  0.00  0.00     0.131 A 
ATOM      4  N   UNL d   1       8.103   5.589 -11.922  0.00  0.00    -0.298 N 
ATOM      5  C   UNL d   1       8.362   4.465 -12.595  0.00  0.00     0.328 A 
ATOM      6  O   UNL d   1       9.476   3.960 -12.706  0.00  0.00    -0.247 OA
ENDROOT
BRANCH   4   7
ATOM      7  C   UNL d   1       9.097   6.401 -11.247  0.00  0.00     0.141 C 
BRANCH   7   8
ATOM      8  C   UNL d   1       9.421   5.807  -9.863  0.00  0.00     0.274 C 
BRANCH   8   9
ATOM      9  N   UNL d   1      10.162   6.734  -9.020  0.00  0.00     0.139 N 
ATOM     10  C   UNL d   1       9.339   7.896  -8.707  0.00  0.00     0.251 C 
ATOM     11  C   UNL d   1      10.130   8.886  -7.866  0.00  0.00     0.044 C 
ATOM     12  C   UNL d   1      10.588   8.274  -6.538  0.00  0.00     0.099 C 
ATOM     13  C   UNL d   1      11.316   6.954  -6.840  0.00  0.00     0.044 C 
ATOM     14  C   UNL d   1      10.476   6.053  -7.760  0.00  0.00     0.251 C 
BRANCH  12  15
ATOM     15  C   UNL d   1      11.457   9.261  -5.729  0.00  0.00     0.398 C 
ATOM     16  F   UNL d   1      10.772  10.370  -5.435  0.00  0.00    -0.170 F 
ATOM     17  F   UNL d   1      11.864   8.713  -4.583  0.00  0.00    -0.170 F 
ATOM     18  F   UNL d   1      12.530   9.599  -6.436  0.00  0.00    -0.170 F 
ENDBRANCH  12  15
ENDBRANCH   8   9
ENDBRANCH   7   8
ENDBRANCH   4   7
BRANCH   1  19
ATOM     19  C   UNL d   1       7.066   2.824 -13.898  0.00  0.00     0.066 A 
ATOM     20  C   UNL d   1       8.047   2.446 -14.836  0.00  0.00     0.018 A 
ATOM     21  C   UNL d   1       7.939   1.244 -15.553  0.00  0.00     0.004 A 
ATOM     22  C   UNL d   1       6.830   0.405 -15.351  0.00  0.00     0.024 A 
ATOM     23  C   UNL d   1       5.832   0.759 -14.400  0.00  0.00     0.096 A 
ATOM     24  C   UNL d   1       5.954   1.967 -13.688  0.00  0.00     0.042 A 
BRANCH  23  25
ATOM     25  O   UNL d   1       4.729  -0.009 -14.116  0.00  0.00    -0.328 OA
ATOM     26  C   UNL d   1       4.494  -1.142 -14.938  0.00  0.00     0.181 C 
ENDBRANCH  23  25
ENDBRANCH   1  19
TORSDOF 6
