REMARK  1 active torsions:
REMARK  status: ('A' for Active; 'I' for Inactive)
REMARK    1  A    between atoms: O_2  and  C_3 
ROOT
ATOM      1  C   UNL d   1      12.733   5.081 -16.805  0.00  0.00     0.117 A 
ATOM      2  C   UNL d   1      13.721   4.485 -17.625  0.00  0.00     0.153 A 
ATOM      3  O   UNL d   1      14.847   5.173 -17.969  0.00  0.00    -0.188 OA
ATOM      4  C   UNL d   1      13.564   3.167 -18.082  0.00  0.00     0.029 A 
ATOM      5  C   UNL d   1      12.435   2.415 -17.704  0.00  0.00    -0.002 A 
ATOM      6  C   UNL d   1      11.457   2.988 -16.867  0.00  0.00    -0.020 A 
ATOM      7  C   UNL d   1      11.609   4.317 -16.412  0.00  0.00     0.031 A 
ATOM      8  C   UNL d   1      10.521   4.933 -15.547  0.00  0.00     0.279 C 
ATOM      9  N   UNL d   1       9.659   3.951 -14.888  0.00  0.00     0.144 N 
ATOM     10  C   UNL d   1       8.622   4.655 -14.139  0.00  0.00     0.256 C 
ATOM     11  C   UNL d   1       7.853   3.634 -13.298  0.00  0.00     0.061 C 
ATOM     12  C   UNL d   1       7.320   2.479 -14.130  0.00  0.00    -0.020 A 
ATOM     13  C   UNL d   1       6.245   1.698 -13.656  0.00  0.00     0.022 A 
ATOM     14  C   UNL d   1       5.752   0.618 -14.411  0.00  0.00     0.116 A 
ATOM     15  C   UNL d   1       6.337   0.321 -15.666  0.00  0.00     0.116 A 
ATOM     16  C   UNL d   1       7.407   1.107 -16.143  0.00  0.00     0.024 A 
ATOM     17  C   UNL d   1       7.929   2.172 -15.369  0.00  0.00     0.007 A 
ATOM     18  C   UNL d   1       9.087   3.035 -15.892  0.00  0.00     0.246 C 
ATOM     19  C   UNL d   1      10.249   2.171 -16.438  0.00  0.00     0.064 C 
ATOM     20  O   UNL d   1       5.872  -0.720 -16.438  0.00  0.00    -0.326 OA
ATOM     21  C   UNL d   1       5.069  -1.669 -15.741  0.00  0.00     0.181 C 
ATOM     22  C   UNL d   1       4.032  -0.924 -14.891  0.00  0.00     0.181 C 
ATOM     23  O   UNL d   1       4.693  -0.116 -13.921  0.00  0.00    -0.326 OA
ENDROOT
BRANCH   1  24
ATOM     24  O   UNL d   1      12.871   6.378 -16.370  0.00  0.00    -0.326 OA
ATOM     25  C   UNL d   1      12.676   7.359 -17.381  0.00  0.00     0.181 C 
ENDBRANCH   1  24
TORSDOF 1
