REMARK  5 active torsions:
REMARK  status: ('A' for Active; 'I' for Inactive)
REMARK    1  A    between atoms: O_2  and  C_3 
REMARK    2  A    between atoms: C_10  and  C_11 
REMARK    3  A    between atoms: C_11  and  O_13 
REMARK    4  A    between atoms: O_13  and  C_14 
REMARK    5  A    between atoms: C_14  and  C_15 
ROOT
ATOM      1  C   UNL d   1       9.444   4.758 -13.196  0.00  0.00     0.298 C 
ATOM      2  O   UNL d   1      10.533   5.149 -13.625  0.00  0.00    -0.259 OA
ENDROOT
BRANCH   1   3
ATOM      3  C   UNL d   1       8.694   3.582 -13.744  0.00  0.00     0.086 A 
ATOM      4  C   UNL d   1       7.279   3.432 -13.628  0.00  0.00     0.100 A 
ATOM      5  C   UNL d   1       6.657   2.280 -14.167  0.00  0.00     0.039 A 
ATOM      6  C   UNL d   1       7.403   1.297 -14.841  0.00  0.00     0.083 A 
ATOM      7  N   UNL d   1       6.744   0.203 -15.400  0.00  0.00    -0.100 NA
ATOM      8  C   UNL d   1       8.805   1.443 -14.951  0.00  0.00     0.071 A 
ATOM      9 CL   UNL d   1       9.768   0.254 -15.763  0.00  0.00    -0.081 Cl
ATOM     10  C   UNL d   1       9.433   2.579 -14.407  0.00  0.00     0.020 A 
BRANCH   4  11
ATOM     11  O   UNL d   1       6.521   4.414 -13.036  0.00  0.00    -0.328 OA
ATOM     12  C   UNL d   1       5.479   4.011 -12.154  0.00  0.00     0.181 C 
ENDBRANCH   4  11
ENDBRANCH   1   3
BRANCH   1  13
ATOM     13  O   UNL d   1       8.797   5.332 -12.173  0.00  0.00    -0.298 OA
BRANCH  13  14
ATOM     14  C   UNL d   1       9.154   6.605 -11.654  0.00  0.00     0.154 C 
BRANCH  14  15
ATOM     15  C   UNL d   1       9.690   6.497 -10.216  0.00  0.00     0.064 C 
ATOM     16  C   UNL d   1       9.807   7.868  -9.527  0.00  0.00     0.222 C 
ATOM     17  N   UNL d   1       9.464   7.655  -8.115  0.00  0.00     0.135 N 
ATOM     18  C   UNL d   1      11.206   8.491  -9.553  0.00  0.00     0.035 C 
ATOM     19  C   UNL d   1       9.251   6.221  -7.912  0.00  0.00     0.250 C 
ATOM     20  C   UNL d   1      10.527   8.215  -7.286  0.00  0.00     0.250 C 
ATOM     21  C   UNL d   1       8.788   5.723  -9.272  0.00  0.00     0.040 C 
ATOM     22  C   UNL d   1      11.768   8.204  -8.168  0.00  0.00     0.037 C 
ENDBRANCH  14  15
ENDBRANCH  13  14
ENDBRANCH   1  13
TORSDOF 5
