REMARK  5 active torsions:
REMARK  status: ('A' for Active; 'I' for Inactive)
REMARK    1  A    between atoms: N_11  and  C_12 
REMARK    2  A    between atoms: C_12  and  C_13 
REMARK    3  A    between atoms: C_13  and  C_14 
REMARK    4  A    between atoms: C_14  and  N_15 
REMARK    5  A    between atoms: N_18  and  C_19 
ROOT
ATOM      1  C   UNL d   1       8.218   5.724  -9.009  0.00  0.00     0.252 C 
ENDROOT
BRANCH   1   2
ATOM      2  C   UNL d   1       8.504   4.790 -10.199  0.00  0.00     0.060 C 
BRANCH   2   3
ATOM      3  C   UNL d   1       8.297   5.503 -11.564  0.00  0.00     0.111 C 
BRANCH   3   4
ATOM      4  N   UNL d   1       8.495   4.586 -12.720  0.00  0.00    -0.299 N 
ATOM      5  C   UNL d   1       9.736   4.440 -13.230  0.00  0.00     0.238 C 
ATOM      6  O   UNL d   1      10.657   5.163 -12.868  0.00  0.00    -0.272 OA
ATOM      7  C   UNL d   1      10.047   3.388 -14.295  0.00  0.00     0.093 C 
ATOM      8  C   UNL d   1       8.828   3.079 -15.159  0.00  0.00     0.038 C 
ATOM      9  C   UNL d   1       7.597   2.917 -14.293  0.00  0.00    -0.006 A 
ATOM     10  C   UNL d   1       7.416   3.735 -13.149  0.00  0.00     0.058 A 
ATOM     11  C   UNL d   1       6.663   1.917 -14.621  0.00  0.00    -0.003 A 
ATOM     12  C   UNL d   1       6.251   3.578 -12.346  0.00  0.00     0.017 A 
ATOM     13  C   UNL d   1       5.342   2.536 -12.674  0.00  0.00     0.002 A 
ATOM     14  C   UNL d   1       5.563   1.705 -13.768  0.00  0.00    -0.000 A 
ENDBRANCH   3   4
ENDBRANCH   2   3
ENDBRANCH   1   2
BRANCH   1  15
ATOM     15  N   UNL d   1       9.342   6.520  -8.555  0.00  0.00     0.141 N 
ATOM     16  C   UNL d   1       8.810   7.514  -7.597  0.00  0.00     0.274 C 
ATOM     17  C   UNL d   1       9.945   8.379  -7.125  0.00  0.00     0.137 C 
ATOM     18  N   UNL d   1      10.940   7.558  -6.475  0.00  0.00    -0.344 N 
ATOM     19  C   UNL d   1      11.398   6.442  -7.275  0.00  0.00     0.137 C 
ATOM     20  C   UNL d   1      10.219   5.623  -7.809  0.00  0.00     0.274 C 
BRANCH  18  21
ATOM     21  C   UNL d   1      11.464   7.851  -5.208  0.00  0.00     0.067 A 
ATOM     22  C   UNL d   1      11.734   9.169  -4.788  0.00  0.00     0.073 A 
ATOM     23  C   UNL d   1      12.231   9.391  -3.497  0.00  0.00     0.013 A 
ATOM     24 CL   UNL d   1      11.514  10.512  -5.859  0.00  0.00    -0.081 Cl
ATOM     25  C   UNL d   1      12.499   8.318  -2.625  0.00  0.00     0.001 A 
ATOM     26  C   UNL d   1      12.232   7.003  -3.054  0.00  0.00     0.002 A 
ATOM     27  C   UNL d   1      11.708   6.787  -4.330  0.00  0.00     0.018 A 
ENDBRANCH  18  21
ENDBRANCH   1  15
TORSDOF 5
