REMARK  7 active torsions:
REMARK  status: ('A' for Active; 'I' for Inactive)
REMARK    1  A    between atoms: C_2  and  C_3 
REMARK       I    between atoms: C_2  and  N_10 
REMARK    2  A    between atoms: C_3  and  C_4 
REMARK    3  A    between atoms: N_10  and  C_11 
REMARK    4  A    between atoms: C_17  and  C_18 
REMARK    5  A    between atoms: C_18  and  C_19 
REMARK    6  A    between atoms: C_19  and  N_20 
REMARK    7  A    between atoms: N_23  and  C_24 
ROOT
ATOM      1  C   UNL d   1       8.795   1.147 -14.378  0.00  0.00     0.129 C 
ATOM      2  C   UNL d   1       9.857   0.693 -15.416  0.00  0.00     0.034 C 
ATOM      3  C   UNL d   1      10.939   1.796 -15.472  0.00  0.00     0.028 C 
ATOM      4  C   UNL d   1      10.329   2.947 -14.712  0.00  0.00    -0.024 A 
ATOM      5  C   UNL d   1      10.842   4.251 -14.590  0.00  0.00    -0.005 A 
ATOM      6  C   UNL d   1      10.087   5.192 -13.855  0.00  0.00    -0.005 A 
ATOM      7  C   UNL d   1       8.845   4.843 -13.272  0.00  0.00    -0.020 A 
ATOM      8  C   UNL d   1       8.369   3.529 -13.399  0.00  0.00    -0.007 A 
ATOM      9  C   UNL d   1       9.128   2.589 -14.118  0.00  0.00    -0.004 A 
ENDROOT
BRANCH   7  10
ATOM     10  C   UNL d   1       8.011   5.856 -12.509  0.00  0.00     0.062 C 
BRANCH  10  11
ATOM     11  C   UNL d   1       7.899   5.545 -10.999  0.00  0.00     0.255 C 
BRANCH  11  12
ATOM     12  N   UNL d   1       9.127   5.751 -10.250  0.00  0.00     0.141 N 
ATOM     13  C   UNL d   1       8.794   5.695  -8.819  0.00  0.00     0.274 C 
ATOM     14  C   UNL d   1      10.038   5.924  -7.948  0.00  0.00     0.138 C 
ATOM     15  N   UNL d   1      10.703   7.171  -8.289  0.00  0.00    -0.329 N 
ATOM     16  C   UNL d   1      10.975   7.324  -9.715  0.00  0.00     0.138 C 
ATOM     17  C   UNL d   1       9.706   7.066 -10.541  0.00  0.00     0.274 C 
BRANCH  15  18
ATOM     18  C   UNL d   1      11.009   8.165  -7.327  0.00  0.00     0.148 A 
ATOM     19  C   UNL d   1      11.334   7.873  -5.940  0.00  0.00     0.042 A 
ATOM     20  C   UNL d   1      11.621   9.084  -5.242  0.00  0.00     0.050 A 
ATOM     21  C   UNL d   1      11.470   6.681  -5.197  0.00  0.00     0.004 A 
ATOM     22  S   UNL d   1      11.509  10.383  -6.385  0.00  0.00     0.015 SA
ATOM     23  C   UNL d   1      11.955   9.112  -3.869  0.00  0.00     0.008 A 
ATOM     24  N   UNL d   1      11.061   9.424  -7.686  0.00  0.00    -0.192 NA
ATOM     25  C   UNL d   1      12.044   7.901  -3.161  0.00  0.00     0.001 A 
ATOM     26  C   UNL d   1      11.814   6.692  -3.830  0.00  0.00     0.000 A 
ENDBRANCH  15  18
ENDBRANCH  11  12
ENDBRANCH  10  11
ENDBRANCH   7  10
BRANCH   1  27
ATOM     27  N   UNL d   1       7.433   0.971 -14.860  0.00  0.00    -0.235 NA
ATOM     28  C   UNL d   1       6.520   0.124 -14.356  0.00  0.00     0.256 C 
ATOM     29  O   UNL d   1       6.698  -0.583 -13.365  0.00  0.00    -0.270 OA
BRANCH  28  30
ATOM     30  C   UNL d   1       5.177   0.103 -15.068  0.00  0.00     0.116 C 
BRANCH  30  31
ATOM     31  C   UNL d   1       5.259  -0.615 -16.403  0.00  0.00    -0.013 A 
ATOM     32  C   UNL d   1       5.839   0.017 -17.526  0.00  0.00    -0.004 A 
ATOM     33  C   UNL d   1       5.932  -0.669 -18.752  0.00  0.00    -0.000 A 
ATOM     34  C   UNL d   1       5.429  -1.980 -18.862  0.00  0.00    -0.000 A 
ATOM     35  C   UNL d   1       4.830  -2.602 -17.749  0.00  0.00    -0.000 A 
ATOM     36  C   UNL d   1       4.745  -1.921 -16.523  0.00  0.00    -0.004 A 
ENDBRANCH  30  31
ENDBRANCH  28  30
ENDBRANCH   1  27
TORSDOF 7
