REMARK  0 active torsions:
REMARK  status: ('A' for Active; 'I' for Inactive)
ROOT
ATOM      1  O   UNL d   1       9.810   5.406  -9.422  0.00  0.00    -0.190 OA
ATOM      2  C   UNL d   1      10.190   6.550  -8.791  0.00  0.00     0.131 A 
ATOM      3  C   UNL d   1      10.318   7.753  -9.504  0.00  0.00     0.029 A 
ATOM      4  C   UNL d   1      10.662   8.920  -8.827  0.00  0.00     0.026 A 
ATOM      5  C   UNL d   1      10.884   8.902  -7.429  0.00  0.00     0.092 A 
ATOM      6  C   UNL d   1      10.831   7.680  -6.726  0.00  0.00     0.031 A 
ATOM      7  C   UNL d   1      10.459   6.519  -7.403  0.00  0.00     0.028 A 
ATOM      8  C   UNL d   1      11.049   7.686  -5.232  0.00  0.00     0.176 C 
ATOM      9  O   UNL d   1      11.786   6.584  -4.735  0.00  0.00    -0.348 OA
ATOM     10  C   UNL d   1      11.797   6.588  -3.306  0.00  0.00     0.181 C 
ATOM     11  C   UNL d   1      12.411   7.870  -2.749  0.00  0.00     0.322 C 
ATOM     12  N   UNL d   1      11.730   9.036  -3.295  0.00  0.00     0.345 N 
ATOM     13  C   UNL d   1      11.745   8.966  -4.757  0.00  0.00     0.317 C 
ATOM     14  C   UNL d   1      11.023  10.130  -5.402  0.00  0.00     0.188 C 
ATOM     15  O   UNL d   1      11.160  10.085  -6.817  0.00  0.00    -0.329 OA
ENDROOT
TORSDOF 0
