REMARK  7 active torsions:
REMARK  status: ('A' for Active; 'I' for Inactive)
REMARK    1  A    between atoms: S_2  and  N_4 
REMARK    2  A    between atoms: S_2  and  C_22 
REMARK    3  A    between atoms: N_4  and  C_5 
REMARK    4  A    between atoms: N_8  and  C_9 
REMARK    5  A    between atoms: C_9  and  C_10 
REMARK    6  A    between atoms: C_10  and  C_11 
REMARK    7  A    between atoms: C_11  and  C_12 
ROOT
ATOM      1  C   UNL d   1       7.164   4.544 -11.888  0.00  0.00     0.151 C 
ATOM      2  C   UNL d   1       5.679   4.232 -11.772  0.00  0.00     0.063 C 
ATOM      3  C   UNL d   1       5.338   3.467 -13.047  0.00  0.00     0.252 C 
ATOM      4  N   UNL d   1       6.614   2.894 -13.440  0.00  0.00     0.139 N 
ATOM      5  C   UNL d   1       7.568   3.966 -13.229  0.00  0.00     0.275 C 
ENDROOT
BRANCH   1   6
ATOM      6  N   UNL d   1       7.451   5.975 -11.826  0.00  0.00    -0.185 NA
BRANCH   6   7
ATOM      7  S   UNL d   1       9.060   6.589 -11.824  0.00  0.00     0.281 S 
ATOM      8  O   UNL d   1       9.921   5.573 -12.435  0.00  0.00    -0.199 OA
ATOM      9  O   UNL d   1       9.030   7.955 -12.369  0.00  0.00    -0.199 OA
BRANCH   7  10
ATOM     10  C   UNL d   1       9.489   6.724 -10.098  0.00  0.00     0.105 A 
ATOM     11  C   UNL d   1      10.425   7.712  -9.735  0.00  0.00     0.013 A 
ATOM     12  C   UNL d   1      10.693   7.938  -8.369  0.00  0.00     0.001 A 
ATOM     13  C   UNL d   1      10.029   7.181  -7.377  0.00  0.00     0.001 A 
ATOM     14  C   UNL d   1      11.610   8.930  -7.992  0.00  0.00     0.001 A 
ATOM     15  C   UNL d   1       9.104   6.191  -7.759  0.00  0.00     0.001 A 
ATOM     16  C   UNL d   1      10.280   7.427  -6.012  0.00  0.00     0.011 A 
ATOM     17  C   UNL d   1       8.839   5.955  -9.115  0.00  0.00     0.013 A 
ATOM     18  C   UNL d   1      11.194   8.437  -5.639  0.00  0.00     0.058 A 
ATOM     19 CL   UNL d   1      11.541   8.767  -3.981  0.00  0.00    -0.082 Cl
ATOM     20  C   UNL d   1      11.857   9.183  -6.628  0.00  0.00     0.011 A 
ENDBRANCH   7  10
ENDBRANCH   6   7
ENDBRANCH   1   6
BRANCH   4  21
ATOM     21  C   UNL d   1       6.626   2.371 -14.792  0.00  0.00     0.251 C 
BRANCH  21  22
ATOM     22  C   UNL d   1       8.042   1.934 -15.246  0.00  0.00     0.042 C 
BRANCH  22  23
ATOM     23  C   UNL d   1       8.056   0.612 -16.015  0.00  0.00     0.050 C 
BRANCH  23  24
ATOM     24  C   UNL d   1       7.138   0.624 -17.202  0.00  0.00     0.088 A 
ATOM     25  C   UNL d   1       5.946  -0.094 -17.441  0.00  0.00     0.041 A 
ATOM     26  C   UNL d   1       5.457   0.254 -18.700  0.00  0.00     0.126 A 
ATOM     27  C   UNL d   1       5.256  -1.044 -16.659  0.00  0.00     0.003 A 
ATOM     28  O   UNL d   1       6.354   1.190 -19.197  0.00  0.00    -0.211 OA
ATOM     29  C   UNL d   1       4.289  -0.300 -19.244  0.00  0.00     0.027 A 
ATOM     30  N   UNL d   1       7.397   1.402 -18.253  0.00  0.00    -0.131 NA
ATOM     31  C   UNL d   1       3.598  -1.253 -18.467  0.00  0.00     0.002 A 
ATOM     32  C   UNL d   1       4.076  -1.615 -17.185  0.00  0.00     0.000 A 
ENDBRANCH  23  24
ENDBRANCH  22  23
ENDBRANCH  21  22
ENDBRANCH   4  21
TORSDOF 7
