REMARK  6 active torsions:
REMARK  status: ('A' for Active; 'I' for Inactive)
REMARK    1  A    between atoms: C_2  and  C_4 
REMARK    2  A    between atoms: C_7  and  C_8 
REMARK    3  A    between atoms: C_8  and  C_10 
REMARK    4  A    between atoms: C_10  and  C_11 
REMARK    5  A    between atoms: C_11  and  C_12 
REMARK    6  A    between atoms: C_12  and  N_13 
ROOT
ATOM      1  C   UNL d   1       7.901   5.585 -10.929  0.00  0.00     0.071 C 
ENDROOT
BRANCH   1   2
ATOM      2  C   UNL d   1       8.207   5.194 -12.382  0.00  0.00     0.173 C 
ATOM      3  O   UNL d   1       9.050   5.830 -13.015  0.00  0.00    -0.291 OA
BRANCH   2   4
ATOM      4  C   UNL d   1       7.504   4.006 -12.944  0.00  0.00     0.035 A 
ATOM      5  C   UNL d   1       6.227   3.607 -12.488  0.00  0.00     0.003 A 
ATOM      6  C   UNL d   1       5.619   2.443 -13.011  0.00  0.00     0.005 A 
ATOM      7  C   UNL d   1       6.262   1.670 -14.003  0.00  0.00     0.059 A 
ATOM      8  C   UNL d   1       7.541   2.089 -14.462  0.00  0.00     0.005 A 
ATOM      9  C   UNL d   1       8.140   3.260 -13.956  0.00  0.00     0.003 A 
BRANCH   7  10
ATOM     10  C   UNL d   1       5.629   0.392 -14.498  0.00  0.00     0.297 C 
ATOM     11  N   UNL d   1       6.048  -0.048 -15.684  0.00  0.00    -0.102 N 
ATOM     12  O   UNL d   1       4.735  -0.173 -13.868  0.00  0.00    -0.264 OA
ENDBRANCH   7  10
ENDBRANCH   2   4
ENDBRANCH   1   2
BRANCH   1  13
ATOM     13  C   UNL d   1       9.129   6.112 -10.164  0.00  0.00     0.043 C 
BRANCH  13  14
ATOM     14  C   UNL d   1       8.868   6.184  -8.648  0.00  0.00     0.251 C 
BRANCH  14  15
ATOM     15  N   UNL d   1       9.846   7.031  -7.969  0.00  0.00     0.142 N 
ATOM     16  C   UNL d   1       9.988   6.588  -6.578  0.00  0.00     0.276 C 
ATOM     17  C   UNL d   1      10.873   7.478  -5.718  0.00  0.00     0.007 A 
ATOM     18  C   UNL d   1      11.083   8.813  -6.107  0.00  0.00    -0.022 A 
ATOM     19  C   UNL d   1      11.460   7.000  -4.530  0.00  0.00    -0.003 A 
ATOM     20  C   UNL d   1      10.499   9.303  -7.413  0.00  0.00     0.061 C 
ATOM     21  C   UNL d   1      11.858   9.671  -5.308  0.00  0.00    -0.004 A 
ATOM     22  C   UNL d   1       9.368   8.415  -7.956  0.00  0.00     0.255 C 
ATOM     23  C   UNL d   1      12.435   9.187  -4.114  0.00  0.00    -0.000 A 
ATOM     24  C   UNL d   1      12.239   7.848  -3.725  0.00  0.00    -0.000 A 
ENDBRANCH  14  15
ENDBRANCH  13  14
ENDBRANCH   1  13
TORSDOF 6
