REMARK  7 active torsions:
REMARK  status: ('A' for Active; 'I' for Inactive)
REMARK    1  A    between atoms: C_7  and  O_8 
REMARK    2  A    between atoms: O_8  and  C_9 
REMARK    3  A    between atoms: C_9  and  C_10 
REMARK    4  A    between atoms: C_10  and  C_11 
REMARK    5  A    between atoms: C_11  and  C_12 
REMARK    6  A    between atoms: C_12  and  C_13 
REMARK    7  A    between atoms: N_17  and  C_18 
ROOT
ATOM      1  C   UNL d   1       7.808   5.568 -11.964  0.00  0.00     0.033 C 
ENDROOT
BRANCH   1   2
ATOM      2  C   UNL d   1       8.785   5.497 -10.796  0.00  0.00     0.149 C 
BRANCH   2   3
ATOM      3  O   UNL d   1       9.766   6.488 -11.030  0.00  0.00    -0.331 OA
BRANCH   3   4
ATOM      4  C   UNL d   1      10.255   7.133  -9.937  0.00  0.00     0.094 A 
ATOM      5  C   UNL d   1      10.407   6.515  -8.662  0.00  0.00     0.021 A 
ATOM      6  C   UNL d   1      10.933   7.269  -7.584  0.00  0.00    -0.002 A 
ATOM      7  C   UNL d   1      11.152   6.630  -6.245  0.00  0.00     0.038 C 
ATOM      8  C   UNL d   1      11.284   8.617  -7.748  0.00  0.00     0.081 A 
ATOM      9  C   UNL d   1      10.992   7.631  -5.107  0.00  0.00     0.095 C 
ATOM     10  C   UNL d   1      11.718   8.959  -5.363  0.00  0.00     0.256 C 
ATOM     11  O   UNL d   1      12.185   9.588  -4.439  0.00  0.00    -0.270 OA
ATOM     12  N   UNL d   1      11.782   9.367  -6.655  0.00  0.00    -0.212 NA
ATOM     13  C   UNL d   1      11.172   9.193  -9.026  0.00  0.00     0.021 A 
ATOM     14  C   UNL d   1      10.654   8.457 -10.103  0.00  0.00     0.026 A 
ENDBRANCH   3   4
ENDBRANCH   2   3
ENDBRANCH   1   2
BRANCH   1  15
ATOM     15  C   UNL d   1       8.471   5.247 -13.309  0.00  0.00     0.011 C 
BRANCH  15  16
ATOM     16  C   UNL d   1       9.111   3.865 -13.402  0.00  0.00     0.068 C 
BRANCH  16  17
ATOM     17  C   UNL d   1       9.164   3.342 -14.805  0.00  0.00     0.161 A 
ATOM     18  N   UNL d   1       8.494   2.276 -15.276  0.00  0.00    -0.219 N 
ATOM     19  N   UNL d   1       8.846   2.138 -16.586  0.00  0.00    -0.043 NA
ATOM     20  N   UNL d   1       9.673   3.105 -16.866  0.00  0.00    -0.023 NA
ATOM     21  N   UNL d   1       9.902   3.897 -15.763  0.00  0.00    -0.113 NA
BRANCH  18  22
ATOM     22  C   UNL d   1       7.589   1.315 -14.633  0.00  0.00     0.108 C 
ATOM     23  C   UNL d   1       6.345   2.015 -14.044  0.00  0.00     0.025 C 
ATOM     24  C   UNL d   1       5.384   1.042 -13.366  0.00  0.00     0.002 C 
ATOM     25  C   UNL d   1       4.926  -0.066 -14.327  0.00  0.00     0.000 C 
ATOM     26  C   UNL d   1       6.142  -0.806 -14.909  0.00  0.00     0.002 C 
ATOM     27  C   UNL d   1       7.119   0.170 -15.587  0.00  0.00     0.025 C 
ENDBRANCH  18  22
ENDBRANCH  16  17
ENDBRANCH  15  16
ENDBRANCH   1  15
TORSDOF 7
