REMARK  4 active torsions:
REMARK  status: ('A' for Active; 'I' for Inactive)
REMARK    1  A    between atoms: C_5  and  C_6 
REMARK    2  A    between atoms: N_10  and  C_11 
REMARK    3  A    between atoms: N_14  and  C_15 
REMARK    4  A    between atoms: C_15  and  C_16 
ROOT
ATOM      1  C   UNL d   1      11.089   8.284  -6.781  0.00  0.00     0.098 A 
ATOM      2  N   UNL d   1      11.893   8.819  -7.756  0.00  0.00    -0.191 NA
ATOM      3  C   UNL d   1      11.382   8.524  -8.960  0.00  0.00     0.350 A 
ATOM      4  O   UNL d   1      11.850   8.855 -10.041  0.00  0.00    -0.244 OA
ATOM      5  N   UNL d   1      10.258   7.792  -8.766  0.00  0.00    -0.284 N 
ATOM      6  C   UNL d   1      10.106   7.634  -7.396  0.00  0.00     0.059 A 
ATOM      7  C   UNL d   1       8.981   6.815  -6.797  0.00  0.00     0.052 C 
ENDROOT
BRANCH   5   8
ATOM      8  C   UNL d   1       9.405   7.151  -9.792  0.00  0.00     0.094 C 
ATOM      9  C   UNL d   1       9.192   8.044 -11.054  0.00  0.00     0.058 C 
ATOM     10  C   UNL d   1       8.376   7.287 -12.098  0.00  0.00     0.253 C 
ATOM     11  N   UNL d   1       9.139   6.111 -12.531  0.00  0.00     0.141 N 
ATOM     12  C   UNL d   1       9.236   5.185 -11.403  0.00  0.00     0.253 C 
ATOM     13  C   UNL d   1      10.014   5.834 -10.230  0.00  0.00     0.058 C 
BRANCH  11  14
ATOM     14  C   UNL d   1       8.433   5.484 -13.648  0.00  0.00     0.277 C 
BRANCH  14  15
ATOM     15  C   UNL d   1       9.203   4.361 -14.321  0.00  0.00     0.011 A 
ATOM     16  C   UNL d   1       8.696   3.048 -14.271  0.00  0.00    -0.002 A 
ATOM     17  C   UNL d   1       9.402   1.996 -14.884  0.00  0.00    -0.000 A 
ATOM     18  C   UNL d   1      10.614   2.255 -15.553  0.00  0.00    -0.000 A 
ATOM     19  C   UNL d   1      11.121   3.568 -15.611  0.00  0.00    -0.000 A 
ATOM     20  C   UNL d   1      10.415   4.621 -14.997  0.00  0.00    -0.002 A 
ENDBRANCH  14  15
ENDBRANCH  11  14
ENDBRANCH   5   8
BRANCH   1  21
ATOM     21  C   UNL d   1      11.433   8.327  -5.367  0.00  0.00     0.019 A 
ATOM     22  C   UNL d   1      11.780   7.133  -4.707  0.00  0.00     0.001 A 
ATOM     23  C   UNL d   1      12.216   7.190  -3.374  0.00  0.00    -0.004 A 
ATOM     24  C   UNL d   1      12.278   8.438  -2.736  0.00  0.00    -0.022 A 
ATOM     25  C   UNL d   1      12.720   8.530  -1.303  0.00  0.00     0.031 C 
ATOM     26  C   UNL d   1      11.858   9.616  -3.384  0.00  0.00    -0.004 A 
ATOM     27  C   UNL d   1      11.458   9.572  -4.727  0.00  0.00     0.001 A 
ENDBRANCH   1  21
TORSDOF 4
