REMARK  7 active torsions:
REMARK  status: ('A' for Active; 'I' for Inactive)
REMARK    1  A    between atoms: O_2  and  C_3 
REMARK    2  A    between atoms: C_8  and  N_9 
REMARK    3  A    between atoms: N_12  and  C_13 
REMARK    4  A    between atoms: C_13  and  C_14 
REMARK    5  A    between atoms: C_14  and  C_16 
REMARK    6  A    between atoms: C_16  and  N_17 
REMARK    7  A    between atoms: C_21  and  C_23 
ROOT
ATOM      1  C   UNL d   1       9.008   7.752 -11.574  0.00  0.00     0.208 C 
ATOM      2  O   UNL d   1       9.465   8.108 -12.819  0.00  0.00    -0.219 OA
ENDROOT
BRANCH   1   3
ATOM      3  C   UNL d   1      10.220   7.472 -10.653  0.00  0.00     0.285 C 
BRANCH   3   4
ATOM      4  N   UNL d   1       9.843   7.225  -9.254  0.00  0.00     0.144 N 
ATOM      5  C   UNL d   1      10.888   6.473  -8.583  0.00  0.00     0.274 C 
ATOM      6  C   UNL d   1      10.542   6.127  -7.146  0.00  0.00     0.137 C 
ATOM      7  N   UNL d   1      10.174   7.301  -6.397  0.00  0.00    -0.343 N 
ATOM      8  C   UNL d   1       9.179   8.144  -7.053  0.00  0.00     0.137 C 
ATOM      9  C   UNL d   1       9.614   8.466  -8.511  0.00  0.00     0.274 C 
BRANCH   7  10
ATOM     10  C   UNL d   1      10.936   7.661  -5.248  0.00  0.00     0.079 A 
ATOM     11  C   UNL d   1      11.395   8.962  -5.073  0.00  0.00     0.110 A 
ATOM     12  C   UNL d   1      12.006   9.316  -3.832  0.00  0.00     0.026 A 
ATOM     13  C   UNL d   1      12.213   8.351  -2.828  0.00  0.00     0.002 A 
ATOM     14  C   UNL d   1      11.809   7.027  -3.049  0.00  0.00     0.002 A 
ATOM     15  C   UNL d   1      11.185   6.695  -4.277  0.00  0.00     0.019 A 
BRANCH  11  16
ATOM     16  O   UNL d   1      11.199   9.819  -6.127  0.00  0.00    -0.327 OA
ATOM     17  C   UNL d   1      11.832  11.063  -6.094  0.00  0.00     0.181 C 
ENDBRANCH  11  16
ENDBRANCH   7  10
ENDBRANCH   3   4
ENDBRANCH   1   3
BRANCH   1  18
ATOM     18  C   UNL d   1       7.999   6.572 -11.771  0.00  0.00     0.148 C 
BRANCH  18  19
ATOM     19  N   UNL d   1       8.626   5.343 -12.255  0.00  0.00    -0.247 N 
ATOM     20  C   UNL d   1       8.757   4.997 -13.531  0.00  0.00     0.265 C 
ATOM     21  C   UNL d   1       9.528   3.691 -13.644  0.00  0.00     0.179 C 
ATOM     22  O   UNL d   1       8.271   5.574 -14.483  0.00  0.00    -0.269 OA
ATOM     23  N   UNL d   1       9.805   3.547 -12.235  0.00  0.00    -0.209 NA
ATOM     24  C   UNL d   1      10.827   3.870 -14.461  0.00  0.00     0.039 C 
ATOM     25  C   UNL d   1       9.181   4.431 -11.443  0.00  0.00     0.348 C 
ATOM     26  O   UNL d   1       9.124   4.419 -10.209  0.00  0.00    -0.245 OA
BRANCH  21  27
ATOM     27  C   UNL d   1       8.598   2.571 -14.161  0.00  0.00     0.006 A 
ATOM     28  C   UNL d   1       9.145   1.391 -14.733  0.00  0.00    -0.002 A 
ATOM     29  C   UNL d   1       8.312   0.367 -15.213  0.00  0.00     0.006 A 
ATOM     30  C   UNL d   1       6.913   0.477 -15.094  0.00  0.00     0.035 A 
ATOM     31  C   UNL d   1       6.365   1.595 -14.460  0.00  0.00     0.006 A 
ATOM     32 BR   UNL d   1       5.702  -0.818 -15.771  0.00  0.00    -0.049 Br
ATOM     33  C   UNL d   1       7.178   2.641 -14.019  0.00  0.00    -0.002 A 
ENDBRANCH  21  27
ENDBRANCH  18  19
ENDBRANCH   1  18
TORSDOF 7
