REMARK  7 active torsions:
REMARK  status: ('A' for Active; 'I' for Inactive)
REMARK    1  A    between atoms: S_2  and  N_4 
REMARK    2  A    between atoms: S_2  and  C_24 
REMARK    3  A    between atoms: N_4  and  C_5 
REMARK    4  A    between atoms: C_5  and  C_6 
REMARK    5  A    between atoms: C_6  and  C_7 
REMARK    6  A    between atoms: C_7  and  N_8 
REMARK    7  A    between atoms: C_11  and  C_12 
ROOT
ATOM      1  N   UNL d   1       9.625   5.636  -9.524  0.00  0.00     0.142 N 
ATOM      2  C   UNL d   1       9.872   6.982 -10.051  0.00  0.00     0.276 C 
ATOM      3  C   UNL d   1      10.488   7.905  -9.050  0.00  0.00     0.005 C 
ATOM      4  C   UNL d   1      10.505   7.618  -7.735  0.00  0.00    -0.021 C 
ATOM      5  C   UNL d   1       9.928   6.342  -7.231  0.00  0.00     0.061 C 
ATOM      6  C   UNL d   1       8.969   5.730  -8.226  0.00  0.00     0.255 C 
ENDROOT
BRANCH   1   7
ATOM      7  C   UNL d   1       8.761   4.897 -10.432  0.00  0.00     0.253 C 
BRANCH   7   8
ATOM      8  C   UNL d   1       9.575   4.359 -11.622  0.00  0.00     0.062 C 
BRANCH   8   9
ATOM      9  C   UNL d   1       8.687   3.881 -12.771  0.00  0.00     0.141 C 
BRANCH   9  10
ATOM     10  N   UNL d   1       9.399   2.842 -13.509  0.00  0.00    -0.185 NA
BRANCH  10  11
ATOM     11  S   UNL d   1       8.734   2.241 -14.980  0.00  0.00     0.281 S 
ATOM     12  O   UNL d   1       9.238   0.889 -15.209  0.00  0.00    -0.199 OA
ATOM     13  O   UNL d   1       7.279   2.498 -14.927  0.00  0.00    -0.199 OA
BRANCH  11  14
ATOM     14  C   UNL d   1       9.463   3.336 -16.195  0.00  0.00     0.107 A 
ATOM     15  C   UNL d   1      10.425   4.298 -15.812  0.00  0.00     0.043 A 
ATOM     16  C   UNL d   1      10.994   5.145 -16.776  0.00  0.00     0.141 A 
ATOM     17  C   UNL d   1      10.609   5.035 -18.125  0.00  0.00     0.030 A 
ATOM     18  F   UNL d   1      11.914   6.063 -16.394  0.00  0.00    -0.204 F 
ATOM     19  C   UNL d   1       9.653   4.071 -18.509  0.00  0.00     0.003 A 
ATOM     20  C   UNL d   1       9.081   3.213 -17.546  0.00  0.00     0.013 A 
ENDBRANCH  11  14
ENDBRANCH  10  11
ENDBRANCH   9  10
ENDBRANCH   8   9
ENDBRANCH   7   8
ENDBRANCH   1   7
BRANCH   4  21
ATOM     21  C   UNL d   1      11.060   8.537  -6.768  0.00  0.00     0.017 A 
ATOM     22  C   UNL d   1      11.411   8.240  -5.403  0.00  0.00     0.020 A 
ATOM     23  C   UNL d   1      12.041   9.457  -4.934  0.00  0.00     0.082 A 
ATOM     24  C   UNL d   1      11.382   7.168  -4.484  0.00  0.00     0.013 A 
ATOM     25  N   UNL d   1      12.016  10.359  -5.958  0.00  0.00    -0.244 NA
ATOM     26  C   UNL d   1      12.569   9.554  -3.667  0.00  0.00     0.020 A 
ATOM     27  C   UNL d   1      11.450   9.802  -7.074  0.00  0.00     0.099 A 
ATOM     28  C   UNL d   1      12.483   8.558  -2.763  0.00  0.00     0.013 A 
ATOM     29  C   UNL d   1      11.953   7.348  -3.201  0.00  0.00     0.058 A 
ATOM     30 CL   UNL d   1      12.190   6.170  -2.047  0.00  0.00    -0.082 Cl
ENDBRANCH   4  21
TORSDOF 7
