REMARK  6 active torsions:
REMARK  status: ('A' for Active; 'I' for Inactive)
REMARK    1  A    between atoms: C_8  and  O_9 
REMARK    2  A    between atoms: O_9  and  C_10 
REMARK    3  A    between atoms: C_10  and  C_11 
REMARK    4  A    between atoms: C_12  and  C_13 
REMARK    5  A    between atoms: C_13  and  N_14 
REMARK    6  A    between atoms: N_17  and  C_18 
ROOT
ATOM      1  C   UNL d   1       9.321   5.412 -12.356  0.00  0.00     0.004 C 
ATOM      2  C   UNL d   1       9.844   4.864 -13.456  0.00  0.00     0.007 C 
ENDROOT
BRANCH   2   3
ATOM      3  C   UNL d   1      10.188   3.385 -13.498  0.00  0.00     0.276 C 
BRANCH   3   4
ATOM      4  N   UNL d   1       9.718   2.702 -14.694  0.00  0.00     0.145 N 
ATOM      5  C   UNL d   1       9.806   1.247 -14.498  0.00  0.00     0.275 C 
ATOM      6  C   UNL d   1       9.374   0.488 -15.780  0.00  0.00     0.137 C 
ATOM      7  N   UNL d   1       8.059   0.935 -16.198  0.00  0.00    -0.344 N 
ATOM      8  C   UNL d   1       7.857   2.356 -16.288  0.00  0.00     0.137 C 
ATOM      9  C   UNL d   1       8.326   3.042 -14.995  0.00  0.00     0.275 C 
BRANCH   7  10
ATOM     10  C   UNL d   1       6.975   0.056 -16.386  0.00  0.00     0.068 A 
ATOM     11  C   UNL d   1       5.892  -0.032 -15.468  0.00  0.00     0.084 A 
ATOM     12  C   UNL d   1       4.815  -0.887 -15.730  0.00  0.00     0.070 A 
ATOM     13 CL   UNL d   1       5.878   0.886 -13.997  0.00  0.00    -0.080 Cl
ATOM     14  C   UNL d   1       4.805  -1.692 -16.888  0.00  0.00     0.012 A 
ATOM     15 CL   UNL d   1       3.470  -0.958 -14.642  0.00  0.00    -0.081 Cl
ATOM     16  C   UNL d   1       5.880  -1.607 -17.801  0.00  0.00     0.002 A 
ATOM     17  C   UNL d   1       6.949  -0.736 -17.557  0.00  0.00     0.018 A 
ENDBRANCH   7  10
ENDBRANCH   3   4
ENDBRANCH   2   3
BRANCH   1  18
ATOM     18  C   UNL d   1       8.872   6.866 -12.199  0.00  0.00     0.175 C 
BRANCH  18  19
ATOM     19  O   UNL d   1       9.776   7.665 -11.441  0.00  0.00    -0.326 OA
BRANCH  19  20
ATOM     20  C   UNL d   1       9.915   7.427 -10.092  0.00  0.00     0.096 A 
ATOM     21  C   UNL d   1       9.217   6.395  -9.408  0.00  0.00     0.024 A 
ATOM     22  C   UNL d   1       9.454   6.186  -8.035  0.00  0.00    -0.001 A 
ATOM     23  C   UNL d   1      10.313   7.040  -7.330  0.00  0.00    -0.004 A 
ATOM     24  C   UNL d   1      10.522   6.839  -5.854  0.00  0.00     0.038 C 
ATOM     25  C   UNL d   1      10.964   8.102  -7.998  0.00  0.00     0.082 A 
ATOM     26  C   UNL d   1      10.799   8.180  -5.170  0.00  0.00     0.095 C 
ATOM     27  C   UNL d   1      11.796   9.057  -5.922  0.00  0.00     0.256 C 
ATOM     28  O   UNL d   1      12.564   9.782  -5.292  0.00  0.00    -0.270 OA
ATOM     29  N   UNL d   1      11.781   8.994  -7.266  0.00  0.00    -0.212 NA
ATOM     30  C   UNL d   1      10.799   8.278  -9.379  0.00  0.00     0.043 A 
ENDBRANCH  19  20
ENDBRANCH  18  19
ENDBRANCH   1  18
TORSDOF 6
