REMARK  3 active torsions:
REMARK  status: ('A' for Active; 'I' for Inactive)
REMARK    1  A    between atoms: C_8  and  C_9 
REMARK    2  A    between atoms: C_9  and  N_10 
REMARK    3  A    between atoms: C_13  and  C_14 
ROOT
ATOM      1  N   UNL d   1       7.686   3.625 -14.017  0.00  0.00     0.137 N 
ATOM      2  C   UNL d   1       9.062   3.417 -13.556  0.00  0.00     0.251 C 
ATOM      3  C   UNL d   1       9.633   4.674 -12.903  0.00  0.00     0.041 C 
ATOM      4  C   UNL d   1       8.760   5.168 -11.746  0.00  0.00     0.047 C 
ATOM      5  C   UNL d   1       7.302   5.293 -12.219  0.00  0.00     0.041 C 
ATOM      6  C   UNL d   1       6.814   4.001 -12.893  0.00  0.00     0.251 C 
ENDROOT
BRANCH   1   7
ATOM      7  C   UNL d   1       7.165   2.414 -14.665  0.00  0.00     0.251 C 
BRANCH   7   8
ATOM      8  C   UNL d   1       7.915   2.023 -15.968  0.00  0.00     0.047 C 
ATOM      9  C   UNL d   1       6.969   1.423 -17.045  0.00  0.00     0.048 C 
ATOM     10  C   UNL d   1       7.764   0.799 -18.157  0.00  0.00     0.060 A 
ATOM     11  N   UNL d   1       7.350   0.451 -19.452  0.00  0.00    -0.253 N 
ATOM     12  C   UNL d   1       9.079   0.449 -18.101  0.00  0.00     0.069 A 
ATOM     13  C   UNL d   1       6.048   0.574 -20.089  0.00  0.00     0.153 C 
ATOM     14  N   UNL d   1       8.370  -0.078 -20.180  0.00  0.00    -0.168 NA
ATOM     15  C   UNL d   1       9.423  -0.075 -19.375  0.00  0.00     0.124 A 
ATOM     16  C   UNL d   1       9.914   0.657 -16.918  0.00  0.00     0.176 C 
ATOM     17  C   UNL d   1       9.136   1.084 -15.664  0.00  0.00     0.072 C 
ATOM     18  O   UNL d   1      11.134   0.509 -16.900  0.00  0.00    -0.291 OA
ENDBRANCH   7   8
ENDBRANCH   1   7
BRANCH   4  19
ATOM     19  C   UNL d   1       9.280   6.480 -11.206  0.00  0.00     0.087 A 
ATOM     20  C   UNL d   1       9.804   6.829  -9.942  0.00  0.00     0.041 A 
ATOM     21  C   UNL d   1      10.165   8.178  -9.958  0.00  0.00     0.129 A 
ATOM     22  C   UNL d   1       9.987   6.077  -8.757  0.00  0.00     0.006 A 
ATOM     23  O   UNL d   1       9.861   8.624 -11.236  0.00  0.00    -0.211 OA
ATOM     24  C   UNL d   1      10.709   8.837  -8.852  0.00  0.00     0.057 A 
ATOM     25  N   UNL d   1       9.316   7.556 -11.997  0.00  0.00    -0.131 NA
ATOM     26  C   UNL d   1      10.887   8.093  -7.666  0.00  0.00     0.142 A 
ATOM     27  F   UNL d   1      11.405   8.695  -6.569  0.00  0.00    -0.204 F 
ATOM     28  C   UNL d   1      10.530   6.723  -7.623  0.00  0.00     0.030 A 
ENDBRANCH   4  19
TORSDOF 3
