REMARK  3 active torsions:
REMARK  status: ('A' for Active; 'I' for Inactive)
REMARK    1  A    between atoms: C_5  and  N_6 
REMARK    2  A    between atoms: N_9  and  C_10 
REMARK    3  A    between atoms: C_10  and  C_11 
ROOT
ATOM      1  N   UNL d   1       9.077   6.213 -12.377  0.00  0.00     0.149 N 
ATOM      2  C   UNL d   1       8.262   7.395 -12.145  0.00  0.00     0.286 C 
ATOM      3  C   UNL d   1       9.056   8.469 -11.366  0.00  0.00     0.286 C 
ATOM      4  N   UNL d   1       9.611   7.944 -10.091  0.00  0.00     0.146 N 
ATOM      5  C   UNL d   1      10.484   6.805 -10.396  0.00  0.00     0.286 C 
ATOM      6  C   UNL d   1       9.640   5.737 -11.104  0.00  0.00     0.286 C 
ENDROOT
BRANCH   1   7
ATOM      7  C   UNL d   1       8.409   5.171 -13.163  0.00  0.00     0.301 C 
ATOM      8  C   UNL d   1       9.437   4.240 -13.843  0.00  0.00     0.269 C 
ATOM      9  N   UNL d   1       8.985   3.081 -14.363  0.00  0.00    -0.296 N 
ATOM     10  O   UNL d   1      10.603   4.653 -13.964  0.00  0.00    -0.270 OA
ATOM     11  C   UNL d   1       9.921   2.231 -15.118  0.00  0.00     0.133 C 
ATOM     12  C   UNL d   1       7.635   2.602 -14.129  0.00  0.00     0.058 A 
ATOM     13  C   UNL d   1       6.767   3.236 -13.197  0.00  0.00    -0.004 A 
ATOM     14  C   UNL d   1       7.142   1.407 -14.737  0.00  0.00     0.017 A 
ATOM     15  C   UNL d   1       7.322   4.382 -12.387  0.00  0.00     0.071 C 
ATOM     16  C   UNL d   1       5.516   2.685 -12.831  0.00  0.00    -0.003 A 
ATOM     17  C   UNL d   1       5.091   1.470 -13.417  0.00  0.00    -0.000 A 
ATOM     18  C   UNL d   1       5.884   0.870 -14.413  0.00  0.00     0.002 A 
ENDBRANCH   1   7
BRANCH   4  19
ATOM     19  C   UNL d   1      10.276   8.978  -9.312  0.00  0.00     0.277 C 
BRANCH  19  20
ATOM     20  C   UNL d   1      10.624   8.572  -7.874  0.00  0.00     0.011 C 
ATOM     21  C   UNL d   1      11.273   9.498  -7.022  0.00  0.00    -0.002 C 
ATOM     22  C   UNL d   1      11.645   9.132  -5.707  0.00  0.00     0.011 C 
ATOM     23  C   UNL d   1      11.450   7.807  -5.266  0.00  0.00     0.058 C 
ATOM     24  C   UNL d   1      10.805   6.895  -6.109  0.00  0.00     0.011 C 
ATOM     25 CL   UNL d   1      11.929   7.306  -3.674  0.00  0.00    -0.082 Cl
ATOM     26  C   UNL d   1      10.317   7.289  -7.360  0.00  0.00    -0.002 C 
ENDBRANCH  19  20
ENDBRANCH   4  19
TORSDOF 3
