REMARK  1 active torsions:
REMARK  status: ('A' for Active; 'I' for Inactive)
REMARK    1  A    between atoms: N_5  and  C_6 
ROOT
ATOM      1  C   UNL d   1       9.638   4.873 -13.292  0.00  0.00     0.141 C 
ATOM      2  N   UNL d   1      10.639   5.148 -14.087  0.00  0.00    -0.228 NA
ATOM      3  C   UNL d   1      10.818   4.699 -15.381  0.00  0.00     0.089 C 
ATOM      4  C   UNL d   1      11.377   5.604 -16.304  0.00  0.00     0.020 C 
ATOM      5  C   UNL d   1      11.615   5.233 -17.652  0.00  0.00     0.002 C 
ATOM      6  C   UNL d   1      11.201   3.949 -18.100  0.00  0.00     0.001 C 
ATOM      7  C   UNL d   1      10.656   3.041 -17.176  0.00  0.00     0.008 C 
ATOM      8  C   UNL d   1      10.562   3.401 -15.834  0.00  0.00     0.047 C 
ATOM      9  S   UNL d   1      10.147   2.209 -14.730  0.00  0.00    -0.085 SA
ATOM     10  C   UNL d   1       8.614   2.753 -14.281  0.00  0.00     0.033 C 
ATOM     11  C   UNL d   1       7.514   1.957 -14.611  0.00  0.00     0.009 C 
ATOM     12  C   UNL d   1       6.250   2.263 -14.063  0.00  0.00     0.030 C 
ATOM     13  C   UNL d   1       6.109   3.403 -13.240  0.00  0.00     0.140 C 
ATOM     14  F   UNL d   1       4.922   3.670 -12.611  0.00  0.00    -0.204 F 
ATOM     15  C   UNL d   1       7.212   4.255 -13.044  0.00  0.00     0.033 C 
ATOM     16  C   UNL d   1       8.498   3.947 -13.569  0.00  0.00     0.042 C 
ENDROOT
BRANCH   1  17
ATOM     17  N   UNL d   1       9.580   5.476 -12.053  0.00  0.00    -0.330 N 
ATOM     18  C   UNL d   1       9.052   6.835 -11.933  0.00  0.00     0.138 C 
ATOM     19  C   UNL d   1       9.560   7.556 -10.681  0.00  0.00     0.274 C 
ATOM     20  N   UNL d   1       9.228   6.759  -9.498  0.00  0.00     0.143 N 
ATOM     21  C   UNL d   1       9.656   7.470  -8.305  0.00  0.00     0.286 C 
ATOM     22  C   UNL d   1       9.875   5.456  -9.566  0.00  0.00     0.274 C 
ATOM     23  C   UNL d   1       9.399   4.696 -10.824  0.00  0.00     0.138 C 
ENDBRANCH   1  17
TORSDOF 1
