REMARK  7 active torsions:
REMARK  status: ('A' for Active; 'I' for Inactive)
REMARK    1  A    between atoms: C_4  and  N_5 
REMARK    2  A    between atoms: N_8  and  C_9 
REMARK    3  A    between atoms: C_9  and  C_10 
REMARK    4  A    between atoms: C_10  and  C_11 
REMARK    5  A    between atoms: C_11  and  C_12 
REMARK    6  A    between atoms: C_12  and  C_13 
REMARK    7  A    between atoms: C_15  and  C_16 
ROOT
ATOM      1  C   UNL d   1      10.433   6.813 -10.122  0.00  0.00     0.250 C 
ENDROOT
BRANCH   1   2
ATOM      2  N   UNL d   1      10.019   7.313  -8.814  0.00  0.00     0.141 N 
ATOM      3  C   UNL d   1      10.810   8.477  -8.449  0.00  0.00     0.274 C 
ATOM      4  C   UNL d   1      10.374   9.039  -7.092  0.00  0.00     0.137 C 
ATOM      5  N   UNL d   1      10.447   8.000  -6.066  0.00  0.00    -0.344 N 
ATOM      6  C   UNL d   1       9.697   6.794  -6.413  0.00  0.00     0.137 C 
ATOM      7  C   UNL d   1      10.149   6.280  -7.786  0.00  0.00     0.274 C 
BRANCH   5   8
ATOM      8  C   UNL d   1      11.180   8.143  -4.872  0.00  0.00     0.056 A 
ATOM      9  C   UNL d   1      11.423   9.445  -4.350  0.00  0.00     0.017 A 
ATOM     10  C   UNL d   1      12.072   9.608  -3.121  0.00  0.00     0.002 A 
ATOM     11  C   UNL d   1      12.548   8.508  -2.394  0.00  0.00     0.000 A 
ATOM     12  C   UNL d   1      12.298   7.206  -2.879  0.00  0.00     0.002 A 
ATOM     13  C   UNL d   1      11.618   7.038  -4.100  0.00  0.00     0.017 A 
ENDBRANCH   5   8
ENDBRANCH   1   2
BRANCH   1  14
ATOM     14  C   UNL d   1       9.307   6.995 -11.148  0.00  0.00     0.036 C 
BRANCH  14  15
ATOM     15  C   UNL d   1       9.246   5.880 -12.201  0.00  0.00     0.009 C 
BRANCH  15  16
ATOM     16  C   UNL d   1       7.849   5.775 -12.841  0.00  0.00     0.054 C 
BRANCH  16  17
ATOM     17  C   UNL d   1       7.592   4.444 -13.469  0.00  0.00     0.104 A 
ATOM     18  O   UNL d   1       8.495   4.024 -14.390  0.00  0.00    -0.215 OA
ATOM     19  N   UNL d   1       8.098   2.762 -14.838  0.00  0.00    -0.126 NA
ATOM     20  C   UNL d   1       6.970   2.469 -14.208  0.00  0.00     0.116 A 
ATOM     21  C   UNL d   1       6.595   3.514 -13.320  0.00  0.00     0.044 A 
BRANCH  20  22
ATOM     22  C   UNL d   1       6.266   1.218 -14.469  0.00  0.00     0.049 A 
ATOM     23  S   UNL d   1       6.696   0.237 -15.848  0.00  0.00    -0.085 SA
ATOM     24  C   UNL d   1       5.458  -0.927 -15.462  0.00  0.00     0.035 A 
ATOM     25  C   UNL d   1       4.749  -0.553 -14.353  0.00  0.00     0.007 A 
ATOM     26  C   UNL d   1       5.229   0.660 -13.771  0.00  0.00     0.009 A 
ENDBRANCH  20  22
ENDBRANCH  16  17
ENDBRANCH  15  16
ENDBRANCH  14  15
ENDBRANCH   1  14
TORSDOF 7
