REMARK  7 active torsions:
REMARK  status: ('A' for Active; 'I' for Inactive)
REMARK    1  A    between atoms: N_2  and  C_3 
REMARK    2  A    between atoms: N_2  and  C_23 
REMARK    3  A    between atoms: C_3  and  C_4 
REMARK    4  A    between atoms: C_4  and  C_5 
REMARK    5  A    between atoms: C_5  and  C_6 
REMARK    6  A    between atoms: C_6  and  N_7 
REMARK       I    between atoms: N_7  and  C_8 
REMARK    7  A    between atoms: C_8  and  C_10 
ROOT
ATOM      1  C   UNL d   1       9.164   5.412 -12.457  0.00  0.00     0.029 C 
ENDROOT
BRANCH   1   2
ATOM      2  C   UNL d   1       9.123   3.997 -13.018  0.00  0.00     0.037 C 
BRANCH   2   3
ATOM      3  C   UNL d   1       9.767   3.926 -14.405  0.00  0.00     0.250 C 
BRANCH   3   4
ATOM      4  N   UNL d   1       9.888   2.546 -14.897  0.00  0.00     0.139 N 
ATOM      5  C   UNL d   1       8.558   1.937 -15.001  0.00  0.00     0.285 C 
BRANCH   4   6
ATOM      6  C   UNL d   1      10.597   2.459 -16.185  0.00  0.00     0.246 C 
ATOM      7  C   UNL d   1      11.902   3.317 -16.208  0.00  0.00     0.144 C 
ATOM      8  N   UNL d   1      12.696   3.038 -17.395  0.00  0.00    -0.277 N 
ATOM      9  C   UNL d   1      13.623   3.824 -17.991  0.00  0.00     0.350 A 
ATOM     10  C   UNL d   1      12.578   1.834 -18.083  0.00  0.00     0.078 A 
ATOM     11  N   UNL d   1      14.093   3.157 -19.054  0.00  0.00    -0.191 NA
ATOM     12  O   UNL d   1      13.980   4.943 -17.633  0.00  0.00    -0.244 OA
ATOM     13  C   UNL d   1      13.456   1.917 -19.133  0.00  0.00     0.102 A 
ATOM     14  C   UNL d   1      13.535   0.812 -20.007  0.00  0.00     0.021 A 
ATOM     15  C   UNL d   1      12.699  -0.314 -19.746  0.00  0.00     0.001 A 
ATOM     16  C   UNL d   1      11.809  -0.339 -18.633  0.00  0.00    -0.003 A 
ATOM     17  C   UNL d   1      11.743   0.771 -17.765  0.00  0.00    -0.003 A 
ATOM     18  C   UNL d   1      10.918   0.969 -16.512  0.00  0.00     0.063 C 
ENDBRANCH   4   6
ENDBRANCH   3   4
ENDBRANCH   2   3
ENDBRANCH   1   2
BRANCH   1  19
ATOM     19  C   UNL d   1       8.352   5.545 -11.159  0.00  0.00     0.129 C 
BRANCH  19  20
ATOM     20  N   UNL d   1       9.179   5.989 -10.048  0.00  0.00    -0.234 NA
ATOM     21  C   UNL d   1       9.766   7.194  -9.974  0.00  0.00     0.275 C 
ATOM     22  O   UNL d   1       9.852   7.979 -10.921  0.00  0.00    -0.266 OA
BRANCH  21  23
ATOM     23  C   UNL d   1      10.216   7.606  -8.610  0.00  0.00     0.057 A 
ATOM     24  C   UNL d   1      10.608   6.649  -7.645  0.00  0.00     0.001 A 
ATOM     25  C   UNL d   1      11.008   7.108  -6.382  0.00  0.00    -0.018 A 
ATOM     26  C   UNL d   1      11.029   8.466  -6.069  0.00  0.00    -0.004 A 
ATOM     27  C   UNL d   1      11.462   6.267  -5.213  0.00  0.00     0.053 A 
ATOM     28  C   UNL d   1      10.663   9.431  -7.016  0.00  0.00    -0.000 A 
ATOM     29  C   UNL d   1      11.469   8.602  -4.696  0.00  0.00    -0.004 A 
ATOM     30  C   UNL d   1      10.253   8.983  -8.290  0.00  0.00     0.005 A 
ATOM     31  C   UNL d   1      11.745   7.330  -4.186  0.00  0.00    -0.018 A 
ATOM     32  C   UNL d   1      11.614   9.734  -3.897  0.00  0.00    -0.000 A 
ATOM     33  C   UNL d   1      12.179   7.130  -2.865  0.00  0.00    -0.004 A 
ATOM     34  C   UNL d   1      12.344   8.270  -2.057  0.00  0.00    -0.000 A 
ATOM     35  C   UNL d   1      12.068   9.551  -2.577  0.00  0.00    -0.000 A 
ENDBRANCH  21  23
ENDBRANCH  19  20
ENDBRANCH   1  19
TORSDOF 7
