REMARK  7 active torsions:
REMARK  status: ('A' for Active; 'I' for Inactive)
REMARK    1  A    between atoms: C_2  and  C_3 
REMARK       I    between atoms: C_2  and  N_10 
REMARK    2  A    between atoms: C_3  and  C_4 
REMARK    3  A    between atoms: N_10  and  C_11 
REMARK    4  A    between atoms: C_15  and  C_16 
REMARK    5  A    between atoms: C_16  and  C_17 
REMARK    6  A    between atoms: C_17  and  N_18 
REMARK    7  A    between atoms: N_21  and  C_22 
ROOT
ATOM      1  C   UNL d   1       8.094   3.882 -13.761  0.00  0.00     0.084 A 
ATOM      2  C   UNL d   1       6.715   3.653 -13.561  0.00  0.00     0.019 A 
ATOM      3  C   UNL d   1       6.009   4.373 -12.574  0.00  0.00     0.001 A 
ATOM      4  C   UNL d   1       6.675   5.341 -11.792  0.00  0.00    -0.004 A 
ATOM      5  C   UNL d   1       8.051   5.571 -11.991  0.00  0.00    -0.019 A 
ATOM      6  C   UNL d   1       8.749   4.857 -12.977  0.00  0.00     0.015 A 
ENDROOT
BRANCH   5   7
ATOM      7  C   UNL d   1       8.821   6.574 -11.162  0.00  0.00     0.062 C 
BRANCH   7   8
ATOM      8  C   UNL d   1       8.855   6.189  -9.673  0.00  0.00     0.255 C 
BRANCH   8   9
ATOM      9  N   UNL d   1       9.883   6.949  -8.959  0.00  0.00     0.141 N 
ATOM     10  C   UNL d   1       9.273   8.027  -8.170  0.00  0.00     0.274 C 
ATOM     11  C   UNL d   1      10.350   8.836  -7.409  0.00  0.00     0.137 C 
ATOM     12  N   UNL d   1      11.168   7.941  -6.595  0.00  0.00    -0.344 N 
ATOM     13  C   UNL d   1      11.724   6.819  -7.328  0.00  0.00     0.137 C 
ATOM     14  C   UNL d   1      10.599   6.064  -8.042  0.00  0.00     0.274 C 
BRANCH  12  15
ATOM     15  C   UNL d   1      11.408   8.122  -5.225  0.00  0.00     0.056 A 
ATOM     16  C   UNL d   1      11.622   7.008  -4.378  0.00  0.00     0.017 A 
ATOM     17  C   UNL d   1      11.878   7.180  -3.005  0.00  0.00     0.002 A 
ATOM     18  C   UNL d   1      11.908   8.466  -2.450  0.00  0.00     0.000 A 
ATOM     19  C   UNL d   1      11.688   9.588  -3.278  0.00  0.00     0.002 A 
ATOM     20  C   UNL d   1      11.440   9.416  -4.655  0.00  0.00     0.017 A 
ENDBRANCH  12  15
ENDBRANCH   8   9
ENDBRANCH   7   8
ENDBRANCH   5   7
BRANCH   1  21
ATOM     21  N   UNL d   1       8.778   3.162 -14.774  0.00  0.00    -0.211 NA
ATOM     22  C   UNL d   1      10.095   2.884 -14.856  0.00  0.00     0.260 C 
ATOM     23  O   UNL d   1      10.935   3.227 -14.027  0.00  0.00    -0.270 OA
BRANCH  22  24
ATOM     24  C   UNL d   1      10.573   2.066 -16.062  0.00  0.00     0.118 C 
BRANCH  24  25
ATOM     25  C   UNL d   1       9.412   1.569 -16.909  0.00  0.00     0.006 A 
ATOM     26  C   UNL d   1       8.927   2.334 -17.991  0.00  0.00     0.095 A 
ATOM     27  N   UNL d   1       7.858   1.977 -18.732  0.00  0.00    -0.243 NA
ATOM     28  C   UNL d   1       7.241   0.812 -18.418  0.00  0.00     0.099 A 
ATOM     29  C   UNL d   1       7.646  -0.019 -17.359  0.00  0.00     0.020 A 
ATOM     30  C   UNL d   1       8.755   0.365 -16.587  0.00  0.00    -0.001 A 
ENDBRANCH  24  25
ENDBRANCH  22  24
ENDBRANCH   1  21
TORSDOF 7
