REMARK  7 active torsions:
REMARK  status: ('A' for Active; 'I' for Inactive)
REMARK    1  A    between atoms: C_6  and  C_7 
REMARK    2  A    between atoms: C_10  and  S_11 
REMARK    3  A    between atoms: S_11  and  C_12 
REMARK    4  A    between atoms: C_12  and  C_13 
REMARK    5  A    between atoms: C_13  and  C_14 
REMARK    6  A    between atoms: C_14  and  N_15 
REMARK    7  A    between atoms: C_18  and  C_19 
ROOT
ATOM      1  C   UNL d   1       9.271   7.451 -10.857  0.00  0.00     0.047 C 
ENDROOT
BRANCH   1   2
ATOM      2  C   UNL d   1       8.402   7.908 -12.044  0.00  0.00     0.067 C 
BRANCH   2   3
ATOM      3  S   UNL d   1       7.144   6.645 -12.448  0.00  0.00    -0.075 SA
BRANCH   3   4
ATOM      4  C   UNL d   1       8.166   5.373 -13.078  0.00  0.00     0.193 A 
ATOM      5  N   UNL d   1       9.479   5.502 -13.259  0.00  0.00    -0.122 NA
ATOM      6  N   UNL d   1       9.907   4.324 -13.778  0.00  0.00    -0.126 NA
ATOM      7  C   UNL d   1       8.810   3.567 -13.893  0.00  0.00     0.191 A 
ATOM      8  N   UNL d   1       7.680   4.179 -13.476  0.00  0.00    -0.287 N 
ATOM      9  C   UNL d   1       6.301   3.693 -13.470  0.00  0.00     0.134 C 
BRANCH   7  10
ATOM     10  C   UNL d   1       8.907   2.231 -14.449  0.00  0.00     0.151 A 
ATOM     11  C   UNL d   1       9.956   1.556 -15.029  0.00  0.00     0.087 A 
ATOM     12  C   UNL d   1      11.367   2.005 -15.286  0.00  0.00     0.054 C 
ATOM     13  N   UNL d   1       9.517   0.294 -15.405  0.00  0.00    -0.221 NA
ATOM     14  C   UNL d   1       8.232   0.284 -15.048  0.00  0.00     0.225 A 
ATOM     15  O   UNL d   1       7.802   1.431 -14.470  0.00  0.00    -0.282 OA
ENDBRANCH   7  10
ENDBRANCH   3   4
ENDBRANCH   2   3
ENDBRANCH   1   2
BRANCH   1  16
ATOM     16  C   UNL d   1       9.834   8.626 -10.059  0.00  0.00     0.251 C 
BRANCH  16  17
ATOM     17  N   UNL d   1      10.486   8.119  -8.859  0.00  0.00     0.137 N 
ATOM     18  C   UNL d   1       9.459   7.745  -7.876  0.00  0.00     0.251 C 
ATOM     19  C   UNL d   1      10.058   7.324  -6.552  0.00  0.00     0.037 A 
ATOM     20  C   UNL d   1      11.460   7.756  -6.182  0.00  0.00     0.023 A 
ATOM     21  C   UNL d   1      11.149   6.308  -6.481  0.00  0.00     0.006 A 
ATOM     22  C   UNL d   1      12.251   8.543  -7.228  0.00  0.00     0.039 C 
ATOM     23  C   UNL d   1      11.354   9.149  -8.305  0.00  0.00     0.251 C 
BRANCH  20  24
ATOM     24  C   UNL d   1      11.727   8.187  -4.761  0.00  0.00    -0.023 A 
ATOM     25  C   UNL d   1      12.124   7.260  -3.763  0.00  0.00    -0.004 A 
ATOM     26  C   UNL d   1      12.372   7.678  -2.445  0.00  0.00    -0.000 A 
ATOM     27  C   UNL d   1      12.261   9.033  -2.117  0.00  0.00    -0.000 A 
ATOM     28  C   UNL d   1      11.851   9.954  -3.096  0.00  0.00    -0.000 A 
ATOM     29  C   UNL d   1      11.566   9.541  -4.406  0.00  0.00    -0.004 A 
ENDBRANCH  20  24
ENDBRANCH  16  17
ENDBRANCH   1  16
TORSDOF 7
