REMARK  5 active torsions:
REMARK  status: ('A' for Active; 'I' for Inactive)
REMARK    1  A    between atoms: N_12  and  C_13 
REMARK    2  A    between atoms: C_13  and  C_14 
REMARK    3  A    between atoms: C_19  and  C_20 
REMARK    4  A    between atoms: C_20  and  N_21 
REMARK    5  A    between atoms: N_24  and  C_25 
ROOT
ATOM      1  C   UNL d   1       9.797   4.296 -13.220  0.00  0.00     0.025 C 
ATOM      2  C   UNL d   1       9.174   2.927 -13.501  0.00  0.00     0.002 C 
ATOM      3  C   UNL d   1       7.737   3.054 -14.024  0.00  0.00     0.000 C 
ATOM      4  C   UNL d   1       6.842   3.908 -13.103  0.00  0.00     0.000 C 
ATOM      5  C   UNL d   1       7.489   5.265 -12.733  0.00  0.00     0.002 C 
ATOM      6  C   UNL d   1       8.909   5.062 -12.178  0.00  0.00     0.035 C 
ENDROOT
BRANCH   6   7
ATOM      7  C   UNL d   1       9.538   6.402 -11.780  0.00  0.00     0.250 C 
BRANCH   7   8
ATOM      8  N   UNL d   1       9.373   6.761 -10.384  0.00  0.00     0.141 N 
ATOM      9  C   UNL d   1       9.479   8.216 -10.222  0.00  0.00     0.274 C 
ATOM     10  C   UNL d   1       9.224   8.565  -8.743  0.00  0.00     0.138 C 
ATOM     11  N   UNL d   1      10.150   7.854  -7.890  0.00  0.00    -0.329 N 
ATOM     12  C   UNL d   1      10.193   6.426  -8.085  0.00  0.00     0.138 C 
ATOM     13  C   UNL d   1      10.410   6.127  -9.571  0.00  0.00     0.274 C 
BRANCH  11  14
ATOM     14  C   UNL d   1      10.918   8.523  -6.945  0.00  0.00     0.148 A 
ATOM     15  C   UNL d   1      11.281   7.998  -5.641  0.00  0.00     0.042 A 
ATOM     16  C   UNL d   1      12.066   8.970  -4.950  0.00  0.00     0.050 A 
ATOM     17  C   UNL d   1      11.031   6.792  -4.962  0.00  0.00     0.004 A 
ATOM     18  S   UNL d   1      12.227  10.340  -6.030  0.00  0.00     0.015 SA
ATOM     19  C   UNL d   1      12.593   8.744  -3.659  0.00  0.00     0.008 A 
ATOM     20  N   UNL d   1      11.321   9.723  -7.242  0.00  0.00    -0.192 NA
ATOM     21  C   UNL d   1      12.335   7.520  -3.031  0.00  0.00     0.001 A 
ATOM     22  C   UNL d   1      11.565   6.552  -3.682  0.00  0.00     0.000 A 
ENDBRANCH  11  14
ENDBRANCH   7   8
ENDBRANCH   6   7
BRANCH   1  23
ATOM     23  C   UNL d   1      10.114   5.080 -14.532  0.00  0.00     0.112 C 
BRANCH  23  24
ATOM     24  N   UNL d   1      10.868   4.274 -15.505  0.00  0.00    -0.271 N 
ATOM     25  C   UNL d   1      12.170   4.009 -15.354  0.00  0.00     0.239 A 
ATOM     26  O   UNL d   1      12.883   4.396 -14.431  0.00  0.00    -0.272 OA
ATOM     27  C   UNL d   1      12.676   3.143 -16.505  0.00  0.00     0.088 A 
ATOM     28  C   UNL d   1      11.424   2.906 -17.350  0.00  0.00     0.088 A 
ATOM     29  C   UNL d   1      13.638   3.821 -17.517  0.00  0.00     0.009 C 
ATOM     30  C   UNL d   1      11.808   3.466 -18.739  0.00  0.00     0.009 C 
ATOM     31  C   UNL d   1      10.361   3.682 -16.607  0.00  0.00     0.239 A 
ATOM     32  C   UNL d   1      11.937   5.009 -18.755  0.00  0.00     0.001 C 
ATOM     33  C   UNL d   1      13.277   3.057 -18.788  0.00  0.00     0.001 C 
ATOM     34  C   UNL d   1      13.201   5.254 -17.909  0.00  0.00     0.001 C 
ATOM     35  O   UNL d   1       9.210   3.725 -17.031  0.00  0.00    -0.272 OA
ENDBRANCH  23  24
ENDBRANCH   1  23
TORSDOF 5
