REMARK  3 active torsions:
REMARK  status: ('A' for Active; 'I' for Inactive)
REMARK    1  A    between atoms: C_2  and  C_3 
REMARK    2  A    between atoms: N_7  and  S_8 
REMARK    3  A    between atoms: S_8  and  C_11 
ROOT
ATOM      1  C   UNL d   1       9.834   1.569 -15.526  0.00  0.00     0.142 A 
ATOM      2  C   UNL d   1      10.413   2.799 -15.110  0.00  0.00     0.030 A 
ATOM      3  C   UNL d   1       9.621   3.675 -14.336  0.00  0.00     0.024 A 
ATOM      4  C   UNL d   1       9.894   4.905 -13.807  0.00  0.00     0.092 A 
ATOM      5  N   UNL d   1       8.699   5.266 -13.143  0.00  0.00    -0.231 N 
ATOM      6  C   UNL d   1       7.779   4.288 -13.304  0.00  0.00     0.077 A 
ATOM      7  C   UNL d   1       6.448   4.088 -12.892  0.00  0.00     0.018 A 
ATOM      8  C   UNL d   1       5.789   2.888 -13.254  0.00  0.00     0.004 A 
ATOM      9  C   UNL d   1       6.443   1.907 -14.040  0.00  0.00     0.025 A 
ATOM     10  C   UNL d   1       7.780   2.087 -14.467  0.00  0.00     0.102 A 
ATOM     11  C   UNL d   1       8.344   3.285 -14.049  0.00  0.00     0.041 A 
ATOM     12  O   UNL d   1       8.525   1.196 -15.214  0.00  0.00    -0.304 OA
ENDROOT
BRANCH   5  13
ATOM     13  S   UNL d   1       8.458   6.735 -12.296  0.00  0.00     0.271 S 
ATOM     14  O   UNL d   1       9.461   7.652 -12.830  0.00  0.00    -0.200 OA
ATOM     15  O   UNL d   1       7.019   7.021 -12.441  0.00  0.00    -0.200 OA
BRANCH  13  16
ATOM     16  C   UNL d   1       8.907   6.353 -10.596  0.00  0.00     0.104 A 
ATOM     17  C   UNL d   1       9.732   7.197  -9.787  0.00  0.00     0.012 A 
ATOM     18  C   UNL d   1      10.002   6.803  -8.454  0.00  0.00     0.001 A 
ATOM     19  C   UNL d   1      10.276   8.438 -10.197  0.00  0.00     0.001 A 
ATOM     20  C   UNL d   1       9.468   5.611  -7.967  0.00  0.00     0.000 A 
ATOM     21  C   UNL d   1      10.779   7.590  -7.572  0.00  0.00     0.000 A 
ATOM     22  C   UNL d   1       8.682   4.768  -8.761  0.00  0.00     0.001 A 
ATOM     23  C   UNL d   1       8.398   5.146 -10.076  0.00  0.00     0.013 A 
ATOM     24  C   UNL d   1      11.332   8.799  -8.020  0.00  0.00     0.000 A 
ATOM     25  C   UNL d   1      11.074   9.203  -9.336  0.00  0.00     0.000 A 
ENDBRANCH  13  16
ENDBRANCH   5  13
BRANCH   1  26
ATOM     26  C   UNL d   1      10.654   0.645 -16.329  0.00  0.00     0.259 C 
ATOM     27  O   UNL d   1      10.259  -0.448 -16.732  0.00  0.00    -0.281 OA
ENDBRANCH   1  26
TORSDOF 3
