REMARK  6 active torsions:
REMARK  status: ('A' for Active; 'I' for Inactive)
REMARK       I    between atoms: C_2  and  N_3 
REMARK    1  A    between atoms: C_2  and  C_26 
REMARK    2  A    between atoms: N_3  and  C_4 
REMARK    3  A    between atoms: C_7  and  C_8 
REMARK    4  A    between atoms: C_8  and  C_9 
REMARK    5  A    between atoms: C_9  and  N_10 
REMARK    6  A    between atoms: N_13  and  C_14 
ROOT
ATOM      1  C   UNL d   1       9.174   6.092 -11.945  0.00  0.00     0.035 C 
ENDROOT
BRANCH   1   2
ATOM      2  C   UNL d   1       9.694   6.445 -10.544  0.00  0.00     0.002 C 
ATOM      3  C   UNL d   1       8.719   5.935  -9.458  0.00  0.00     0.002 C 
ATOM      4  C   UNL d   1       9.181   6.308  -8.056  0.00  0.00     0.024 C 
ATOM      5  C   UNL d   1       9.475   7.825  -7.926  0.00  0.00     0.107 C 
ATOM      6  C   UNL d   1      10.432   8.336  -9.029  0.00  0.00     0.024 C 
ATOM      7  C   UNL d   1       9.944   7.958 -10.428  0.00  0.00     0.002 C 
BRANCH   5   8
ATOM      8  N   UNL d   1       9.979   8.186  -6.606  0.00  0.00    -0.236 NA
ATOM      9  C   UNL d   1      11.061   7.659  -6.018  0.00  0.00     0.281 C 
ATOM     10  O   UNL d   1      11.718   6.742  -6.503  0.00  0.00    -0.265 OA
BRANCH   9  11
ATOM     11  C   UNL d   1      11.444   8.249  -4.733  0.00  0.00     0.087 A 
ATOM     12  S   UNL d   1      12.201   7.194  -3.563  0.00  0.00    -0.082 SA
ATOM     13  C   UNL d   1      12.347   8.500  -2.428  0.00  0.00     0.036 A 
ATOM     14  C   UNL d   1      11.862   9.671  -2.944  0.00  0.00     0.008 A 
ATOM     15  C   UNL d   1      11.354   9.535  -4.270  0.00  0.00     0.012 A 
ENDBRANCH   9  11
ENDBRANCH   5   8
ENDBRANCH   1   2
BRANCH   1  16
ATOM     16  C   UNL d   1       9.426   4.621 -12.321  0.00  0.00     0.250 C 
BRANCH  16  17
ATOM     17  N   UNL d   1       8.542   4.185 -13.391  0.00  0.00     0.141 N 
ATOM     18  C   UNL d   1       7.170   3.966 -12.889  0.00  0.00     0.274 C 
ATOM     19  C   UNL d   1       6.252   3.462 -14.007  0.00  0.00     0.137 C 
ATOM     20  N   UNL d   1       6.838   2.286 -14.664  0.00  0.00    -0.344 N 
ATOM     21  C   UNL d   1       8.223   2.434 -15.092  0.00  0.00     0.137 C 
ATOM     22  C   UNL d   1       9.081   2.929 -13.929  0.00  0.00     0.274 C 
BRANCH  20  23
ATOM     23  C   UNL d   1       6.116   1.104 -14.877  0.00  0.00     0.068 A 
ATOM     24  C   UNL d   1       6.134   0.384 -16.117  0.00  0.00     0.084 A 
ATOM     25  C   UNL d   1       5.332  -0.764 -16.284  0.00  0.00     0.070 A 
ATOM     26 CL   UNL d   1       7.015   0.964 -17.501  0.00  0.00    -0.080 Cl
ATOM     27  C   UNL d   1       4.480  -1.187 -15.251  0.00  0.00     0.012 A 
ATOM     28 CL   UNL d   1       5.324  -1.628 -17.779  0.00  0.00    -0.081 Cl
ATOM     29  C   UNL d   1       4.413  -0.463 -14.050  0.00  0.00     0.002 A 
ATOM     30  C   UNL d   1       5.248   0.647 -13.854  0.00  0.00     0.018 A 
ENDBRANCH  20  23
ENDBRANCH  16  17
ENDBRANCH   1  16
TORSDOF 6
