REMARK  8 active torsions:
REMARK  status: ('A' for Active; 'I' for Inactive)
REMARK    1  A    between atoms: C_2  and  C_3 
REMARK       I    between atoms: C_2  and  N_10 
REMARK    2  A    between atoms: C_13  and  N_14 
REMARK    3  A    between atoms: N_14  and  C_15 
REMARK    4  A    between atoms: C_15  and  C_16 
REMARK    5  A    between atoms: C_16  and  S_17 
REMARK    6  A    between atoms: S_17  and  C_19 
REMARK    7  A    between atoms: C_19  and  C_20 
REMARK    8  A    between atoms: C_19  and  C_27 
ROOT
ATOM      1  C   UNL d   1       9.414   4.064 -12.289  0.00  0.00     0.131 C 
ENDROOT
BRANCH   1   2
ATOM      2  C   UNL d   1       9.194   5.378 -11.551  0.00  0.00     0.304 C 
BRANCH   2   3
ATOM      3  N   UNL d   1       9.451   5.152 -10.136  0.00  0.00     0.338 N 
BRANCH   3   4
ATOM      4  C   UNL d   1       9.108   6.321  -9.332  0.00  0.00     0.261 C 
ATOM      5  C   UNL d   1       9.879   7.587  -9.798  0.00  0.00     0.060 C 
ATOM      6  C   UNL d   1       9.705   8.768  -8.843  0.00  0.00     0.106 C 
ATOM      7  N   UNL d   1      10.000   8.374  -7.456  0.00  0.00    -0.317 N 
ATOM      8  C   UNL d   1      10.942   9.009  -6.718  0.00  0.00     0.257 C 
ATOM      9  C   UNL d   1       9.147   7.270  -6.985  0.00  0.00     0.106 C 
ATOM     10  O   UNL d   1      11.553   9.990  -7.113  0.00  0.00    -0.267 OA
ATOM     11  C   UNL d   1       9.418   6.028  -7.864  0.00  0.00     0.060 C 
BRANCH   8  12
ATOM     12  C   UNL d   1      11.246   8.528  -5.356  0.00  0.00     0.056 A 
ATOM     13  C   UNL d   1      11.498   7.148  -5.174  0.00  0.00     0.007 A 
ATOM     14  C   UNL d   1      11.866   6.716  -3.915  0.00  0.00     0.030 A 
ATOM     15  C   UNL d   1      12.062   7.620  -2.858  0.00  0.00     0.140 A 
ATOM     16  C   UNL d   1      11.869   9.006  -3.045  0.00  0.00     0.030 A 
ATOM     17  F   UNL d   1      12.463   7.130  -1.681  0.00  0.00    -0.204 F 
ATOM     18  C   UNL d   1      11.462   9.454  -4.303  0.00  0.00     0.007 A 
ENDBRANCH   8  12
ENDBRANCH   3   4
ENDBRANCH   2   3
ENDBRANCH   1   2
BRANCH   1  19
ATOM     19  S   UNL d   1       9.843   4.498 -14.038  0.00  0.00     0.051 S 
ATOM     20  O   UNL d   1      11.290   4.992 -14.049  0.00  0.00    -0.256 OA
BRANCH  19  21
ATOM     21  C   UNL d   1       9.801   2.798 -14.790  0.00  0.00     0.124 C 
BRANCH  21  22
ATOM     22  C   UNL d   1      10.195   2.845 -16.268  0.00  0.00    -0.006 A 
ATOM     23  C   UNL d   1      11.019   1.828 -16.807  0.00  0.00    -0.001 A 
ATOM     24  C   UNL d   1      11.345   1.830 -18.178  0.00  0.00     0.029 A 
ATOM     25  C   UNL d   1      10.852   2.846 -19.019  0.00  0.00     0.140 A 
ATOM     26  C   UNL d   1      10.031   3.858 -18.491  0.00  0.00     0.029 A 
ATOM     27  F   UNL d   1      11.174   2.854 -20.333  0.00  0.00    -0.204 F 
ATOM     28  C   UNL d   1       9.709   3.863 -17.122  0.00  0.00    -0.001 A 
ENDBRANCH  21  22
BRANCH  21  29
ATOM     29  C   UNL d   1       8.457   2.103 -14.553  0.00  0.00    -0.006 A 
ATOM     30  C   UNL d   1       7.286   2.834 -14.250  0.00  0.00    -0.001 A 
ATOM     31  C   UNL d   1       6.101   2.143 -13.930  0.00  0.00     0.029 A 
ATOM     32  C   UNL d   1       6.029   0.738 -14.018  0.00  0.00     0.140 A 
ATOM     33  C   UNL d   1       7.168   0.011 -14.389  0.00  0.00     0.029 A 
ATOM     34  F   UNL d   1       4.875   0.091 -13.696  0.00  0.00    -0.204 F 
ATOM     35  C   UNL d   1       8.382   0.694 -14.646  0.00  0.00    -0.001 A 
ENDBRANCH  21  29
ENDBRANCH  19  21
ENDBRANCH   1  19
TORSDOF 8
