REMARK  4 active torsions:
REMARK  status: ('A' for Active; 'I' for Inactive)
REMARK    1  A    between atoms: C_2  and  C_4 
REMARK    2  A    between atoms: C_4  and  C_5 
REMARK    3  A    between atoms: C_8  and  C_9 
REMARK    4  A    between atoms: C_9  and  C_11 
ROOT
ATOM      1  C   UNL d   1      10.641   7.210  -8.289  0.00  0.00    -0.022 A 
ATOM      2  C   UNL d   1      10.315   6.442  -7.146  0.00  0.00    -0.005 A 
ATOM      3  C   UNL d   1      10.661   6.873  -5.875  0.00  0.00    -0.004 A 
ATOM      4  C   UNL d   1      11.334   8.083  -5.691  0.00  0.00    -0.012 A 
ATOM      5  C   UNL d   1      11.697   8.865  -6.832  0.00  0.00    -0.004 A 
ATOM      6  C   UNL d   1      11.344   8.438  -8.135  0.00  0.00    -0.005 A 
ENDROOT
BRANCH   4   7
ATOM      7  C   UNL d   1      11.623   8.489  -4.271  0.00  0.00     0.110 C 
ATOM      8  C   UNL d   1      13.074   8.259  -3.931  0.00  0.00     0.016 C 
BRANCH   7   9
ATOM      9  C   UNL d   1      11.199   9.925  -4.035  0.00  0.00     0.189 C 
ATOM     10  O   UNL d   1      10.535  10.606  -4.841  0.00  0.00    -0.647 OA
ATOM     11  O   UNL d   1      11.662  10.360  -2.850  0.00  0.00    -0.647 OA
ENDBRANCH   7   9
ENDBRANCH   4   7
BRANCH   1  12
ATOM     12  C   UNL d   1      10.284   6.725  -9.694  0.00  0.00     0.026 C 
BRANCH  12  13
ATOM     13  C   UNL d   1       8.914   6.008  -9.819  0.00  0.00     0.004 C 
ATOM     14  C   UNL d   1       8.876   4.516  -9.376  0.00  0.00     0.000 C 
ATOM     15  C   UNL d   1       8.373   6.088 -11.269  0.00  0.00     0.000 C 
ENDBRANCH  12  13
ENDBRANCH   1  12
TORSDOF 4
