REMARK  3 active torsions:
REMARK  status: ('A' for Active; 'I' for Inactive)
REMARK    1  A    between atoms: C_5  and  C_6 
REMARK    2  A    between atoms: N_9  and  C_10 
REMARK    3  A    between atoms: C_10  and  C_11 
ROOT
ATOM      1  C   UNL d   1       9.327   6.720  -8.995  0.00  0.00     0.026 C 
ATOM      2  C   UNL d   1       9.842   5.282  -9.086  0.00  0.00     0.040 C 
ATOM      3  C   UNL d   1       9.389   4.531 -10.337  0.00  0.00     0.251 C 
ATOM      4  N   UNL d   1       9.696   5.233 -11.571  0.00  0.00     0.141 N 
ATOM      5  C   UNL d   1       9.067   6.544 -11.563  0.00  0.00     0.251 C 
ATOM      6  C   UNL d   1       9.590   7.373 -10.379  0.00  0.00     0.040 C 
ENDROOT
BRANCH   4   7
ATOM      7  C   UNL d   1       9.286   4.417 -12.709  0.00  0.00     0.277 C 
BRANCH   7   8
ATOM      8  C   UNL d   1      10.185   4.600 -13.914  0.00  0.00     0.013 A 
ATOM      9  C   UNL d   1       9.632   4.938 -15.158  0.00  0.00     0.019 A 
ATOM     10  C   UNL d   1      10.471   5.119 -16.277  0.00  0.00     0.106 A 
ATOM     11  C   UNL d   1      11.859   4.892 -16.181  0.00  0.00     0.112 A 
ATOM     12  N   UNL d   1       9.940   5.567 -17.504  0.00  0.00    -0.208 NA
ATOM     13  C   UNL d   1      12.411   4.520 -14.940  0.00  0.00     0.025 A 
ATOM     14  O   UNL d   1      12.680   5.078 -17.267  0.00  0.00    -0.319 OA
ATOM     15  C   UNL d   1      11.573   4.376 -13.821  0.00  0.00    -0.000 A 
ATOM     16  C   UNL d   1      12.070   4.955 -18.561  0.00  0.00     0.238 C 
ATOM     17  C   UNL d   1      10.662   5.580 -18.629  0.00  0.00     0.286 C 
ATOM     18  O   UNL d   1      10.220   6.034 -19.683  0.00  0.00    -0.267 OA
ENDBRANCH   7   8
ENDBRANCH   4   7
BRANCH   1  19
ATOM     19  C   UNL d   1       9.962   7.494  -7.817  0.00  0.00    -0.023 A 
ATOM     20  C   UNL d   1      10.068   8.894  -7.855  0.00  0.00    -0.005 A 
ATOM     21  C   UNL d   1      10.674   9.588  -6.795  0.00  0.00    -0.005 A 
ATOM     22  C   UNL d   1      11.162   8.898  -5.686  0.00  0.00    -0.026 A 
ATOM     23  C   UNL d   1      11.793   9.688  -4.577  0.00  0.00     0.031 C 
ATOM     24  C   UNL d   1      11.058   7.504  -5.619  0.00  0.00    -0.026 A 
ATOM     25  C   UNL d   1      10.463   6.807  -6.684  0.00  0.00    -0.009 A 
ATOM     26  C   UNL d   1      11.590   6.732  -4.432  0.00  0.00     0.031 C 
ENDBRANCH   1  19
TORSDOF 3
