REMARK  6 active torsions:
REMARK  status: ('A' for Active; 'I' for Inactive)
REMARK    1  A    between atoms: C_2  and  C_3 
REMARK    2  A    between atoms: C_3  and  N_4 
REMARK    3  A    between atoms: N_4  and  C_5 
REMARK    4  A    between atoms: N_4  and  C_12 
REMARK    5  A    between atoms: C_5  and  C_6 
REMARK    6  A    between atoms: C_6  and  C_7 
ROOT
ATOM      1  C   UNL d   1      10.185   7.736  -8.705  0.00  0.00     0.224 C 
ATOM      2  C   UNL d   1      10.634   6.282  -8.949  0.00  0.00     0.038 C 
ATOM      3  C   UNL d   1       9.694   5.383  -9.692  0.00  0.00     0.030 C 
ATOM      4  C   UNL d   1       9.068   6.077 -10.876  0.00  0.00    -0.001 C 
ATOM      5  C   UNL d   1       8.365   5.329 -11.819  0.00  0.00     0.127 C 
ATOM      6  O   UNL d   1       8.393   4.005 -11.829  0.00  0.00    -0.191 OA
ATOM      7  C   UNL d   1       7.595   5.968 -12.792  0.00  0.00     0.027 C 
ATOM      8  C   UNL d   1       7.542   7.338 -12.831  0.00  0.00     0.002 C 
ATOM      9  C   UNL d   1       8.380   8.139 -12.038  0.00  0.00    -0.004 C 
ATOM     10  C   UNL d   1       9.119   7.513 -11.026  0.00  0.00    -0.022 C 
ATOM     11  C   UNL d   1       9.774   8.454  -9.982  0.00  0.00     0.059 C 
ENDROOT
BRANCH   1  12
ATOM     12  N   UNL d   1      11.161   8.564  -7.998  0.00  0.00     0.136 N 
BRANCH  12  13
ATOM     13  C   UNL d   1      12.568   8.343  -8.395  0.00  0.00     0.250 C 
BRANCH  13  14
ATOM     14  C   UNL d   1      12.851   8.398  -9.896  0.00  0.00     0.035 C 
ATOM     15  C   UNL d   1      14.241   7.952 -10.278  0.00  0.00     0.002 C 
ENDBRANCH  13  14
ENDBRANCH  12  13
BRANCH  12  16
ATOM     16  C   UNL d   1      10.982   8.431  -6.540  0.00  0.00     0.255 C 
BRANCH  16  17
ATOM     17  C   UNL d   1      12.010   9.241  -5.701  0.00  0.00     0.062 C 
BRANCH  17  18
ATOM     18  C   UNL d   1      12.100   8.750  -4.298  0.00  0.00    -0.013 A 
ATOM     19  C   UNL d   1      11.995   9.586  -3.209  0.00  0.00     0.031 A 
ATOM     20  S   UNL d   1      12.288   8.739  -1.724  0.00  0.00    -0.086 SA
ATOM     21  C   UNL d   1      12.508   7.239  -2.561  0.00  0.00     0.035 A 
ATOM     22  C   UNL d   1      12.399   7.414  -3.913  0.00  0.00     0.003 A 
ENDBRANCH  17  18
ENDBRANCH  16  17
ENDBRANCH  12  16
ENDBRANCH   1  12
TORSDOF 6
