REMARK  5 active torsions:
REMARK  status: ('A' for Active; 'I' for Inactive)
REMARK    1  A    between atoms: O_2  and  C_3 
REMARK    2  A    between atoms: C_3  and  C_4 
REMARK    3  A    between atoms: C_4  and  O_5 
REMARK    4  A    between atoms: O_5  and  C_6 
REMARK    5  A    between atoms: C_19  and  O_20 
ROOT
ATOM      1  C   UNL d   1       8.076   5.048 -12.284  0.00  0.00     0.117 A 
ATOM      2  C   UNL d   1       6.671   5.164 -12.273  0.00  0.00     0.153 A 
ATOM      3  O   UNL d   1       6.022   6.104 -11.514  0.00  0.00    -0.188 OA
ATOM      4  C   UNL d   1       5.888   4.337 -13.101  0.00  0.00     0.029 A 
ATOM      5  C   UNL d   1       6.490   3.453 -14.004  0.00  0.00    -0.002 A 
ATOM      6  C   UNL d   1       7.879   3.387 -14.072  0.00  0.00    -0.020 A 
ATOM      7  C   UNL d   1       8.683   4.182 -13.223  0.00  0.00     0.031 A 
ATOM      8  C   UNL d   1      10.195   4.050 -13.282  0.00  0.00     0.279 C 
ATOM      9  N   UNL d   1      10.737   3.505 -14.532  0.00  0.00     0.144 N 
ATOM     10  C   UNL d   1      10.762   4.460 -15.640  0.00  0.00     0.256 C 
ATOM     11  C   UNL d   1      11.664   3.883 -16.756  0.00  0.00     0.061 C 
ATOM     12  C   UNL d   1      11.402   2.414 -17.068  0.00  0.00    -0.020 A 
ATOM     13  C   UNL d   1      11.920   1.822 -18.233  0.00  0.00     0.022 A 
ATOM     14  C   UNL d   1      11.659   0.474 -18.522  0.00  0.00     0.119 A 
ATOM     15  C   UNL d   1      10.857  -0.285 -17.634  0.00  0.00     0.153 A 
ATOM     16  O   UNL d   1      10.577  -1.581 -17.945  0.00  0.00    -0.188 OA
ATOM     17  C   UNL d   1      10.372   0.286 -16.447  0.00  0.00     0.027 A 
ATOM     18  C   UNL d   1      10.646   1.633 -16.156  0.00  0.00     0.007 A 
ATOM     19  C   UNL d   1      10.040   2.273 -14.918  0.00  0.00     0.246 C 
ATOM     20  C   UNL d   1       8.518   2.507 -15.127  0.00  0.00     0.064 C 
ENDROOT
BRANCH   1  21
ATOM     21  O   UNL d   1       8.849   5.795 -11.429  0.00  0.00    -0.326 OA
BRANCH  21  22
ATOM     22  C   UNL d   1       8.872   5.312 -10.093  0.00  0.00     0.181 C 
BRANCH  22  23
ATOM     23  C   UNL d   1       9.475   6.390  -9.188  0.00  0.00     0.175 C 
BRANCH  23  24
ATOM     24  O   UNL d   1       9.868   5.794  -7.965  0.00  0.00    -0.349 OA
ATOM     25  C   UNL d   1      10.421   6.731  -7.059  0.00  0.00     0.174 C 
ENDBRANCH  23  24
ENDBRANCH  22  23
ENDBRANCH  21  22
ENDBRANCH   1  21
BRANCH  14  26
ATOM     26  O   UNL d   1      12.109  -0.116 -19.674  0.00  0.00    -0.326 OA
ATOM     27  C   UNL d   1      13.485  -0.484 -19.648  0.00  0.00     0.181 C 
ENDBRANCH  14  26
TORSDOF 5
