REMARK  9 active torsions:
REMARK  status: ('A' for Active; 'I' for Inactive)
REMARK       I    between atoms: C_2  and  N_3 
REMARK    1  A    between atoms: C_2  and  C_7 
REMARK    2  A    between atoms: N_3  and  C_4 
REMARK    3  A    between atoms: C_11  and  O_12 
REMARK    4  A    between atoms: O_12  and  C_13 
REMARK    5  A    between atoms: C_13  and  C_14 
REMARK    6  A    between atoms: C_14  and  C_15 
REMARK    7  A    between atoms: C_15  and  C_16 
REMARK    8  A    between atoms: C_16  and  N_17 
REMARK    9  A    between atoms: C_20  and  C_21 
ROOT
ATOM      1  C   UNL d   1       9.277   6.380 -11.612  0.00  0.00     0.250 C 
ENDROOT
BRANCH   1   2
ATOM      2  C   UNL d   1       7.806   5.947 -11.816  0.00  0.00     0.038 C 
BRANCH   2   3
ATOM      3  C   UNL d   1       7.578   5.296 -13.188  0.00  0.00     0.035 C 
BRANCH   3   4
ATOM      4  C   UNL d   1       8.231   3.908 -13.271  0.00  0.00     0.151 C 
BRANCH   4   5
ATOM      5  O   UNL d   1       8.252   3.446 -14.614  0.00  0.00    -0.315 OA
BRANCH   5   6
ATOM      6  C   UNL d   1       7.536   2.330 -14.988  0.00  0.00     0.178 A 
ATOM      7  N   UNL d   1       6.823   1.670 -14.051  0.00  0.00    -0.221 NA
ATOM      8  C   UNL d   1       6.191   0.536 -14.401  0.00  0.00     0.101 A 
ATOM      9  C   UNL d   1       6.193   0.025 -15.705  0.00  0.00     0.026 A 
ATOM     10  C   UNL d   1       6.907   0.727 -16.700  0.00  0.00     0.063 A 
ATOM     11  C   UNL d   1       7.578   1.911 -16.330  0.00  0.00     0.049 A 
BRANCH  10  12
ATOM     12  C   UNL d   1       6.912   0.263 -18.126  0.00  0.00     0.275 C 
ATOM     13  O   UNL d   1       7.011   1.061 -19.064  0.00  0.00    -0.266 OA
ATOM     14  N   UNL d   1       6.844  -1.068 -18.283  0.00  0.00    -0.236 NA
BRANCH  14  15
ATOM     15  C   UNL d   1       6.806  -1.771 -19.527  0.00  0.00     0.107 A 
ATOM     16  C   UNL d   1       7.422  -3.153 -19.577  0.00  0.00     0.026 A 
ATOM     17  C   UNL d   1       5.926  -2.997 -19.606  0.00  0.00     0.026 A 
ENDBRANCH  14  15
ENDBRANCH  10  12
ENDBRANCH   5   6
ENDBRANCH   4   5
ENDBRANCH   3   4
ENDBRANCH   2   3
ENDBRANCH   1   2
BRANCH   1  18
ATOM     18  N   UNL d   1       9.523   7.069 -10.349  0.00  0.00     0.137 N 
ATOM     19  C   UNL d   1       9.316   6.187  -9.197  0.00  0.00     0.251 C 
ATOM     20  C   UNL d   1       9.493   6.974  -7.893  0.00  0.00     0.041 C 
ATOM     21  C   UNL d   1      10.883   7.612  -7.816  0.00  0.00     0.047 C 
ATOM     22  C   UNL d   1      11.170   8.406  -9.109  0.00  0.00     0.041 C 
ATOM     23  C   UNL d   1      10.892   7.583 -10.361  0.00  0.00     0.251 C 
BRANCH  21  24
ATOM     24  C   UNL d   1      11.027   8.487  -6.588  0.00  0.00     0.087 A 
ATOM     25  C   UNL d   1      11.447   8.200  -5.270  0.00  0.00     0.041 A 
ATOM     26  C   UNL d   1      11.385   9.367  -4.507  0.00  0.00     0.129 A 
ATOM     27  C   UNL d   1      11.855   6.995  -4.651  0.00  0.00     0.006 A 
ATOM     28  O   UNL d   1      10.889  10.335  -5.347  0.00  0.00    -0.211 OA
ATOM     29  C   UNL d   1      11.732   9.425  -3.156  0.00  0.00     0.057 A 
ATOM     30  N   UNL d   1      10.662   9.771  -6.632  0.00  0.00    -0.131 NA
ATOM     31  C   UNL d   1      12.164   8.234  -2.540  0.00  0.00     0.142 A 
ATOM     32  F   UNL d   1      12.516   8.257  -1.244  0.00  0.00    -0.204 F 
ATOM     33  C   UNL d   1      12.220   7.028  -3.285  0.00  0.00     0.030 A 
ENDBRANCH  21  24
ENDBRANCH   1  18
TORSDOF 9
