REMARK  5 active torsions:
REMARK  status: ('A' for Active; 'I' for Inactive)
REMARK       I    between atoms: C_2  and  N_3 
REMARK       I    between atoms: C_2  and  N_11 
REMARK    1  A    between atoms: N_3  and  C_4 
REMARK    2  A    between atoms: C_4  and  C_5 
REMARK    3  A    between atoms: N_11  and  C_12 
REMARK    4  A    between atoms: N_15  and  C_16 
REMARK    5  A    between atoms: C_16  and  C_17 
ROOT
ATOM      1  C   UNL d   1       9.673   6.487  -9.809  0.00  0.00     0.112 C 
ATOM      2  C   UNL d   1       9.663   7.336 -11.094  0.00  0.00     0.060 C 
ATOM      3  C   UNL d   1       9.639   6.445 -12.341  0.00  0.00     0.253 C 
ATOM      4  N   UNL d   1       8.513   5.524 -12.328  0.00  0.00     0.141 N 
ATOM      5  C   UNL d   1       8.663   4.647 -11.160  0.00  0.00     0.253 C 
ATOM      6  C   UNL d   1       8.553   5.463  -9.876  0.00  0.00     0.060 C 
ENDROOT
BRANCH   1   7
ATOM      7  N   UNL d   1       9.464   7.331  -8.640  0.00  0.00    -0.219 NA
ATOM      8  C   UNL d   1      10.457   7.913  -7.952  0.00  0.00     0.360 C 
ATOM      9  O   UNL d   1      11.650   7.684  -8.149  0.00  0.00    -0.243 OA
ATOM     10  N   UNL d   1      10.002   8.766  -7.033  0.00  0.00    -0.213 NA
BRANCH  10  11
ATOM     11  C   UNL d   1      10.846   9.556  -6.147  0.00  0.00     0.157 C 
BRANCH  11  12
ATOM     12  C   UNL d   1      11.309   8.831  -4.889  0.00  0.00     0.002 A 
ATOM     13  C   UNL d   1      11.591   9.584  -3.731  0.00  0.00    -0.002 A 
ATOM     14  C   UNL d   1      12.029   8.947  -2.552  0.00  0.00    -0.000 A 
ATOM     15  C   UNL d   1      12.178   7.548  -2.516  0.00  0.00    -0.000 A 
ATOM     16  C   UNL d   1      11.887   6.787  -3.663  0.00  0.00    -0.000 A 
ATOM     17  C   UNL d   1      11.460   7.423  -4.843  0.00  0.00    -0.002 A 
ENDBRANCH  11  12
ENDBRANCH  10  11
ENDBRANCH   1   7
BRANCH   4  18
ATOM     18  C   UNL d   1       8.505   4.768 -13.585  0.00  0.00     0.277 C 
BRANCH  18  19
ATOM     19  C   UNL d   1       7.468   3.653 -13.649  0.00  0.00     0.011 A 
ATOM     20  C   UNL d   1       6.278   3.736 -12.909  0.00  0.00    -0.002 A 
ATOM     21  C   UNL d   1       5.407   2.623 -12.865  0.00  0.00    -0.000 A 
ATOM     22  C   UNL d   1       5.661   1.483 -13.646  0.00  0.00    -0.000 A 
ATOM     23  C   UNL d   1       6.803   1.433 -14.463  0.00  0.00    -0.000 A 
ATOM     24  C   UNL d   1       7.714   2.510 -14.451  0.00  0.00    -0.002 A 
ENDBRANCH  18  19
ENDBRANCH   4  18
TORSDOF 5
