REMARK  6 active torsions:
REMARK  status: ('A' for Active; 'I' for Inactive)
REMARK    1  A    between atoms: O_2  and  C_3 
REMARK    2  A    between atoms: N_11  and  C_12 
REMARK    3  A    between atoms: C_12  and  C_13 
REMARK    4  A    between atoms: C_18  and  C_19 
REMARK    5  A    between atoms: C_19  and  N_20 
REMARK       I    between atoms: N_20  and  C_21 
REMARK    6  A    between atoms: C_21  and  C_23 
ROOT
ATOM      1  C   UNL d   1       8.256   6.300 -11.352  0.00  0.00     0.009 C 
ATOM      2  C   UNL d   1       8.169   7.343 -12.290  0.00  0.00    -0.003 C 
ATOM      3  C   UNL d   1       9.066   8.405 -12.170  0.00  0.00    -0.000 C 
ATOM      4  C   UNL d   1      10.144   8.322 -11.248  0.00  0.00    -0.000 C 
ATOM      5  C   UNL d   1      10.300   7.224 -10.420  0.00  0.00    -0.003 C 
ATOM      6  C   UNL d   1       9.297   6.248 -10.366  0.00  0.00     0.000 C 
ENDROOT
BRANCH   1   7
ATOM      7  C   UNL d   1       7.186   5.258 -11.416  0.00  0.00     0.277 C 
BRANCH   7   8
ATOM      8  N   UNL d   1       7.278   4.495 -12.662  0.00  0.00     0.146 N 
ATOM      9  C   UNL d   1       6.334   3.383 -12.535  0.00  0.00     0.277 C 
ATOM     10  C   UNL d   1       6.471   2.349 -13.642  0.00  0.00     0.009 A 
ATOM     11  C   UNL d   1       7.623   2.339 -14.464  0.00  0.00    -0.020 A 
ATOM     12  C   UNL d   1       5.485   1.366 -13.828  0.00  0.00     0.027 A 
ATOM     13  C   UNL d   1       7.737   1.405 -15.511  0.00  0.00     0.022 A 
ATOM     14  C   UNL d   1       8.740   3.336 -14.231  0.00  0.00     0.061 C 
ATOM     15  C   UNL d   1       6.717   0.460 -15.746  0.00  0.00     0.119 A 
ATOM     16  C   UNL d   1       5.584   0.430 -14.880  0.00  0.00     0.153 A 
ATOM     17  O   UNL d   1       4.561  -0.460 -15.048  0.00  0.00    -0.188 OA
ATOM     18  C   UNL d   1       8.648   3.985 -12.850  0.00  0.00     0.256 C 
BRANCH  15  19
ATOM     19  O   UNL d   1       6.887  -0.383 -16.805  0.00  0.00    -0.326 OA
ATOM     20  C   UNL d   1       5.940  -0.292 -17.865  0.00  0.00     0.181 C 
ENDBRANCH  15  19
ENDBRANCH   7   8
ENDBRANCH   1   7
BRANCH   6  21
ATOM     21  C   UNL d   1       9.367   5.234  -9.213  0.00  0.00     0.155 C 
BRANCH  21  22
ATOM     22  N   UNL d   1      10.084   5.837  -8.063  0.00  0.00    -0.229 NA
ATOM     23  C   UNL d   1       9.566   6.585  -7.072  0.00  0.00     0.276 C 
ATOM     24  O   UNL d   1       8.368   6.649  -6.845  0.00  0.00    -0.266 OA
BRANCH  23  25
ATOM     25  C   UNL d   1      10.541   7.325  -6.189  0.00  0.00     0.064 A 
ATOM     26  C   UNL d   1      11.138   8.538  -6.595  0.00  0.00     0.039 A 
ATOM     27  C   UNL d   1      12.003   9.267  -5.765  0.00  0.00     0.007 A 
ATOM     28 BR   UNL d   1      10.822   9.236  -8.315  0.00  0.00    -0.049 Br
ATOM     29  C   UNL d   1      12.277   8.819  -4.468  0.00  0.00     0.001 A 
ATOM     30  C   UNL d   1      11.697   7.597  -4.047  0.00  0.00     0.000 A 
ATOM     31  C   UNL d   1      10.839   6.846  -4.901  0.00  0.00     0.005 A 
ENDBRANCH  23  25
ENDBRANCH  21  22
ENDBRANCH   6  21
TORSDOF 6
