REMARK  3 active torsions:
REMARK  status: ('A' for Active; 'I' for Inactive)
REMARK    1  A    between atoms: C_2  and  C_4 
REMARK    2  A    between atoms: C_18  and  O_19 
REMARK    3  A    between atoms: C_21  and  O_22 
ROOT
ATOM      1  C   UNL d   1      16.254   5.941 -18.304  0.00  0.00     0.144 A 
ATOM      2  C   UNL d   1      15.537   5.064 -17.236  0.00  0.00     0.065 A 
ATOM      3  C   UNL d   1      14.117   5.432 -17.450  0.00  0.00     0.025 A 
ATOM      4  C   UNL d   1      14.028   6.391 -18.443  0.00  0.00     0.092 A 
ATOM      5  C   UNL d   1      12.784   6.916 -18.830  0.00  0.00     0.024 A 
ATOM      6  C   UNL d   1      11.628   6.436 -18.174  0.00  0.00     0.007 A 
ATOM      7  C   UNL d   1      11.730   5.465 -17.143  0.00  0.00     0.057 A 
ATOM      8  C   UNL d   1      12.990   4.942 -16.773  0.00  0.00     0.095 A 
ATOM      9  O   UNL d   1      13.142   4.007 -15.778  0.00  0.00    -0.330 OA
ATOM     10  C   UNL d   1      12.001   3.228 -15.433  0.00  0.00     0.163 C 
ATOM     11  C   UNL d   1      11.725   2.091 -16.436  0.00  0.00     0.179 C 
ATOM     12  O   UNL d   1      10.704   1.220 -15.952  0.00  0.00    -0.328 OA
ATOM     13  C   UNL d   1       9.603   1.794 -15.348  0.00  0.00     0.093 A 
ATOM     14  C   UNL d   1       8.498   0.964 -15.078  0.00  0.00     0.050 A 
ATOM     15  C   UNL d   1       7.336   1.471 -14.444  0.00  0.00     0.118 A 
ATOM     16  C   UNL d   1       7.302   2.825 -14.042  0.00  0.00     0.116 A 
ATOM     17  C   UNL d   1       8.427   3.655 -14.287  0.00  0.00     0.024 A 
ATOM     18  C   UNL d   1       9.559   3.158 -14.960  0.00  0.00     0.012 A 
ATOM     19  C   UNL d   1      10.745   4.078 -15.233  0.00  0.00     0.116 C 
ATOM     20  C   UNL d   1      10.516   4.978 -16.463  0.00  0.00     0.181 C 
ATOM     21  O   UNL d   1       9.391   5.282 -16.837  0.00  0.00    -0.291 OA
ATOM     22  O   UNL d   1      15.246   6.735 -18.955  0.00  0.00    -0.329 OA
ENDROOT
BRANCH   1  23
ATOM     23  C   UNL d   1      17.384   6.806 -17.751  0.00  0.00    -0.017 C 
ATOM     24  C   UNL d   1      18.195   6.402 -16.757  0.00  0.00    -0.007 C 
ATOM     25  C   UNL d   1      17.547   8.173 -18.392  0.00  0.00     0.029 C 
ENDBRANCH   1  23
BRANCH  16  26
ATOM     26  O   UNL d   1       6.156   3.269 -13.416  0.00  0.00    -0.326 OA
ATOM     27  C   UNL d   1       6.221   4.461 -12.643  0.00  0.00     0.181 C 
ENDBRANCH  16  26
BRANCH  15  28
ATOM     28  O   UNL d   1       6.221   0.709 -14.160  0.00  0.00    -0.326 OA
ATOM     29  C   UNL d   1       6.249  -0.670 -14.495  0.00  0.00     0.181 C 
ENDBRANCH  15  28
TORSDOF 3
