REMARK  9 active torsions:
REMARK  status: ('A' for Active; 'I' for Inactive)
REMARK    1  A    between atoms: C_2  and  C_3 
REMARK    2  A    between atoms: C_3  and  N_4 
REMARK    3  A    between atoms: N_4  and  C_5 
REMARK    4  A    between atoms: N_4  and  C_8 
REMARK    5  A    between atoms: C_5  and  C_6 
REMARK    6  A    between atoms: C_13  and  C_14 
REMARK    7  A    between atoms: C_14  and  S_15 
REMARK    8  A    between atoms: S_15  and  C_18 
REMARK    9  A    between atoms: C_21  and  O_22 
ROOT
ATOM      1  C   UNL d   1       9.443   3.565 -15.216  0.00  0.00     0.224 C 
ATOM      2  C   UNL d   1       9.604   2.593 -14.083  0.00  0.00     0.038 C 
ATOM      3  C   UNL d   1      10.124   3.193 -12.825  0.00  0.00     0.028 C 
ATOM      4  C   UNL d   1       9.456   4.454 -12.417  0.00  0.00    -0.026 A 
ATOM      5  C   UNL d   1       9.602   4.913 -11.095  0.00  0.00    -0.008 A 
ATOM      6  C   UNL d   1       9.070   6.149 -10.727  0.00  0.00    -0.006 A 
ATOM      7  C   UNL d   1       8.358   6.870 -11.688  0.00  0.00    -0.004 A 
ATOM      8  C   UNL d   1       8.149   6.388 -12.969  0.00  0.00    -0.005 A 
ATOM      9  C   UNL d   1       8.724   5.193 -13.358  0.00  0.00    -0.024 A 
ATOM     10  C   UNL d   1       8.512   4.696 -14.766  0.00  0.00     0.059 C 
ENDROOT
BRANCH   6  11
ATOM     11  C   UNL d   1       9.266   6.690  -9.329  0.00  0.00     0.153 C 
BRANCH  11  12
ATOM     12  S   UNL d   1      10.624   7.936  -9.290  0.00  0.00     0.194 S 
ATOM     13  O   UNL d   1      11.796   7.381  -9.977  0.00  0.00    -0.221 OA
ATOM     14  O   UNL d   1      10.073   9.227  -9.726  0.00  0.00    -0.221 OA
BRANCH  12  15
ATOM     15  C   UNL d   1      11.026   8.075  -7.557  0.00  0.00     0.084 A 
ATOM     16  C   UNL d   1      11.217   9.336  -6.959  0.00  0.00     0.013 A 
ATOM     17  C   UNL d   1      11.492   9.425  -5.578  0.00  0.00     0.025 A 
ATOM     18  C   UNL d   1      11.576   8.254  -4.788  0.00  0.00     0.094 A 
ATOM     19  C   UNL d   1      11.390   7.000  -5.416  0.00  0.00     0.025 A 
ATOM     20  C   UNL d   1      11.128   6.907  -6.787  0.00  0.00     0.013 A 
BRANCH  18  21
ATOM     21  O   UNL d   1      11.840   8.308  -3.435  0.00  0.00    -0.328 OA
ATOM     22  C   UNL d   1      11.875   7.068  -2.725  0.00  0.00     0.181 C 
ENDBRANCH  18  21
ENDBRANCH  12  15
ENDBRANCH  11  12
ENDBRANCH   6  11
BRANCH   1  23
ATOM     23  N   UNL d   1       8.983   2.915 -16.460  0.00  0.00     0.135 N 
BRANCH  23  24
ATOM     24  C   UNL d   1       7.614   2.365 -16.393  0.00  0.00     0.250 C 
BRANCH  24  25
ATOM     25  C   UNL d   1       7.616   0.828 -16.207  0.00  0.00     0.035 C 
ATOM     26  C   UNL d   1       7.825   0.363 -14.757  0.00  0.00     0.002 C 
ENDBRANCH  24  25
ENDBRANCH  23  24
BRANCH  23  27
ATOM     27  C   UNL d   1       9.087   3.865 -17.581  0.00  0.00     0.250 C 
BRANCH  27  28
ATOM     28  C   UNL d   1      10.537   4.010 -18.064  0.00  0.00     0.035 C 
ATOM     29  C   UNL d   1      10.647   4.899 -19.306  0.00  0.00     0.002 C 
ENDBRANCH  27  28
ENDBRANCH  23  27
ENDBRANCH   1  23
TORSDOF 9
