REMARK  8 active torsions:
REMARK  status: ('A' for Active; 'I' for Inactive)
REMARK    1  A    between atoms: C_2  and  C_3 
REMARK    2  A    between atoms: C_3  and  C_5 
REMARK    3  A    between atoms: C_5  and  C_6 
REMARK       I    between atoms: C_6  and  N_8 
REMARK    4  A    between atoms: N_8  and  C_9 
REMARK    5  A    between atoms: C_12  and  C_13 
REMARK    6  A    between atoms: C_13  and  C_14 
REMARK    7  A    between atoms: C_14  and  N_15 
REMARK    8  A    between atoms: C_18  and  C_19 
ROOT
ATOM      1  C   UNL d   1       8.655   5.159 -10.505  0.00  0.00     0.250 C 
ENDROOT
BRANCH   1   2
ATOM      2  C   UNL d   1       9.231   5.438 -11.910  0.00  0.00     0.035 C 
BRANCH   2   3
ATOM      3  C   UNL d   1       9.281   4.183 -12.804  0.00  0.00     0.002 C 
ATOM      4  C   UNL d   1       7.939   3.976 -13.527  0.00  0.00     0.002 C 
ATOM      5  C   UNL d   1       7.980   2.749 -14.440  0.00  0.00     0.024 C 
ATOM      6  C   UNL d   1       9.152   2.835 -15.444  0.00  0.00     0.106 C 
ATOM      7  C   UNL d   1      10.492   3.032 -14.731  0.00  0.00     0.024 C 
ATOM      8  C   UNL d   1      10.437   4.263 -13.822  0.00  0.00     0.002 C 
BRANCH   6   9
ATOM      9  N   UNL d   1       9.209   1.615 -16.241  0.00  0.00    -0.240 NA
ATOM     10  C   UNL d   1       8.500   1.421 -17.360  0.00  0.00     0.254 C 
ATOM     11  O   UNL d   1       7.870   2.325 -17.906  0.00  0.00    -0.271 OA
BRANCH  10  12
ATOM     12  C   UNL d   1       8.498  -0.003 -17.933  0.00  0.00     0.122 C 
BRANCH  12  13
ATOM     13  C   UNL d   1       7.091  -0.584 -18.214  0.00  0.00     0.162 C 
ATOM     14  O   UNL d   1       7.259  -1.949 -18.547  0.00  0.00    -0.223 OA
BRANCH  13  15
ATOM     15  C   UNL d   1       6.320   0.102 -19.368  0.00  0.00     0.034 C 
ATOM     16  C   UNL d   1       4.867  -0.366 -19.502  0.00  0.00     0.003 C 
ENDBRANCH  13  15
ENDBRANCH  12  13
ENDBRANCH  10  12
ENDBRANCH   6   9
ENDBRANCH   2   3
ENDBRANCH   1   2
BRANCH   1  17
ATOM     17  N   UNL d   1       9.074   6.138  -9.495  0.00  0.00     0.137 N 
ATOM     18  C   UNL d   1       8.559   5.717  -8.186  0.00  0.00     0.251 C 
ATOM     19  C   UNL d   1       8.926   6.744  -7.099  0.00  0.00     0.040 C 
ATOM     20  C   UNL d   1      10.445   6.949  -7.020  0.00  0.00     0.028 C 
ATOM     21  C   UNL d   1      10.981   7.270  -8.408  0.00  0.00     0.040 C 
ATOM     22  C   UNL d   1      10.528   6.218  -9.411  0.00  0.00     0.251 C 
BRANCH  20  23
ATOM     23  C   UNL d   1      10.827   8.039  -6.063  0.00  0.00     0.004 A 
ATOM     24  C   UNL d   1      11.436   7.894  -4.771  0.00  0.00     0.021 A 
ATOM     25  C   UNL d   1      11.588   9.205  -4.258  0.00  0.00     0.100 A 
ATOM     26  C   UNL d   1      11.867   6.825  -3.954  0.00  0.00     0.002 A 
ATOM     27  O   UNL d   1      11.097  10.118  -5.163  0.00  0.00    -0.305 OA
ATOM     28  C   UNL d   1      12.138   9.469  -2.999  0.00  0.00     0.025 A 
ATOM     29  C   UNL d   1      10.665   9.397  -6.238  0.00  0.00     0.118 A 
ATOM     30  C   UNL d   1      12.566   8.385  -2.205  0.00  0.00     0.002 A 
ATOM     31  C   UNL d   1      12.419   7.067  -2.681  0.00  0.00     0.000 A 
ENDBRANCH  20  23
ENDBRANCH   1  17
TORSDOF 8
