REMARK  7 active torsions:
REMARK  status: ('A' for Active; 'I' for Inactive)
REMARK    1  A    between atoms: C_2  and  C_3 
REMARK    2  A    between atoms: C_3  and  C_4 
REMARK    3  A    between atoms: C_4  and  C_5 
REMARK    4  A    between atoms: C_5  and  O_6 
REMARK    5  A    between atoms: C_5  and  C_15 
REMARK    6  A    between atoms: O_6  and  C_7 
REMARK    7  A    between atoms: C_20  and  N_21 
ROOT
ATOM      1  C   UNL d   1      10.098   4.296 -14.920  0.00  0.00     0.203 A 
ATOM      2  N   UNL d   1      10.888   3.221 -15.014  0.00  0.00    -0.039 NA
ATOM      3  C   UNL d   1      11.392   3.075 -16.233  0.00  0.00     0.785 A 
ATOM      4  N   UNL d   1      12.169   1.979 -16.446  0.00  0.00     0.063 N 
ATOM      5  N   UNL d   1      11.219   3.855 -17.292  0.00  0.00     0.134 NA
ATOM      6  C   UNL d   1      10.407   4.886 -17.053  0.00  0.00     0.744 A 
ATOM      7  N   UNL d   1       9.800   5.159 -15.893  0.00  0.00    -0.043 NA
ENDROOT
BRANCH   1   8
ATOM      8  C   UNL d   1       9.416   4.509 -13.568  0.00  0.00     0.180 C 
BRANCH   8   9
ATOM      9  C   UNL d   1       7.923   4.082 -13.575  0.00  0.00     0.038 C 
BRANCH   9  10
ATOM     10  C   UNL d   1       7.663   2.707 -14.226  0.00  0.00     0.003 C 
BRANCH  10  11
ATOM     11  C   UNL d   1       6.174   2.349 -14.210  0.00  0.00     0.000 C 
ATOM     12  C   UNL d   1       5.693   1.758 -12.882  0.00  0.00     0.000 C 
ENDBRANCH  10  11
ENDBRANCH   9  10
ENDBRANCH   8   9
BRANCH   8  13
ATOM     13  O   UNL d   1       9.554   5.857 -13.088  0.00  0.00    -0.326 OA
BRANCH  13  14
ATOM     14  C   UNL d   1       9.468   6.105 -11.731  0.00  0.00     0.096 A 
ATOM     15  C   UNL d   1       9.794   7.391 -11.235  0.00  0.00     0.036 A 
ATOM     16  C   UNL d   1       9.834   7.643  -9.841  0.00  0.00     0.061 A 
ATOM     17  C   UNL d   1       9.466   6.624  -8.933  0.00  0.00     0.023 A 
ATOM     18 CL   UNL d   1      10.319   9.181  -9.248  0.00  0.00    -0.082 Cl
ATOM     19  C   UNL d   1       9.099   5.365  -9.443  0.00  0.00     0.061 A 
ATOM     20  C   UNL d   1       9.106   5.094 -10.809  0.00  0.00     0.036 A 
ATOM     21 CL   UNL d   1       8.666   4.089  -8.438  0.00  0.00    -0.082 Cl
ENDBRANCH  13  14
ENDBRANCH   8  13
ENDBRANCH   1   8
BRANCH   6  22
ATOM     22  N   UNL d   1      10.161   5.752 -18.105  0.00  0.00    -0.178 N 
ATOM     23  C   UNL d   1       8.965   6.585 -18.200  0.00  0.00     0.155 C 
ATOM     24  C   UNL d   1       8.274   6.401 -19.559  0.00  0.00     0.275 C 
ATOM     25  N   UNL d   1       9.218   6.701 -20.639  0.00  0.00     0.143 N 
ATOM     26  C   UNL d   1      10.348   5.769 -20.544  0.00  0.00     0.275 C 
ATOM     27  C   UNL d   1       8.554   6.533 -21.915  0.00  0.00     0.286 C 
ATOM     28  C   UNL d   1      11.088   5.956 -19.214  0.00  0.00     0.155 C 
ENDBRANCH   6  22
TORSDOF 7
