REMARK  8 active torsions:
REMARK  status: ('A' for Active; 'I' for Inactive)
REMARK    1  A    between atoms: C_6  and  C_7 
REMARK    2  A    between atoms: C_10  and  S_11 
REMARK    3  A    between atoms: S_11  and  C_12 
REMARK    4  A    between atoms: C_12  and  C_13 
REMARK    5  A    between atoms: C_13  and  C_14 
REMARK    6  A    between atoms: C_14  and  N_15 
REMARK    7  A    between atoms: C_20  and  C_21 
REMARK    8  A    between atoms: C_26  and  C_27 
ROOT
ATOM      1  N   UNL d   1      11.129   4.310 -17.634  0.00  0.00     0.137 N 
ATOM      2  C   UNL d   1      10.980   5.601 -16.991  0.00  0.00     0.250 C 
ATOM      3  C   UNL d   1      10.434   5.183 -15.582  0.00  0.00     0.038 C 
ATOM      4  C   UNL d   1      10.971   3.800 -15.383  0.00  0.00     0.037 A 
ATOM      5  C   UNL d   1      11.410   3.236 -14.043  0.00  0.00     0.007 A 
ATOM      6  C   UNL d   1      10.148   2.727 -14.694  0.00  0.00     0.024 A 
ATOM      7  C   UNL d   1      11.757   3.488 -16.614  0.00  0.00     0.251 C 
ENDROOT
BRANCH   1   8
ATOM      8  C   UNL d   1      12.000   4.413 -18.792  0.00  0.00     0.251 C 
BRANCH   8   9
ATOM      9  C   UNL d   1      12.191   3.098 -19.575  0.00  0.00     0.047 C 
BRANCH   9  10
ATOM     10  C   UNL d   1      13.541   3.016 -20.316  0.00  0.00     0.067 C 
BRANCH  10  11
ATOM     11  S   UNL d   1      13.761   4.293 -21.587  0.00  0.00    -0.075 SA
BRANCH  11  12
ATOM     12  C   UNL d   1      15.306   4.960 -21.043  0.00  0.00     0.193 A 
ATOM     13  N   UNL d   1      16.487   4.514 -21.454  0.00  0.00    -0.122 NA
ATOM     14  N   UNL d   1      17.417   5.313 -20.832  0.00  0.00    -0.126 NA
ATOM     15  C   UNL d   1      16.731   6.196 -20.099  0.00  0.00     0.191 A 
ATOM     16  N   UNL d   1      15.397   5.998 -20.186  0.00  0.00    -0.287 N 
ATOM     17  C   UNL d   1      14.325   6.748 -19.554  0.00  0.00     0.134 C 
BRANCH  15  18
ATOM     18  C   UNL d   1      17.405   7.209 -19.280  0.00  0.00     0.151 A 
ATOM     19  C   UNL d   1      17.148   8.528 -18.974  0.00  0.00     0.087 A 
ATOM     20  C   UNL d   1      16.030   9.435 -19.398  0.00  0.00     0.054 C 
ATOM     21  N   UNL d   1      18.152   8.993 -18.136  0.00  0.00    -0.221 NA
ATOM     22  C   UNL d   1      18.960   7.954 -17.969  0.00  0.00     0.225 A 
ATOM     23  O   UNL d   1      18.549   6.834 -18.621  0.00  0.00    -0.282 OA
ENDBRANCH  15  18
ENDBRANCH  11  12
ENDBRANCH  10  11
ENDBRANCH   9  10
ENDBRANCH   8   9
ENDBRANCH   1   8
BRANCH   6  24
ATOM     24  C   UNL d   1       8.762   3.015 -14.143  0.00  0.00    -0.018 A 
ATOM     25  C   UNL d   1       7.610   2.262 -14.487  0.00  0.00     0.068 A 
ATOM     26  C   UNL d   1       6.348   2.646 -13.972  0.00  0.00     0.004 A 
ATOM     27  C   UNL d   1       6.217   3.756 -13.104  0.00  0.00    -0.000 A 
ATOM     28  C   UNL d   1       7.355   4.482 -12.747  0.00  0.00    -0.000 A 
ATOM     29  C   UNL d   1       8.605   4.123 -13.256  0.00  0.00    -0.004 A 
BRANCH  25  30
ATOM     30  C   UNL d   1       7.654   1.044 -15.436  0.00  0.00     0.418 C 
ATOM     31  F   UNL d   1       8.611   0.184 -15.085  0.00  0.00    -0.166 F 
ATOM     32  F   UNL d   1       6.503   0.376 -15.432  0.00  0.00    -0.166 F 
ATOM     33  F   UNL d   1       7.878   1.464 -16.680  0.00  0.00    -0.166 F 
ENDBRANCH  25  30
ENDBRANCH   6  24
TORSDOF 8
