REMARK  8 active torsions:
REMARK  status: ('A' for Active; 'I' for Inactive)
REMARK       I    between atoms: C_2  and  N_3 
REMARK    1  A    between atoms: C_2  and  C_30 
REMARK    2  A    between atoms: N_3  and  C_4 
REMARK    3  A    between atoms: C_7  and  O_8 
REMARK    4  A    between atoms: O_8  and  C_9 
REMARK    5  A    between atoms: C_9  and  C_10 
REMARK    6  A    between atoms: C_10  and  C_11 
REMARK    7  A    between atoms: C_11  and  N_12 
REMARK    8  A    between atoms: C_15  and  C_16 
ROOT
ATOM      1  C   UNL d   1       7.721   1.621 -15.793  0.00  0.00     0.068 C 
ENDROOT
BRANCH   1   2
ATOM      2  C   UNL d   1       6.688   1.647 -14.661  0.00  0.00     0.151 C 
BRANCH   2   3
ATOM      3  O   UNL d   1       6.269   2.978 -14.402  0.00  0.00    -0.331 OA
BRANCH   3   4
ATOM      4  C   UNL d   1       6.961   3.749 -13.494  0.00  0.00     0.094 A 
ATOM      5  C   UNL d   1       6.200   4.738 -12.841  0.00  0.00     0.026 A 
ATOM      6  C   UNL d   1       6.778   5.544 -11.842  0.00  0.00     0.021 A 
ATOM      7  C   UNL d   1       8.130   5.350 -11.500  0.00  0.00     0.085 A 
ATOM      8  C   UNL d   1       8.913   4.403 -12.186  0.00  0.00     0.021 A 
ATOM      9  C   UNL d   1       8.338   3.606 -13.183  0.00  0.00     0.026 A 
BRANCH   7  10
ATOM     10  N   UNL d   1       8.671   6.177 -10.490  0.00  0.00    -0.208 NA
ATOM     11  C   UNL d   1       9.429   5.779  -9.457  0.00  0.00     0.279 C 
ATOM     12  O   UNL d   1       9.616   4.604  -9.143  0.00  0.00    -0.265 OA
BRANCH  11  13
ATOM     13  C   UNL d   1       9.981   6.910  -8.638  0.00  0.00     0.058 A 
ATOM     14  C   UNL d   1      10.511   8.055  -9.281  0.00  0.00     0.005 A 
ATOM     15  C   UNL d   1      11.047   9.110  -8.528  0.00  0.00     0.000 A 
ATOM     16  C   UNL d   1      11.074   9.042  -7.123  0.00  0.00     0.000 A 
ATOM     17  C   UNL d   1      10.556   7.905  -6.471  0.00  0.00     0.000 A 
ATOM     18  C   UNL d   1      10.017   6.845  -7.227  0.00  0.00     0.005 A 
ENDBRANCH  11  13
ENDBRANCH   7  10
ENDBRANCH   3   4
ENDBRANCH   2   3
ENDBRANCH   1   2
BRANCH   1  19
ATOM     19  C   UNL d   1       8.312   0.204 -16.004  0.00  0.00     0.253 C 
BRANCH  19  20
ATOM     20  N   UNL d   1       9.488   0.192 -16.891  0.00  0.00     0.137 N 
ATOM     21  C   UNL d   1       9.174   0.775 -18.196  0.00  0.00     0.251 C 
ATOM     22  C   UNL d   1      10.356   0.659 -19.163  0.00  0.00     0.041 C 
ATOM     23  C   UNL d   1      11.607   1.305 -18.551  0.00  0.00     0.047 C 
ATOM     24  C   UNL d   1      11.876   0.720 -17.163  0.00  0.00     0.041 C 
ATOM     25  C   UNL d   1      10.644   0.829 -16.265  0.00  0.00     0.251 C 
BRANCH  23  26
ATOM     26  C   UNL d   1      12.814   1.125 -19.453  0.00  0.00     0.087 A 
ATOM     27  C   UNL d   1      13.679   2.068 -20.038  0.00  0.00     0.041 A 
ATOM     28  C   UNL d   1      14.637   1.381 -20.798  0.00  0.00     0.129 A 
ATOM     29  C   UNL d   1      13.726   3.480 -19.985  0.00  0.00     0.006 A 
ATOM     30  O   UNL d   1      14.340   0.042 -20.644  0.00  0.00    -0.211 OA
ATOM     31  C   UNL d   1      15.645   2.023 -21.522  0.00  0.00     0.057 A 
ATOM     32  N   UNL d   1      13.204  -0.098 -19.792  0.00  0.00    -0.131 NA
ATOM     33  C   UNL d   1      15.690   3.431 -21.469  0.00  0.00     0.142 A 
ATOM     34  F   UNL d   1      16.655   4.099 -22.151  0.00  0.00    -0.204 F 
ATOM     35  C   UNL d   1      14.739   4.155 -20.704  0.00  0.00     0.030 A 
ENDBRANCH  23  26
ENDBRANCH  19  20
ENDBRANCH   1  19
TORSDOF 8
