REMARK  4 active torsions:
REMARK  status: ('A' for Active; 'I' for Inactive)
REMARK    1  A    between atoms: C_8  and  C_9 
REMARK    2  A    between atoms: C_9  and  C_10 
REMARK    3  A    between atoms: C_10  and  N_11 
REMARK    4  A    between atoms: N_14  and  C_15 
ROOT
ATOM      1  N   UNL d   1       8.563   4.617 -12.944  0.00  0.00     0.141 N 
ATOM      2  C   UNL d   1       9.514   4.248 -11.887  0.00  0.00     0.274 C 
ATOM      3  C   UNL d   1       9.165   4.951 -10.570  0.00  0.00     0.137 C 
ATOM      4  N   UNL d   1       9.159   6.384 -10.791  0.00  0.00    -0.344 N 
ATOM      5  C   UNL d   1       8.305   6.835 -11.880  0.00  0.00     0.137 C 
ATOM      6  C   UNL d   1       8.668   6.065 -13.155  0.00  0.00     0.274 C 
ENDROOT
BRANCH   1   7
ATOM      7  C   UNL d   1       8.930   3.939 -14.186  0.00  0.00     0.255 C 
BRANCH   7   8
ATOM      8  C   UNL d   1       8.566   2.434 -14.135  0.00  0.00     0.068 C 
BRANCH   8   9
ATOM      9  C   UNL d   1       8.793   1.634 -15.423  0.00  0.00     0.050 A 
ATOM     10  C   UNL d   1      10.035   1.376 -15.916  0.00  0.00     0.062 A 
ATOM     11  C   UNL d   1      11.321   1.891 -15.295  0.00  0.00     0.052 C 
ATOM     12  N   UNL d   1      10.218   0.580 -17.044  0.00  0.00    -0.230 NA
ATOM     13  C   UNL d   1       9.202   0.045 -17.646  0.00  0.00     0.181 A 
ATOM     14  C   UNL d   1       9.520  -0.789 -18.872  0.00  0.00     0.207 C 
ATOM     15  N   UNL d   1       7.883   0.239 -17.180  0.00  0.00    -0.279 N 
ATOM     16  C   UNL d   1       8.360  -1.409 -19.649  0.00  0.00     0.074 C 
ATOM     17  O   UNL d   1      10.671  -0.954 -19.275  0.00  0.00    -0.288 OA
ATOM     18  C   UNL d   1       7.166  -1.667 -18.726  0.00  0.00     0.033 C 
ATOM     19  C   UNL d   1       6.770  -0.396 -17.942  0.00  0.00     0.111 C 
ATOM     20  C   UNL d   1       7.621   1.014 -16.088  0.00  0.00     0.259 A 
ATOM     21  O   UNL d   1       6.467   1.183 -15.691  0.00  0.00    -0.267 OA
ENDBRANCH   8   9
ENDBRANCH   7   8
ENDBRANCH   1   7
BRANCH   4  22
ATOM     22  C   UNL d   1       9.832   7.281  -9.954  0.00  0.00     0.057 A 
ATOM     23  C   UNL d   1       9.752   7.194  -8.543  0.00  0.00     0.022 A 
ATOM     24  C   UNL d   1      10.492   8.150  -7.771  0.00  0.00     0.031 A 
ATOM     25  C   UNL d   1       9.024   6.293  -7.700  0.00  0.00     0.009 A 
ATOM     26  C   UNL d   1      11.256   9.147  -8.363  0.00  0.00     0.007 A 
ATOM     27  S   UNL d   1      10.284   7.904  -6.056  0.00  0.00    -0.086 SA
ATOM     28  C   UNL d   1      11.299   9.225  -9.760  0.00  0.00     0.002 A 
ATOM     29  C   UNL d   1      10.572   8.317 -10.541  0.00  0.00     0.017 A 
ATOM     30  C   UNL d   1       9.217   6.583  -6.388  0.00  0.00     0.035 A 
ENDBRANCH   4  22
TORSDOF 4
