REMARK  11 active torsions:
REMARK  status: ('A' for Active; 'I' for Inactive)
REMARK    1  A    between atoms: C_2  and  C_3 
REMARK    2  A    between atoms: C_3  and  N_4 
REMARK    3  A    between atoms: N_4  and  C_5 
REMARK    4  A    between atoms: N_4  and  C_24 
REMARK    5  A    between atoms: C_5  and  C_6 
REMARK    6  A    between atoms: C_6  and  C_7 
REMARK    7  A    between atoms: C_7  and  C_8 
REMARK    8  A    between atoms: C_8  and  N_9 
REMARK       I    between atoms: N_9  and  C_10 
REMARK    9  A    between atoms: C_10  and  C_12 
REMARK   10  A    between atoms: C_15  and  C_16 
REMARK   11  A    between atoms: C_31  and  O_32 
ROOT
ATOM      1  C   UNL d   1       9.219   5.024 -14.010  0.00  0.00     0.037 C 
ENDROOT
BRANCH   1   2
ATOM      2  C   UNL d   1      10.454   4.900 -14.924  0.00  0.00     0.250 C 
BRANCH   2   3
ATOM      3  N   UNL d   1      10.055   4.440 -16.262  0.00  0.00     0.135 N 
BRANCH   3   4
ATOM      4  C   UNL d   1      10.991   4.894 -17.303  0.00  0.00     0.250 C 
BRANCH   4   5
ATOM      5  C   UNL d   1      10.835   6.376 -17.641  0.00  0.00     0.035 C 
ATOM      6  C   UNL d   1       9.524   6.661 -18.395  0.00  0.00     0.002 C 
ENDBRANCH   4   5
ENDBRANCH   3   4
BRANCH   3   7
ATOM      7  C   UNL d   1       9.846   2.984 -16.302  0.00  0.00     0.224 C 
ATOM      8  C   UNL d   1       8.876   2.611 -17.449  0.00  0.00     0.064 C 
ATOM      9  C   UNL d   1       8.831   1.127 -17.729  0.00  0.00     0.034 A 
ATOM     10  C   UNL d   1       9.809   0.231 -17.227  0.00  0.00     0.060 A 
ATOM     11  C   UNL d   1       7.843   0.582 -18.564  0.00  0.00     0.177 A 
ATOM     12  C   UNL d   1      10.935   0.679 -16.305  0.00  0.00     0.048 C 
ATOM     13  N   UNL d   1       9.781  -1.082 -17.545  0.00  0.00    -0.229 NA
ATOM     14  C   UNL d   1      11.168   2.179 -16.327  0.00  0.00     0.040 C 
ATOM     15  C   UNL d   1       8.778  -1.488 -18.325  0.00  0.00     0.200 A 
ATOM     16  N   UNL d   1       7.813  -0.729 -18.852  0.00  0.00    -0.201 NA
BRANCH  11  17
ATOM     17  O   UNL d   1       6.894   1.407 -19.127  0.00  0.00    -0.312 OA
ATOM     18  C   UNL d   1       5.852   0.810 -19.891  0.00  0.00     0.183 C 
ENDBRANCH  11  17
ENDBRANCH   3   7
ENDBRANCH   2   3
ENDBRANCH   1   2
BRANCH   1  19
ATOM     19  C   UNL d   1       9.587   5.598 -12.648  0.00  0.00     0.029 C 
BRANCH  19  20
ATOM     20  C   UNL d   1       8.357   5.977 -11.814  0.00  0.00     0.129 C 
BRANCH  20  21
ATOM     21  N   UNL d   1       8.741   6.387 -10.471  0.00  0.00    -0.234 NA
ATOM     22  C   UNL d   1       9.265   5.607  -9.528  0.00  0.00     0.275 C 
ATOM     23  O   UNL d   1       9.443   4.394  -9.671  0.00  0.00    -0.266 OA
BRANCH  22  24
ATOM     24  C   UNL d   1       9.743   6.309  -8.296  0.00  0.00     0.058 A 
ATOM     25  C   UNL d   1      10.863   5.828  -7.645  0.00  0.00     0.005 A 
ATOM     26  C   UNL d   1      11.426   6.406  -6.507  0.00  0.00     0.000 A 
ATOM     27  C   UNL d   1      10.785   7.501  -5.919  0.00  0.00     0.000 A 
ATOM     28  C   UNL d   1       9.611   7.996  -6.535  0.00  0.00     0.000 A 
ATOM     29  C   UNL d   1       9.110   7.405  -7.717  0.00  0.00     0.005 A 
BRANCH  27  30
ATOM     30  C   UNL d   1      11.319   8.032  -4.678  0.00  0.00     0.000 A 
ATOM     31  C   UNL d   1      11.205   9.408  -4.450  0.00  0.00     0.000 A 
ATOM     32  C   UNL d   1      11.667   9.944  -3.241  0.00  0.00     0.000 A 
ATOM     33  C   UNL d   1      12.265   9.139  -2.271  0.00  0.00     0.000 A 
ATOM     34  C   UNL d   1      12.365   7.759  -2.475  0.00  0.00     0.000 A 
ATOM     35  C   UNL d   1      11.886   7.202  -3.676  0.00  0.00     0.000 A 
ENDBRANCH  27  30
ENDBRANCH  22  24
ENDBRANCH  20  21
ENDBRANCH  19  20
ENDBRANCH   1  19
TORSDOF 11
