REMARK  7 active torsions:
REMARK  status: ('A' for Active; 'I' for Inactive)
REMARK    1  A    between atoms: O_2  and  C_3 
REMARK    2  A    between atoms: C_8  and  N_9 
REMARK    3  A    between atoms: N_12  and  C_13 
REMARK    4  A    between atoms: C_13  and  C_14 
REMARK    5  A    between atoms: C_14  and  C_15 
REMARK    6  A    between atoms: C_15  and  C_16 
REMARK    7  A    between atoms: N_18  and  C_19 
ROOT
ATOM      1  C   UNL d   1       9.443   4.608 -12.282  0.00  0.00     0.042 C 
ENDROOT
BRANCH   1   2
ATOM      2  C   UNL d   1       8.654   3.814 -13.335  0.00  0.00     0.251 C 
BRANCH   2   3
ATOM      3  N   UNL d   1       9.495   2.793 -13.962  0.00  0.00     0.141 N 
ATOM      4  C   UNL d   1       8.649   1.707 -14.469  0.00  0.00     0.274 C 
ATOM      5  C   UNL d   1       9.516   0.573 -15.055  0.00  0.00     0.137 C 
ATOM      6  N   UNL d   1      10.387   1.104 -16.094  0.00  0.00    -0.343 N 
ATOM      7  C   UNL d   1      11.179   2.265 -15.702  0.00  0.00     0.137 C 
ATOM      8  C   UNL d   1      10.276   3.351 -15.071  0.00  0.00     0.274 C 
BRANCH   6   9
ATOM      9  C   UNL d   1      10.384   0.624 -17.419  0.00  0.00     0.079 A 
ATOM     10  C   UNL d   1       9.178   0.331 -18.112  0.00  0.00     0.110 A 
ATOM     11  C   UNL d   1       9.248  -0.180 -19.435  0.00  0.00     0.026 A 
ATOM     12  C   UNL d   1      10.489  -0.371 -20.070  0.00  0.00     0.002 A 
ATOM     13  C   UNL d   1      11.678  -0.059 -19.390  0.00  0.00     0.002 A 
ATOM     14  C   UNL d   1      11.622   0.434 -18.072  0.00  0.00     0.019 A 
BRANCH  10  15
ATOM     15  O   UNL d   1       7.980   0.595 -17.475  0.00  0.00    -0.327 OA
ATOM     16  C   UNL d   1       6.772   0.194 -18.097  0.00  0.00     0.181 C 
ENDBRANCH  10  15
ENDBRANCH   6   9
ENDBRANCH   2   3
ENDBRANCH   1   2
BRANCH   1  17
ATOM     17  C   UNL d   1       8.519   5.409 -11.349  0.00  0.00     0.051 C 
BRANCH  17  18
ATOM     18  C   UNL d   1       9.276   6.340 -10.454  0.00  0.00     0.101 A 
ATOM     19  N   UNL d   1       9.854   7.504 -10.944  0.00  0.00    -0.133 NA
ATOM     20  N   UNL d   1      10.414   8.142  -9.973  0.00  0.00    -0.060 NA
ATOM     21  N   UNL d   1      10.210   7.428  -8.835  0.00  0.00    -0.209 N 
ATOM     22  C   UNL d   1       9.480   6.282  -9.104  0.00  0.00     0.119 A 
BRANCH  21  23
ATOM     23  C   UNL d   1      10.703   7.897  -7.588  0.00  0.00     0.088 A 
ATOM     24  C   UNL d   1      10.774   7.040  -6.504  0.00  0.00     0.038 A 
ATOM     25  C   UNL d   1      11.281   7.520  -5.269  0.00  0.00     0.086 A 
ATOM     26  N   UNL d   1      11.692   8.866  -5.191  0.00  0.00    -0.228 N 
ATOM     27  C   UNL d   1      11.507   6.988  -4.032  0.00  0.00     0.042 A 
ATOM     28  C   UNL d   1      11.627   9.715  -6.248  0.00  0.00     0.102 A 
ATOM     29  N   UNL d   1      12.156   9.183  -3.942  0.00  0.00    -0.164 NA
ATOM     30  C   UNL d   1      11.138   9.244  -7.443  0.00  0.00     0.040 A 
ATOM     31  C   UNL d   1      12.044   8.056  -3.273  0.00  0.00     0.122 A 
ENDBRANCH  21  23
ENDBRANCH  17  18
ENDBRANCH   1  17
TORSDOF 7
