REMARK  4 active torsions:
REMARK  status: ('A' for Active; 'I' for Inactive)
REMARK    1  A    between atoms: C_8  and  N_9 
REMARK       I    between atoms: N_9  and  C_10 
REMARK    2  A    between atoms: C_10  and  C_12 
REMARK    3  A    between atoms: C_12  and  N_13 
REMARK    4  A    between atoms: C_16  and  C_17 
ROOT
ATOM      1  N   UNL d   1      10.222   7.123  -9.160  0.00  0.00     0.147 N 
ATOM      2  C   UNL d   1       9.109   7.218  -8.214  0.00  0.00     0.251 C 
ATOM      3  C   UNL d   1       9.623   7.114  -6.784  0.00  0.00     0.041 C 
ATOM      4  C   UNL d   1      10.618   8.242  -6.485  0.00  0.00     0.045 C 
ATOM      5  C   UNL d   1      11.716   8.270  -7.556  0.00  0.00     0.041 C 
ATOM      6  C   UNL d   1      11.113   8.285  -8.974  0.00  0.00     0.251 C 
ENDROOT
BRANCH   1   7
ATOM      7  C   UNL d   1       9.722   7.095 -10.544  0.00  0.00     0.339 C 
BRANCH   7   8
ATOM      8  C   UNL d   1       9.028   5.803 -11.021  0.00  0.00     0.290 C 
ATOM      9  N   UNL d   1       8.877   5.684 -12.335  0.00  0.00    -0.210 NA
ATOM     10  O   UNL d   1       8.675   4.921 -10.224  0.00  0.00    -0.268 OA
BRANCH   9  11
ATOM     11  C   UNL d   1       8.294   4.582 -13.008  0.00  0.00     0.081 A 
ATOM     12  C   UNL d   1       9.060   3.853 -13.948  0.00  0.00    -0.002 A 
ATOM     13  C   UNL d   1      10.517   4.196 -14.191  0.00  0.00     0.033 C 
ATOM     14  C   UNL d   1       8.471   2.776 -14.646  0.00  0.00     0.027 A 
ATOM     15  C   UNL d   1       7.120   2.446 -14.426  0.00  0.00     0.140 A 
ATOM     16  F   UNL d   1       6.566   1.413 -15.108  0.00  0.00    -0.204 F 
ATOM     17  C   UNL d   1       6.354   3.180 -13.502  0.00  0.00     0.031 A 
ATOM     18  C   UNL d   1       6.940   4.240 -12.787  0.00  0.00     0.021 A 
ENDBRANCH   9  11
ENDBRANCH   7   8
ENDBRANCH   1   7
BRANCH   4  19
ATOM     19  C   UNL d   1      11.211   8.133  -5.072  0.00  0.00     0.068 A 
ATOM     20  N   UNL d   1      11.400   9.289  -4.338  0.00  0.00    -0.188 N 
ATOM     21  C   UNL d   1      11.913   9.211  -3.072  0.00  0.00     0.108 A 
ATOM     22  O   UNL d   1      11.061  10.432  -4.817  0.00  0.00    -0.080 OA
ATOM     23  C   UNL d   1      12.260   7.978  -2.487  0.00  0.00     0.021 A 
ATOM     24  C   UNL d   1      12.084   6.792  -3.220  0.00  0.00     0.003 A 
ATOM     25  C   UNL d   1      11.568   6.890  -4.519  0.00  0.00     0.015 A 
ENDBRANCH   4  19
TORSDOF 4
