REMARK  5 active torsions:
REMARK  status: ('A' for Active; 'I' for Inactive)
REMARK    1  A    between atoms: C_4  and  N_5 
REMARK    2  A    between atoms: N_8  and  C_9 
REMARK    3  A    between atoms: C_9  and  C_10 
REMARK    4  A    between atoms: C_10  and  O_11 
REMARK    5  A    between atoms: O_11  and  C_12 
ROOT
ATOM      1  N   UNL d   1       9.017   5.197 -11.262  0.00  0.00    -0.344 N 
ATOM      2  C   UNL d   1       9.816   6.330 -11.690  0.00  0.00     0.137 C 
ATOM      3  C   UNL d   1       9.649   7.518 -10.735  0.00  0.00     0.274 C 
ATOM      4  N   UNL d   1       9.848   7.137  -9.332  0.00  0.00     0.144 N 
ATOM      5  C   UNL d   1       8.927   6.047  -8.969  0.00  0.00     0.274 C 
ATOM      6  C   UNL d   1       9.123   4.805  -9.863  0.00  0.00     0.137 C 
ENDROOT
BRANCH   4   7
ATOM      7  C   UNL d   1       9.576   8.318  -8.512  0.00  0.00     0.283 C 
BRANCH   7   8
ATOM      8  C   UNL d   1      10.836   9.233  -8.490  0.00  0.00     0.184 C 
BRANCH   8   9
ATOM      9  O   UNL d   1      11.055   9.833  -7.211  0.00  0.00    -0.329 OA
BRANCH   9  10
ATOM     10  C   UNL d   1      11.351   8.999  -6.144  0.00  0.00     0.096 C 
ATOM     11  C   UNL d   1      11.376   7.593  -6.305  0.00  0.00     0.026 C 
ATOM     12  C   UNL d   1      11.503   6.755  -5.203  0.00  0.00     0.025 C 
ATOM     13  C   UNL d   1      11.780   7.320  -3.958  0.00  0.00     0.124 A 
ATOM     14  N   UNL d   1      12.050   6.830  -2.701  0.00  0.00    -0.127 NA
ATOM     15  C   UNL d   1      11.845   8.718  -3.751  0.00  0.00     0.126 A 
ATOM     16  N   UNL d   1      12.293   7.831  -1.811  0.00  0.00    -0.042 NA
ATOM     17  N   UNL d   1      12.168   8.971  -2.424  0.00  0.00    -0.127 NA
ATOM     18  C   UNL d   1      11.575   9.559  -4.861  0.00  0.00     0.047 C 
ENDBRANCH   9  10
ENDBRANCH   8   9
ENDBRANCH   7   8
ENDBRANCH   4   7
BRANCH   1  19
ATOM     19  C   UNL d   1       8.184   4.539 -12.174  0.00  0.00     0.056 A 
ATOM     20  C   UNL d   1       6.782   4.616 -12.044  0.00  0.00     0.017 A 
ATOM     21  C   UNL d   1       5.944   3.962 -12.967  0.00  0.00     0.002 A 
ATOM     22  C   UNL d   1       6.511   3.232 -14.029  0.00  0.00     0.000 A 
ATOM     23  C   UNL d   1       7.909   3.172 -14.172  0.00  0.00     0.002 A 
ATOM     24  C   UNL d   1       8.747   3.825 -13.253  0.00  0.00     0.017 A 
ENDBRANCH   1  19
TORSDOF 5
