REMARK  4 active torsions:
REMARK  status: ('A' for Active; 'I' for Inactive)
REMARK    1  A    between atoms: C_7  and  C_8 
REMARK    2  A    between atoms: C_8  and  N_9 
REMARK    3  A    between atoms: N_12  and  C_13 
REMARK    4  A    between atoms: C_13  and  C_14 
REMARK       I    between atoms: C_14  and  N_16 
ROOT
ATOM      1  N   UNL d   1      10.166   3.411 -16.038  0.00  0.00     0.146 N 
ATOM      2  C   UNL d   1      10.245   4.866 -15.918  0.00  0.00     0.286 C 
ATOM      3  C   UNL d   1      11.179   5.275 -14.776  0.00  0.00     0.286 C 
ATOM      4  N   UNL d   1      10.706   4.738 -13.503  0.00  0.00     0.151 N 
ATOM      5  C   UNL d   1      10.630   3.275 -13.600  0.00  0.00     0.286 C 
ATOM      6  C   UNL d   1       9.723   2.835 -14.762  0.00  0.00     0.286 C 
ENDROOT
BRANCH   4   7
ATOM      7  C   UNL d   1       9.456   5.358 -13.056  0.00  0.00     0.337 C 
BRANCH   7   8
ATOM      8  C   UNL d   1       9.393   5.452 -11.521  0.00  0.00     0.271 C 
ATOM      9  O   UNL d   1       9.369   4.397 -10.897  0.00  0.00    -0.270 OA
ATOM     10  N   UNL d   1       9.328   6.660 -10.928  0.00  0.00    -0.299 N 
ATOM     11  C   UNL d   1       9.427   7.957 -11.614  0.00  0.00     0.093 A 
ATOM     12  C   UNL d   1       9.524   6.848  -9.527  0.00  0.00     0.058 A 
ATOM     13  C   UNL d   1       9.803   8.960 -10.524  0.00  0.00     0.051 A 
ATOM     14  C   UNL d   1       8.192   8.408 -12.439  0.00  0.00     0.025 C 
ATOM     15  C   UNL d   1       9.870   8.162  -9.267  0.00  0.00    -0.004 A 
ATOM     16  C   UNL d   1      10.240   8.632  -7.998  0.00  0.00    -0.003 A 
ATOM     17  C   UNL d   1      10.219   7.712  -6.931  0.00  0.00    -0.000 A 
ATOM     18  C   UNL d   1       9.796   6.396  -7.198  0.00  0.00     0.002 A 
ATOM     19  C   UNL d   1       9.418   5.938  -8.453  0.00  0.00     0.017 A 
ENDBRANCH   7   8
ENDBRANCH   4   7
BRANCH   1  20
ATOM     20  C   UNL d   1       9.287   3.030 -17.126  0.00  0.00     0.277 C 
BRANCH  20  21
ATOM     21  C   UNL d   1       9.507   1.601 -17.587  0.00  0.00     0.007 A 
ATOM     22  C   UNL d   1       8.580   0.558 -17.328  0.00  0.00    -0.024 A 
ATOM     23  C   UNL d   1       8.851  -0.737 -17.818  0.00  0.00    -0.005 A 
ATOM     24  C   UNL d   1       7.299   0.794 -16.545  0.00  0.00     0.031 C 
ATOM     25  C   UNL d   1      10.033  -1.004 -18.527  0.00  0.00    -0.005 A 
ATOM     26  C   UNL d   1      10.952   0.029 -18.788  0.00  0.00    -0.022 A 
ATOM     27  C   UNL d   1      12.216  -0.252 -19.571  0.00  0.00     0.031 C 
ATOM     28  C   UNL d   1      10.683   1.328 -18.316  0.00  0.00    -0.007 A 
ENDBRANCH  20  21
ENDBRANCH   1  20
TORSDOF 4
