REMARK  6 active torsions:
REMARK  status: ('A' for Active; 'I' for Inactive)
REMARK    1  A    between atoms: O_2  and  C_3 
REMARK    2  A    between atoms: C_9  and  C_10 
REMARK    3  A    between atoms: N_16  and  C_17 
REMARK    4  A    between atoms: C_17  and  C_18 
REMARK    5  A    between atoms: N_22  and  S_23 
REMARK    6  A    between atoms: S_23  and  C_26 
ROOT
ATOM      1  C   UNL d   1      10.739   1.092 -16.348  0.00  0.00     0.094 C 
ATOM      2  C   UNL d   1       9.875  -0.017 -16.554  0.00  0.00     0.026 C 
ATOM      3  C   UNL d   1       8.624  -0.053 -15.897  0.00  0.00     0.020 C 
ATOM      4  C   UNL d   1       8.244   1.022 -15.070  0.00  0.00     0.075 C 
ATOM      5  C   UNL d   1       9.085   2.148 -14.837  0.00  0.00     0.022 C 
ATOM      6  C   UNL d   1      10.404   2.113 -15.419  0.00  0.00     0.026 C 
ATOM      7  C   UNL d   1       8.306   3.081 -14.039  0.00  0.00     0.037 C 
ATOM      8  C   UNL d   1       7.055   2.524 -13.877  0.00  0.00     0.093 C 
ATOM      9  N   UNL d   1       7.057   1.244 -14.384  0.00  0.00    -0.231 N 
ENDROOT
BRANCH   7  10
ATOM     10  C   UNL d   1       8.772   4.359 -13.536  0.00  0.00     0.077 A 
ATOM     11  N   UNL d   1       8.362   4.925 -12.293  0.00  0.00    -0.295 N 
ATOM     12  C   UNL d   1       9.101   6.043 -12.178  0.00  0.00     0.218 A 
ATOM     13  N   UNL d   1       9.862   6.237 -13.216  0.00  0.00    -0.219 NA
ATOM     14  N   UNL d   1       9.072   6.890 -11.073  0.00  0.00    -0.061 NA
ATOM     15  C   UNL d   1       9.711   5.185 -14.088  0.00  0.00     0.078 A 
ATOM     16  C   UNL d   1      10.509   5.217 -15.377  0.00  0.00     0.054 C 
BRANCH  11  17
ATOM     17  C   UNL d   1       7.434   4.452 -11.290  0.00  0.00     0.181 C 
BRANCH  17  18
ATOM     18  C   UNL d   1       8.077   4.470  -9.869  0.00  0.00     0.341 C 
ATOM     19  F   UNL d   1       7.462   3.552  -9.218  0.00  0.00    -0.196 F 
ATOM     20  F   UNL d   1       9.408   4.175  -9.887  0.00  0.00    -0.196 F 
ENDBRANCH  17  18
ENDBRANCH  11  17
ENDBRANCH   7  10
BRANCH   9  21
ATOM     21  S   UNL d   1       5.773   0.118 -14.256  0.00  0.00     0.271 S 
ATOM     22  O   UNL d   1       6.348  -1.104 -13.702  0.00  0.00    -0.200 OA
ATOM     23  O   UNL d   1       4.692   0.830 -13.528  0.00  0.00    -0.200 OA
BRANCH  21  24
ATOM     24  C   UNL d   1       5.282  -0.107 -15.967  0.00  0.00     0.104 A 
ATOM     25  C   UNL d   1       4.361  -1.127 -16.280  0.00  0.00     0.013 A 
ATOM     26  C   UNL d   1       4.013  -1.343 -17.630  0.00  0.00     0.001 A 
ATOM     27  C   UNL d   1       4.592  -0.566 -18.659  0.00  0.00     0.000 A 
ATOM     28  C   UNL d   1       5.508   0.453 -18.341  0.00  0.00     0.001 A 
ATOM     29  C   UNL d   1       5.829   0.700 -16.999  0.00  0.00     0.013 A 
ENDBRANCH  21  24
ENDBRANCH   9  21
BRANCH   1  30
ATOM     30  O   UNL d   1      11.924   1.251 -17.044  0.00  0.00    -0.328 OA
ATOM     31  C   UNL d   1      12.084   0.605 -18.300  0.00  0.00     0.181 C 
ENDBRANCH   1  30
TORSDOF 6
