REMARK  4 active torsions:
REMARK  status: ('A' for Active; 'I' for Inactive)
REMARK    1  A    between atoms: C_11  and  C_12 
REMARK    2  A    between atoms: C_12  and  C_13 
REMARK    3  A    between atoms: C_13  and  N_14 
REMARK    4  A    between atoms: N_17  and  C_18 
ROOT
ATOM      1  C   UNL d   1      10.238   6.478  -9.218  0.00  0.00     0.251 C 
ENDROOT
BRANCH   1   2
ATOM      2  C   UNL d   1       9.887   7.668  -8.313  0.00  0.00     0.038 C 
BRANCH   2   3
ATOM      3  C   UNL d   1      11.040   7.988  -7.346  0.00  0.00     0.041 C 
ATOM      4  C   UNL d   1      10.777   9.213  -6.418  0.00  0.00     0.174 C 
ATOM      5  O   UNL d   1      11.462  10.367  -6.838  0.00  0.00    -0.219 OA
ATOM      6  C   UNL d   1      11.233   8.775  -5.062  0.00  0.00     0.004 A 
ATOM      7  C   UNL d   1      11.513   7.419  -5.051  0.00  0.00    -0.021 A 
ATOM      8  C   UNL d   1      11.398   9.570  -3.911  0.00  0.00     0.000 A 
ATOM      9  C   UNL d   1      11.981   6.788  -3.893  0.00  0.00     0.025 A 
ATOM     10  C   UNL d   1      11.349   6.787  -6.405  0.00  0.00     0.029 C 
ATOM     11  C   UNL d   1      12.173   7.563  -2.746  0.00  0.00     0.140 A 
ATOM     12  C   UNL d   1      11.881   8.942  -2.741  0.00  0.00     0.029 A 
ATOM     13  F   UNL d   1      12.638   6.952  -1.641  0.00  0.00    -0.204 F 
ENDBRANCH   2   3
ENDBRANCH   1   2
BRANCH   1  14
ATOM     14  N   UNL d   1       9.172   6.248 -10.195  0.00  0.00     0.141 N 
ATOM     15  C   UNL d   1       9.672   6.416 -11.564  0.00  0.00     0.274 C 
ATOM     16  C   UNL d   1       8.566   6.203 -12.611  0.00  0.00     0.138 C 
ATOM     17  N   UNL d   1       7.946   4.906 -12.411  0.00  0.00    -0.330 N 
ATOM     18  C   UNL d   1       7.463   4.678 -11.061  0.00  0.00     0.138 C 
ATOM     19  C   UNL d   1       8.603   4.905 -10.045  0.00  0.00     0.274 C 
BRANCH  17  20
ATOM     20  C   UNL d   1       7.799   3.954 -13.435  0.00  0.00     0.140 A 
ATOM     21  N   UNL d   1       6.662   3.221 -13.436  0.00  0.00    -0.227 NA
ATOM     22  C   UNL d   1       6.525   2.254 -14.367  0.00  0.00     0.101 A 
ATOM     23  C   UNL d   1       7.480   1.989 -15.364  0.00  0.00     0.021 A 
ATOM     24  C   UNL d   1       8.656   2.759 -15.373  0.00  0.00     0.005 A 
ATOM     25  C   UNL d   1       8.820   3.758 -14.393  0.00  0.00     0.037 A 
ENDBRANCH  17  20
ENDBRANCH   1  14
TORSDOF 4
