REMARK  4 active torsions:
REMARK  status: ('A' for Active; 'I' for Inactive)
REMARK    1  A    between atoms: C_5  and  O_6 
REMARK    2  A    between atoms: O_6  and  C_7 
REMARK    3  A    between atoms: C_7  and  C_8 
REMARK    4  A    between atoms: N_13  and  C_14 
ROOT
ATOM      1  C   UNL d   1       8.120   5.206 -12.691  0.00  0.00     0.064 C 
ATOM      2  C   UNL d   1       8.861   4.873 -13.965  0.00  0.00     0.007 C 
ATOM      3  C   UNL d   1       8.813   3.349 -14.119  0.00  0.00     0.035 C 
ATOM      4  C   UNL d   1       7.356   2.832 -14.143  0.00  0.00     0.242 C 
ATOM      5  C   UNL d   1       7.330   1.312 -14.376  0.00  0.00     0.153 C 
ATOM      6  N   UNL d   1       5.974   0.803 -14.366  0.00  0.00    -0.179 N 
ATOM      7  C   UNL d   1       5.261   1.146 -13.155  0.00  0.00     0.155 C 
ATOM      8  C   UNL d   1       5.278   2.674 -12.906  0.00  0.00     0.275 C 
ATOM      9  N   UNL d   1       6.649   3.207 -12.905  0.00  0.00     0.139 N 
ATOM     10  C   UNL d   1       6.662   4.664 -12.690  0.00  0.00     0.253 C 
ENDROOT
BRANCH   1  11
ATOM     11  C   UNL d   1       8.150   6.728 -12.377  0.00  0.00     0.151 C 
BRANCH  11  12
ATOM     12  O   UNL d   1       9.396   7.283 -11.952  0.00  0.00    -0.331 OA
BRANCH  12  13
ATOM     13  C   UNL d   1       9.714   7.124 -10.622  0.00  0.00     0.094 A 
ATOM     14  C   UNL d   1       9.291   6.037  -9.830  0.00  0.00     0.026 A 
ATOM     15  C   UNL d   1       9.627   5.919  -8.495  0.00  0.00     0.032 A 
ATOM     16  C   UNL d   1      10.351   6.940  -7.848  0.00  0.00     0.140 A 
ATOM     17  F   UNL d   1      10.628   6.845  -6.526  0.00  0.00    -0.204 F 
ATOM     18  C   UNL d   1      10.763   8.061  -8.606  0.00  0.00     0.032 A 
ATOM     19  C   UNL d   1      10.479   8.161  -9.995  0.00  0.00     0.026 A 
ENDBRANCH  12  13
ENDBRANCH  11  12
ENDBRANCH   1  11
BRANCH   6  20
ATOM     20  C   UNL d   1       5.405   0.088 -15.429  0.00  0.00     0.728 A 
ATOM     21  N   UNL d   1       5.917   0.299 -16.640  0.00  0.00    -0.057 NA
ATOM     22  C   UNL d   1       5.348  -0.361 -17.671  0.00  0.00     0.149 A 
ATOM     23  C   UNL d   1       4.263  -1.232 -17.485  0.00  0.00     0.179 A 
ATOM     24  C   UNL d   1       3.806  -1.377 -16.161  0.00  0.00     0.149 A 
ATOM     25  F   UNL d   1       3.688  -1.889 -18.518  0.00  0.00    -0.201 F 
ATOM     26  N   UNL d   1       4.372  -0.702 -15.138  0.00  0.00    -0.057 NA
ENDBRANCH   6  20
TORSDOF 4
