REMARK  8 active torsions:
REMARK  status: ('A' for Active; 'I' for Inactive)
REMARK    1  A    between atoms: C_6  and  N_7 
REMARK    2  A    between atoms: N_10  and  C_11 
REMARK    3  A    between atoms: C_11  and  C_12 
REMARK    4  A    between atoms: C_12  and  C_13 
REMARK    5  A    between atoms: C_13  and  C_14 
REMARK       I    between atoms: C_14  and  N_16 
REMARK    6  A    between atoms: N_16  and  C_17 
REMARK    7  A    between atoms: C_17  and  C_18 
REMARK    8  A    between atoms: N_28  and  C_29 
ROOT
ATOM      1  C   UNL d   1      10.025   4.312 -13.681  0.00  0.00     0.252 C 
ATOM      2  O   UNL d   1      10.642   5.364 -13.812  0.00  0.00    -0.271 OA
ATOM      3  N   UNL d   1      10.505   3.147 -14.127  0.00  0.00    -0.230 NA
ENDROOT
BRANCH   1   4
ATOM      4  C   UNL d   1       8.673   4.278 -12.959  0.00  0.00     0.092 C 
BRANCH   4   5
ATOM      5  C   UNL d   1       8.814   4.665 -11.478  0.00  0.00     0.045 C 
BRANCH   5   6
ATOM      6  C   UNL d   1       9.357   6.093 -11.262  0.00  0.00     0.251 C 
BRANCH   6   7
ATOM      7  N   UNL d   1       9.149   6.531  -9.894  0.00  0.00     0.141 N 
ATOM      8  C   UNL d   1       9.462   7.968  -9.815  0.00  0.00     0.274 C 
ATOM      9  C   UNL d   1       9.244   8.483  -8.374  0.00  0.00     0.137 C 
ATOM     10  N   UNL d   1      10.041   7.689  -7.442  0.00  0.00    -0.344 N 
ATOM     11  C   UNL d   1       9.853   6.251  -7.552  0.00  0.00     0.137 C 
ATOM     12  C   UNL d   1      10.050   5.806  -8.999  0.00  0.00     0.274 C 
BRANCH  10  13
ATOM     13  C   UNL d   1      10.849   8.292  -6.466  0.00  0.00     0.052 A 
ATOM     14  C   UNL d   1      11.431   9.527  -6.794  0.00  0.00     0.017 A 
ATOM     15  C   UNL d   1      12.280  10.172  -5.890  0.00  0.00     0.001 A 
ATOM     16  C   UNL d   1      12.623   9.555  -4.680  0.00  0.00    -0.004 A 
ATOM     17  C   UNL d   1      12.039   8.341  -4.315  0.00  0.00    -0.024 A 
ATOM     18  C   UNL d   1      12.437   7.721  -2.989  0.00  0.00     0.031 C 
ATOM     19  C   UNL d   1      11.130   7.709  -5.200  0.00  0.00    -0.010 A 
ATOM     20  C   UNL d   1      10.506   6.421  -4.732  0.00  0.00     0.032 C 
ENDBRANCH  10  13
ENDBRANCH   6   7
ENDBRANCH   5   6
ENDBRANCH   4   5
ENDBRANCH   1   4
BRANCH   3  21
ATOM     21  C   UNL d   1      11.813   2.950 -14.757  0.00  0.00     0.192 C 
BRANCH  21  22
ATOM     22  C   UNL d   1      12.077   3.817 -16.008  0.00  0.00     0.151 A 
ATOM     23  N   UNL d   1      11.813   3.231 -17.284  0.00  0.00    -0.261 N 
ATOM     24  C   UNL d   1      12.061   3.941 -18.426  0.00  0.00     0.267 A 
ATOM     25  C   UNL d   1      12.573   5.345 -18.250  0.00  0.00     0.074 A 
ATOM     26  O   UNL d   1      11.887   3.509 -19.570  0.00  0.00    -0.267 OA
ATOM     27  C   UNL d   1      12.775   5.828 -16.938  0.00  0.00     0.087 A 
ATOM     28  C   UNL d   1      12.839   6.173 -19.360  0.00  0.00     0.006 A 
ATOM     29  N   UNL d   1      12.560   5.015 -15.825  0.00  0.00    -0.230 NA
ATOM     30  C   UNL d   1      13.192   7.165 -16.745  0.00  0.00     0.019 A 
ATOM     31  C   UNL d   1      13.459   7.988 -17.855  0.00  0.00     0.002 A 
ATOM     32  C   UNL d   1      13.292   7.493 -19.162  0.00  0.00     0.000 A 
BRANCH  23  33
ATOM     33  C   UNL d   1      11.271   1.908 -17.414  0.00  0.00     0.068 A 
ATOM     34  C   UNL d   1      11.982   0.916 -18.130  0.00  0.00     0.018 A 
ATOM     35  C   UNL d   1      11.460  -0.387 -18.257  0.00  0.00     0.002 A 
ATOM     36  C   UNL d   1      10.235  -0.719 -17.647  0.00  0.00     0.000 A 
ATOM     37  C   UNL d   1       9.522   0.260 -16.930  0.00  0.00     0.002 A 
ATOM     38  C   UNL d   1      10.025   1.573 -16.837  0.00  0.00     0.018 A 
ENDBRANCH  23  33
ENDBRANCH  21  22
ENDBRANCH   3  21
TORSDOF 8
