REMARK  10 active torsions:
REMARK  status: ('A' for Active; 'I' for Inactive)
REMARK    1  A    between atoms: O_2  and  C_3 
REMARK    2  A    between atoms: C_10  and  C_11 
REMARK    3  A    between atoms: C_11  and  C_12 
REMARK    4  A    between atoms: C_13  and  C_15 
REMARK    5  A    between atoms: C_15  and  C_16 
REMARK    6  A    between atoms: C_16  and  C_17 
REMARK    7  A    between atoms: C_17  and  O_19 
REMARK    8  A    between atoms: O_19  and  C_20 
REMARK    9  A    between atoms: C_20  and  C_21 
REMARK   10  A    between atoms: C_21  and  N_22 
ROOT
ATOM      1  C   UNL d   1       8.333   2.522 -14.671  0.00  0.00    -0.030 C 
ATOM      2  C   UNL d   1       8.979   3.627 -14.258  0.00  0.00    -0.047 C 
ATOM      3  C   UNL d   1      10.188   4.244 -14.950  0.00  0.00     0.026 C 
ENDROOT
BRANCH   1   4
ATOM      4  C   UNL d   1       8.635   1.569 -15.844  0.00  0.00     0.056 C 
BRANCH   4   5
ATOM      5  C   UNL d   1       7.365   0.895 -16.396  0.00  0.00     0.030 A 
ATOM      6  C   UNL d   1       6.530   0.057 -15.565  0.00  0.00     0.088 A 
ATOM      7  C   UNL d   1       5.431  -0.665 -16.148  0.00  0.00    -0.001 A 
ATOM      8  C   UNL d   1       4.593  -1.733 -15.419  0.00  0.00     0.033 C 
ATOM      9  C   UNL d   1       5.140  -0.398 -17.508  0.00  0.00     0.013 A 
ATOM     10  C   UNL d   1       4.023  -0.949 -18.341  0.00  0.00     0.179 A 
ATOM     11  C   UNL d   1       5.887   0.464 -18.281  0.00  0.00     0.086 A 
ATOM     12  O   UNL d   1       4.203  -0.321 -19.610  0.00  0.00    -0.293 OA
ATOM     13  C   UNL d   1       5.276   0.514 -19.640  0.00  0.00     0.298 A 
ATOM     14  O   UNL d   1       5.627   1.182 -20.611  0.00  0.00    -0.259 OA
ATOM     15  C   UNL d   1       7.022   1.128 -17.761  0.00  0.00     0.134 A 
ATOM     16  O   UNL d   1       7.749   1.973 -18.566  0.00  0.00    -0.190 OA
BRANCH   6  17
ATOM     17  O   UNL d   1       6.888  -0.142 -14.238  0.00  0.00    -0.329 OA
ATOM     18  C   UNL d   1       5.995   0.318 -13.205  0.00  0.00     0.181 C 
ENDBRANCH   6  17
ENDBRANCH   4   5
ENDBRANCH   1   4
BRANCH   2  19
ATOM     19  C   UNL d   1       8.454   4.352 -13.009  0.00  0.00     0.032 C 
BRANCH  19  20
ATOM     20  C   UNL d   1       9.580   4.782 -12.065  0.00  0.00     0.100 C 
BRANCH  20  21
ATOM     21  C   UNL d   1       9.117   5.395 -10.749  0.00  0.00     0.272 C 
ATOM     22  O   UNL d   1       8.302   4.825 -10.019  0.00  0.00    -0.264 OA
BRANCH  21  23
ATOM     23  O   UNL d   1       9.750   6.543 -10.476  0.00  0.00    -0.300 OA
BRANCH  23  24
ATOM     24  C   UNL d   1       9.496   7.266  -9.276  0.00  0.00     0.187 C 
BRANCH  24  25
ATOM     25  C   UNL d   1      10.482   6.865  -8.167  0.00  0.00     0.283 C 
BRANCH  25  26
ATOM     26  N   UNL d   1      10.634   7.855  -7.105  0.00  0.00     0.145 N 
ATOM     27  C   UNL d   1      11.415   9.011  -7.555  0.00  0.00     0.282 C 
ATOM     28  C   UNL d   1      11.615  10.043  -6.432  0.00  0.00     0.178 C 
ATOM     29  O   UNL d   1      12.257   9.426  -5.324  0.00  0.00    -0.350 OA
ATOM     30  C   UNL d   1      11.515   8.321  -4.830  0.00  0.00     0.178 C 
ATOM     31  C   UNL d   1      11.288   7.272  -5.942  0.00  0.00     0.282 C 
ENDBRANCH  25  26
ENDBRANCH  24  25
ENDBRANCH  23  24
ENDBRANCH  21  23
ENDBRANCH  20  21
ENDBRANCH  19  20
ENDBRANCH   2  19
TORSDOF 10
