REMARK  7 active torsions:
REMARK  status: ('A' for Active; 'I' for Inactive)
REMARK    1  A    between atoms: C_2  and  O_3 
REMARK    2  A    between atoms: O_3  and  C_4 
REMARK    3  A    between atoms: C_11  and  C_12 
REMARK       I    between atoms: C_12  and  N_14 
REMARK    4  A    between atoms: N_14  and  C_15 
REMARK    5  A    between atoms: C_15  and  C_16 
REMARK    6  A    between atoms: N_18  and  C_19 
REMARK    7  A    between atoms: C_19  and  C_20 
ROOT
ATOM      1  C   UNL d   1       8.294   4.887 -11.222  0.00  0.00     0.161 C 
ENDROOT
BRANCH   1   2
ATOM      2  N   UNL d   1       8.873   4.027 -12.249  0.00  0.00    -0.232 NA
ATOM      3  C   UNL d   1       9.549   4.425 -13.336  0.00  0.00     0.277 C 
ATOM      4  O   UNL d   1       9.923   5.580 -13.530  0.00  0.00    -0.266 OA
BRANCH   3   5
ATOM      5  C   UNL d   1       9.812   3.338 -14.332  0.00  0.00     0.081 A 
ATOM      6  C   UNL d   1      11.022   3.289 -15.076  0.00  0.00     0.100 A 
ATOM      7  C   UNL d   1      11.168   2.287 -16.072  0.00  0.00     0.039 A 
ATOM      8  C   UNL d   1      10.143   1.360 -16.328  0.00  0.00     0.083 A 
ATOM      9  N   UNL d   1      10.346   0.390 -17.305  0.00  0.00    -0.100 NA
ATOM     10  C   UNL d   1       8.937   1.431 -15.597  0.00  0.00     0.071 A 
ATOM     11 CL   UNL d   1       7.619   0.371 -15.924  0.00  0.00    -0.081 Cl
ATOM     12  C   UNL d   1       8.780   2.412 -14.609  0.00  0.00     0.019 A 
BRANCH   6  13
ATOM     13  O   UNL d   1      12.011   4.211 -14.792  0.00  0.00    -0.331 OA
BRANCH  13  14
ATOM     14  C   UNL d   1      13.067   4.402 -15.728  0.00  0.00     0.149 C 
ATOM     15  C   UNL d   1      12.604   5.176 -16.966  0.00  0.00     0.035 C 
ENDBRANCH  13  14
ENDBRANCH   6  13
ENDBRANCH   3   5
ENDBRANCH   1   2
BRANCH   1  16
ATOM     16  C   UNL d   1       9.359   5.511 -10.310  0.00  0.00     0.173 C 
ATOM     17  O   UNL d   1       9.795   6.708 -10.952  0.00  0.00    -0.350 OA
ATOM     18  C   UNL d   1      10.795   7.403 -10.227  0.00  0.00     0.178 C 
ATOM     19  C   UNL d   1      10.254   7.755  -8.851  0.00  0.00     0.283 C 
ATOM     20  N   UNL d   1       9.800   6.575  -8.115  0.00  0.00     0.147 N 
ATOM     21  C   UNL d   1       8.811   5.854  -8.917  0.00  0.00     0.282 C 
BRANCH  20  22
ATOM     22  C   UNL d   1       9.248   6.921  -6.809  0.00  0.00     0.277 C 
BRANCH  22  23
ATOM     23  C   UNL d   1      10.266   7.570  -5.885  0.00  0.00     0.011 A 
ATOM     24  C   UNL d   1      10.507   8.958  -5.970  0.00  0.00    -0.000 A 
ATOM     25  C   UNL d   1      11.442   9.567  -5.115  0.00  0.00     0.029 A 
ATOM     26  C   UNL d   1      12.111   8.796  -4.143  0.00  0.00     0.140 A 
ATOM     27  C   UNL d   1      11.864   7.416  -4.043  0.00  0.00     0.029 A 
ATOM     28  F   UNL d   1      12.986   9.384  -3.300  0.00  0.00    -0.204 F 
ATOM     29  C   UNL d   1      10.961   6.801  -4.930  0.00  0.00    -0.000 A 
ENDBRANCH  22  23
ENDBRANCH  20  22
ENDBRANCH   1  16
TORSDOF 7
