REMARK  1 active torsions:
REMARK  status: ('A' for Active; 'I' for Inactive)
REMARK    1  A    between atoms: N_2  and  C_4 
ROOT
ATOM      1  C   UNL d   1      11.954   8.164  -3.737  0.00  0.00     0.224 C 
ATOM      2  C   UNL d   1      12.807   9.246  -4.430  0.00  0.00     0.038 C 
ATOM      3  C   UNL d   1      12.041   9.925  -5.584  0.00  0.00     0.028 C 
ATOM      4  C   UNL d   1      11.325   8.925  -6.491  0.00  0.00    -0.024 C 
ATOM      5  C   UNL d   1      10.932   9.315  -7.769  0.00  0.00     0.025 C 
ATOM      6  C   UNL d   1      10.114   8.502  -8.591  0.00  0.00     0.156 C 
ATOM      7  O   UNL d   1       9.623   9.002  -9.762  0.00  0.00    -0.188 OA
ATOM      8  C   UNL d   1       9.800   7.195  -8.162  0.00  0.00     0.156 C 
ATOM      9  O   UNL d   1       9.025   6.352  -8.912  0.00  0.00    -0.188 OA
ATOM     10  C   UNL d   1      10.291   6.754  -6.922  0.00  0.00     0.025 C 
ATOM     11  C   UNL d   1      11.023   7.617  -6.082  0.00  0.00    -0.022 C 
ATOM     12  C   UNL d   1      11.490   7.087  -4.761  0.00  0.00     0.059 C 
ENDROOT
BRANCH   1  13
ATOM     13  N   UNL d   1      12.668   7.573  -2.596  0.00  0.00     0.140 N 
ATOM     14  C   UNL d   1      12.698   8.483  -1.472  0.00  0.00     0.285 C 
ATOM     15  C   UNL d   1      12.035   6.372  -2.089  0.00  0.00     0.285 C 
ENDBRANCH   1  13
TORSDOF 1
