REMARK  5 active torsions:
REMARK  status: ('A' for Active; 'I' for Inactive)
REMARK       I    between atoms: C_2  and  N_3 
REMARK    1  A    between atoms: C_2  and  C_16 
REMARK    2  A    between atoms: N_3  and  C_4 
REMARK    3  A    between atoms: N_7  and  C_8 
REMARK    4  A    between atoms: C_8  and  C_9 
REMARK    5  A    between atoms: C_19  and  C_20 
ROOT
ATOM      1  O   UNL d   1       9.808   8.221 -11.367  0.00  0.00    -0.266 OA
ATOM      2  C   UNL d   1       9.722   7.272 -10.588  0.00  0.00     0.275 C 
ATOM      3  N   UNL d   1       9.230   6.069 -10.924  0.00  0.00    -0.234 NA
ENDROOT
BRANCH   2   4
ATOM      4  C   UNL d   1      10.184   7.413  -9.172  0.00  0.00     0.058 A 
ATOM      5  C   UNL d   1      11.260   8.274  -8.870  0.00  0.00     0.005 A 
ATOM      6  C   UNL d   1      11.677   8.443  -7.538  0.00  0.00     0.000 A 
ATOM      7  C   UNL d   1      11.012   7.770  -6.489  0.00  0.00     0.001 A 
ATOM      8  C   UNL d   1       9.923   6.926  -6.791  0.00  0.00     0.000 A 
ATOM      9  C   UNL d   1       9.499   6.761  -8.122  0.00  0.00     0.005 A 
BRANCH   7  10
ATOM     10  C   UNL d   1      11.456   7.931  -5.104  0.00  0.00     0.007 A 
ATOM     11  C   UNL d   1      11.580   6.943  -4.161  0.00  0.00     0.035 A 
ATOM     12  S   UNL d   1      12.188   7.547  -2.643  0.00  0.00    -0.086 SA
ATOM     13  C   UNL d   1      12.248   9.164  -3.280  0.00  0.00     0.035 A 
ATOM     14  C   UNL d   1      11.848   9.204  -4.590  0.00  0.00     0.007 A 
ENDBRANCH   7  10
ENDBRANCH   2   4
BRANCH   3  15
ATOM     15  C   UNL d   1       8.558   5.758 -12.185  0.00  0.00     0.142 C 
ATOM     16  C   UNL d   1       7.980   4.345 -12.157  0.00  0.00     0.275 C 
ATOM     17  N   UNL d   1       6.771   4.425 -12.975  0.00  0.00     0.143 N 
ATOM     18  C   UNL d   1       6.139   5.640 -12.504  0.00  0.00     0.253 C 
ATOM     19  C   UNL d   1       7.317   6.609 -12.441  0.00  0.00     0.062 C 
BRANCH  17  20
ATOM     20  C   UNL d   1       5.906   3.256 -12.840  0.00  0.00     0.277 C 
BRANCH  20  21
ATOM     21  C   UNL d   1       6.271   2.110 -13.778  0.00  0.00     0.011 A 
ATOM     22  C   UNL d   1       5.473   0.943 -13.789  0.00  0.00    -0.002 A 
ATOM     23  C   UNL d   1       5.776  -0.112 -14.674  0.00  0.00    -0.000 A 
ATOM     24  C   UNL d   1       6.880  -0.010 -15.539  0.00  0.00    -0.000 A 
ATOM     25  C   UNL d   1       7.693   1.133 -15.520  0.00  0.00    -0.000 A 
ATOM     26  C   UNL d   1       7.386   2.190 -14.651  0.00  0.00    -0.002 A 
ENDBRANCH  20  21
ENDBRANCH  17  20
ENDBRANCH   3  15
TORSDOF 5
