REMARK  4 active torsions:
REMARK  status: ('A' for Active; 'I' for Inactive)
REMARK    1  A    between atoms: C_9  and  C_10 
REMARK    2  A    between atoms: C_10  and  N_11 
REMARK    3  A    between atoms: N_11  and  C_12 
REMARK    4  A    between atoms: C_12  and  C_13 
ROOT
ATOM      1  O   UNL d   1      11.538   9.984  -3.500  0.00  0.00    -0.190 OA
ATOM      2  C   UNL d   1      11.397   9.099  -4.519  0.00  0.00     0.133 A 
ATOM      3  C   UNL d   1      11.619   7.731  -4.282  0.00  0.00     0.029 A 
ATOM      4  C   UNL d   1      11.436   6.811  -5.321  0.00  0.00     0.028 A 
ATOM      5  C   UNL d   1      11.046   7.286  -6.577  0.00  0.00     0.116 A 
ATOM      6  C   UNL d   1      10.797   8.653  -6.833  0.00  0.00     0.118 A 
ATOM      7  C   UNL d   1      10.994   9.568  -5.782  0.00  0.00     0.054 A 
ATOM      8  O   UNL d   1      10.390   9.101  -8.072  0.00  0.00    -0.327 OA
ATOM      9  C   UNL d   1       9.945   8.053  -8.969  0.00  0.00     0.188 C 
ATOM     10  C   UNL d   1      10.999   6.915  -8.857  0.00  0.00     0.181 C 
ATOM     11  O   UNL d   1      10.952   6.359  -7.571  0.00  0.00    -0.326 OA
ENDROOT
BRANCH   9  12
ATOM     12  C   UNL d   1       9.838   8.629 -10.415  0.00  0.00     0.323 C 
BRANCH  12  13
ATOM     13  N   UNL d   1       9.055   7.847 -11.351  0.00  0.00     0.347 N 
BRANCH  13  14
ATOM     14  C   UNL d   1       9.420   6.453 -11.238  0.00  0.00     0.317 C 
BRANCH  14  15
ATOM     15  C   UNL d   1       8.700   5.481 -12.104  0.00  0.00     0.014 A 
ATOM     16  C   UNL d   1       7.331   5.436 -12.044  0.00  0.00    -0.002 A 
ATOM     17  C   UNL d   1       6.624   4.511 -12.831  0.00  0.00    -0.000 A 
ATOM     18  C   UNL d   1       7.342   3.620 -13.658  0.00  0.00    -0.000 A 
ATOM     19  C   UNL d   1       8.751   3.631 -13.663  0.00  0.00    -0.000 A 
ATOM     20  C   UNL d   1       9.456   4.555 -12.871  0.00  0.00    -0.002 A 
ENDBRANCH  14  15
ENDBRANCH  13  14
ENDBRANCH  12  13
ENDBRANCH   9  12
TORSDOF 4
