REMARK  6 active torsions:
REMARK  status: ('A' for Active; 'I' for Inactive)
REMARK    1  A    between atoms: S_2  and  C_3 
REMARK    2  A    between atoms: S_2  and  C_19 
REMARK    3  A    between atoms: C_3  and  C_4 
REMARK    4  A    between atoms: C_4  and  C_5 
REMARK    5  A    between atoms: C_5  and  N_6 
REMARK    6  A    between atoms: N_9  and  C_10 
ROOT
ATOM      1  N   UNL d   1       9.113   6.362  -9.380  0.00  0.00     0.141 N 
ATOM      2  C   UNL d   1       8.895   5.726  -8.078  0.00  0.00     0.274 C 
ATOM      3  C   UNL d   1       8.747   6.805  -6.984  0.00  0.00     0.137 C 
ATOM      4  N   UNL d   1       9.880   7.697  -7.007  0.00  0.00    -0.344 N 
ATOM      5  C   UNL d   1      10.166   8.321  -8.282  0.00  0.00     0.137 C 
ATOM      6  C   UNL d   1      10.317   7.201  -9.335  0.00  0.00     0.274 C 
ENDROOT
BRANCH   1   7
ATOM      7  C   UNL d   1       9.216   5.341 -10.420  0.00  0.00     0.251 C 
BRANCH   7   8
ATOM      8  C   UNL d   1       8.700   5.888 -11.773  0.00  0.00     0.050 C 
BRANCH   8   9
ATOM      9  C   UNL d   1       8.456   4.781 -12.809  0.00  0.00     0.098 C 
BRANCH   9  10
ATOM     10  S   UNL d   1      10.077   4.027 -13.304  0.00  0.00     0.065 S 
ATOM     11  O   UNL d   1      11.018   5.191 -13.644  0.00  0.00    -0.252 OA
BRANCH  10  12
ATOM     12  C   UNL d   1       9.518   3.373 -14.907  0.00  0.00     0.056 A 
ATOM     13  C   UNL d   1       9.889   4.025 -16.098  0.00  0.00     0.011 A 
ATOM     14  C   UNL d   1       9.457   3.505 -17.337  0.00  0.00     0.030 A 
ATOM     15  C   UNL d   1       8.655   2.351 -17.372  0.00  0.00     0.140 A 
ATOM     16  C   UNL d   1       8.293   1.695 -16.176  0.00  0.00     0.030 A 
ATOM     17  F   UNL d   1       8.208   1.876 -18.562  0.00  0.00    -0.204 F 
ATOM     18  C   UNL d   1       8.728   2.208 -14.936  0.00  0.00     0.011 A 
ENDBRANCH  10  12
ENDBRANCH   9  10
ENDBRANCH   8   9
ENDBRANCH   7   8
ENDBRANCH   1   7
BRANCH   4  19
ATOM     19  C   UNL d   1      10.621   7.959  -5.860  0.00  0.00     0.056 A 
ATOM     20  C   UNL d   1      11.150   6.878  -5.119  0.00  0.00     0.018 A 
ATOM     21  C   UNL d   1      11.863   7.120  -3.931  0.00  0.00     0.013 A 
ATOM     22  C   UNL d   1      11.978   8.435  -3.455  0.00  0.00     0.058 A 
ATOM     23  C   UNL d   1      11.449   9.509  -4.189  0.00  0.00     0.013 A 
ATOM     24 CL   UNL d   1      12.657   8.758  -1.915  0.00  0.00    -0.082 Cl
ATOM     25  C   UNL d   1      10.785   9.280  -5.412  0.00  0.00     0.018 A 
ENDBRANCH   4  19
TORSDOF 6
