REMARK  9 active torsions:
REMARK  status: ('A' for Active; 'I' for Inactive)
REMARK    1  A    between atoms: C_8  and  O_9 
REMARK    2  A    between atoms: O_9  and  C_10 
REMARK    3  A    between atoms: C_10  and  C_11 
REMARK    4  A    between atoms: C_11  and  C_12 
REMARK    5  A    between atoms: C_12  and  C_13 
REMARK    6  A    between atoms: C_13  and  N_14 
REMARK    7  A    between atoms: N_14  and  C_15 
REMARK    8  A    between atoms: C_15  and  C_16 
REMARK    9  A    between atoms: C_18  and  C_19 
ROOT
ATOM      1  C   UNL d   1       8.601   5.648 -10.500  0.00  0.00     0.290 C 
ENDROOT
BRANCH   1   2
ATOM      2  C   UNL d   1       9.678   6.735 -10.660  0.00  0.00     0.041 C 
BRANCH   2   3
ATOM      3  C   UNL d   1       9.752   7.610  -9.407  0.00  0.00     0.035 C 
BRANCH   3   4
ATOM      4  C   UNL d   1      10.957   8.590  -9.444  0.00  0.00     0.149 C 
BRANCH   4   5
ATOM      5  O   UNL d   1      11.070   9.360  -8.251  0.00  0.00    -0.331 OA
BRANCH   5   6
ATOM      6  C   UNL d   1      11.364   8.694  -7.076  0.00  0.00     0.096 C 
ATOM      7  C   UNL d   1      11.501   7.292  -7.016  0.00  0.00     0.024 C 
ATOM      8  C   UNL d   1      11.654   6.639  -5.812  0.00  0.00    -0.001 C 
ATOM      9  C   UNL d   1      11.854   7.362  -4.625  0.00  0.00    -0.004 C 
ATOM     10  C   UNL d   1      12.203   6.652  -3.338  0.00  0.00     0.038 C 
ATOM     11  C   UNL d   1      11.769   8.768  -4.673  0.00  0.00     0.082 C 
ATOM     12  C   UNL d   1      11.723   7.428  -2.139  0.00  0.00     0.095 C 
ATOM     13  C   UNL d   1      12.050   8.917  -2.281  0.00  0.00     0.256 C 
ATOM     14  O   UNL d   1      12.185   9.567  -1.276  0.00  0.00    -0.270 OA
ATOM     15  N   UNL d   1      12.017   9.487  -3.496  0.00  0.00    -0.212 NA
ATOM     16  C   UNL d   1      11.500   9.445  -5.889  0.00  0.00     0.043 C 
ENDBRANCH   5   6
ENDBRANCH   4   5
ENDBRANCH   3   4
ENDBRANCH   2   3
ENDBRANCH   1   2
BRANCH   1  17
ATOM     17  N   UNL d   1       8.450   4.942 -11.760  0.00  0.00     0.339 N 
BRANCH  17  18
ATOM     18  C   UNL d   1       7.097   4.420 -11.861  0.00  0.00     0.290 C 
BRANCH  18  19
ATOM     19  C   UNL d   1       6.865   3.918 -13.267  0.00  0.00     0.041 A 
ATOM     20  C   UNL d   1       6.470   2.482 -13.530  0.00  0.00     0.024 A 
ATOM     21  C   UNL d   1       5.495   3.599 -13.779  0.00  0.00     0.007 A 
BRANCH  20  22
ATOM     22  C   UNL d   1       7.075   1.694 -14.660  0.00  0.00    -0.022 A 
ATOM     23  C   UNL d   1       8.463   1.722 -14.960  0.00  0.00    -0.004 A 
ATOM     24  C   UNL d   1       8.957   1.003 -16.080  0.00  0.00    -0.000 A 
ATOM     25  C   UNL d   1       9.385   2.459 -14.179  0.00  0.00    -0.000 A 
ATOM     26  C   UNL d   1       8.081   0.260 -16.893  0.00  0.00    -0.000 A 
ATOM     27  C   UNL d   1      10.329   1.035 -16.389  0.00  0.00    -0.000 A 
ATOM     28  C   UNL d   1       6.711   0.220 -16.592  0.00  0.00    -0.000 A 
ATOM     29  C   UNL d   1       6.226   0.912 -15.472  0.00  0.00    -0.004 A 
ATOM     30  C   UNL d   1      11.219   1.794 -15.609  0.00  0.00    -0.000 A 
ATOM     31  C   UNL d   1      10.742   2.514 -14.503  0.00  0.00    -0.000 A 
ENDBRANCH  20  22
ENDBRANCH  18  19
ENDBRANCH  17  18
ENDBRANCH   1  17
TORSDOF 9
