REMARK  6 active torsions:
REMARK  status: ('A' for Active; 'I' for Inactive)
REMARK       I    between atoms: C_2  and  N_3 
REMARK    1  A    between atoms: C_2  and  C_27 
REMARK    2  A    between atoms: N_3  and  C_4 
REMARK    3  A    between atoms: C_7  and  C_8 
REMARK    4  A    between atoms: C_8  and  C_9 
REMARK    5  A    between atoms: C_9  and  N_10 
REMARK    6  A    between atoms: C_13  and  C_14 
ROOT
ATOM      1  C   UNL d   1       9.431   6.095 -11.208  0.00  0.00     0.250 C 
ENDROOT
BRANCH   1   2
ATOM      2  C   UNL d   1       7.937   5.790 -11.431  0.00  0.00     0.035 C 
BRANCH   2   3
ATOM      3  C   UNL d   1       7.693   4.439 -12.123  0.00  0.00     0.002 C 
ATOM      4  C   UNL d   1       6.184   4.147 -12.238  0.00  0.00     0.002 C 
ATOM      5  C   UNL d   1       5.890   2.817 -12.953  0.00  0.00     0.024 C 
ATOM      6  C   UNL d   1       6.609   2.747 -14.304  0.00  0.00     0.106 C 
ATOM      7  C   UNL d   1       8.120   3.029 -14.175  0.00  0.00     0.024 C 
ATOM      8  C   UNL d   1       8.393   4.368 -13.489  0.00  0.00     0.002 C 
BRANCH   6   9
ATOM      9  N   UNL d   1       6.378   1.443 -14.921  0.00  0.00    -0.238 NA
ATOM     10  C   UNL d   1       6.664   1.131 -16.198  0.00  0.00     0.279 C 
ATOM     11  O   UNL d   1       7.273   1.881 -16.960  0.00  0.00    -0.268 OA
BRANCH  10  12
ATOM     12  C   UNL d   1       6.124  -0.204 -16.704  0.00  0.00     0.195 C 
ATOM     13  O   UNL d   1       5.045  -0.647 -15.893  0.00  0.00    -0.347 OA
ATOM     14  C   UNL d   1       4.366  -1.647 -16.639  0.00  0.00     0.143 C 
ATOM     15  C   UNL d   1       4.332  -1.084 -18.058  0.00  0.00     0.035 C 
ATOM     16  C   UNL d   1       5.498  -0.108 -18.104  0.00  0.00     0.042 C 
ENDBRANCH  10  12
ENDBRANCH   6   9
ENDBRANCH   2   3
ENDBRANCH   1   2
BRANCH   1  17
ATOM     17  N   UNL d   1       9.698   6.781  -9.959  0.00  0.00     0.137 N 
ATOM     18  C   UNL d   1       9.509   5.894  -8.804  0.00  0.00     0.251 C 
ATOM     19  C   UNL d   1       9.671   6.690  -7.502  0.00  0.00     0.040 C 
ATOM     20  C   UNL d   1      11.051   7.343  -7.425  0.00  0.00     0.026 C 
ATOM     21  C   UNL d   1      11.316   8.128  -8.727  0.00  0.00     0.040 C 
ATOM     22  C   UNL d   1      11.066   7.295  -9.984  0.00  0.00     0.251 C 
BRANCH  20  23
ATOM     23  C   UNL d   1      11.163   8.223  -6.175  0.00  0.00    -0.024 A 
ATOM     24  C   UNL d   1      11.474   7.703  -4.898  0.00  0.00    -0.001 A 
ATOM     25  C   UNL d   1      11.595   8.495  -3.769  0.00  0.00     0.090 A 
ATOM     26  C   UNL d   1      11.718   6.291  -4.515  0.00  0.00     0.061 A 
ATOM     27  C   UNL d   1      11.385   9.873  -3.838  0.00  0.00     0.024 A 
ATOM     28  O   UNL d   1      11.900   7.790  -2.640  0.00  0.00    -0.331 OA
ATOM     29  C   UNL d   1      11.063  10.420  -5.097  0.00  0.00     0.002 A 
ATOM     30  C   UNL d   1      10.964   9.612  -6.251  0.00  0.00    -0.004 A 
ATOM     31  C   UNL d   1      12.088   6.421  -3.018  0.00  0.00     0.154 A 
ENDBRANCH  20  23
ENDBRANCH   1  17
TORSDOF 6
