REMARK  12 active torsions:
REMARK  status: ('A' for Active; 'I' for Inactive)
REMARK    1  A    between atoms: C_2  and  C_3 
REMARK    2  A    between atoms: C_3  and  N_4 
REMARK    3  A    between atoms: N_4  and  C_5 
REMARK    4  A    between atoms: N_4  and  C_26 
REMARK    5  A    between atoms: C_5  and  C_6 
REMARK    6  A    between atoms: C_6  and  C_7 
REMARK    7  A    between atoms: C_7  and  C_8 
REMARK    8  A    between atoms: C_8  and  N_9 
REMARK    9  A    between atoms: C_11  and  C_12 
REMARK   10  A    between atoms: C_15  and  C_16 
REMARK   11  A    between atoms: C_29  and  C_30 
REMARK   12  A    between atoms: C_31  and  C_32 
ROOT
ATOM      1  C   UNL d   1       9.484   4.074 -15.443  0.00  0.00     0.037 C 
ENDROOT
BRANCH   1   2
ATOM      2  C   UNL d   1      10.686   3.507 -16.226  0.00  0.00     0.250 C 
BRANCH   2   3
ATOM      3  N   UNL d   1      10.408   3.431 -17.674  0.00  0.00     0.135 N 
BRANCH   3   4
ATOM      4  C   UNL d   1      11.596   3.769 -18.480  0.00  0.00     0.250 C 
BRANCH   4   5
ATOM      5  C   UNL d   1      11.277   4.053 -19.973  0.00  0.00     0.035 C 
ATOM      6  C   UNL d   1      10.475   5.352 -20.160  0.00  0.00     0.002 C 
ENDBRANCH   4   5
ENDBRANCH   3   4
BRANCH   3   7
ATOM      7  C   UNL d   1       9.751   2.196 -18.126  0.00  0.00     0.224 C 
ATOM      8  C   UNL d   1       8.387   1.988 -17.439  0.00  0.00     0.039 C 
ATOM      9  C   UNL d   1       7.631   0.797 -18.057  0.00  0.00     0.036 C 
ATOM     10  C   UNL d   1       8.542  -0.407 -18.223  0.00  0.00     0.015 C 
ATOM     11  C   UNL d   1       9.884  -0.335 -18.174  0.00  0.00    -0.020 C 
ATOM     12  C   UNL d   1      10.661   0.948 -17.978  0.00  0.00     0.059 C 
BRANCH  10  13
ATOM     13  C   UNL d   1       7.926  -1.670 -18.380  0.00  0.00    -0.064 C 
ATOM     14  C   UNL d   1       7.386  -2.748 -18.469  0.00  0.00    -0.060 C 
BRANCH  14  15
ATOM     15  C   UNL d   1       6.754  -4.047 -18.590  0.00  0.00     0.042 A 
ATOM     16  C   UNL d   1       5.555  -4.312 -17.891  0.00  0.00     0.008 A 
ATOM     17  C   UNL d   1       4.940  -5.567 -18.024  0.00  0.00     0.001 A 
ATOM     18  C   UNL d   1       5.524  -6.551 -18.845  0.00  0.00     0.000 A 
ATOM     19  C   UNL d   1       6.725  -6.288 -19.539  0.00  0.00     0.001 A 
ATOM     20  C   UNL d   1       7.343  -5.032 -19.410  0.00  0.00     0.008 A 
ENDBRANCH  14  15
ENDBRANCH  10  13
ENDBRANCH   3   7
ENDBRANCH   2   3
ENDBRANCH   1   2
BRANCH   1  21
ATOM     21  C   UNL d   1       9.844   4.475 -14.005  0.00  0.00     0.029 C 
BRANCH  21  22
ATOM     22  C   UNL d   1       8.609   5.015 -13.267  0.00  0.00     0.129 C 
BRANCH  22  23
ATOM     23  N   UNL d   1       8.963   5.897 -12.181  0.00  0.00    -0.231 N 
ATOM     24  N   UNL d   1       9.044   7.228 -12.404  0.00  0.00    -0.064 NA
ATOM     25  N   UNL d   1       9.501   7.768 -11.314  0.00  0.00    -0.129 NA
ATOM     26  C   UNL d   1       9.645   6.784 -10.332  0.00  0.00     0.123 A 
ATOM     27  C   UNL d   1       9.314   5.579 -10.887  0.00  0.00     0.118 A 
BRANCH  26  28
ATOM     28  C   UNL d   1      10.085   7.112  -8.981  0.00  0.00     0.021 A 
ATOM     29  C   UNL d   1      11.148   8.009  -8.766  0.00  0.00     0.002 A 
ATOM     30  C   UNL d   1      11.586   8.296  -7.456  0.00  0.00     0.000 A 
ATOM     31  C   UNL d   1      10.963   7.691  -6.341  0.00  0.00     0.000 A 
ATOM     32  C   UNL d   1       9.882   6.820  -6.565  0.00  0.00     0.000 A 
ATOM     33  C   UNL d   1       9.448   6.518  -7.873  0.00  0.00     0.002 A 
BRANCH  31  34
ATOM     34  C   UNL d   1      11.425   7.977  -4.972  0.00  0.00     0.000 A 
ATOM     35  C   UNL d   1      11.820   6.931  -4.101  0.00  0.00     0.000 A 
ATOM     36  C   UNL d   1      12.253   7.201  -2.786  0.00  0.00     0.000 A 
ATOM     37  C   UNL d   1      12.285   8.527  -2.323  0.00  0.00     0.000 A 
ATOM     38  C   UNL d   1      11.881   9.573  -3.176  0.00  0.00     0.000 A 
ATOM     39  C   UNL d   1      11.463   9.297  -4.494  0.00  0.00     0.000 A 
ENDBRANCH  31  34
ENDBRANCH  26  28
ENDBRANCH  22  23
ENDBRANCH  21  22
ENDBRANCH   1  21
TORSDOF 12
