REMARK  9 active torsions:
REMARK  status: ('A' for Active; 'I' for Inactive)
REMARK    1  A    between atoms: C_6  and  C_7 
REMARK    2  A    between atoms: N_10  and  C_11 
REMARK    3  A    between atoms: C_11  and  C_12 
REMARK    4  A    between atoms: C_12  and  C_13 
REMARK    5  A    between atoms: C_13  and  O_14 
REMARK    6  A    between atoms: O_14  and  C_15 
REMARK    7  A    between atoms: C_18  and  C_19 
REMARK    8  A    between atoms: C_19  and  C_20 
REMARK    9  A    between atoms: C_20  and  N_21 
ROOT
ATOM      1  C   UNL d   1      11.171   2.507 -16.876  0.00  0.00     0.253 C 
ENDROOT
BRANCH   1   2
ATOM      2  N   UNL d   1      12.095   3.564 -17.294  0.00  0.00     0.137 N 
ATOM      3  C   UNL d   1      13.119   2.998 -18.177  0.00  0.00     0.251 C 
ATOM      4  C   UNL d   1      14.069   4.099 -18.689  0.00  0.00     0.041 C 
ATOM      5  C   UNL d   1      14.733   4.846 -17.526  0.00  0.00     0.047 C 
ATOM      6  C   UNL d   1      13.664   5.314 -16.530  0.00  0.00     0.041 C 
ATOM      7  C   UNL d   1      12.740   4.163 -16.121  0.00  0.00     0.251 C 
BRANCH   5   8
ATOM      8  C   UNL d   1      15.581   5.999 -18.001  0.00  0.00     0.087 A 
ATOM      9  C   UNL d   1      15.218   7.172 -18.691  0.00  0.00     0.041 A 
ATOM     10  C   UNL d   1      13.962   7.632 -19.150  0.00  0.00     0.006 A 
ATOM     11  C   UNL d   1      16.357   7.944 -18.916  0.00  0.00     0.129 A 
ATOM     12  C   UNL d   1      13.898   8.867 -19.828  0.00  0.00     0.030 A 
ATOM     13  C   UNL d   1      15.069   9.636 -20.044  0.00  0.00     0.142 A 
ATOM     14  F   UNL d   1      14.986  10.818 -20.699  0.00  0.00    -0.204 F 
ATOM     15  C   UNL d   1      16.324   9.174 -19.585  0.00  0.00     0.057 A 
ATOM     16  O   UNL d   1      17.398   7.220 -18.354  0.00  0.00    -0.211 OA
ATOM     17  N   UNL d   1      16.896   6.014 -17.784  0.00  0.00    -0.131 NA
ENDBRANCH   5   8
ENDBRANCH   1   2
BRANCH   1  18
ATOM     18  C   UNL d   1       9.846   3.106 -16.355  0.00  0.00     0.068 C 
BRANCH  18  19
ATOM     19  C   UNL d   1       8.883   2.068 -15.728  0.00  0.00     0.151 C 
BRANCH  19  20
ATOM     20  O   UNL d   1       7.754   2.701 -15.125  0.00  0.00    -0.331 OA
BRANCH  20  21
ATOM     21  C   UNL d   1       7.936   3.428 -13.964  0.00  0.00     0.094 A 
ATOM     22  C   UNL d   1       6.853   4.160 -13.422  0.00  0.00     0.024 A 
ATOM     23  C   UNL d   1       6.991   4.883 -12.215  0.00  0.00    -0.002 A 
ATOM     24  C   UNL d   1       8.230   4.875 -11.534  0.00  0.00    -0.020 A 
ATOM     25  C   UNL d   1       9.315   4.159 -12.076  0.00  0.00    -0.002 A 
ATOM     26  C   UNL d   1       9.172   3.440 -13.274  0.00  0.00     0.024 A 
BRANCH  24  27
ATOM     27  C   UNL d   1       8.430   5.555 -10.193  0.00  0.00     0.062 C 
BRANCH  27  28
ATOM     28  C   UNL d   1       9.540   6.629 -10.237  0.00  0.00     0.255 C 
BRANCH  28  29
ATOM     29  N   UNL d   1      10.082   7.048  -8.944  0.00  0.00     0.143 N 
ATOM     30  C   UNL d   1       9.088   7.704  -8.092  0.00  0.00     0.282 C 
ATOM     31  C   UNL d   1       9.692   8.169  -6.756  0.00  0.00     0.178 C 
ATOM     32  O   UNL d   1      10.809   9.022  -6.994  0.00  0.00    -0.350 OA
ATOM     33  C   UNL d   1      11.818   8.395  -7.783  0.00  0.00     0.178 C 
ATOM     34  C   UNL d   1      11.219   7.943  -9.125  0.00  0.00     0.282 C 
ENDBRANCH  28  29
ENDBRANCH  27  28
ENDBRANCH  24  27
ENDBRANCH  20  21
ENDBRANCH  19  20
ENDBRANCH  18  19
ENDBRANCH   1  18
TORSDOF 9
