REMARK  7 active torsions:
REMARK  status: ('A' for Active; 'I' for Inactive)
REMARK    1  A    between atoms: C_3  and  C_4 
REMARK    2  A    between atoms: N_19  and  C_20 
REMARK    3  A    between atoms: C_20  and  C_21 
REMARK    4  A    between atoms: C_21  and  C_22 
REMARK    5  A    between atoms: C_22  and  C_23 
REMARK    6  A    between atoms: C_23  and  N_24 
REMARK    7  A    between atoms: C_28  and  C_29 
ROOT
ATOM      1  O   UNL d   1       9.057  -0.406 -17.122  0.00  0.00    -0.267 OA
ATOM      2  C   UNL d   1       9.235   0.598 -17.799  0.00  0.00     0.266 A 
ATOM      3  C   UNL d   1       8.444   0.916 -18.995  0.00  0.00     0.072 A 
ATOM      4  C   UNL d   1       8.712   2.054 -19.700  0.00  0.00     0.073 A 
ATOM      5  C   UNL d   1       7.936   2.384 -20.903  0.00  0.00     0.018 A 
ATOM      6  C   UNL d   1       8.191   3.496 -21.610  0.00  0.00     0.003 A 
ATOM      7  C   UNL d   1       9.250   4.376 -21.179  0.00  0.00     0.019 A 
ATOM      8  C   UNL d   1       9.972   4.083 -20.082  0.00  0.00     0.085 A 
ATOM      9  N   UNL d   1       9.731   2.941 -19.323  0.00  0.00    -0.259 N 
ATOM     10  C   UNL d   1      10.520   2.690 -18.179  0.00  0.00     0.338 A 
ATOM     11  O   UNL d   1      11.416   3.466 -17.844  0.00  0.00    -0.246 OA
ATOM     12  N   UNL d   1      10.243   1.522 -17.452  0.00  0.00    -0.249 N 
ENDROOT
BRANCH  12  13
ATOM     13  C   UNL d   1      11.029   1.215 -16.262  0.00  0.00     0.114 C 
BRANCH  13  14
ATOM     14  C   UNL d   1      10.300   1.491 -14.928  0.00  0.00     0.027 C 
BRANCH  14  15
ATOM     15  C   UNL d   1      10.156   2.991 -14.614  0.00  0.00     0.037 C 
BRANCH  15  16
ATOM     16  C   UNL d   1       9.599   3.225 -13.206  0.00  0.00     0.250 C 
BRANCH  16  17
ATOM     17  N   UNL d   1       9.546   4.614 -12.819  0.00  0.00     0.137 N 
ATOM     18  C   UNL d   1       9.414   4.671 -11.354  0.00  0.00     0.255 C 
ATOM     19  C   UNL d   1       9.427   6.127 -10.868  0.00  0.00     0.057 C 
ATOM     20  C   UNL d   1       8.264   6.856 -11.551  0.00  0.00     0.009 C 
ATOM     21  C   UNL d   1       8.351   6.696 -13.021  0.00  0.00     0.036 C 
ATOM     22  C   UNL d   1       8.356   5.219 -13.414  0.00  0.00     0.250 C 
BRANCH  19  23
ATOM     23  C   UNL d   1       9.372   6.262  -9.386  0.00  0.00     0.000 A 
ATOM     24  C   UNL d   1      10.184   7.081  -8.526  0.00  0.00     0.015 A 
ATOM     25  C   UNL d   1       9.730   6.915  -7.189  0.00  0.00     0.081 A 
ATOM     26  C   UNL d   1      11.281   7.944  -8.726  0.00  0.00     0.001 A 
ATOM     27  N   UNL d   1       8.656   6.080  -7.265  0.00  0.00    -0.244 NA
ATOM     28  C   UNL d   1      10.352   7.523  -6.088  0.00  0.00     0.019 A 
ATOM     29  C   UNL d   1       8.480   5.634  -8.560  0.00  0.00     0.095 A 
ATOM     30  C   UNL d   1      11.460   8.363  -6.316  0.00  0.00     0.002 A 
ATOM     31  C   UNL d   1      11.911   8.571  -7.633  0.00  0.00     0.000 A 
ENDBRANCH  19  23
ENDBRANCH  16  17
ENDBRANCH  15  16
ENDBRANCH  14  15
ENDBRANCH  13  14
ENDBRANCH  12  13
BRANCH   3  32
ATOM     32  C   UNL d   1       7.332   0.010 -19.354  0.00  0.00     0.006 A 
ATOM     33  C   UNL d   1       7.620  -1.274 -19.866  0.00  0.00     0.003 A 
ATOM     34  C   UNL d   1       6.570  -2.148 -20.203  0.00  0.00     0.030 A 
ATOM     35  C   UNL d   1       5.231  -1.745 -20.030  0.00  0.00     0.140 A 
ATOM     36  C   UNL d   1       4.939  -0.467 -19.513  0.00  0.00     0.030 A 
ATOM     37  F   UNL d   1       4.226  -2.591 -20.356  0.00  0.00    -0.204 F 
ATOM     38  C   UNL d   1       5.988   0.407 -19.168  0.00  0.00     0.003 A 
ENDBRANCH   3  32
TORSDOF 7
