REMARK  2 active torsions:
REMARK  status: ('A' for Active; 'I' for Inactive)
REMARK    1  A    between atoms: C_5  and  C_6 
REMARK    2  A    between atoms: C_15  and  N_16 
ROOT
ATOM      1  O   UNL d   1      11.993   1.335 -17.232  0.00  0.00    -0.268 OA
ATOM      2  C   UNL d   1      10.846   0.917 -17.091  0.00  0.00     0.281 C 
ATOM      3  C   UNL d   1      10.463   0.137 -15.825  0.00  0.00     0.215 C 
ATOM      4  N   UNL d   1       9.472   0.821 -15.031  0.00  0.00    -0.260 NA
ATOM      5  C   UNL d   1       8.274   0.966 -15.436  0.00  0.00     0.079 C 
ATOM      6  C   UNL d   1       7.769   0.608 -16.808  0.00  0.00     0.037 A 
ATOM      7  C   UNL d   1       6.398   0.260 -16.939  0.00  0.00     0.026 A 
ATOM      8  C   UNL d   1       5.825  -0.082 -18.175  0.00  0.00     0.127 A 
ATOM      9  C   UNL d   1       6.612  -0.019 -19.341  0.00  0.00     0.025 A 
ATOM     10  C   UNL d   1       7.969   0.358 -19.249  0.00  0.00     0.021 A 
ATOM     11  C   UNL d   1       8.561   0.662 -18.001  0.00  0.00     0.086 A 
ATOM     12  N   UNL d   1       9.920   1.084 -18.041  0.00  0.00    -0.210 NA
ENDROOT
BRANCH   5  13
ATOM     13  C   UNL d   1       7.328   1.580 -14.484  0.00  0.00     0.028 A 
ATOM     14  C   UNL d   1       6.374   0.816 -13.770  0.00  0.00     0.059 A 
ATOM     15  C   UNL d   1       5.439   1.458 -12.948  0.00  0.00     0.011 A 
ATOM     16 CL   UNL d   1       6.279  -0.897 -13.876  0.00  0.00    -0.082 Cl
ATOM     17  C   UNL d   1       5.442   2.858 -12.812  0.00  0.00     0.001 A 
ATOM     18  C   UNL d   1       6.396   3.622 -13.502  0.00  0.00     0.000 A 
ATOM     19  C   UNL d   1       7.343   2.981 -14.328  0.00  0.00     0.002 A 
ENDBRANCH   5  13
BRANCH   8  20
ATOM     20  N   UNL d   1       4.411  -0.475 -18.234  0.00  0.00    -0.114 N 
ATOM     21  O   UNL d   1       3.762  -0.126 -19.205  0.00  0.00    -0.532 OA
ATOM     22  O   UNL d   1       3.962  -1.099 -17.283  0.00  0.00    -0.532 OA
ENDBRANCH   8  20
TORSDOF 2
