REMARK  4 active torsions:
REMARK  status: ('A' for Active; 'I' for Inactive)
REMARK    1  A    between atoms: S_2  and  C_3 
REMARK    2  A    between atoms: S_2  and  C_18 
REMARK    3  A    between atoms: C_6  and  C_7 
REMARK    4  A    between atoms: C_8  and  C_9 
ROOT
ATOM      1  C   UNL d   1       7.800   4.694 -12.574  0.00  0.00     0.080 A 
ATOM      2  C   UNL d   1       7.561   4.395 -11.236  0.00  0.00     0.012 A 
ATOM      3  C   UNL d   1       8.259   5.111 -10.250  0.00  0.00     0.020 A 
ATOM      4  C   UNL d   1       9.167   6.131 -10.644  0.00  0.00     0.082 A 
ATOM      5  N   UNL d   1       9.383   6.422 -11.945  0.00  0.00    -0.243 NA
ATOM      6  C   UNL d   1       8.689   5.738 -12.881  0.00  0.00     0.108 A 
ENDROOT
BRANCH   1   7
ATOM      7  S   UNL d   1       6.964   3.729 -13.872  0.00  0.00     0.092 S 
ATOM      8  O   UNL d   1       5.979   2.807 -13.148  0.00  0.00    -0.247 OA
BRANCH   7   9
ATOM      9  C   UNL d   1       8.415   2.732 -14.417  0.00  0.00     0.088 A 
ATOM     10  C   UNL d   1       8.343   1.318 -14.453  0.00  0.00     0.148 A 
ATOM     11  C   UNL d   1       9.469   0.576 -14.867  0.00  0.00     0.030 A 
ATOM     12  F   UNL d   1       7.210   0.656 -14.117  0.00  0.00    -0.204 F 
ATOM     13  C   UNL d   1      10.663   1.229 -15.237  0.00  0.00     0.002 A 
ATOM     14  C   UNL d   1      10.731   2.635 -15.212  0.00  0.00     0.001 A 
ATOM     15  C   UNL d   1       9.603   3.390 -14.832  0.00  0.00     0.011 A 
ENDBRANCH   7   9
ENDBRANCH   1   7
BRANCH   4  16
ATOM     16  C   UNL d   1       9.906   6.931  -9.654  0.00  0.00     0.019 C 
ATOM     17  C   UNL d   1       9.848   6.748  -8.323  0.00  0.00     0.002 C 
BRANCH  17  18
ATOM     18  C   UNL d   1      10.529   7.529  -7.290  0.00  0.00     0.000 A 
ATOM     19  C   UNL d   1      11.107   8.792  -7.551  0.00  0.00     0.002 A 
ATOM     20  C   UNL d   1      11.761   9.491  -6.516  0.00  0.00     0.030 A 
ATOM     21  C   UNL d   1      11.856   8.925  -5.231  0.00  0.00     0.140 A 
ATOM     22  C   UNL d   1      11.301   7.661  -4.975  0.00  0.00     0.030 A 
ATOM     23  F   UNL d   1      12.503   9.582  -4.243  0.00  0.00    -0.204 F 
ATOM     24  C   UNL d   1      10.638   6.971  -6.001  0.00  0.00     0.002 A 
ENDBRANCH  17  18
ENDBRANCH   4  16
TORSDOF 4
