REMARK  8 active torsions:
REMARK  status: ('A' for Active; 'I' for Inactive)
REMARK    1  A    between atoms: O_2  and  C_3 
REMARK    2  A    between atoms: C_8  and  N_9 
REMARK    3  A    between atoms: N_12  and  C_13 
REMARK    4  A    between atoms: C_13  and  C_14 
REMARK    5  A    between atoms: C_14  and  C_15 
REMARK    6  A    between atoms: C_15  and  C_16 
REMARK    7  A    between atoms: C_16  and  N_17 
REMARK       I    between atoms: N_17  and  C_18 
REMARK    8  A    between atoms: C_18  and  C_20 
ROOT
ATOM      1  C   UNL d   1      12.133   2.451 -18.181  0.00  0.00     0.037 C 
ENDROOT
BRANCH   1   2
ATOM      2  C   UNL d   1      12.296   3.311 -16.911  0.00  0.00     0.251 C 
BRANCH   2   3
ATOM      3  N   UNL d   1      11.317   2.970 -15.877  0.00  0.00     0.141 N 
ATOM      4  C   UNL d   1      11.589   3.760 -14.669  0.00  0.00     0.274 C 
ATOM      5  C   UNL d   1      10.575   3.414 -13.557  0.00  0.00     0.137 C 
ATOM      6  N   UNL d   1       9.215   3.576 -14.043  0.00  0.00    -0.343 N 
ATOM      7  C   UNL d   1       8.928   2.877 -15.281  0.00  0.00     0.137 C 
ATOM      8  C   UNL d   1       9.955   3.259 -16.343  0.00  0.00     0.274 C 
BRANCH   6   9
ATOM      9  C   UNL d   1       8.238   4.314 -13.369  0.00  0.00     0.079 A 
ATOM     10  C   UNL d   1       6.916   3.817 -13.230  0.00  0.00     0.110 A 
ATOM     11  C   UNL d   1       5.951   4.601 -12.555  0.00  0.00     0.026 A 
ATOM     12  C   UNL d   1       6.293   5.866 -12.038  0.00  0.00     0.002 A 
ATOM     13  C   UNL d   1       7.601   6.348 -12.170  0.00  0.00     0.002 A 
ATOM     14  C   UNL d   1       8.575   5.576 -12.829  0.00  0.00     0.019 A 
BRANCH  10  15
ATOM     15  O   UNL d   1       6.621   2.575 -13.756  0.00  0.00    -0.327 OA
ATOM     16  C   UNL d   1       5.595   1.808 -13.154  0.00  0.00     0.181 C 
ENDBRANCH  10  15
ENDBRANCH   6   9
ENDBRANCH   2   3
ENDBRANCH   1   2
BRANCH   1  17
ATOM     17  C   UNL d   1      11.355   3.168 -19.310  0.00  0.00     0.029 C 
BRANCH  17  18
ATOM     18  C   UNL d   1      10.950   2.230 -20.462  0.00  0.00     0.129 C 
BRANCH  18  19
ATOM     19  N   UNL d   1       9.988   1.212 -20.038  0.00  0.00    -0.234 NA
ATOM     20  C   UNL d   1       8.696   1.400 -19.708  0.00  0.00     0.280 C 
ATOM     21  O   UNL d   1       8.188   2.520 -19.740  0.00  0.00    -0.265 OA
BRANCH  20  22
ATOM     22  C   UNL d   1       7.982   0.165 -19.344  0.00  0.00     0.121 A 
ATOM     23  C   UNL d   1       8.647  -1.130 -18.959  0.00  0.00     0.305 A 
ATOM     24  O   UNL d   1       7.833  -2.193 -18.698  0.00  0.00    -0.273 OA
ATOM     25  O   UNL d   1       9.867  -1.260 -18.870  0.00  0.00    -0.259 OA
ATOM     26  C   UNL d   1       6.461  -2.130 -18.726  0.00  0.00     0.103 A 
ATOM     27  C   UNL d   1       5.790  -0.938 -19.060  0.00  0.00     0.023 A 
ATOM     28  C   UNL d   1       5.724  -3.287 -18.410  0.00  0.00     0.025 A 
ATOM     29  C   UNL d   1       6.627   0.217 -19.369  0.00  0.00     0.012 A 
ATOM     30  C   UNL d   1       4.379  -0.905 -19.094  0.00  0.00     0.002 A 
ATOM     31  C   UNL d   1       3.650  -2.071 -18.782  0.00  0.00     0.000 A 
ATOM     32  C   UNL d   1       4.320  -3.258 -18.440  0.00  0.00     0.002 A 
ENDBRANCH  20  22
ENDBRANCH  18  19
ENDBRANCH  17  18
ENDBRANCH   1  17
TORSDOF 8
