REMARK  0 active torsions:
REMARK  status: ('A' for Active; 'I' for Inactive)
ROOT
ATOM      1  C   UNL d   1      11.768   3.032 -18.024  0.00  0.00     0.285 C 
ATOM      2  N   UNL d   1      10.801   2.372 -17.157  0.00  0.00     0.140 N 
ATOM      3  C   UNL d   1       9.974   1.428 -17.910  0.00  0.00     0.255 C 
ATOM      4  C   UNL d   1       8.596   2.089 -18.087  0.00  0.00     0.061 C 
ATOM      5  C   UNL d   1       7.442   1.123 -18.328  0.00  0.00    -0.022 A 
ATOM      6  C   UNL d   1       6.792   1.177 -19.581  0.00  0.00     0.023 A 
ATOM      7  C   UNL d   1       5.674   0.371 -19.856  0.00  0.00     0.131 A 
ATOM      8  O   UNL d   1       5.063   0.468 -21.073  0.00  0.00    -0.190 OA
ATOM      9  C   UNL d   1       5.202  -0.523 -18.879  0.00  0.00     0.027 A 
ATOM     10  C   UNL d   1       5.850  -0.601 -17.633  0.00  0.00    -0.002 A 
ATOM     11  C   UNL d   1       6.966   0.215 -17.334  0.00  0.00    -0.020 A 
ATOM     12  C   UNL d   1       7.629   0.002 -15.967  0.00  0.00     0.071 C 
ATOM     13  C   UNL d   1       7.975   1.227 -15.175  0.00  0.00     0.059 A 
ATOM     14  N   UNL d   1       6.993   2.097 -14.740  0.00  0.00    -0.250 NA
ATOM     15  C   UNL d   1       7.542   3.149 -14.039  0.00  0.00     0.081 A 
ATOM     16  C   UNL d   1       6.965   4.265 -13.406  0.00  0.00     0.019 A 
ATOM     17  C   UNL d   1       7.795   5.196 -12.756  0.00  0.00     0.002 A 
ATOM     18  C   UNL d   1       9.188   4.998 -12.740  0.00  0.00     0.000 A 
ATOM     19  C   UNL d   1       9.756   3.870 -13.371  0.00  0.00     0.001 A 
ATOM     20  C   UNL d   1       8.948   2.920 -14.040  0.00  0.00     0.015 A 
ATOM     21  C   UNL d   1       9.201   1.694 -14.751  0.00  0.00    -0.005 A 
ATOM     22  C   UNL d   1      10.542   1.054 -14.993  0.00  0.00     0.063 C 
ATOM     23  C   UNL d   1      11.463   1.823 -15.972  0.00  0.00     0.255 C 
ENDROOT
TORSDOF 0
