REMARK  7 active torsions:
REMARK  status: ('A' for Active; 'I' for Inactive)
REMARK    1  A    between atoms: S_2  and  N_4 
REMARK    2  A    between atoms: S_2  and  C_21 
REMARK    3  A    between atoms: N_4  and  C_5 
REMARK    4  A    between atoms: N_8  and  C_9 
REMARK    5  A    between atoms: C_9  and  C_10 
REMARK    6  A    between atoms: C_10  and  O_11 
REMARK    7  A    between atoms: O_11  and  C_12 
ROOT
ATOM      1  C   UNL d   1       8.999   6.021 -10.819  0.00  0.00     0.151 C 
ATOM      2  C   UNL d   1       8.374   6.898 -11.876  0.00  0.00     0.063 C 
ATOM      3  C   UNL d   1       8.403   6.032 -13.116  0.00  0.00     0.253 C 
ATOM      4  N   UNL d   1       9.554   5.168 -12.903  0.00  0.00     0.142 N 
ATOM      5  C   UNL d   1       9.352   4.711 -11.534  0.00  0.00     0.275 C 
ENDROOT
BRANCH   4   6
ATOM      6  C   UNL d   1       9.568   4.083 -13.871  0.00  0.00     0.283 C 
BRANCH   6   7
ATOM      7  C   UNL d   1      10.818   3.212 -13.679  0.00  0.00     0.184 C 
BRANCH   7   8
ATOM      8  O   UNL d   1      11.124   2.514 -14.878  0.00  0.00    -0.328 OA
BRANCH   8   9
ATOM      9  C   UNL d   1      11.730   3.212 -15.904  0.00  0.00     0.105 A 
ATOM     10  C   UNL d   1      11.882   2.547 -17.141  0.00  0.00     0.090 A 
ATOM     11  C   UNL d   1      12.490   3.207 -18.233  0.00  0.00     0.070 A 
ATOM     12 CL   UNL d   1      11.306   0.923 -17.316  0.00  0.00    -0.079 Cl
ATOM     13  C   UNL d   1      12.950   4.530 -18.092  0.00  0.00     0.012 A 
ATOM     14 CL   UNL d   1      12.679   2.416 -19.756  0.00  0.00    -0.081 Cl
ATOM     15  C   UNL d   1      12.806   5.198 -16.865  0.00  0.00     0.003 A 
ATOM     16  C   UNL d   1      12.201   4.546 -15.779  0.00  0.00     0.025 A 
ENDBRANCH   8   9
ENDBRANCH   7   8
ENDBRANCH   6   7
ENDBRANCH   4   6
BRANCH   1  17
ATOM     17  N   UNL d   1       8.049   5.856  -9.751  0.00  0.00    -0.184 NA
BRANCH  17  18
ATOM     18  S   UNL d   1       8.617   5.460  -8.236  0.00  0.00     0.287 S 
ATOM     19  O   UNL d   1       7.583   5.547  -7.260  0.00  0.00    -0.198 OA
ATOM     20  O   UNL d   1       9.407   4.214  -8.488  0.00  0.00    -0.198 OA
BRANCH  18  21
ATOM     21  C   UNL d   1       9.707   6.773  -7.782  0.00  0.00     0.135 C 
ATOM     22  S   UNL d   1       9.197   8.378  -7.258  0.00  0.00    -0.062 SA
ATOM     23  C   UNL d   1      10.866   8.857  -7.053  0.00  0.00     0.088 C 
ATOM     24  C   UNL d   1      11.731   7.864  -7.433  0.00  0.00     0.019 C 
ATOM     25 CL   UNL d   1      11.273  10.397  -6.411  0.00  0.00    -0.075 Cl
ATOM     26  C   UNL d   1      11.047   6.638  -7.716  0.00  0.00     0.021 C 
ENDBRANCH  18  21
ENDBRANCH  17  18
ENDBRANCH   1  17
TORSDOF 7
