REMARK  10 active torsions:
REMARK  status: ('A' for Active; 'I' for Inactive)
REMARK    1  A    between atoms: C_6  and  O_7 
REMARK    2  A    between atoms: O_7  and  C_8 
REMARK    3  A    between atoms: C_8  and  C_9 
REMARK    4  A    between atoms: C_9  and  O_10 
REMARK    5  A    between atoms: O_10  and  C_11 
REMARK    6  A    between atoms: C_11  and  C_12 
REMARK    7  A    between atoms: C_12  and  N_13 
REMARK    8  A    between atoms: N_16  and  C_17 
REMARK    9  A    between atoms: C_17  and  C_18 
REMARK   10  A    between atoms: C_18  and  C_19 
ROOT
ATOM      1  N   UNL d   1       8.235   5.528 -11.846  0.00  0.00     0.144 N 
ATOM      2  C   UNL d   1       8.416   4.758 -10.616  0.00  0.00     0.286 C 
ATOM      3  C   UNL d   1       8.698   5.659  -9.398  0.00  0.00     0.285 C 
ATOM      4  N   UNL d   1       9.886   6.472  -9.609  0.00  0.00     0.142 N 
ATOM      5  C   UNL d   1       9.701   7.243 -10.836  0.00  0.00     0.285 C 
ATOM      6  C   UNL d   1       9.423   6.334 -12.044  0.00  0.00     0.286 C 
ENDROOT
BRANCH   1   7
ATOM      7  C   UNL d   1       8.040   4.651 -12.995  0.00  0.00     0.282 C 
BRANCH   7   8
ATOM      8  C   UNL d   1       6.710   3.886 -13.019  0.00  0.00     0.178 C 
BRANCH   8   9
ATOM      9  O   UNL d   1       6.592   3.154 -14.229  0.00  0.00    -0.349 OA
BRANCH   9  10
ATOM     10  C   UNL d   1       7.405   1.991 -14.342  0.00  0.00     0.175 C 
BRANCH  10  11
ATOM     11  C   UNL d   1       7.365   1.521 -15.787  0.00  0.00     0.181 C 
BRANCH  11  12
ATOM     12  O   UNL d   1       6.244   0.675 -15.965  0.00  0.00    -0.328 OA
BRANCH  12  13
ATOM     13  C   UNL d   1       5.952   0.225 -17.234  0.00  0.00     0.090 A 
ATOM     14  C   UNL d   1       6.565   0.751 -18.400  0.00  0.00     0.024 A 
ATOM     15  C   UNL d   1       6.193   0.290 -19.674  0.00  0.00     0.002 A 
ATOM     16  C   UNL d   1       5.224  -0.718 -19.799  0.00  0.00    -0.004 A 
ATOM     17  C   UNL d   1       4.620  -1.270 -18.652  0.00  0.00    -0.024 A 
ATOM     18  C   UNL d   1       3.588  -2.367 -18.820  0.00  0.00     0.031 C 
ATOM     19  C   UNL d   1       4.975  -0.794 -17.365  0.00  0.00    -0.004 A 
ATOM     20  C   UNL d   1       4.307  -1.385 -16.126  0.00  0.00     0.033 C 
ENDBRANCH  12  13
ENDBRANCH  11  12
ENDBRANCH  10  11
ENDBRANCH   9  10
ENDBRANCH   8   9
ENDBRANCH   7   8
ENDBRANCH   1   7
BRANCH   4  21
ATOM     21  C   UNL d   1      10.088   7.390  -8.492  0.00  0.00     0.255 C 
BRANCH  21  22
ATOM     22  C   UNL d   1      10.817   6.793  -7.281  0.00  0.00     0.062 C 
BRANCH  22  23
ATOM     23  C   UNL d   1      11.063   7.777  -6.139  0.00  0.00    -0.020 A 
ATOM     24  C   UNL d   1      10.956   9.174  -6.325  0.00  0.00    -0.004 A 
ATOM     25  C   UNL d   1      11.184  10.055  -5.250  0.00  0.00    -0.000 A 
ATOM     26  C   UNL d   1      11.566   9.562  -3.994  0.00  0.00    -0.000 A 
ATOM     27  C   UNL d   1      11.730   8.171  -3.805  0.00  0.00    -0.000 A 
ATOM     28  C   UNL d   1      11.460   7.284  -4.870  0.00  0.00    -0.004 A 
ENDBRANCH  22  23
ENDBRANCH  21  22
ENDBRANCH   4  21
TORSDOF 10
