REMARK  7 active torsions:
REMARK  status: ('A' for Active; 'I' for Inactive)
REMARK    1  A    between atoms: O_2  and  C_3 
REMARK    2  A    between atoms: C_7  and  C_8 
REMARK    3  A    between atoms: C_8  and  C_9 
REMARK    4  A    between atoms: C_9  and  C_10 
REMARK    5  A    between atoms: C_15  and  O_16 
REMARK    6  A    between atoms: O_16  and  C_17 
REMARK    7  A    between atoms: C_17  and  C_18 
ROOT
ATOM      1  C   UNL d   1       8.542   4.303 -13.586  0.00  0.00     0.001 A 
ATOM      2  C   UNL d   1       7.483   3.398 -13.822  0.00  0.00    -0.002 A 
ATOM      3  C   UNL d   1       6.244   3.568 -13.182  0.00  0.00    -0.000 A 
ATOM      4  C   UNL d   1       6.056   4.641 -12.294  0.00  0.00     0.002 A 
ATOM      5  C   UNL d   1       7.104   5.561 -12.061  0.00  0.00     0.024 A 
ATOM      6  C   UNL d   1       8.347   5.412 -12.717  0.00  0.00     0.090 A 
ENDROOT
BRANCH   1   7
ATOM      7  C   UNL d   1       9.876   4.090 -14.293  0.00  0.00     0.033 C 
BRANCH   7   8
ATOM      8  C   UNL d   1       9.838   4.577 -15.748  0.00  0.00     0.031 C 
BRANCH   8   9
ATOM      9  C   UNL d   1      11.214   4.581 -16.385  0.00  0.00    -0.020 A 
ATOM     10  C   UNL d   1      11.783   3.371 -16.835  0.00  0.00    -0.004 A 
ATOM     11  C   UNL d   1      13.058   3.373 -17.426  0.00  0.00     0.002 A 
ATOM     12  C   UNL d   1      13.774   4.578 -17.560  0.00  0.00     0.024 A 
ATOM     13  C   UNL d   1      13.222   5.798 -17.115  0.00  0.00     0.094 A 
ATOM     14  C   UNL d   1      11.932   5.787 -16.524  0.00  0.00     0.020 A 
BRANCH  13  15
ATOM     15  O   UNL d   1      13.991   6.929 -17.286  0.00  0.00    -0.328 OA
ATOM     16  C   UNL d   1      13.413   8.186 -16.966  0.00  0.00     0.181 C 
ENDBRANCH  13  15
ENDBRANCH   8   9
ENDBRANCH   7   8
ENDBRANCH   1   7
BRANCH   6  17
ATOM     17  O   UNL d   1       9.402   6.298 -12.582  0.00  0.00    -0.326 OA
BRANCH  17  18
ATOM     18  C   UNL d   1       9.294   7.452 -11.753  0.00  0.00     0.175 C 
BRANCH  18  19
ATOM     19  C   UNL d   1       9.790   7.217 -10.325  0.00  0.00     0.008 A 
ATOM     20  C   UNL d   1      10.745   8.100  -9.770  0.00  0.00    -0.002 A 
ATOM     21  C   UNL d   1      11.189   7.919  -8.443  0.00  0.00    -0.000 A 
ATOM     22  C   UNL d   1      10.671   6.868  -7.663  0.00  0.00    -0.000 A 
ATOM     23  C   UNL d   1       9.713   5.995  -8.209  0.00  0.00    -0.000 A 
ATOM     24  C   UNL d   1       9.282   6.168  -9.539  0.00  0.00    -0.002 A 
ENDBRANCH  18  19
ENDBRANCH  17  18
ENDBRANCH   6  17
TORSDOF 7
