REMARK  8 active torsions:
REMARK  status: ('A' for Active; 'I' for Inactive)
REMARK       I    between atoms: N_2  and  C_3 
REMARK    1  A    between atoms: C_3  and  C_5 
REMARK    2  A    between atoms: C_7  and  O_8 
REMARK    3  A    between atoms: O_8  and  C_9 
REMARK    4  A    between atoms: C_9  and  C_10 
REMARK    5  A    between atoms: C_10  and  C_11 
REMARK    6  A    between atoms: C_11  and  C_12 
REMARK    7  A    between atoms: C_12  and  N_13 
REMARK    8  A    between atoms: N_16  and  C_17 
ROOT
ATOM      1  C   UNL d   1       8.288   4.377 -14.037  0.00  0.00     0.251 C 
ENDROOT
BRANCH   1   2
ATOM      2  C   UNL d   1       7.163   3.351 -14.144  0.00  0.00     0.038 C 
BRANCH   2   3
ATOM      3  C   UNL d   1       7.491   2.340 -15.226  0.00  0.00     0.035 C 
BRANCH   3   4
ATOM      4  C   UNL d   1       7.929   0.961 -14.658  0.00  0.00     0.149 C 
BRANCH   4   5
ATOM      5  O   UNL d   1       6.799   0.124 -14.381  0.00  0.00    -0.331 OA
BRANCH   5   6
ATOM      6  C   UNL d   1       6.037  -0.282 -15.451  0.00  0.00     0.097 A 
ATOM      7  C   UNL d   1       6.347   0.051 -16.788  0.00  0.00     0.048 A 
ATOM      8  C   UNL d   1       5.471  -0.267 -17.809  0.00  0.00     0.141 A 
ATOM      9  N   UNL d   1       4.330  -0.988 -17.606  0.00  0.00    -0.239 NA
ATOM     10  C   UNL d   1       4.054  -1.376 -16.349  0.00  0.00     0.101 A 
ATOM     11  C   UNL d   1       4.859  -1.044 -15.238  0.00  0.00     0.045 A 
BRANCH   8  12
ATOM     12  C   UNL d   1       5.784   0.207 -19.193  0.00  0.00     0.293 C 
ATOM     13  N   UNL d   1       5.324  -0.556 -20.173  0.00  0.00    -0.231 NA
ATOM     14  C   UNL d   1       5.567  -0.330 -21.586  0.00  0.00     0.155 C 
ATOM     15  O   UNL d   1       6.491   1.207 -19.370  0.00  0.00    -0.264 OA
ENDBRANCH   8  12
ENDBRANCH   5   6
ENDBRANCH   4   5
ENDBRANCH   3   4
ENDBRANCH   2   3
ENDBRANCH   1   2
BRANCH   1  16
ATOM     16  N   UNL d   1       8.101   5.176 -12.846  0.00  0.00     0.141 N 
ATOM     17  C   UNL d   1       8.750   4.504 -11.732  0.00  0.00     0.274 C 
ATOM     18  C   UNL d   1       8.566   5.292 -10.445  0.00  0.00     0.137 C 
ATOM     19  N   UNL d   1       9.105   6.629 -10.627  0.00  0.00    -0.344 N 
ATOM     20  C   UNL d   1       8.569   7.334 -11.787  0.00  0.00     0.137 C 
ATOM     21  C   UNL d   1       8.735   6.466 -13.028  0.00  0.00     0.274 C 
BRANCH  19  22
ATOM     22  C   UNL d   1       9.944   7.283  -9.693  0.00  0.00     0.068 A 
ATOM     23  C   UNL d   1       9.882   7.078  -8.294  0.00  0.00     0.084 A 
ATOM     24  C   UNL d   1      10.815   7.702  -7.432  0.00  0.00     0.070 A 
ATOM     25 CL   UNL d   1       8.659   6.101  -7.588  0.00  0.00    -0.080 Cl
ATOM     26  C   UNL d   1      11.807   8.532  -7.967  0.00  0.00     0.012 A 
ATOM     27 CL   UNL d   1      10.763   7.466  -5.727  0.00  0.00    -0.081 Cl
ATOM     28  C   UNL d   1      11.858   8.744  -9.346  0.00  0.00     0.002 A 
ATOM     29  C   UNL d   1      10.915   8.162 -10.189  0.00  0.00     0.018 A 
ENDBRANCH  19  22
ENDBRANCH   1  16
TORSDOF 8
