REMARK  7 active torsions:
REMARK  status: ('A' for Active; 'I' for Inactive)
REMARK    1  A    between atoms: C_2  and  C_3 
REMARK       I    between atoms: C_2  and  N_11 
REMARK    2  A    between atoms: C_14  and  C_16 
REMARK    3  A    between atoms: C_16  and  N_17 
REMARK    4  A    between atoms: N_17  and  C_18 
REMARK    5  A    between atoms: C_18  and  C_19 
REMARK    6  A    between atoms: C_19  and  C_20 
REMARK    7  A    between atoms: C_20  and  C_21 
ROOT
ATOM      1  O   UNL d   1       5.452   0.731 -12.498  0.00  0.00    -0.267 OA
ATOM      2  C   UNL d   1       5.865   1.446 -13.415  0.00  0.00     0.257 C 
ATOM      3  N   UNL d   1       6.095   2.783 -13.280  0.00  0.00    -0.317 N 
ATOM      4  C   UNL d   1       5.823   3.550 -12.047  0.00  0.00     0.107 C 
ATOM      5  C   UNL d   1       7.089   4.308 -11.604  0.00  0.00     0.059 C 
ATOM      6  C   UNL d   1       7.634   5.273 -12.643  0.00  0.00     0.172 C 
ATOM      7  F   UNL d   1       6.724   6.219 -12.825  0.00  0.00    -0.238 F 
ATOM      8  C   UNL d   1       7.808   4.475 -13.946  0.00  0.00     0.059 C 
ATOM      9  C   UNL d   1       6.497   3.711 -14.337  0.00  0.00     0.107 C 
ENDROOT
BRANCH   6  10
ATOM     10  C   UNL d   1       8.947   5.946 -12.174  0.00  0.00     0.322 C 
BRANCH  10  11
ATOM     11  N   UNL d   1       8.841   6.395 -10.791  0.00  0.00     0.342 N 
BRANCH  11  12
ATOM     12  C   UNL d   1      10.015   7.146 -10.420  0.00  0.00     0.291 C 
BRANCH  12  13
ATOM     13  C   UNL d   1       9.938   7.492  -8.932  0.00  0.00     0.044 C 
BRANCH  13  14
ATOM     14  C   UNL d   1      11.237   8.154  -8.447  0.00  0.00     0.048 C 
BRANCH  14  15
ATOM     15  C   UNL d   1      11.304   8.277  -6.938  0.00  0.00     0.059 A 
ATOM     16  N   UNL d   1      11.397   7.113  -6.254  0.00  0.00    -0.248 NA
ATOM     17  C   UNL d   1      11.466   7.171  -4.909  0.00  0.00     0.099 A 
ATOM     18  C   UNL d   1      11.481   8.383  -4.190  0.00  0.00     0.021 A 
ATOM     19  C   UNL d   1      11.391   9.589  -4.908  0.00  0.00     0.003 A 
ATOM     20  C   UNL d   1      11.303   9.540  -6.310  0.00  0.00     0.015 A 
ENDBRANCH  14  15
ENDBRANCH  13  14
ENDBRANCH  12  13
ENDBRANCH  11  12
ENDBRANCH  10  11
ENDBRANCH   6  10
BRANCH   2  21
ATOM     21  C   UNL d   1       6.174   0.756 -14.736  0.00  0.00     0.057 A 
ATOM     22  C   UNL d   1       5.185  -0.051 -15.341  0.00  0.00     0.018 A 
ATOM     23  C   UNL d   1       5.423  -0.637 -16.608  0.00  0.00     0.085 A 
ATOM     24  C   UNL d   1       6.641  -0.421 -17.275  0.00  0.00     0.151 A 
ATOM     25 CL   UNL d   1       4.190  -1.609 -17.339  0.00  0.00    -0.080 Cl
ATOM     26  C   UNL d   1       7.645   0.366 -16.667  0.00  0.00     0.031 A 
ATOM     27  F   UNL d   1       6.863  -0.940 -18.504  0.00  0.00    -0.203 F 
ATOM     28  C   UNL d   1       7.429   0.897 -15.382  0.00  0.00     0.007 A 
ENDBRANCH   2  21
TORSDOF 7
