REMARK  7 active torsions:
REMARK  status: ('A' for Active; 'I' for Inactive)
REMARK    1  A    between atoms: S_2  and  N_4 
REMARK    2  A    between atoms: S_2  and  C_24 
REMARK    3  A    between atoms: N_4  and  C_5 
REMARK    4  A    between atoms: C_5  and  C_6 
REMARK    5  A    between atoms: C_6  and  C_7 
REMARK    6  A    between atoms: C_7  and  N_8 
REMARK    7  A    between atoms: C_11  and  C_12 
ROOT
ATOM      1  N   UNL d   1       8.356   4.763 -11.508  0.00  0.00     0.137 N 
ATOM      2  C   UNL d   1       9.314   4.666 -12.607  0.00  0.00     0.251 C 
ATOM      3  C   UNL d   1       9.055   3.423 -13.478  0.00  0.00     0.041 C 
ATOM      4  C   UNL d   1       7.633   3.449 -14.030  0.00  0.00     0.047 C 
ATOM      5  C   UNL d   1       6.604   3.737 -12.918  0.00  0.00     0.041 C 
ATOM      6  C   UNL d   1       7.009   4.934 -12.049  0.00  0.00     0.251 C 
ENDROOT
BRANCH   1   7
ATOM      7  C   UNL d   1       8.706   5.887 -10.638  0.00  0.00     0.252 C 
BRANCH   7   8
ATOM      8  C   UNL d   1       8.487   5.545  -9.144  0.00  0.00     0.062 C 
BRANCH   8   9
ATOM      9  C   UNL d   1       9.533   6.173  -8.196  0.00  0.00     0.141 C 
BRANCH   9  10
ATOM     10  N   UNL d   1       9.659   7.598  -8.424  0.00  0.00    -0.185 NA
BRANCH  10  11
ATOM     11  S   UNL d   1      11.108   8.457  -8.245  0.00  0.00     0.282 S 
ATOM     12  O   UNL d   1      12.303   7.592  -8.323  0.00  0.00    -0.199 OA
ATOM     13  O   UNL d   1      10.986   9.599  -9.153  0.00  0.00    -0.199 OA
BRANCH  11  14
ATOM     14  C   UNL d   1      11.069   8.967  -6.573  0.00  0.00     0.112 C 
ATOM     15  C   UNL d   1      11.396   8.132  -5.437  0.00  0.00     0.019 A 
ATOM     16  C   UNL d   1      11.371   8.850  -4.202  0.00  0.00     0.030 A 
ATOM     17  C   UNL d   1      11.798   6.784  -5.333  0.00  0.00     0.001 A 
ATOM     18  S   UNL d   1      10.661  10.385  -4.442  0.00  0.00    -0.086 SA
ATOM     19  C   UNL d   1      11.677   8.297  -2.953  0.00  0.00     0.006 A 
ATOM     20  C   UNL d   1      10.743  10.225  -6.135  0.00  0.00     0.048 C 
ATOM     21  C   UNL d   1      12.045   6.969  -2.878  0.00  0.00     0.001 A 
ATOM     22  C   UNL d   1      12.127   6.261  -4.085  0.00  0.00     0.000 A 
ENDBRANCH  11  14
ENDBRANCH  10  11
ENDBRANCH   9  10
ENDBRANCH   8   9
ENDBRANCH   7   8
ENDBRANCH   1   7
BRANCH   4  23
ATOM     23  C   UNL d   1       7.286   2.209 -14.845  0.00  0.00     0.087 A 
ATOM     24  C   UNL d   1       7.696   1.801 -16.134  0.00  0.00     0.041 A 
ATOM     25  C   UNL d   1       7.134   0.550 -16.411  0.00  0.00     0.129 A 
ATOM     26  C   UNL d   1       8.547   2.397 -17.095  0.00  0.00     0.006 A 
ATOM     27  O   UNL d   1       6.403   0.210 -15.293  0.00  0.00    -0.211 OA
ATOM     28  C   UNL d   1       7.352  -0.145 -17.605  0.00  0.00     0.057 A 
ATOM     29  N   UNL d   1       6.544   1.234 -14.316  0.00  0.00    -0.131 NA
ATOM     30  C   UNL d   1       8.190   0.455 -18.567  0.00  0.00     0.142 A 
ATOM     31  F   UNL d   1       8.427  -0.185 -19.735  0.00  0.00    -0.204 F 
ATOM     32  C   UNL d   1       8.781   1.716 -18.314  0.00  0.00     0.030 A 
ENDBRANCH   4  23
TORSDOF 7
