REMARK  5 active torsions:
REMARK  status: ('A' for Active; 'I' for Inactive)
REMARK    1  A    between atoms: C_4  and  C_5 
REMARK       I    between atoms: C_5  and  N_7 
REMARK    2  A    between atoms: N_10  and  C_11 
REMARK    3  A    between atoms: C_11  and  C_12 
REMARK    4  A    between atoms: C_12  and  O_13 
REMARK    5  A    between atoms: O_13  and  C_14 
ROOT
ATOM      1  C   UNL d   1      10.447   4.042 -14.492  0.00  0.00     0.259 C 
ATOM      2  O   UNL d   1      11.286   4.541 -13.744  0.00  0.00    -0.267 OA
ATOM      3  N   UNL d   1      10.695   3.638 -15.767  0.00  0.00    -0.312 N 
ATOM      4  C   UNL d   1       9.716   3.038 -16.719  0.00  0.00     0.140 C 
ATOM      5  C   UNL d   1      10.346   1.713 -17.215  0.00  0.00     0.274 C 
ATOM      6  N   UNL d   1      11.620   1.943 -17.912  0.00  0.00     0.144 N 
ATOM      7  C   UNL d   1      12.580   2.545 -16.980  0.00  0.00     0.274 C 
ATOM      8  C   UNL d   1      12.024   3.864 -16.401  0.00  0.00     0.140 C 
ENDROOT
BRANCH   1   9
ATOM      9  C   UNL d   1       9.036   3.969 -14.015  0.00  0.00     0.074 A 
ATOM     10  C   UNL d   1       8.283   4.980 -13.490  0.00  0.00     0.081 A 
ATOM     11  N   UNL d   1       7.000   4.513 -13.220  0.00  0.00    -0.324 N 
ATOM     12  C   UNL d   1       5.916   5.324 -12.673  0.00  0.00     0.131 C 
ATOM     13  C   UNL d   1       6.921   3.177 -13.570  0.00  0.00     0.060 A 
ATOM     14  C   UNL d   1       8.189   2.797 -14.067  0.00  0.00     0.022 A 
ATOM     15  C   UNL d   1       5.876   2.250 -13.493  0.00  0.00     0.017 A 
ATOM     16  C   UNL d   1       8.364   1.441 -14.472  0.00  0.00     0.002 A 
ATOM     17  C   UNL d   1       7.289   0.543 -14.422  0.00  0.00     0.000 A 
ATOM     18  C   UNL d   1       6.034   0.928 -13.941  0.00  0.00     0.002 A 
ENDBRANCH   1   9
BRANCH   6  19
ATOM     19  C   UNL d   1      12.179   0.681 -18.403  0.00  0.00     0.283 C 
BRANCH  19  20
ATOM     20  C   UNL d   1      11.237  -0.034 -19.375  0.00  0.00     0.184 C 
BRANCH  20  21
ATOM     21  O   UNL d   1      10.139  -0.646 -18.703  0.00  0.00    -0.327 OA
BRANCH  21  22
ATOM     22  C   UNL d   1       9.140  -1.168 -19.489  0.00  0.00     0.113 A 
ATOM     23  C   UNL d   1       9.202  -1.239 -20.906  0.00  0.00     0.123 A 
ATOM     24  N   UNL d   1       8.238  -1.778 -21.683  0.00  0.00    -0.240 NA
ATOM     25  C   UNL d   1       7.143  -2.288 -21.085  0.00  0.00     0.099 A 
ATOM     26  C   UNL d   1       6.942  -2.225 -19.692  0.00  0.00     0.023 A 
ATOM     27  C   UNL d   1       7.956  -1.653 -18.885  0.00  0.00     0.027 A 
ENDBRANCH  21  22
ENDBRANCH  20  21
ENDBRANCH  19  20
ENDBRANCH   6  19
TORSDOF 5
