REMARK  1 active torsions:
REMARK  status: ('A' for Active; 'I' for Inactive)
REMARK    1  A    between atoms: C_12  and  C_13 
ROOT
ATOM      1  C   UNL d   1       8.892  -1.391 -19.786  0.00  0.00     0.285 C 
ATOM      2  N   UNL d   1       8.763  -0.476 -18.659  0.00  0.00     0.135 N 
ATOM      3  C   UNL d   1       9.691  -0.792 -17.573  0.00  0.00     0.222 C 
ATOM      4  C   UNL d   1      11.050  -0.261 -18.063  0.00  0.00     0.035 C 
ATOM      5  C   UNL d   1      10.684   0.865 -19.037  0.00  0.00     0.035 C 
ATOM      6  C   UNL d   1       9.149   0.886 -19.023  0.00  0.00     0.222 C 
ATOM      7  C   UNL d   1       8.579   1.821 -17.934  0.00  0.00     0.069 C 
ATOM      8  C   UNL d   1       9.107   1.470 -16.517  0.00  0.00     0.157 A 
ATOM      9  C   UNL d   1       9.166  -0.059 -16.314  0.00  0.00     0.069 C 
ATOM     10  O   UNL d   1      10.400   2.036 -16.275  0.00  0.00    -0.326 OA
ATOM     11  C   UNL d   1      10.351   2.822 -15.185  0.00  0.00     0.119 A 
ATOM     12  C   UNL d   1       9.151   2.980 -14.650  0.00  0.00     0.061 A 
ATOM     13  C   UNL d   1       8.262   2.136 -15.447  0.00  0.00     0.200 A 
ATOM     14  O   UNL d   1       7.053   1.962 -15.351  0.00  0.00    -0.289 OA
ENDROOT
BRANCH  12  15
ATOM     15  C   UNL d   1       8.791   3.857 -13.500  0.00  0.00     0.005 A 
ATOM     16  C   UNL d   1       9.797   4.598 -12.839  0.00  0.00     0.000 A 
ATOM     17  C   UNL d   1       9.457   5.462 -11.783  0.00  0.00     0.000 A 
ATOM     18  C   UNL d   1       8.122   5.593 -11.377  0.00  0.00     0.000 A 
ATOM     19  C   UNL d   1       7.116   4.866 -12.027  0.00  0.00     0.000 A 
ATOM     20  C   UNL d   1       7.445   4.002 -13.085  0.00  0.00     0.000 A 
ENDBRANCH  12  15
TORSDOF 1
