REMARK  6 active torsions:
REMARK  status: ('A' for Active; 'I' for Inactive)
REMARK    1  A    between atoms: C_2  and  C_3 
REMARK    2  A    between atoms: N_13  and  C_14 
REMARK    3  A    between atoms: C_14  and  C_15 
REMARK    4  A    between atoms: C_15  and  C_17 
REMARK    5  A    between atoms: C_17  and  N_18 
REMARK    6  A    between atoms: N_21  and  C_22 
ROOT
ATOM      1  C   UNL d   1       7.011   1.505 -15.710  0.00  0.00     0.208 C 
ATOM      2  O   UNL d   1       5.880   0.766 -15.323  0.00  0.00    -0.219 OA
ENDROOT
BRANCH   1   3
ATOM      3  C   UNL d   1       7.629   0.761 -16.916  0.00  0.00     0.148 C 
BRANCH   3   4
ATOM      4  N   UNL d   1       9.030   1.119 -17.178  0.00  0.00    -0.247 N 
ATOM      5  C   UNL d   1      10.093   0.479 -16.676  0.00  0.00     0.348 A 
ATOM      6  N   UNL d   1      11.201   1.122 -17.027  0.00  0.00    -0.209 NA
ATOM      7  O   UNL d   1      10.073  -0.535 -15.979  0.00  0.00    -0.245 OA
ATOM      8  C   UNL d   1      10.946   2.265 -17.889  0.00  0.00     0.179 A 
ATOM      9  C   UNL d   1      11.595   2.002 -19.252  0.00  0.00     0.039 C 
ATOM     10  C   UNL d   1       9.419   2.152 -17.948  0.00  0.00     0.265 A 
ATOM     11  O   UNL d   1       8.681   2.914 -18.578  0.00  0.00    -0.269 OA
BRANCH   8  12
ATOM     12  C   UNL d   1      11.390   3.606 -17.276  0.00  0.00     0.006 A 
ATOM     13  C   UNL d   1      11.243   4.800 -18.019  0.00  0.00     0.000 A 
ATOM     14  C   UNL d   1      11.648   6.042 -17.490  0.00  0.00     0.029 A 
ATOM     15  C   UNL d   1      12.193   6.110 -16.193  0.00  0.00     0.140 A 
ATOM     16  C   UNL d   1      12.354   4.932 -15.443  0.00  0.00     0.029 A 
ATOM     17  F   UNL d   1      12.539   7.308 -15.660  0.00  0.00    -0.204 F 
ATOM     18  C   UNL d   1      11.956   3.689 -15.977  0.00  0.00     0.000 A 
ENDBRANCH   8  12
ENDBRANCH   3   4
ENDBRANCH   1   3
BRANCH   1  19
ATOM     19  C   UNL d   1       7.922   1.633 -14.472  0.00  0.00     0.285 C 
BRANCH  19  20
ATOM     20  N   UNL d   1       8.352   3.013 -14.208  0.00  0.00     0.144 N 
ATOM     21  C   UNL d   1       7.323   3.764 -13.459  0.00  0.00     0.274 C 
ATOM     22  C   UNL d   1       7.768   5.208 -13.108  0.00  0.00     0.137 C 
ATOM     23  N   UNL d   1       9.049   5.152 -12.427  0.00  0.00    -0.343 N 
ATOM     24  C   UNL d   1      10.088   4.425 -13.130  0.00  0.00     0.137 C 
ATOM     25  C   UNL d   1       9.588   3.012 -13.448  0.00  0.00     0.274 C 
BRANCH  23  26
ATOM     26  C   UNL d   1       9.314   5.865 -11.264  0.00  0.00     0.084 A 
ATOM     27  C   UNL d   1       9.482   7.263 -11.278  0.00  0.00     0.158 A 
ATOM     28  C   UNL d   1       9.817   7.936 -10.080  0.00  0.00     0.061 A 
ATOM     29  F   UNL d   1       9.368   7.965 -12.437  0.00  0.00    -0.203 F 
ATOM     30  C   UNL d   1       9.882   7.224  -8.869  0.00  0.00     0.142 A 
ATOM     31  C   UNL d   1       9.703   5.830  -8.861  0.00  0.00     0.031 A 
ATOM     32  F   UNL d   1      10.115   7.877  -7.710  0.00  0.00    -0.204 F 
ATOM     33  C   UNL d   1       9.440   5.149 -10.065  0.00  0.00     0.021 A 
ENDBRANCH  23  26
ENDBRANCH  19  20
ENDBRANCH   1  19
TORSDOF 6
