REMARK  6 active torsions:
REMARK  status: ('A' for Active; 'I' for Inactive)
REMARK    1  A    between atoms: C_5  and  C_6 
REMARK    2  A    between atoms: N_14  and  C_15 
REMARK    3  A    between atoms: C_15  and  C_16 
REMARK    4  A    between atoms: C_18  and  C_19 
REMARK    5  A    between atoms: C_19  and  N_20 
REMARK       I    between atoms: N_20  and  C_21 
REMARK    6  A    between atoms: C_21  and  C_23 
ROOT
ATOM      1  C   UNL d   1       8.399   5.340 -12.823  0.00  0.00     0.035 A 
ATOM      2  C   UNL d   1       8.528   6.795 -12.432  0.00  0.00     0.004 A 
ATOM      3  C   UNL d   1       9.134   5.726 -11.558  0.00  0.00     0.026 A 
ENDROOT
BRANCH   1   4
ATOM      4  C   UNL d   1       9.191   4.848 -14.013  0.00  0.00     0.250 C 
BRANCH   4   5
ATOM      5  N   UNL d   1       9.430   3.404 -14.021  0.00  0.00     0.140 N 
ATOM      6  C   UNL d   1      10.460   3.001 -14.990  0.00  0.00     0.249 C 
ATOM      7  C   UNL d   1      11.850   3.609 -14.709  0.00  0.00     0.038 C 
ATOM      8  C   UNL d   1      10.602   1.460 -15.047  0.00  0.00     0.176 C 
ATOM      9  O   UNL d   1       9.346   0.847 -15.332  0.00  0.00    -0.348 OA
ATOM     10  C   UNL d   1       8.342   1.162 -14.370  0.00  0.00     0.172 C 
ATOM     11  C   UNL d   1       8.188   2.688 -14.303  0.00  0.00     0.284 C 
BRANCH  10  12
ATOM     12  C   UNL d   1       7.017   0.508 -14.701  0.00  0.00     0.026 A 
ATOM     13  C   UNL d   1       5.991   0.424 -13.740  0.00  0.00     0.098 A 
ATOM     14  N   UNL d   1       4.785  -0.133 -13.984  0.00  0.00    -0.230 NA
ATOM     15  C   UNL d   1       4.570  -0.642 -15.214  0.00  0.00     0.151 A 
ATOM     16  C   UNL d   1       5.521  -0.600 -16.249  0.00  0.00     0.033 A 
ATOM     17  N   UNL d   1       3.326  -1.205 -15.438  0.00  0.00    -0.080 NA
ATOM     18  C   UNL d   1       6.767  -0.012 -15.986  0.00  0.00     0.002 A 
ENDBRANCH  10  12
ENDBRANCH   4   5
ENDBRANCH   1   4
BRANCH   3  19
ATOM     19  C   UNL d   1       8.539   5.480 -10.190  0.00  0.00     0.129 C 
BRANCH  19  20
ATOM     20  N   UNL d   1       9.250   6.062  -9.060  0.00  0.00    -0.233 NA
ATOM     21  C   UNL d   1       9.877   7.251  -9.024  0.00  0.00     0.293 C 
ATOM     22  O   UNL d   1      10.034   7.993  -9.992  0.00  0.00    -0.264 OA
BRANCH  21  23
ATOM     23  C   UNL d   1      10.345   7.691  -7.707  0.00  0.00     0.139 A 
ATOM     24  N   UNL d   1      10.620   6.762  -6.717  0.00  0.00    -0.241 NA
ATOM     25  C   UNL d   1      11.059   7.390  -5.575  0.00  0.00     0.082 A 
ATOM     26  C   UNL d   1      11.051   8.783  -5.871  0.00  0.00     0.019 A 
ATOM     27  C   UNL d   1      11.468   6.892  -4.332  0.00  0.00     0.019 A 
ATOM     28  C   UNL d   1      10.613   8.942  -7.223  0.00  0.00     0.025 A 
ATOM     29  C   UNL d   1      11.460   9.666  -4.847  0.00  0.00     0.002 A 
ATOM     30  C   UNL d   1      11.863   9.178  -3.589  0.00  0.00     0.000 A 
ATOM     31  C   UNL d   1      11.872   7.793  -3.330  0.00  0.00     0.002 A 
ENDBRANCH  21  23
ENDBRANCH  19  20
ENDBRANCH   3  19
TORSDOF 6
