REMARK  3 active torsions:
REMARK  status: ('A' for Active; 'I' for Inactive)
REMARK    1  A    between atoms: C_2  and  C_4 
REMARK    2  A    between atoms: C_2  and  C_12 
REMARK    3  A    between atoms: C_4  and  C_5 
ROOT
ATOM      1  C   UNL d   1      11.359   8.689  -5.643  0.00  0.00    -0.019 A 
ATOM      2  C   UNL d   1      11.441   7.274  -5.532  0.00  0.00    -0.002 A 
ATOM      3  C   UNL d   1      11.729   6.686  -4.314  0.00  0.00     0.027 A 
ATOM      4  C   UNL d   1      11.935   7.470  -3.170  0.00  0.00     0.131 A 
ATOM      5  O   UNL d   1      12.211   6.805  -2.017  0.00  0.00    -0.190 OA
ATOM      6  C   UNL d   1      11.848   8.877  -3.235  0.00  0.00     0.027 A 
ATOM      7  C   UNL d   1      11.545   9.479  -4.471  0.00  0.00    -0.002 A 
ENDROOT
BRANCH   1   8
ATOM      8  C   UNL d   1      11.063   9.391  -6.983  0.00  0.00     0.074 C 
BRANCH   8   9
ATOM      9  C   UNL d   1      10.961   8.482  -8.251  0.00  0.00     0.349 C 
ATOM     10  C   UNL d   1      12.320   7.865  -8.623  0.00  0.00     0.051 C 
ATOM     11  N   UNL d   1      10.684   9.336  -9.384  0.00  0.00     0.625 N 
BRANCH   9  12
ATOM     12  C   UNL d   1       9.778   7.492  -8.185  0.00  0.00     0.221 C 
ATOM     13  O   UNL d   1       9.863   6.324  -8.547  0.00  0.00    -0.646 OA
ATOM     14  O   UNL d   1       8.662   8.057  -7.647  0.00  0.00    -0.646 OA
ENDBRANCH   9  12
ENDBRANCH   8   9
ENDBRANCH   1   8
TORSDOF 3
