REMARK  6 active torsions:
REMARK  status: ('A' for Active; 'I' for Inactive)
REMARK       I    between atoms: C_2  and  N_3 
REMARK    1  A    between atoms: C_2  and  C_27 
REMARK    2  A    between atoms: N_3  and  C_4 
REMARK    3  A    between atoms: C_7  and  C_8 
REMARK    4  A    between atoms: C_8  and  C_9 
REMARK    5  A    between atoms: C_9  and  N_10 
REMARK    6  A    between atoms: C_13  and  C_14 
ROOT
ATOM      1  N   UNL d   1       8.633   5.535 -12.379  0.00  0.00     0.137 N 
ATOM      2  C   UNL d   1       7.280   5.195 -12.812  0.00  0.00     0.251 C 
ATOM      3  C   UNL d   1       7.418   4.375 -14.088  0.00  0.00     0.040 C 
ATOM      4  C   UNL d   1       8.219   3.088 -13.918  0.00  0.00     0.026 C 
ATOM      5  C   UNL d   1       9.547   3.441 -13.230  0.00  0.00     0.040 C 
ATOM      6  C   UNL d   1       9.295   4.295 -11.990  0.00  0.00     0.251 C 
ENDROOT
BRANCH   1   7
ATOM      7  C   UNL d   1       8.515   6.401 -11.229  0.00  0.00     0.250 C 
BRANCH   7   8
ATOM      8  C   UNL d   1       9.845   7.075 -10.852  0.00  0.00     0.035 C 
BRANCH   8   9
ATOM      9  C   UNL d   1       9.876   7.652  -9.431  0.00  0.00     0.002 C 
ATOM     10  C   UNL d   1       9.703   6.538  -8.368  0.00  0.00     0.002 C 
ATOM     11  C   UNL d   1       9.796   7.093  -6.949  0.00  0.00     0.024 C 
ATOM     12  C   UNL d   1      11.120   7.837  -6.744  0.00  0.00     0.106 C 
ATOM     13  C   UNL d   1      11.310   8.939  -7.781  0.00  0.00     0.024 C 
ATOM     14  C   UNL d   1      11.208   8.398  -9.212  0.00  0.00     0.002 C 
BRANCH  12  15
ATOM     15  N   UNL d   1      11.201   8.410  -5.425  0.00  0.00    -0.238 NA
ATOM     16  C   UNL d   1      11.551   7.747  -4.331  0.00  0.00     0.279 C 
ATOM     17  O   UNL d   1      11.652   6.501  -4.307  0.00  0.00    -0.268 OA
BRANCH  16  18
ATOM     18  C   UNL d   1      11.848   8.589  -3.136  0.00  0.00     0.199 A 
ATOM     19  C   UNL d   1      13.172   8.366  -2.467  0.00  0.00     0.043 A 
ATOM     20  C   UNL d   1      11.916   8.010  -1.744  0.00  0.00     0.043 A 
ATOM     21  O   UNL d   1      11.476   9.950  -3.234  0.00  0.00    -0.216 OA
ENDBRANCH  16  18
ENDBRANCH  12  15
ENDBRANCH   8   9
ENDBRANCH   7   8
ENDBRANCH   1   7
BRANCH   4  22
ATOM     22  C   UNL d   1       8.430   2.324 -15.231  0.00  0.00    -0.024 A 
ATOM     23  C   UNL d   1       7.562   1.283 -15.631  0.00  0.00    -0.001 A 
ATOM     24  C   UNL d   1       7.750   0.571 -16.810  0.00  0.00     0.090 A 
ATOM     25  C   UNL d   1       6.338   0.762 -14.941  0.00  0.00     0.061 A 
ATOM     26  C   UNL d   1       8.836   0.844 -17.660  0.00  0.00     0.024 A 
ATOM     27  O   UNL d   1       6.783  -0.374 -17.022  0.00  0.00    -0.331 OA
ATOM     28  C   UNL d   1       9.729   1.874 -17.283  0.00  0.00     0.002 A 
ATOM     29  C   UNL d   1       9.524   2.613 -16.097  0.00  0.00    -0.004 A 
ATOM     30  C   UNL d   1       5.922  -0.402 -15.872  0.00  0.00     0.154 A 
ENDBRANCH   4  22
TORSDOF 6
