REMARK  5 active torsions:
REMARK  status: ('A' for Active; 'I' for Inactive)
REMARK    1  A    between atoms: C_2  and  C_5 
REMARK       I    between atoms: C_5  and  N_7 
REMARK    2  A    between atoms: N_7  and  C_8 
REMARK    3  A    between atoms: C_8  and  C_9 
REMARK    4  A    between atoms: C_9  and  N_10 
REMARK    5  A    between atoms: N_13  and  C_14 
ROOT
ATOM      1  N   UNL d   1       9.737   7.253  -9.695  0.00  0.00     0.143 N 
ATOM      2  C   UNL d   1      11.104   7.665  -9.369  0.00  0.00     0.274 C 
ATOM      3  C   UNL d   1      11.093   8.783  -8.311  0.00  0.00     0.137 C 
ATOM      4  N   UNL d   1      10.317   8.362  -7.153  0.00  0.00    -0.344 N 
ATOM      5  C   UNL d   1       8.995   7.799  -7.413  0.00  0.00     0.137 C 
ATOM      6  C   UNL d   1       9.079   6.715  -8.501  0.00  0.00     0.274 C 
ENDROOT
BRANCH   1   7
ATOM      7  C   UNL d   1       9.776   6.215 -10.723  0.00  0.00     0.277 C 
BRANCH   7   8
ATOM      8  C   UNL d   1       8.475   6.171 -11.526  0.00  0.00     0.164 C 
BRANCH   8   9
ATOM      9  N   UNL d   1       8.471   5.120 -12.530  0.00  0.00    -0.236 NA
ATOM     10  C   UNL d   1       9.458   4.754 -13.370  0.00  0.00     0.251 C 
ATOM     11  O   UNL d   1      10.604   5.179 -13.294  0.00  0.00    -0.271 OA
BRANCH  10  12
ATOM     12  C   UNL d   1       9.121   3.725 -14.472  0.00  0.00     0.073 C 
ATOM     13  C   UNL d   1      10.045   2.500 -14.306  0.00  0.00     0.009 C 
ATOM     14  C   UNL d   1       9.430   4.394 -15.826  0.00  0.00     0.009 C 
ATOM     15  C   UNL d   1       7.638   3.274 -14.417  0.00  0.00     0.009 C 
ENDBRANCH  10  12
ENDBRANCH   8   9
ENDBRANCH   7   8
ENDBRANCH   1   7
BRANCH   4  16
ATOM     16  C   UNL d   1      10.874   8.350  -5.887  0.00  0.00     0.056 A 
ATOM     17  C   UNL d   1      11.227   7.131  -5.260  0.00  0.00     0.018 A 
ATOM     18  C   UNL d   1      11.800   7.146  -3.970  0.00  0.00     0.013 A 
ATOM     19  C   UNL d   1      11.982   8.365  -3.297  0.00  0.00     0.058 A 
ATOM     20  C   UNL d   1      11.611   9.573  -3.911  0.00  0.00     0.013 A 
ATOM     21 CL   UNL d   1      12.646   8.390  -1.707  0.00  0.00    -0.082 Cl
ATOM     22  C   UNL d   1      11.074   9.571  -5.214  0.00  0.00     0.018 A 
ENDBRANCH   4  16
TORSDOF 5
