REMARK  1 active torsions:
REMARK  status: ('A' for Active; 'I' for Inactive)
REMARK    1  A    between atoms: O_2  and  C_3 
ROOT
ATOM      1  C   UNL d   1      12.144   7.994  -3.946  0.00  0.00     0.094 A 
ATOM      2  C   UNL d   1      12.444   9.266  -4.467  0.00  0.00     0.024 A 
ATOM      3  C   UNL d   1      11.957   9.658  -5.732  0.00  0.00    -0.003 A 
ATOM      4  C   UNL d   1      11.160   8.774  -6.494  0.00  0.00    -0.026 A 
ATOM      5  C   UNL d   1      10.856   7.494  -5.974  0.00  0.00    -0.022 A 
ATOM      6  C   UNL d   1      11.363   7.110  -4.725  0.00  0.00     0.020 A 
ATOM      7  C   UNL d   1      10.010   6.494  -6.742  0.00  0.00     0.065 C 
ATOM      8  C   UNL d   1       9.218   7.109  -7.890  0.00  0.00     0.307 C 
ATOM      9  N   UNL d   1       8.680   6.058  -8.726  0.00  0.00     0.616 N 
ATOM     10  C   UNL d   1      10.095   8.061  -8.715  0.00  0.00     0.044 C 
ATOM     11  C   UNL d   1      10.616   9.210  -7.843  0.00  0.00     0.028 C 
ENDROOT
BRANCH   1  12
ATOM     12  O   UNL d   1      12.647   7.683  -2.704  0.00  0.00    -0.328 OA
ATOM     13  C   UNL d   1      12.339   6.394  -2.199  0.00  0.00     0.181 C 
ENDBRANCH   1  12
TORSDOF 1
