REMARK  4 active torsions:
REMARK  status: ('A' for Active; 'I' for Inactive)
REMARK    1  A    between atoms: C_6  and  C_7 
REMARK       I    between atoms: C_7  and  N_9 
REMARK    2  A    between atoms: N_9  and  C_10 
REMARK    3  A    between atoms: C_10  and  N_11 
REMARK    4  A    between atoms: C_14  and  C_15 
ROOT
ATOM      1  N   UNL d   1      10.035   8.039  -9.546  0.00  0.00     0.162 N 
ATOM      2  C   UNL d   1      11.484   7.969  -9.377  0.00  0.00     0.253 C 
ATOM      3  C   UNL d   1      11.855   8.346  -7.942  0.00  0.00     0.040 C 
ATOM      4  C   UNL d   1      11.127   7.458  -6.906  0.00  0.00     0.026 C 
ATOM      5  C   UNL d   1       9.622   7.440  -7.183  0.00  0.00     0.040 C 
ATOM      6  C   UNL d   1       9.361   7.093  -8.641  0.00  0.00     0.253 C 
ENDROOT
BRANCH   1   7
ATOM      7  C   UNL d   1       9.703   7.781 -10.953  0.00  0.00     0.379 C 
BRANCH   7   8
ATOM      8  N   UNL d   1       8.958   6.567 -11.266  0.00  0.00    -0.200 NA
ATOM      9  C   UNL d   1       8.983   5.854 -12.397  0.00  0.00     0.277 C 
ATOM     10  O   UNL d   1       9.866   5.948 -13.232  0.00  0.00    -0.266 OA
BRANCH   9  11
ATOM     11  C   UNL d   1       7.836   4.930 -12.618  0.00  0.00     0.057 A 
ATOM     12  C   UNL d   1       6.650   5.074 -11.874  0.00  0.00     0.005 A 
ATOM     13  C   UNL d   1       5.573   4.208 -12.069  0.00  0.00    -0.000 A 
ATOM     14  C   UNL d   1       5.645   3.177 -13.019  0.00  0.00    -0.004 A 
ATOM     15  C   UNL d   1       6.815   3.040 -13.802  0.00  0.00    -0.022 A 
ATOM     16  C   UNL d   1       6.913   1.948 -14.841  0.00  0.00     0.031 C 
ATOM     17  C   UNL d   1       7.899   3.916 -13.607  0.00  0.00     0.001 A 
ENDBRANCH   9  11
ENDBRANCH   7   8
ENDBRANCH   1   7
BRANCH   4  18
ATOM     18  C   UNL d   1      11.384   7.897  -5.473  0.00  0.00    -0.022 A 
ATOM     19  C   UNL d   1      11.218   9.252  -5.109  0.00  0.00    -0.004 A 
ATOM     20  C   UNL d   1      11.468   9.665  -3.793  0.00  0.00    -0.000 A 
ATOM     21  C   UNL d   1      11.875   8.731  -2.821  0.00  0.00    -0.000 A 
ATOM     22  C   UNL d   1      12.014   7.370  -3.164  0.00  0.00    -0.000 A 
ATOM     23  C   UNL d   1      11.765   6.957  -4.489  0.00  0.00    -0.004 A 
ENDBRANCH   4  18
TORSDOF 4
