REMARK  5 active torsions:
REMARK  status: ('A' for Active; 'I' for Inactive)
REMARK    1  A    between atoms: C_2  and  C_3 
REMARK    2  A    between atoms: C_2  and  O_21 
REMARK    3  A    between atoms: C_3  and  N_4 
REMARK       I    between atoms: N_7  and  C_8 
REMARK    4  A    between atoms: C_8  and  C_10 
REMARK    5  A    between atoms: O_21  and  C_22 
ROOT
ATOM      1  N   UNL d   1       8.900   5.760 -12.909  0.00  0.00     0.144 N 
ATOM      2  C   UNL d   1       7.981   4.719 -12.454  0.00  0.00     0.274 C 
ATOM      3  C   UNL d   1       7.484   3.953 -13.661  0.00  0.00     0.140 C 
ATOM      4  N   UNL d   1       8.643   3.304 -14.299  0.00  0.00    -0.311 N 
ATOM      5  C   UNL d   1       8.764   1.997 -14.618  0.00  0.00     0.275 C 
ATOM      6  O   UNL d   1       9.840   1.478 -14.920  0.00  0.00    -0.266 OA
ATOM      7  C   UNL d   1       9.679   4.288 -14.687  0.00  0.00     0.140 C 
ATOM      8  C   UNL d   1      10.075   5.097 -13.461  0.00  0.00     0.274 C 
ENDROOT
BRANCH   1   9
ATOM      9  C   UNL d   1       9.265   6.515 -11.733  0.00  0.00     0.280 C 
BRANCH   9  10
ATOM     10  C   UNL d   1       9.744   7.967 -11.918  0.00  0.00     0.155 C 
ATOM     11  C   UNL d   1       8.641   9.023 -11.978  0.00  0.00     0.035 C 
BRANCH  10  12
ATOM     12  O   UNL d   1      10.665   8.431 -10.926  0.00  0.00    -0.331 OA
BRANCH  12  13
ATOM     13  C   UNL d   1      10.661   8.074  -9.600  0.00  0.00     0.094 A 
ATOM     14  C   UNL d   1       9.688   7.296  -8.949  0.00  0.00     0.025 A 
ATOM     15  C   UNL d   1       9.807   6.982  -7.621  0.00  0.00     0.013 A 
ATOM     16  C   UNL d   1      10.870   7.504  -6.846  0.00  0.00     0.058 A 
ATOM     17  C   UNL d   1      11.857   8.324  -7.454  0.00  0.00     0.013 A 
ATOM     18 CL   UNL d   1      10.938   7.155  -5.163  0.00  0.00    -0.082 Cl
ATOM     19  C   UNL d   1      11.774   8.570  -8.852  0.00  0.00     0.025 A 
ENDBRANCH  12  13
ENDBRANCH  10  12
ENDBRANCH   9  10
ENDBRANCH   1   9
BRANCH   5  20
ATOM     20  C   UNL d   1       7.523   1.177 -14.772  0.00  0.00     0.137 A 
ATOM     21  N   UNL d   1       7.401   0.429 -15.944  0.00  0.00    -0.241 NA
ATOM     22  C   UNL d   1       6.192  -0.237 -15.983  0.00  0.00     0.082 A 
ATOM     23  C   UNL d   1       5.526   0.121 -14.778  0.00  0.00     0.019 A 
ATOM     24  C   UNL d   1       5.596  -1.113 -16.915  0.00  0.00     0.019 A 
ATOM     25  C   UNL d   1       6.383   0.983 -14.037  0.00  0.00     0.025 A 
ATOM     26  C   UNL d   1       4.234  -0.395 -14.541  0.00  0.00     0.002 A 
ATOM     27  C   UNL d   1       3.644  -1.244 -15.475  0.00  0.00     0.000 A 
ATOM     28  C   UNL d   1       4.313  -1.619 -16.644  0.00  0.00     0.002 A 
ENDBRANCH   5  20
TORSDOF 5
