REMARK  8 active torsions:
REMARK  status: ('A' for Active; 'I' for Inactive)
REMARK    1  A    between atoms: O_2  and  C_3 
REMARK    2  A    between atoms: C_6  and  C_7 
REMARK    3  A    between atoms: C_7  and  C_8 
REMARK       I    between atoms: C_8  and  N_10 
REMARK    4  A    between atoms: N_10  and  C_11 
REMARK    5  A    between atoms: C_14  and  C_15 
REMARK    6  A    between atoms: C_15  and  C_16 
REMARK    7  A    between atoms: C_16  and  N_17 
REMARK    8  A    between atoms: C_20  and  C_21 
ROOT
ATOM      1  C   UNL d   1       9.310   3.025 -15.389  0.00  0.00     0.106 C 
ATOM      2  C   UNL d   1       8.168   2.873 -14.356  0.00  0.00     0.024 C 
ATOM      3  C   UNL d   1       8.062   4.114 -13.458  0.00  0.00     0.002 C 
ATOM      4  C   UNL d   1       9.404   4.410 -12.772  0.00  0.00     0.002 C 
ATOM      5  C   UNL d   1      10.526   4.555 -13.813  0.00  0.00     0.002 C 
ATOM      6  C   UNL d   1      10.647   3.322 -14.708  0.00  0.00     0.024 C 
ENDROOT
BRANCH   4   7
ATOM      7  C   UNL d   1       9.314   5.658 -11.889  0.00  0.00     0.035 C 
BRANCH   7   8
ATOM      8  C   UNL d   1       8.663   5.405 -10.511  0.00  0.00     0.250 C 
BRANCH   8   9
ATOM      9  N   UNL d   1       9.097   6.334  -9.470  0.00  0.00     0.137 N 
ATOM     10  C   UNL d   1       8.694   5.803  -8.158  0.00  0.00     0.251 C 
ATOM     11  C   UNL d   1       9.074   6.777  -7.027  0.00  0.00     0.040 C 
ATOM     12  C   UNL d   1      10.582   7.079  -7.040  0.00  0.00     0.028 C 
ATOM     13  C   UNL d   1      10.992   7.545  -8.437  0.00  0.00     0.040 C 
ATOM     14  C   UNL d   1      10.545   6.554  -9.494  0.00  0.00     0.251 C 
BRANCH  12  15
ATOM     15  C   UNL d   1      10.942   8.115  -6.017  0.00  0.00     0.004 A 
ATOM     16  C   UNL d   1      11.457   7.902  -4.698  0.00  0.00     0.021 A 
ATOM     17  C   UNL d   1      11.630   9.189  -4.131  0.00  0.00     0.100 A 
ATOM     18  C   UNL d   1      11.792   6.788  -3.895  0.00  0.00     0.002 A 
ATOM     19  O   UNL d   1      11.246  10.151  -5.034  0.00  0.00    -0.305 OA
ATOM     20  C   UNL d   1      12.112   9.387  -2.834  0.00  0.00     0.025 A 
ATOM     21  C   UNL d   1      10.853   9.484  -6.159  0.00  0.00     0.118 A 
ATOM     22  C   UNL d   1      12.433   8.265  -2.053  0.00  0.00     0.002 A 
ATOM     23  C   UNL d   1      12.266   6.967  -2.579  0.00  0.00     0.000 A 
ENDBRANCH  12  15
ENDBRANCH   8   9
ENDBRANCH   7   8
ENDBRANCH   4   7
BRANCH   1  24
ATOM     24  N   UNL d   1       9.446   1.813 -16.176  0.00  0.00    -0.240 NA
ATOM     25  C   UNL d   1       8.721   1.548 -17.263  0.00  0.00     0.251 C 
ATOM     26  O   UNL d   1       7.927   2.360 -17.753  0.00  0.00    -0.271 OA
BRANCH  25  27
ATOM     27  C   UNL d   1       8.878   0.147 -17.858  0.00  0.00     0.090 C 
BRANCH  27  28
ATOM     28  C   UNL d   1       7.541  -0.536 -18.222  0.00  0.00     0.009 C 
ATOM     29  C   UNL d   1       6.485  -0.404 -17.090  0.00  0.00     0.003 C 
ATOM     30  C   UNL d   1       5.204  -1.141 -17.446  0.00  0.00     0.030 C 
ATOM     31  C   UNL d   1       4.642  -0.666 -18.803  0.00  0.00     0.116 C 
ATOM     32  C   UNL d   1       5.680  -0.755 -19.941  0.00  0.00     0.030 C 
ATOM     33  C   UNL d   1       6.979  -0.036 -19.575  0.00  0.00     0.003 C 
BRANCH  31  34
ATOM     34  O   UNL d   1       3.458  -1.381 -19.151  0.00  0.00    -0.354 OA
ATOM     35  C   UNL d   1       3.550  -2.800 -19.178  0.00  0.00     0.174 C 
ENDBRANCH  31  34
ENDBRANCH  27  28
ENDBRANCH  25  27
ENDBRANCH   1  24
TORSDOF 8
