REMARK  4 active torsions:
REMARK  status: ('A' for Active; 'I' for Inactive)
REMARK    1  A    between atoms: C_18  and  C_19 
REMARK    2  A    between atoms: N_20  and  O_21 
REMARK    3  A    between atoms: O_21  and  C_22 
REMARK    4  A    between atoms: C_22  and  C_23 
ROOT
ATOM      1  C   UNL d   1      10.172   0.185 -17.990  0.00  0.00     0.285 C 
ATOM      2  N   UNL d   1      10.460   0.589 -16.613  0.00  0.00     0.138 N 
ATOM      3  C   UNL d   1       9.380   0.229 -15.695  0.00  0.00     0.255 C 
ATOM      4  C   UNL d   1       8.073   1.029 -15.847  0.00  0.00     0.061 C 
ATOM      5  C   UNL d   1       8.143   2.382 -15.160  0.00  0.00    -0.023 A 
ATOM      6  C   UNL d   1       7.271   2.642 -14.082  0.00  0.00     0.009 A 
ATOM      7  C   UNL d   1       7.347   3.856 -13.377  0.00  0.00     0.083 A 
ATOM      8 CL   UNL d   1       6.244   4.163 -12.077  0.00  0.00    -0.080 Cl
ATOM      9  C   UNL d   1       8.324   4.806 -13.736  0.00  0.00     0.141 A 
ATOM     10  O   UNL d   1       8.432   5.982 -13.050  0.00  0.00    -0.189 OA
ATOM     11  C   UNL d   1       9.184   4.555 -14.825  0.00  0.00     0.024 A 
ATOM     12  C   UNL d   1       9.086   3.355 -15.567  0.00  0.00    -0.018 A 
ATOM     13  C   UNL d   1       9.994   3.089 -16.779  0.00  0.00     0.075 C 
ATOM     14  C   UNL d   1      10.634   4.359 -17.368  0.00  0.00    -0.020 A 
ATOM     15  C   UNL d   1       9.777   5.313 -17.956  0.00  0.00    -0.004 A 
ATOM     16  C   UNL d   1      10.295   6.504 -18.482  0.00  0.00    -0.000 A 
ATOM     17  C   UNL d   1      11.672   6.765 -18.402  0.00  0.00     0.001 A 
ATOM     18  C   UNL d   1      12.563   5.829 -17.824  0.00  0.00     0.017 A 
ATOM     19  C   UNL d   1      12.038   4.595 -17.343  0.00  0.00    -0.024 A 
ATOM     20  C   UNL d   1      12.943   3.484 -16.820  0.00  0.00     0.028 C 
ATOM     21  C   UNL d   1      12.353   2.109 -17.120  0.00  0.00     0.039 C 
ATOM     22  C   UNL d   1      10.993   1.949 -16.438  0.00  0.00     0.228 C 
ENDROOT
BRANCH  18  23
ATOM     23  C   UNL d   1      14.009   6.177 -17.750  0.00  0.00     0.127 C 
ATOM     24  N   UNL d   1      14.528   7.232 -18.222  0.00  0.00    -0.129 NA
BRANCH  24  25
ATOM     25  O   UNL d   1      15.920   7.197 -18.084  0.00  0.00    -0.232 OA
BRANCH  25  26
ATOM     26  C   UNL d   1      16.450   8.381 -18.660  0.00  0.00     0.203 C 
BRANCH  26  27
ATOM     27  C   UNL d   1      17.952   8.287 -18.828  0.00  0.00     0.010 A 
ATOM     28  C   UNL d   1      18.532   7.082 -19.285  0.00  0.00    -0.002 A 
ATOM     29  C   UNL d   1      19.924   6.995 -19.486  0.00  0.00    -0.000 A 
ATOM     30  C   UNL d   1      20.737   8.117 -19.242  0.00  0.00    -0.000 A 
ATOM     31  C   UNL d   1      20.161   9.324 -18.796  0.00  0.00    -0.000 A 
ATOM     32  C   UNL d   1      18.771   9.409 -18.589  0.00  0.00    -0.002 A 
ENDBRANCH  26  27
ENDBRANCH  25  26
ENDBRANCH  24  25
ENDBRANCH  18  23
TORSDOF 4
