REMARK  7 active torsions:
REMARK  status: ('A' for Active; 'I' for Inactive)
REMARK    1  A    between atoms: C_3  and  C_4 
REMARK    2  A    between atoms: N_15  and  C_16 
REMARK    3  A    between atoms: C_16  and  C_17 
REMARK    4  A    between atoms: C_17  and  C_18 
REMARK    5  A    between atoms: C_18  and  C_19 
REMARK    6  A    between atoms: C_19  and  N_20 
REMARK    7  A    between atoms: C_24  and  C_25 
ROOT
ATOM      1  C   UNL d   1      10.612   4.124 -16.024  0.00  0.00     0.114 C 
ENDROOT
BRANCH   1   2
ATOM      2  N   UNL d   1      10.182   3.950 -17.407  0.00  0.00    -0.249 N 
ATOM      3  C   UNL d   1       9.954   5.132 -18.152  0.00  0.00     0.265 A 
ATOM      4  O   UNL d   1      10.174   6.240 -17.670  0.00  0.00    -0.267 OA
ATOM      5  C   UNL d   1       9.467   4.938 -19.521  0.00  0.00     0.068 A 
ATOM      6  C   UNL d   1       9.237   3.678 -19.979  0.00  0.00     0.046 A 
ATOM      7  C   UNL d   1       8.716   3.376 -21.391  0.00  0.00     0.044 C 
ATOM      8  N   UNL d   1       9.472   2.539 -19.213  0.00  0.00    -0.285 N 
ATOM      9  C   UNL d   1       7.602   2.311 -21.393  0.00  0.00     0.008 C 
ATOM     10  C   UNL d   1       7.881   1.126 -20.453  0.00  0.00     0.025 C 
ATOM     11  C   UNL d   1       9.248   1.216 -19.759  0.00  0.00     0.110 C 
ATOM     12  C   UNL d   1       9.966   2.647 -17.891  0.00  0.00     0.333 A 
ATOM     13  O   UNL d   1      10.200   1.653 -17.196  0.00  0.00    -0.246 OA
BRANCH   5  14
ATOM     14  C   UNL d   1       9.210   6.122 -20.361  0.00  0.00     0.006 A 
ATOM     15  C   UNL d   1       7.903   6.625 -20.523  0.00  0.00     0.003 A 
ATOM     16  C   UNL d   1       7.676   7.749 -21.343  0.00  0.00     0.030 A 
ATOM     17  C   UNL d   1       8.760   8.387 -21.978  0.00  0.00     0.140 A 
ATOM     18  C   UNL d   1      10.069   7.897 -21.800  0.00  0.00     0.030 A 
ATOM     19  F   UNL d   1       8.536   9.462 -22.771  0.00  0.00    -0.204 F 
ATOM     20  C   UNL d   1      10.299   6.771 -20.986  0.00  0.00     0.003 A 
ENDBRANCH   5  14
ENDBRANCH   1   2
BRANCH   1  21
ATOM     21  C   UNL d   1       9.458   4.564 -15.093  0.00  0.00     0.027 C 
BRANCH  21  22
ATOM     22  C   UNL d   1       9.918   4.779 -13.657  0.00  0.00     0.037 C 
BRANCH  22  23
ATOM     23  C   UNL d   1       8.816   5.424 -12.797  0.00  0.00     0.250 C 
BRANCH  23  24
ATOM     24  N   UNL d   1       9.230   5.488 -11.416  0.00  0.00     0.137 N 
ATOM     25  C   UNL d   1       8.332   6.326 -10.630  0.00  0.00     0.255 C 
ATOM     26  C   UNL d   1       8.807   6.493  -9.134  0.00  0.00     0.057 C 
ATOM     27  C   UNL d   1       8.803   5.130  -8.456  0.00  0.00     0.009 C 
ATOM     28  C   UNL d   1       9.614   4.165  -9.296  0.00  0.00     0.036 C 
ATOM     29  C   UNL d   1       9.182   4.209 -10.788  0.00  0.00     0.250 C 
BRANCH  26  30
ATOM     30  C   UNL d   1      10.096   7.197  -8.984  0.00  0.00     0.000 A 
ATOM     31  C   UNL d   1      10.553   7.994  -7.892  0.00  0.00     0.018 A 
ATOM     32  C   UNL d   1      11.863   8.444  -8.222  0.00  0.00     0.081 A 
ATOM     33  C   UNL d   1      10.021   8.402  -6.638  0.00  0.00     0.031 A 
ATOM     34  N   UNL d   1      12.141   7.987  -9.470  0.00  0.00    -0.244 NA
ATOM     35  C   UNL d   1      12.634   9.181  -7.347  0.00  0.00     0.021 A 
ATOM     36  C   UNL d   1      11.107   7.218  -9.906  0.00  0.00     0.095 A 
ATOM     37  C   UNL d   1      12.099   9.596  -6.122  0.00  0.00     0.031 A 
ATOM     38  C   UNL d   1      10.790   9.229  -5.778  0.00  0.00     0.140 A 
ATOM     39  F   UNL d   1      10.289   9.721  -4.628  0.00  0.00    -0.204 F 
ENDBRANCH  26  30
ENDBRANCH  23  24
ENDBRANCH  22  23
ENDBRANCH  21  22
ENDBRANCH   1  21
TORSDOF 7
