REMARK  5 active torsions:
REMARK  status: ('A' for Active; 'I' for Inactive)
REMARK    1  A    between atoms: C_2  and  C_3 
REMARK    2  A    between atoms: C_3  and  C_4 
REMARK    3  A    between atoms: C_4  and  C_5 
REMARK    4  A    between atoms: C_5  and  P_7 
REMARK    5  A    between atoms: C_5  and  P_11 
ROOT
ATOM      1  C   UNL d   1       9.671   7.895  -8.176  0.00  0.00     0.328 C 
ATOM      2  O   UNL d   1       8.672   8.728  -7.636  0.00  0.00    -0.197 OA
ENDROOT
BRANCH   1   3
ATOM      3  C   UNL d   1      10.785   7.849  -7.101  0.00  0.00     0.061 C 
BRANCH   3   4
ATOM      4  C   UNL d   1      10.423   7.055  -5.823  0.00  0.00     0.045 C 
BRANCH   4   5
ATOM      5  C   UNL d   1      11.529   7.030  -4.764  0.00  0.00     0.339 C 
ATOM      6  N   UNL d   1      11.855   8.376  -4.328  0.00  0.00     0.618 N 
ENDBRANCH   4   5
ENDBRANCH   3   4
ENDBRANCH   1   3
BRANCH   1   7
ATOM      7  P   UNL d   1      10.340   8.572  -9.791  0.00  0.00     0.314 P 
ATOM      8  O   UNL d   1      11.069   9.845  -9.623  0.00  0.00    -0.637 OA
ATOM      9  O   UNL d   1      11.218   7.381 -10.431  0.00  0.00    -0.637 OA
ATOM     10  O   UNL d   1       9.104   8.677 -10.831  0.00  0.00    -0.637 OA
ENDBRANCH   1   7
BRANCH   1  11
ATOM     11  P   UNL d   1       9.059   6.176  -8.564  0.00  0.00     0.314 P 
ATOM     12  O   UNL d   1      10.114   5.148  -8.532  0.00  0.00    -0.637 OA
ATOM     13  O   UNL d   1       7.860   5.976  -7.473  0.00  0.00    -0.637 OA
ATOM     14  O   UNL d   1       8.263   6.306  -9.971  0.00  0.00    -0.637 OA
ENDBRANCH   1  11
TORSDOF 5
