REMARK  1 active torsions:
REMARK  status: ('A' for Active; 'I' for Inactive)
REMARK    1  A    between atoms: C_6  and  N_7 
ROOT
ATOM      1  O   UNL d   1      13.515   8.340 -10.745  0.00  0.00    -0.267 OA
ATOM      2  C   UNL d   1      12.673   8.020  -9.879  0.00  0.00     0.287 C 
ATOM      3  C   UNL d   1      13.092   8.174  -8.473  0.00  0.00     0.238 C 
ATOM      4  O   UNL d   1      12.042   8.319  -7.591  0.00  0.00    -0.318 OA
ATOM      5  C   UNL d   1      10.968   7.498  -7.742  0.00  0.00     0.125 A 
ATOM      6  C   UNL d   1      10.147   7.215  -6.658  0.00  0.00     0.061 A 
ATOM      7  C   UNL d   1       8.962   6.473  -6.863  0.00  0.00     0.015 A 
ATOM      8  C   UNL d   1       8.664   5.981  -8.154  0.00  0.00     0.030 A 
ATOM      9  C   UNL d   1       9.507   6.265  -9.243  0.00  0.00     0.151 A 
ATOM     10  O   UNL d   1       9.226   5.809 -10.501  0.00  0.00    -0.189 OA
ATOM     11  C   UNL d   1      10.639   7.059  -9.023  0.00  0.00     0.133 A 
ATOM     12  N   UNL d   1      11.466   7.496 -10.042  0.00  0.00    -0.205 NA
ENDROOT
BRANCH   6  13
ATOM     13  N   UNL d   1      10.556   7.709  -5.286  0.00  0.00    -0.249 NA
ATOM     14  C   UNL d   1      11.110   9.108  -5.255  0.00  0.00     0.102 C 
ATOM     15  C   UNL d   1      11.060   9.803  -3.926  0.00  0.00     0.138 C 
ATOM     16  N   UNL d   1      12.254   9.574  -3.142  0.00  0.00    -0.294 NA
ATOM     17  C   UNL d   1      12.774   8.216  -3.110  0.00  0.00     0.121 C 
ATOM     18  C   UNL d   1      11.732   7.120  -3.099  0.00  0.00     0.043 C 
ATOM     19  C   UNL d   1      11.399   6.728  -4.562  0.00  0.00     0.079 C 
ENDBRANCH   6  13
TORSDOF 1
