REMARK  7 active torsions:
REMARK  status: ('A' for Active; 'I' for Inactive)
REMARK    1  A    between atoms: C_6  and  C_7 
REMARK    2  A    between atoms: C_10  and  S_11 
REMARK    3  A    between atoms: S_11  and  C_12 
REMARK    4  A    between atoms: C_12  and  C_13 
REMARK    5  A    between atoms: C_13  and  C_14 
REMARK    6  A    between atoms: C_14  and  N_15 
REMARK    7  A    between atoms: C_19  and  C_20 
ROOT
ATOM      1  C   UNL d   1      14.904   5.622 -19.362  0.00  0.00     0.167 A 
ATOM      2  N   UNL d   1      14.450   5.117 -18.212  0.00  0.00    -0.128 NA
ATOM      3  N   UNL d   1      14.213   3.786 -18.459  0.00  0.00    -0.122 NA
ATOM      4  C   UNL d   1      14.519   3.595 -19.744  0.00  0.00     0.193 A 
ATOM      5  N   UNL d   1      14.972   4.707 -20.356  0.00  0.00    -0.289 N 
ATOM      6  C   UNL d   1      15.421   4.860 -21.733  0.00  0.00     0.134 C 
ENDROOT
BRANCH   4   7
ATOM      7  S   UNL d   1      14.356   2.060 -20.610  0.00  0.00    -0.075 SA
BRANCH   7   8
ATOM      8  C   UNL d   1      13.624   1.014 -19.313  0.00  0.00     0.067 C 
BRANCH   8   9
ATOM      9  C   UNL d   1      12.162   1.386 -18.999  0.00  0.00     0.047 C 
BRANCH   9  10
ATOM     10  C   UNL d   1      11.598   0.673 -17.757  0.00  0.00     0.251 C 
BRANCH  10  11
ATOM     11  N   UNL d   1      10.325   1.266 -17.352  0.00  0.00     0.137 N 
ATOM     12  C   UNL d   1       9.837   0.732 -16.075  0.00  0.00     0.254 C 
ATOM     13  C   UNL d   1       8.357   1.085 -16.085  0.00  0.00     0.052 A 
ATOM     14  C   UNL d   1       8.011   1.276 -17.529  0.00  0.00     0.039 A 
ATOM     15  C   UNL d   1       7.337   0.178 -16.749  0.00  0.00     0.008 A 
ATOM     16  C   UNL d   1       9.259   1.032 -18.328  0.00  0.00     0.251 C 
BRANCH  13  17
ATOM     17  C   UNL d   1       7.936   2.141 -15.080  0.00  0.00    -0.021 A 
ATOM     18  C   UNL d   1       6.703   2.020 -14.400  0.00  0.00    -0.004 A 
ATOM     19  C   UNL d   1       6.267   3.018 -13.510  0.00  0.00     0.006 A 
ATOM     20  C   UNL d   1       7.082   4.140 -13.254  0.00  0.00     0.035 A 
ATOM     21  C   UNL d   1       8.319   4.270 -13.912  0.00  0.00     0.006 A 
ATOM     22 BR   UNL d   1       6.489   5.492 -12.049  0.00  0.00    -0.049 Br
ATOM     23  C   UNL d   1       8.741   3.279 -14.827  0.00  0.00    -0.004 A 
ENDBRANCH  13  17
ENDBRANCH  10  11
ENDBRANCH   9  10
ENDBRANCH   8   9
ENDBRANCH   7   8
ENDBRANCH   4   7
BRANCH   1  24
ATOM     24  C   UNL d   1      15.299   7.018 -19.472  0.00  0.00     0.037 A 
ATOM     25  C   UNL d   1      16.646   7.404 -19.698  0.00  0.00     0.021 A 
ATOM     26  C   UNL d   1      17.681   6.447 -19.858  0.00  0.00     0.003 A 
ATOM     27  C   UNL d   1      16.994   8.781 -19.781  0.00  0.00     0.081 A 
ATOM     28  C   UNL d   1      18.992   6.881 -20.100  0.00  0.00     0.015 A 
ATOM     29  C   UNL d   1      19.234   8.265 -20.158  0.00  0.00     0.059 A 
ATOM     30  C   UNL d   1      20.627   8.794 -20.407  0.00  0.00     0.052 C 
ATOM     31  N   UNL d   1      18.264   9.191 -20.004  0.00  0.00    -0.250 NA
ATOM     32  C   UNL d   1      15.970   9.742 -19.633  0.00  0.00     0.019 A 
ATOM     33  C   UNL d   1      14.637   9.364 -19.394  0.00  0.00     0.002 A 
ATOM     34  C   UNL d   1      14.303   8.002 -19.313  0.00  0.00     0.003 A 
ENDBRANCH   1  24
TORSDOF 7
