REMARK  5 active torsions:
REMARK  status: ('A' for Active; 'I' for Inactive)
REMARK    1  A    between atoms: O_2  and  C_3 
REMARK    2  A    between atoms: C_6  and  N_7 
REMARK    3  A    between atoms: N_10  and  C_11 
REMARK    4  A    between atoms: C_11  and  C_12 
REMARK    5  A    between atoms: C_12  and  C_13 
ROOT
ATOM      1  N   UNL d   1       8.553   4.604 -12.679  0.00  0.00    -0.344 N 
ATOM      2  C   UNL d   1       8.259   6.009 -12.828  0.00  0.00     0.137 C 
ATOM      3  C   UNL d   1       8.297   6.724 -11.470  0.00  0.00     0.274 C 
ATOM      4  N   UNL d   1       9.546   6.458 -10.768  0.00  0.00     0.141 N 
ATOM      5  C   UNL d   1       9.621   5.022 -10.516  0.00  0.00     0.274 C 
ATOM      6  C   UNL d   1       9.709   4.271 -11.873  0.00  0.00     0.137 C 
ENDROOT
BRANCH   4   7
ATOM      7  C   UNL d   1       9.530   7.234  -9.525  0.00  0.00     0.255 C 
BRANCH   7   8
ATOM      8  C   UNL d   1      10.822   7.034  -8.708  0.00  0.00     0.063 C 
BRANCH   8   9
ATOM      9  C   UNL d   1      11.024   8.056  -7.642  0.00  0.00     0.002 A 
ATOM     10  C   UNL d   1      11.294   7.870  -6.238  0.00  0.00     0.034 A 
ATOM     11  C   UNL d   1      11.461   9.158  -5.647  0.00  0.00     0.162 A 
ATOM     12  C   UNL d   1      11.453   6.784  -5.362  0.00  0.00     0.004 A 
ATOM     13  N   UNL d   1      11.308  10.058  -6.670  0.00  0.00    -0.226 NA
ATOM     14  N   UNL d   1      11.727   9.444  -4.341  0.00  0.00    -0.225 NA
ATOM     15  C   UNL d   1      11.062   9.398  -7.863  0.00  0.00     0.097 A 
ATOM     16  C   UNL d   1      11.860   8.358  -3.550  0.00  0.00     0.101 A 
ATOM     17  C   UNL d   1      11.742   7.024  -4.002  0.00  0.00     0.021 A 
ENDBRANCH   8   9
ENDBRANCH   7   8
ENDBRANCH   4   7
BRANCH   1  18
ATOM     18  C   UNL d   1       7.689   3.641 -13.178  0.00  0.00     0.056 A 
ATOM     19  C   UNL d   1       8.217   2.672 -14.041  0.00  0.00     0.019 A 
ATOM     20  C   UNL d   1       7.384   1.659 -14.546  0.00  0.00     0.026 A 
ATOM     21  C   UNL d   1       6.018   1.574 -14.133  0.00  0.00     0.094 A 
ATOM     22  C   UNL d   1       5.503   2.546 -13.243  0.00  0.00     0.026 A 
ATOM     23  C   UNL d   1       6.338   3.594 -12.796  0.00  0.00     0.019 A 
BRANCH  21  24
ATOM     24  O   UNL d   1       5.172   0.564 -14.517  0.00  0.00    -0.328 OA
ATOM     25  C   UNL d   1       5.614  -0.338 -15.523  0.00  0.00     0.181 C 
ENDBRANCH  21  24
ENDBRANCH   1  18
TORSDOF 5
