REMARK  5 active torsions:
REMARK  status: ('A' for Active; 'I' for Inactive)
REMARK    1  A    between atoms: N_12  and  C_13 
REMARK    2  A    between atoms: C_13  and  C_14 
REMARK    3  A    between atoms: C_19  and  C_20 
REMARK    4  A    between atoms: C_20  and  N_21 
REMARK    5  A    between atoms: N_24  and  C_25 
ROOT
ATOM      1  C   UNL d   1      13.138   4.474 -19.400  0.00  0.00     0.025 C 
ATOM      2  C   UNL d   1      14.571   3.965 -19.153  0.00  0.00     0.002 C 
ATOM      3  C   UNL d   1      14.937   2.777 -20.072  0.00  0.00     0.000 C 
ATOM      4  C   UNL d   1      13.934   1.631 -19.944  0.00  0.00     0.000 C 
ATOM      5  C   UNL d   1      12.518   2.130 -20.248  0.00  0.00     0.002 C 
ATOM      6  C   UNL d   1      12.111   3.299 -19.307  0.00  0.00     0.035 C 
ENDROOT
BRANCH   6   7
ATOM      7  C   UNL d   1      11.903   2.822 -17.851  0.00  0.00     0.250 C 
BRANCH   7   8
ATOM      8  N   UNL d   1      10.921   1.736 -17.737  0.00  0.00     0.141 N 
ATOM      9  C   UNL d   1       9.568   2.262 -17.925  0.00  0.00     0.274 C 
ATOM     10  C   UNL d   1       8.548   1.122 -17.844  0.00  0.00     0.138 C 
ATOM     11  N   UNL d   1       8.678   0.433 -16.570  0.00  0.00    -0.329 N 
ATOM     12  C   UNL d   1      10.039   0.023 -16.234  0.00  0.00     0.138 C 
ATOM     13  C   UNL d   1      11.023   1.195 -16.386  0.00  0.00     0.274 C 
BRANCH  11  14
ATOM     14  C   UNL d   1       7.598   0.276 -15.699  0.00  0.00     0.148 A 
ATOM     15  C   UNL d   1       6.321  -0.250 -16.167  0.00  0.00     0.042 A 
ATOM     16  C   UNL d   1       5.417  -0.328 -15.056  0.00  0.00     0.050 A 
ATOM     17  C   UNL d   1       5.843  -0.714 -17.414  0.00  0.00     0.004 A 
ATOM     18  S   UNL d   1       6.258   0.236 -13.634  0.00  0.00     0.015 SA
ATOM     19  C   UNL d   1       4.106  -0.813 -15.200  0.00  0.00     0.008 A 
ATOM     20  N   UNL d   1       7.712   0.543 -14.427  0.00  0.00    -0.192 NA
ATOM     21  C   UNL d   1       3.666  -1.243 -16.460  0.00  0.00     0.001 A 
ATOM     22  C   UNL d   1       4.535  -1.206 -17.563  0.00  0.00     0.000 A 
ENDBRANCH  11  14
ENDBRANCH   7   8
ENDBRANCH   6   7
BRANCH   1  23
ATOM     23  C   UNL d   1      12.806   5.680 -18.482  0.00  0.00     0.112 C 
BRANCH  23  24
ATOM     24  N   UNL d   1      11.618   6.443 -18.935  0.00  0.00    -0.271 N 
ATOM     25  C   UNL d   1      11.696   7.486 -19.761  0.00  0.00     0.239 A 
ATOM     26  O   UNL d   1      12.719   7.960 -20.248  0.00  0.00    -0.272 OA
ATOM     27  C   UNL d   1      10.313   8.076 -20.035  0.00  0.00     0.088 A 
ATOM     28  C   UNL d   1       9.385   7.125 -19.256  0.00  0.00     0.088 A 
ATOM     29  C   UNL d   1       9.811   7.908 -21.489  0.00  0.00     0.009 C 
ATOM     30  C   UNL d   1       8.478   6.528 -20.367  0.00  0.00     0.009 C 
ATOM     31  C   UNL d   1      10.334   6.165 -18.604  0.00  0.00     0.239 A 
ATOM     32  C   UNL d   1       7.504   7.631 -20.819  0.00  0.00     0.001 C 
ATOM     33  C   UNL d   1       9.407   6.433 -21.577  0.00  0.00     0.001 C 
ATOM     34  C   UNL d   1       8.432   8.593 -21.592  0.00  0.00     0.001 C 
ATOM     35  O   UNL d   1       9.938   5.290 -17.843  0.00  0.00    -0.272 OA
ENDBRANCH  23  24
ENDBRANCH   1  23
TORSDOF 5
