REMARK  6 active torsions:
REMARK  status: ('A' for Active; 'I' for Inactive)
REMARK    1  A    between atoms: C_9  and  C_10 
REMARK       I    between atoms: C_10  and  N_12 
REMARK    2  A    between atoms: N_12  and  C_13 
REMARK    3  A    between atoms: C_13  and  C_14 
REMARK    4  A    between atoms: C_14  and  C_15 
REMARK    5  A    between atoms: C_15  and  N_16 
REMARK    6  A    between atoms: C_19  and  C_21 
ROOT
ATOM      1  C   UNL d   1       8.598   4.990 -13.408  0.00  0.00     0.131 C 
ENDROOT
BRANCH   1   2
ATOM      2  N   UNL d   1       8.050   3.658 -13.620  0.00  0.00    -0.234 NA
ATOM      3  C   UNL d   1       8.470   2.746 -14.489  0.00  0.00     0.282 C 
ATOM      4  O   UNL d   1       9.556   2.854 -15.082  0.00  0.00    -0.265 OA
BRANCH   3   5
ATOM      5  C   UNL d   1       7.477   1.691 -14.839  0.00  0.00     0.101 A 
ATOM      6  C   UNL d   1       6.263   1.292 -14.288  0.00  0.00     0.082 A 
ATOM      7  C   UNL d   1       5.621   0.242 -15.087  0.00  0.00     0.034 A 
ATOM      8  N   UNL d   1       5.586   1.813 -13.161  0.00  0.00    -0.100 NA
ATOM      9  C   UNL d   1       4.410  -0.474 -14.963  0.00  0.00    -0.018 A 
ATOM     10  C   UNL d   1       6.390  -0.076 -16.251  0.00  0.00     0.111 A 
ATOM     11  C   UNL d   1       4.060  -1.439 -15.938  0.00  0.00     0.011 A 
ATOM     12  C   UNL d   1       3.454  -0.242 -13.819  0.00  0.00     0.031 C 
ATOM     13  C   UNL d   1       4.914  -1.648 -17.038  0.00  0.00     0.060 A 
ATOM     14  C   UNL d   1       4.577  -2.707 -18.081  0.00  0.00     0.052 C 
ATOM     15  N   UNL d   1       6.060  -0.973 -17.240  0.00  0.00    -0.243 NA
ATOM     16  S   UNL d   1       7.890   0.822 -16.297  0.00  0.00    -0.062 SA
ENDBRANCH   3   5
ENDBRANCH   1   2
BRANCH   1  17
ATOM     17  C   UNL d   1       9.040   5.162 -11.956  0.00  0.00     0.062 C 
BRANCH  17  18
ATOM     18  C   UNL d   1       9.408   6.613 -11.618  0.00  0.00     0.252 C 
BRANCH  18  19
ATOM     19  N   UNL d   1       9.969   6.765 -10.277  0.00  0.00     0.137 N 
ATOM     20  C   UNL d   1      10.216   8.195 -10.046  0.00  0.00     0.253 C 
ATOM     21  C   UNL d   1      10.834   8.450  -8.647  0.00  0.00     0.070 C 
ATOM     22  C   UNL d   1       9.970   7.857  -7.514  0.00  0.00     0.149 C 
ATOM     23  C   UNL d   1       9.634   6.401  -7.885  0.00  0.00     0.070 C 
ATOM     24  O   UNL d   1       8.762   8.598  -7.497  0.00  0.00    -0.221 OA
ATOM     25  C   UNL d   1       9.060   6.234  -9.267  0.00  0.00     0.253 C 
BRANCH  22  26
ATOM     26  C   UNL d   1      10.696   7.978  -6.152  0.00  0.00     0.005 A 
ATOM     27  C   UNL d   1      10.904   9.254  -5.574  0.00  0.00    -0.001 A 
ATOM     28  C   UNL d   1      11.498   9.378  -4.300  0.00  0.00     0.011 A 
ATOM     29  C   UNL d   1      11.915   8.238  -3.586  0.00  0.00     0.058 A 
ATOM     30  C   UNL d   1      11.722   6.966  -4.158  0.00  0.00     0.011 A 
ATOM     31 CL   UNL d   1      12.610   8.411  -2.011  0.00  0.00    -0.082 Cl
ATOM     32  C   UNL d   1      11.123   6.838  -5.421  0.00  0.00    -0.001 A 
ENDBRANCH  22  26
ENDBRANCH  18  19
ENDBRANCH  17  18
ENDBRANCH   1  17
TORSDOF 6
