REMARK  8 active torsions:
REMARK  status: ('A' for Active; 'I' for Inactive)
REMARK    1  A    between atoms: O_2  and  C_3 
REMARK    2  A    between atoms: C_8  and  N_9 
REMARK    3  A    between atoms: N_12  and  C_13 
REMARK    4  A    between atoms: C_13  and  C_14 
REMARK    5  A    between atoms: C_14  and  C_15 
REMARK    6  A    between atoms: C_15  and  C_16 
REMARK    7  A    between atoms: N_18  and  C_19 
REMARK    8  A    between atoms: C_22  and  N_23 
ROOT
ATOM      1  C   UNL d   1       9.269   7.151 -12.729  0.00  0.00     0.042 C 
ENDROOT
BRANCH   1   2
ATOM      2  C   UNL d   1       9.085   5.730 -12.175  0.00  0.00     0.251 C 
BRANCH   2   3
ATOM      3  N   UNL d   1       9.453   4.743 -13.177  0.00  0.00     0.141 N 
ATOM      4  C   UNL d   1       8.737   4.905 -14.463  0.00  0.00     0.274 C 
ATOM      5  C   UNL d   1       9.193   3.866 -15.487  0.00  0.00     0.137 C 
ATOM      6  N   UNL d   1       8.896   2.560 -14.965  0.00  0.00    -0.343 N 
ATOM      7  C   UNL d   1       9.423   2.298 -13.645  0.00  0.00     0.137 C 
ATOM      8  C   UNL d   1       9.056   3.434 -12.666  0.00  0.00     0.274 C 
BRANCH   6   9
ATOM      9  C   UNL d   1       8.144   1.637 -15.707  0.00  0.00     0.079 A 
ATOM     10  C   UNL d   1       7.009   0.974 -15.162  0.00  0.00     0.110 A 
ATOM     11  C   UNL d   1       6.303   0.056 -15.982  0.00  0.00     0.026 A 
ATOM     12  C   UNL d   1       6.709  -0.183 -17.303  0.00  0.00     0.002 A 
ATOM     13  C   UNL d   1       7.819   0.482 -17.836  0.00  0.00     0.002 A 
ATOM     14  C   UNL d   1       8.533   1.392 -17.046  0.00  0.00     0.019 A 
BRANCH  10  15
ATOM     15  O   UNL d   1       6.628   1.283 -13.876  0.00  0.00    -0.327 OA
ATOM     16  C   UNL d   1       5.551   0.562 -13.292  0.00  0.00     0.181 C 
ENDBRANCH  10  15
ENDBRANCH   6   9
ENDBRANCH   2   3
ENDBRANCH   1   2
BRANCH   1  17
ATOM     17  C   UNL d   1       8.928   8.304 -11.783  0.00  0.00     0.051 C 
BRANCH  17  18
ATOM     18  C   UNL d   1       9.828   8.366 -10.543  0.00  0.00     0.101 A 
ATOM     19  N   UNL d   1      11.161   8.793 -10.588  0.00  0.00    -0.133 NA
ATOM     20  N   UNL d   1      11.739   8.716  -9.437  0.00  0.00    -0.060 NA
ATOM     21  N   UNL d   1      10.804   8.271  -8.591  0.00  0.00    -0.209 N 
ATOM     22  C   UNL d   1       9.590   8.052  -9.232  0.00  0.00     0.119 A 
BRANCH  21  23
ATOM     23  C   UNL d   1      11.117   8.141  -7.237  0.00  0.00     0.085 A 
ATOM     24  C   UNL d   1      11.718   9.215  -6.549  0.00  0.00     0.021 A 
ATOM     25  C   UNL d   1      12.040   9.092  -5.183  0.00  0.00     0.018 A 
ATOM     26  C   UNL d   1      11.792   7.876  -4.494  0.00  0.00     0.056 A 
ATOM     27  C   UNL d   1      11.193   6.809  -5.210  0.00  0.00     0.018 A 
ATOM     28  C   UNL d   1      10.853   6.935  -6.568  0.00  0.00     0.021 A 
BRANCH  26  29
ATOM     29  N   UNL d   1      12.142   7.726  -3.135  0.00  0.00    -0.344 N 
ATOM     30  C   UNL d   1      12.144   6.407  -2.518  0.00  0.00     0.126 C 
ATOM     31  C   UNL d   1      12.455   8.899  -2.333  0.00  0.00     0.126 C 
ENDBRANCH  26  29
ENDBRANCH  21  23
ENDBRANCH  17  18
ENDBRANCH   1  17
TORSDOF 8
