REMARK  5 active torsions:
REMARK  status: ('A' for Active; 'I' for Inactive)
REMARK    1  A    between atoms: C_2  and  C_5 
REMARK    2  A    between atoms: C_8  and  S_9 
REMARK    3  A    between atoms: S_9  and  C_10 
REMARK    4  A    between atoms: C_10  and  C_11 
REMARK    5  A    between atoms: C_11  and  C_12 
ROOT
ATOM      1  C   UNL d   1      11.716   7.651  -3.896  0.00  0.00    -0.023 A 
ATOM      2  C   UNL d   1      12.067   8.972  -4.297  0.00  0.00    -0.004 A 
ATOM      3  C   UNL d   1      11.843   9.420  -5.610  0.00  0.00     0.006 A 
ATOM      4  C   UNL d   1      11.266   8.558  -6.566  0.00  0.00     0.025 A 
ATOM      5  C   UNL d   1      10.908   7.246  -6.190  0.00  0.00     0.006 A 
ATOM      6  C   UNL d   1      11.169   6.798  -4.887  0.00  0.00    -0.004 A 
ENDROOT
BRANCH   4   7
ATOM      7  S   UNL d   1      11.054   9.128  -8.215  0.00  0.00    -0.113 SA
BRANCH   7   8
ATOM      8  C   UNL d   1      10.921   7.688  -9.303  0.00  0.00     0.069 C 
BRANCH   8   9
ATOM      9  C   UNL d   1       9.475   7.496  -9.750  0.00  0.00     0.059 C 
BRANCH   9  10
ATOM     10  C   UNL d   1       9.344   6.484 -10.837  0.00  0.00     0.081 A 
ATOM     11  C   UNL d   1       9.136   6.654 -12.187  0.00  0.00     0.116 A 
ATOM     12  N   UNL d   1       9.144   5.409 -12.825  0.00  0.00    -0.221 NA
ATOM     13  C   UNL d   1       9.321   4.543 -11.837  0.00  0.00     0.199 A 
ATOM     14  N   UNL d   1       9.447   5.125 -10.638  0.00  0.00    -0.227 NA
ENDBRANCH   9  10
ENDBRANCH   8   9
ENDBRANCH   7   8
ENDBRANCH   4   7
BRANCH   1  15
ATOM     15  C   UNL d   1      11.913   7.131  -2.450  0.00  0.00     0.019 C 
ATOM     16  C   UNL d   1      10.630   6.511  -1.842  0.00  0.00     0.004 C 
ATOM     17  C   UNL d   1      12.419   8.285  -1.569  0.00  0.00     0.004 C 
ATOM     18  C   UNL d   1      12.966   6.023  -2.439  0.00  0.00     0.004 C 
ENDBRANCH   1  15
TORSDOF 5
