REMARK  7 active torsions:
REMARK  status: ('A' for Active; 'I' for Inactive)
REMARK    1  A    between atoms: O_2  and  C_3 
REMARK    2  A    between atoms: C_8  and  N_9 
REMARK    3  A    between atoms: N_12  and  C_13 
REMARK    4  A    between atoms: C_13  and  C_14 
REMARK    5  A    between atoms: C_14  and  N_15 
REMARK       I    between atoms: N_15  and  C_16 
REMARK    6  A    between atoms: C_16  and  C_18 
REMARK    7  A    between atoms: C_22  and  O_23 
ROOT
ATOM      1  N   UNL d   1       7.785   6.389 -11.637  0.00  0.00    -0.232 NA
ATOM      2  C   UNL d   1       7.113   5.532 -12.431  0.00  0.00     0.282 C 
ATOM      3  O   UNL d   1       5.897   5.529 -12.441  0.00  0.00    -0.265 OA
ENDROOT
BRANCH   1   4
ATOM      4  C   UNL d   1       9.208   6.456 -11.398  0.00  0.00     0.164 C 
BRANCH   4   5
ATOM      5  C   UNL d   1       9.686   7.661 -10.615  0.00  0.00     0.277 C 
BRANCH   5   6
ATOM      6  N   UNL d   1      10.562   7.182  -9.568  0.00  0.00     0.143 N 
ATOM      7  C   UNL d   1       9.707   6.635  -8.509  0.00  0.00     0.274 C 
ATOM      8  C   UNL d   1      10.579   6.149  -7.346  0.00  0.00     0.137 C 
ATOM      9  N   UNL d   1      11.444   7.224  -6.906  0.00  0.00    -0.343 N 
ATOM     10  C   UNL d   1      12.224   7.896  -7.935  0.00  0.00     0.137 C 
ATOM     11  C   UNL d   1      11.310   8.333  -9.085  0.00  0.00     0.274 C 
BRANCH   9  12
ATOM     12  C   UNL d   1      11.448   7.646  -5.559  0.00  0.00     0.079 A 
ATOM     13  C   UNL d   1      11.350   9.009  -5.233  0.00  0.00     0.110 A 
ATOM     14  C   UNL d   1      11.463   9.410  -3.877  0.00  0.00     0.026 A 
ATOM     15  C   UNL d   1      11.682   8.456  -2.862  0.00  0.00     0.002 A 
ATOM     16  C   UNL d   1      11.777   7.093  -3.192  0.00  0.00     0.002 A 
ATOM     17  C   UNL d   1      11.658   6.702  -4.538  0.00  0.00     0.019 A 
BRANCH  13  18
ATOM     18  O   UNL d   1      11.067   9.896  -6.246  0.00  0.00    -0.327 OA
ATOM     19  C   UNL d   1      11.749  11.123  -6.184  0.00  0.00     0.181 C 
ENDBRANCH  13  18
ENDBRANCH   9  12
ENDBRANCH   5   6
ENDBRANCH   4   5
ENDBRANCH   1   4
BRANCH   2  20
ATOM     20  C   UNL d   1       7.835   4.558 -13.332  0.00  0.00     0.101 C 
ATOM     21  C   UNL d   1       7.456   3.325 -13.812  0.00  0.00     0.082 C 
ATOM     22  C   UNL d   1       8.518   2.717 -14.618  0.00  0.00     0.035 A 
ATOM     23  N   UNL d   1       6.204   2.696 -13.596  0.00  0.00    -0.100 NA
ATOM     24  C   UNL d   1       9.618   3.584 -14.732  0.00  0.00     0.114 A 
ATOM     25  C   UNL d   1       8.664   1.484 -15.335  0.00  0.00    -0.005 A 
ATOM     26  S   UNL d   1       9.266   5.149 -14.093  0.00  0.00    -0.062 SA
ATOM     27  N   UNL d   1      10.805   3.362 -15.367  0.00  0.00    -0.215 NA
ATOM     28  C   UNL d   1      10.907   2.180 -16.031  0.00  0.00     0.189 A 
ATOM     29  C   UNL d   1       9.872   1.235 -16.038  0.00  0.00     0.095 A 
ATOM     30 CL   UNL d   1      10.119  -0.227 -16.958  0.00  0.00    -0.079 Cl
ATOM     31  C   UNL d   1       7.499   0.521 -15.335  0.00  0.00     0.032 C 
BRANCH  28  32
ATOM     32  O   UNL d   1      12.073   1.965 -16.743  0.00  0.00    -0.311 OA
ATOM     33  C   UNL d   1      12.943   3.073 -17.005  0.00  0.00     0.183 C 
ENDBRANCH  28  32
ENDBRANCH   2  20
TORSDOF 7
