REMARK  0 active torsions:
REMARK  status: ('A' for Active; 'I' for Inactive)
REMARK       I    between atoms: N_2  and  C_4 
REMARK       I    between atoms: C_4  and  N_6 
REMARK       I    between atoms: N_6  and  C_7 
ROOT
ATOM      1  C   UNL d   1      10.683   9.276  -5.203  0.00  0.00     0.144 C 
ATOM      2  N   UNL d   1      10.243   8.525  -6.372  0.00  0.00    -0.177 N 
ATOM      3  C   UNL d   1       9.093   7.655  -6.187  0.00  0.00     0.144 C 
ATOM      4  C   UNL d   1      11.001   8.495  -7.529  0.00  0.00     0.761 C 
ATOM      5  N   UNL d   1      12.255   8.770  -7.506  0.00  0.00     0.061 N 
ATOM      6  N   UNL d   1      10.307   8.140  -8.676  0.00  0.00     0.136 NA
ATOM      7  C   UNL d   1      10.645   8.096 -10.005  0.00  0.00     0.802 C 
ATOM      8  N   UNL d   1       9.908   7.462 -10.839  0.00  0.00     0.064 N 
ATOM      9  N   UNL d   1      11.768   8.762 -10.429  0.00  0.00     0.064 N 
ENDROOT
TORSDOF 0
