REMARK  0 active torsions:
REMARK  status: ('A' for Active; 'I' for Inactive)
ROOT
ATOM      1  C   UNL d   1       7.289   5.972 -11.796  0.00  0.00     0.286 C 
ATOM      2  N   UNL d   1       6.897   4.928 -12.743  0.00  0.00     0.142 N 
ATOM      3  C   UNL d   1       6.076   3.976 -12.006  0.00  0.00     0.255 C 
ATOM      4  C   UNL d   1       5.433   3.018 -13.009  0.00  0.00     0.061 C 
ATOM      5  C   UNL d   1       6.418   2.299 -13.916  0.00  0.00    -0.022 A 
ATOM      6  C   UNL d   1       6.260   1.054 -14.552  0.00  0.00    -0.004 A 
ATOM      7  C   UNL d   1       7.314   0.509 -15.322  0.00  0.00     0.005 A 
ATOM      8  C   UNL d   1       8.561   1.169 -15.507  0.00  0.00     0.063 A 
ATOM      9  C   UNL d   1       9.661   0.516 -16.278  0.00  0.00     0.300 C 
ATOM     10  O   UNL d   1       9.544  -0.566 -16.849  0.00  0.00    -0.259 OA
ATOM     11  O   UNL d   1      10.838   1.180 -16.297  0.00  0.00    -0.273 OA
ATOM     12  C   UNL d   1      10.978   2.461 -15.827  0.00  0.00     0.103 A 
ATOM     13  C   UNL d   1      12.186   3.148 -16.071  0.00  0.00     0.025 A 
ATOM     14  C   UNL d   1      12.374   4.486 -15.690  0.00  0.00     0.002 A 
ATOM     15  C   UNL d   1      11.321   5.190 -15.083  0.00  0.00    -0.004 A 
ATOM     16  C   UNL d   1      10.107   4.537 -14.799  0.00  0.00    -0.018 A 
ATOM     17  C   UNL d   1       9.960   3.180 -15.156  0.00  0.00     0.019 A 
ATOM     18  C   UNL d   1       8.699   2.442 -14.896  0.00  0.00     0.004 A 
ATOM     19  C   UNL d   1       7.648   2.953 -14.096  0.00  0.00     0.005 A 
ATOM     20  C   UNL d   1       8.050   4.217 -13.323  0.00  0.00     0.246 C 
ATOM     21  C   UNL d   1       8.880   5.175 -14.188  0.00  0.00     0.064 C 
ENDROOT
TORSDOF 0
