REMARK  12 active torsions:
REMARK  status: ('A' for Active; 'I' for Inactive)
REMARK    1  A    between atoms: O_2  and  C_3 
REMARK    2  A    between atoms: C_8  and  N_9 
REMARK    3  A    between atoms: N_12  and  C_13 
REMARK    4  A    between atoms: C_13  and  C_14 
REMARK    5  A    between atoms: N_16  and  C_17 
REMARK    6  A    between atoms: C_20  and  O_21 
REMARK    7  A    between atoms: O_21  and  C_22 
REMARK    8  A    between atoms: C_22  and  C_23 
REMARK    9  A    between atoms: C_23  and  C_24 
REMARK   10  A    between atoms: C_24  and  O_25 
REMARK   11  A    between atoms: O_25  and  C_26 
REMARK   12  A    between atoms: C_26  and  C_27 
ROOT
ATOM      1  C   UNL d   1       4.998  -0.964 -15.391  0.00  0.00     0.135 A 
ATOM      2  C   UNL d   1       5.973  -0.011 -15.461  0.00  0.00     0.121 A 
ATOM      3  N   UNL d   1       5.752   0.774 -14.339  0.00  0.00    -0.209 N 
ATOM      4  N   UNL d   1       4.695   0.301 -13.635  0.00  0.00    -0.060 NA
ATOM      5  N   UNL d   1       4.223  -0.730 -14.252  0.00  0.00    -0.131 NA
ENDROOT
BRANCH   1   6
ATOM      6  C   UNL d   1       4.689  -2.070 -16.361  0.00  0.00     0.299 C 
BRANCH   6   7
ATOM      7  N   UNL d   1       4.892  -1.902 -17.802  0.00  0.00     0.147 N 
ATOM      8  C   UNL d   1       6.317  -1.798 -18.156  0.00  0.00     0.275 C 
ATOM      9  C   UNL d   1       6.488  -1.692 -19.686  0.00  0.00     0.137 C 
ATOM     10  N   UNL d   1       5.716  -0.556 -20.163  0.00  0.00    -0.343 N 
ATOM     11  C   UNL d   1       4.297  -0.577 -19.829  0.00  0.00     0.137 C 
ATOM     12  C   UNL d   1       4.124  -0.756 -18.304  0.00  0.00     0.275 C 
BRANCH  10  13
ATOM     13  C   UNL d   1       6.283   0.542 -20.848  0.00  0.00     0.079 A 
ATOM     14  C   UNL d   1       7.452   1.201 -20.380  0.00  0.00     0.110 A 
ATOM     15  C   UNL d   1       8.024   2.240 -21.167  0.00  0.00     0.026 A 
ATOM     16  C   UNL d   1       7.428   2.643 -22.375  0.00  0.00     0.002 A 
ATOM     17  C   UNL d   1       6.250   2.010 -22.814  0.00  0.00     0.002 A 
ATOM     18  C   UNL d   1       5.684   0.969 -22.047  0.00  0.00     0.019 A 
BRANCH  14  19
ATOM     19  O   UNL d   1       7.971   0.816 -19.160  0.00  0.00    -0.327 OA
ATOM     20  C   UNL d   1       9.194   1.390 -18.716  0.00  0.00     0.181 C 
ENDBRANCH  14  19
ENDBRANCH  10  13
ENDBRANCH   6   7
ENDBRANCH   1   6
BRANCH   3  21
ATOM     21  C   UNL d   1       6.432   1.966 -14.018  0.00  0.00     0.085 A 
ATOM     22  C   UNL d   1       5.783   2.899 -13.155  0.00  0.00     0.021 A 
ATOM     23  C   UNL d   1       6.437   4.090 -12.781  0.00  0.00     0.026 A 
ATOM     24  C   UNL d   1       7.738   4.345 -13.247  0.00  0.00     0.094 A 
ATOM     25  C   UNL d   1       8.354   3.436 -14.145  0.00  0.00     0.026 A 
ATOM     26  C   UNL d   1       7.718   2.251 -14.529  0.00  0.00     0.021 A 
BRANCH  24  27
ATOM     27  O   UNL d   1       8.432   5.469 -12.893  0.00  0.00    -0.331 OA
BRANCH  27  28
ATOM     28  C   UNL d   1       8.143   6.124 -11.680  0.00  0.00     0.151 C 
BRANCH  28  29
ATOM     29  C   UNL d   1       9.022   5.492 -10.589  0.00  0.00     0.065 C 
BRANCH  29  30
ATOM     30  C   UNL d   1       8.974   6.283  -9.287  0.00  0.00     0.145 C 
BRANCH  30  31
ATOM     31  O   UNL d   1       9.901   5.746  -8.361  0.00  0.00    -0.351 OA
BRANCH  31  32
ATOM     32  C   UNL d   1      10.519   6.717  -7.531  0.00  0.00     0.180 C 
BRANCH  32  33
ATOM     33  C   UNL d   1       9.523   7.561  -6.715  0.00  0.00     0.225 C 
ATOM     34  F   UNL d   1      10.205   8.481  -6.033  0.00  0.00    -0.232 F 
ENDBRANCH  32  33
ENDBRANCH  31  32
ENDBRANCH  30  31
ENDBRANCH  29  30
ENDBRANCH  28  29
ENDBRANCH  27  28
ENDBRANCH  24  27
ENDBRANCH   3  21
TORSDOF 12
