REMARK  10 active torsions:
REMARK  status: ('A' for Active; 'I' for Inactive)
REMARK    1  A    between atoms: C_3  and  C_4 
REMARK       I    between atoms: C_4  and  N_6 
REMARK    2  A    between atoms: N_6  and  C_7 
REMARK    3  A    between atoms: C_7  and  C_8 
REMARK    4  A    between atoms: C_8  and  C_9 
REMARK    5  A    between atoms: C_9  and  C_10 
REMARK    6  A    between atoms: C_10  and  C_11 
REMARK    7  A    between atoms: C_11  and  N_12 
REMARK    8  A    between atoms: N_15  and  C_16 
REMARK    9  A    between atoms: N_28  and  C_29 
REMARK   10  A    between atoms: C_29  and  C_30 
ROOT
ATOM      1  C   UNL d   1       6.380   5.205 -12.490  0.00  0.00     0.026 C 
ENDROOT
BRANCH   1   2
ATOM      2  C   UNL d   1       7.697   6.014 -12.634  0.00  0.00     0.129 C 
BRANCH   2   3
ATOM      3  N   UNL d   1       8.237   6.376 -11.339  0.00  0.00    -0.233 NA
ATOM      4  C   UNL d   1       9.107   5.685 -10.619  0.00  0.00     0.296 C 
ATOM      5  O   UNL d   1       9.542   4.554 -10.927  0.00  0.00    -0.264 OA
BRANCH   4   6
ATOM      6  C   UNL d   1       9.453   6.366  -9.356  0.00  0.00     0.175 C 
ATOM      7  C   UNL d   1       9.861   7.671  -9.173  0.00  0.00     0.082 C 
ATOM      8  C   UNL d   1      10.108   8.770 -10.159  0.00  0.00     0.054 C 
ATOM      9  N   UNL d   1       9.956   7.781  -7.785  0.00  0.00    -0.231 N 
ATOM     10  N   UNL d   1       9.444   6.673  -7.227  0.00  0.00    -0.064 NA
ATOM     11  N   UNL d   1       9.284   5.786  -8.077  0.00  0.00    -0.124 NA
BRANCH   9  12
ATOM     12  C   UNL d   1      10.457   8.891  -6.992  0.00  0.00     0.155 C 
BRANCH  12  13
ATOM     13  C   UNL d   1      11.103   8.505  -5.653  0.00  0.00     0.002 A 
ATOM     14  C   UNL d   1      11.431   7.150  -5.342  0.00  0.00    -0.002 A 
ATOM     15  C   UNL d   1      11.901   6.831  -4.050  0.00  0.00    -0.000 A 
ATOM     16  C   UNL d   1      12.181   7.837  -3.091  0.00  0.00    -0.000 A 
ATOM     17  C   UNL d   1      11.933   9.191  -3.432  0.00  0.00    -0.000 A 
ATOM     18  C   UNL d   1      11.376   9.529  -4.693  0.00  0.00    -0.002 A 
ENDBRANCH  12  13
ENDBRANCH   9  12
ENDBRANCH   4   6
ENDBRANCH   2   3
ENDBRANCH   1   2
BRANCH   1  19
ATOM     19  C   UNL d   1       6.482   3.683 -12.692  0.00  0.00     0.004 C 
BRANCH  19  20
ATOM     20  C   UNL d   1       7.574   3.262 -13.686  0.00  0.00     0.035 C 
BRANCH  20  21
ATOM     21  C   UNL d   1       7.356   1.891 -14.356  0.00  0.00     0.250 C 
BRANCH  21  22
ATOM     22  N   UNL d   1       7.442   2.003 -15.817  0.00  0.00     0.141 N 
ATOM     23  C   UNL d   1       8.789   2.394 -16.242  0.00  0.00     0.274 C 
ATOM     24  C   UNL d   1       8.857   2.505 -17.780  0.00  0.00     0.137 C 
ATOM     25  N   UNL d   1       8.439   1.256 -18.393  0.00  0.00    -0.344 N 
ATOM     26  C   UNL d   1       7.163   0.719 -17.929  0.00  0.00     0.137 C 
ATOM     27  C   UNL d   1       7.140   0.671 -16.387  0.00  0.00     0.274 C 
BRANCH  25  28
ATOM     28  C   UNL d   1       9.259   0.553 -19.297  0.00  0.00     0.068 A 
ATOM     29  C   UNL d   1      10.619   0.251 -19.014  0.00  0.00     0.084 A 
ATOM     30  C   UNL d   1      11.414  -0.407 -19.983  0.00  0.00     0.070 A 
ATOM     31 CL   UNL d   1      11.362   0.603 -17.489  0.00  0.00    -0.080 Cl
ATOM     32  C   UNL d   1      10.858  -0.774 -21.223  0.00  0.00     0.012 A 
ATOM     33 CL   UNL d   1      13.066  -0.786 -19.652  0.00  0.00    -0.081 Cl
ATOM     34  C   UNL d   1       9.506  -0.505 -21.498  0.00  0.00     0.002 A 
ATOM     35  C   UNL d   1       8.711   0.153 -20.535  0.00  0.00     0.018 A 
ENDBRANCH  25  28
ENDBRANCH  21  22
ENDBRANCH  20  21
ENDBRANCH  19  20
ENDBRANCH   1  19
TORSDOF 10
