REMARK  2 active torsions:
REMARK  status: ('A' for Active; 'I' for Inactive)
REMARK    1  A    between atoms: O_2  and  C_3 
REMARK    2  A    between atoms: C_12  and  O_13 
ROOT
ATOM      1  C   UNL d   1       5.223  -0.274 -15.096  0.00  0.00     0.116 A 
ATOM      2  C   UNL d   1       5.836   0.639 -14.201  0.00  0.00     0.026 A 
ATOM      3  C   UNL d   1       7.076   1.229 -14.510  0.00  0.00     0.002 A 
ATOM      4  C   UNL d   1       7.727   0.900 -15.712  0.00  0.00     0.005 A 
ATOM      5  C   UNL d   1       8.977   1.467 -16.031  0.00  0.00     0.017 A 
ATOM      6  C   UNL d   1       9.626   1.135 -17.246  0.00  0.00     0.060 A 
ATOM      7  N   UNL d   1       9.022   0.240 -18.091  0.00  0.00    -0.326 N 
ATOM      8  C   UNL d   1       7.813  -0.315 -17.809  0.00  0.00     0.078 A 
ATOM      9  C   UNL d   1       7.127  -0.001 -16.618  0.00  0.00     0.042 A 
ATOM     10  C   UNL d   1       5.864  -0.570 -16.326  0.00  0.00     0.118 A 
ATOM     11  C   UNL d   1       9.673  -0.125 -19.374  0.00  0.00     0.111 C 
ATOM     12  C   UNL d   1      11.197  -0.221 -19.221  0.00  0.00     0.051 C 
ATOM     13  C   UNL d   1      11.740   1.048 -18.604  0.00  0.00    -0.017 A 
ATOM     14  C   UNL d   1      13.002   1.552 -19.001  0.00  0.00     0.022 A 
ATOM     15  C   UNL d   1      13.445   2.741 -18.406  0.00  0.00     0.119 A 
ATOM     16  C   UNL d   1      12.687   3.398 -17.462  0.00  0.00     0.119 A 
ATOM     17  C   UNL d   1      11.432   2.914 -17.055  0.00  0.00     0.027 A 
ATOM     18  C   UNL d   1      10.941   1.712 -17.632  0.00  0.00     0.014 A 
ATOM     19  O   UNL d   1      13.348   4.505 -17.038  0.00  0.00    -0.300 OA
ATOM     20  C   UNL d   1      14.558   4.526 -17.752  0.00  0.00     0.304 A 
ATOM     21  O   UNL d   1      14.608   3.413 -18.607  0.00  0.00    -0.300 OA
ENDROOT
BRANCH   1  22
ATOM     22  O   UNL d   1       4.037  -0.918 -14.821  0.00  0.00    -0.326 OA
ATOM     23  C   UNL d   1       3.191  -0.381 -13.819  0.00  0.00     0.181 C 
ENDBRANCH   1  22
BRANCH  10  24
ATOM     24  O   UNL d   1       5.301  -1.441 -17.231  0.00  0.00    -0.326 OA
ATOM     25  C   UNL d   1       4.093  -0.992 -17.832  0.00  0.00     0.181 C 
ENDBRANCH  10  24
TORSDOF 2
