REMARK  5 active torsions:
REMARK  status: ('A' for Active; 'I' for Inactive)
REMARK    1  A    between atoms: C_2  and  C_3 
REMARK    2  A    between atoms: C_2  and  C_21 
REMARK    3  A    between atoms: C_3  and  C_4 
REMARK    4  A    between atoms: C_4  and  C_5 
REMARK       I    between atoms: C_5  and  N_7 
REMARK    5  A    between atoms: C_10  and  C_12 
ROOT
ATOM      1  C   UNL d   1       6.999   2.756 -14.024  0.00  0.00     0.234 C 
ATOM      2  O   UNL d   1       5.971   2.126 -13.723  0.00  0.00    -0.272 OA
ATOM      3  N   UNL d   1       7.213   4.009 -13.632  0.00  0.00    -0.320 N 
ATOM      4  C   UNL d   1       6.273   4.746 -12.740  0.00  0.00     0.107 C 
ATOM      5  C   UNL d   1       7.000   5.239 -11.482  0.00  0.00     0.059 C 
ATOM      6  C   UNL d   1       8.304   6.029 -11.778  0.00  0.00     0.149 C 
ATOM      7  O   UNL d   1       7.885   7.221 -12.435  0.00  0.00    -0.221 OA
ATOM      8  C   UNL d   1       9.178   5.236 -12.757  0.00  0.00     0.059 C 
ATOM      9  C   UNL d   1       8.389   4.832 -14.017  0.00  0.00     0.107 C 
ENDROOT
BRANCH   1  10
ATOM     10  C   UNL d   1       8.024   2.009 -14.904  0.00  0.00     0.096 C 
BRANCH  10  11
ATOM     11  C   UNL d   1       9.384   1.761 -14.195  0.00  0.00     0.079 C 
BRANCH  11  12
ATOM     12  C   UNL d   1      10.613   2.196 -15.011  0.00  0.00     0.173 C 
ATOM     13  O   UNL d   1      11.293   3.144 -14.611  0.00  0.00    -0.291 OA
BRANCH  12  14
ATOM     14  C   UNL d   1      10.917   1.446 -16.261  0.00  0.00     0.035 A 
ATOM     15  C   UNL d   1      11.925   1.914 -17.146  0.00  0.00     0.005 A 
ATOM     16  C   UNL d   1      12.251   1.175 -18.299  0.00  0.00     0.030 A 
ATOM     17  C   UNL d   1      11.580  -0.029 -18.581  0.00  0.00     0.140 A 
ATOM     18  C   UNL d   1      10.576  -0.493 -17.714  0.00  0.00     0.030 A 
ATOM     19  F   UNL d   1      11.907  -0.754 -19.674  0.00  0.00    -0.204 F 
ATOM     20  C   UNL d   1      10.253   0.237 -16.559  0.00  0.00     0.005 A 
ENDBRANCH  12  14
ENDBRANCH  11  12
ENDBRANCH  10  11
ENDBRANCH   1  10
BRANCH   6  21
ATOM     21  C   UNL d   1       9.112   6.379 -10.518  0.00  0.00     0.005 A 
ATOM     22  C   UNL d   1       9.066   5.590  -9.345  0.00  0.00    -0.001 A 
ATOM     23  C   UNL d   1       9.764   5.984  -8.193  0.00  0.00     0.011 A 
ATOM     24  C   UNL d   1      10.540   7.156  -8.185  0.00  0.00     0.058 A 
ATOM     25  C   UNL d   1      10.616   7.942  -9.349  0.00  0.00     0.011 A 
ATOM     26 CL   UNL d   1      11.379   7.613  -6.756  0.00  0.00    -0.082 Cl
ATOM     27  C   UNL d   1       9.911   7.562 -10.501  0.00  0.00    -0.001 A 
ENDBRANCH   6  21
TORSDOF 5
