REMARK  6 active torsions:
REMARK  status: ('A' for Active; 'I' for Inactive)
REMARK    1  A    between atoms: O_2  and  C_3 
REMARK    2  A    between atoms: C_7  and  C_8 
REMARK    3  A    between atoms: C_8  and  N_9 
REMARK    4  A    between atoms: C_12  and  C_13 
REMARK    5  A    between atoms: C_19  and  O_20 
REMARK    6  A    between atoms: O_20  and  C_21 
ROOT
ATOM      1  N   UNL d   1       6.261   3.235 -12.867  0.00  0.00     0.146 N 
ATOM      2  C   UNL d   1       5.117   2.347 -12.676  0.00  0.00     0.277 C 
ATOM      3  C   UNL d   1       5.139   1.130 -13.582  0.00  0.00     0.005 C 
ATOM      4  C   UNL d   1       5.916   1.036 -14.697  0.00  0.00    -0.021 C 
ATOM      5  C   UNL d   1       6.790   2.231 -15.020  0.00  0.00     0.061 C 
ATOM      6  C   UNL d   1       6.444   3.520 -14.276  0.00  0.00     0.256 C 
ENDROOT
BRANCH   4   7
ATOM      7  C   UNL d   1       5.798  -0.141 -15.603  0.00  0.00     0.017 A 
ATOM      8  C   UNL d   1       6.610  -0.372 -16.792  0.00  0.00     0.021 A 
ATOM      9  C   UNL d   1       6.174  -1.626 -17.357  0.00  0.00     0.082 A 
ATOM     10  C   UNL d   1       7.659   0.293 -17.434  0.00  0.00     0.026 A 
ATOM     11  N   UNL d   1       5.158  -2.089 -16.514  0.00  0.00    -0.244 NA
ATOM     12  C   UNL d   1       6.810  -2.170 -18.494  0.00  0.00     0.021 A 
ATOM     13  C   UNL d   1       4.941  -1.193 -15.476  0.00  0.00     0.099 A 
ATOM     14  C   UNL d   1       7.847  -1.455 -19.131  0.00  0.00     0.026 A 
ATOM     15  C   UNL d   1       8.269  -0.199 -18.614  0.00  0.00     0.094 A 
BRANCH  15  16
ATOM     16  O   UNL d   1       9.257   0.482 -19.293  0.00  0.00    -0.333 OA
BRANCH  16  17
ATOM     17  C   UNL d   1       9.776   1.722 -18.786  0.00  0.00     0.121 C 
ATOM     18  C   UNL d   1      10.564   1.509 -17.453  0.00  0.00     0.033 C 
ATOM     19  C   UNL d   1       8.724   2.876 -18.836  0.00  0.00     0.033 C 
ENDBRANCH  16  17
ENDBRANCH  15  16
ENDBRANCH   4   7
BRANCH   1  20
ATOM     20  C   UNL d   1       6.101   4.480 -12.142  0.00  0.00     0.277 C 
BRANCH  20  21
ATOM     21  C   UNL d   1       7.431   5.114 -11.730  0.00  0.00     0.013 A 
ATOM     22  C   UNL d   1       8.036   6.043 -12.567  0.00  0.00    -0.002 A 
ATOM     23  C   UNL d   1       9.242   6.674 -12.187  0.00  0.00     0.002 A 
ATOM     24  C   UNL d   1       9.823   6.364 -10.940  0.00  0.00     0.024 A 
ATOM     25  C   UNL d   1       9.222   5.446 -10.078  0.00  0.00     0.094 A 
ATOM     26  C   UNL d   1       8.033   4.779 -10.492  0.00  0.00     0.022 A 
BRANCH  25  27
ATOM     27  O   UNL d   1       9.729   5.136  -8.830  0.00  0.00    -0.328 OA
ATOM     28  C   UNL d   1      10.299   6.217  -8.100  0.00  0.00     0.181 C 
ENDBRANCH  25  27
ENDBRANCH  20  21
ENDBRANCH   1  20
TORSDOF 6
