REMARK  8 active torsions:
REMARK  status: ('A' for Active; 'I' for Inactive)
REMARK    1  A    between atoms: S_2  and  N_4 
REMARK    2  A    between atoms: S_2  and  C_24 
REMARK    3  A    between atoms: N_4  and  C_5 
REMARK    4  A    between atoms: C_5  and  C_6 
REMARK    5  A    between atoms: C_6  and  C_7 
REMARK    6  A    between atoms: C_7  and  C_8 
REMARK    7  A    between atoms: C_8  and  N_9 
REMARK    8  A    between atoms: N_12  and  C_13 
ROOT
ATOM      1  N   UNL d   1       9.324   6.309 -10.177  0.00  0.00     0.141 N 
ATOM      2  C   UNL d   1       9.513   7.763 -10.158  0.00  0.00     0.274 C 
ATOM      3  C   UNL d   1       9.287   8.306  -8.733  0.00  0.00     0.138 C 
ATOM      4  N   UNL d   1      10.186   7.655  -7.802  0.00  0.00    -0.329 N 
ATOM      5  C   UNL d   1      10.107   6.208  -7.829  0.00  0.00     0.138 C 
ATOM      6  C   UNL d   1      10.298   5.729  -9.265  0.00  0.00     0.274 C 
ENDROOT
BRANCH   1   7
ATOM      7  C   UNL d   1       9.548   5.816 -11.533  0.00  0.00     0.251 C 
BRANCH   7   8
ATOM      8  C   UNL d   1       8.960   4.410 -11.699  0.00  0.00     0.037 C 
BRANCH   8   9
ATOM      9  C   UNL d   1       8.874   3.959 -13.159  0.00  0.00     0.029 C 
BRANCH   9  10
ATOM     10  C   UNL d   1      10.219   3.458 -13.722  0.00  0.00     0.139 C 
BRANCH  10  11
ATOM     11  N   UNL d   1      10.081   3.104 -15.130  0.00  0.00    -0.184 NA
BRANCH  11  12
ATOM     12  S   UNL d   1       9.299   1.636 -15.596  0.00  0.00     0.287 S 
ATOM     13  O   UNL d   1       9.364   0.672 -14.496  0.00  0.00    -0.198 OA
ATOM     14  O   UNL d   1       8.012   1.997 -16.227  0.00  0.00    -0.198 OA
BRANCH  12  15
ATOM     15  C   UNL d   1      10.334   0.991 -16.886  0.00  0.00     0.134 A 
ATOM     16  S   UNL d   1       9.970  -0.539 -17.636  0.00  0.00    -0.073 SA
ATOM     17  C   UNL d   1      11.363  -0.395 -18.673  0.00  0.00     0.036 A 
ATOM     18  C   UNL d   1      12.057   0.762 -18.432  0.00  0.00     0.008 A 
ATOM     19  C   UNL d   1      11.473   1.554 -17.401  0.00  0.00     0.020 A 
ENDBRANCH  12  15
ENDBRANCH  11  12
ENDBRANCH  10  11
ENDBRANCH   9  10
ENDBRANCH   8   9
ENDBRANCH   7   8
ENDBRANCH   1   7
BRANCH   4  20
ATOM     20  C   UNL d   1      10.935   8.395  -6.878  0.00  0.00     0.148 A 
ATOM     21  C   UNL d   1      11.298   7.952  -5.541  0.00  0.00     0.042 A 
ATOM     22  C   UNL d   1      12.059   8.986  -4.905  0.00  0.00     0.050 A 
ATOM     23  C   UNL d   1      11.064   6.782  -4.771  0.00  0.00     0.004 A 
ATOM     24  S   UNL d   1      12.158  10.312  -6.039  0.00  0.00     0.015 SA
ATOM     25  C   UNL d   1      12.594   8.844  -3.611  0.00  0.00     0.008 A 
ATOM     26  N   UNL d   1      11.311   9.590  -7.242  0.00  0.00    -0.192 NA
ATOM     27  C   UNL d   1      12.367   7.656  -2.893  0.00  0.00     0.001 A 
ATOM     28  C   UNL d   1      11.611   6.637  -3.491  0.00  0.00     0.000 A 
ENDBRANCH   4  20
TORSDOF 8
