REMARK  5 active torsions:
REMARK  status: ('A' for Active; 'I' for Inactive)
REMARK    1  A    between atoms: C_5  and  C_6 
REMARK    2  A    between atoms: C_6  and  N_7 
REMARK    3  A    between atoms: N_7  and  C_8 
REMARK    4  A    between atoms: C_8  and  C_9 
REMARK       I    between atoms: N_13  and  C_14 
REMARK    5  A    between atoms: C_14  and  C_16 
ROOT
ATOM      1  C   UNL d   1       8.692   3.917 -13.425  0.00  0.00     0.172 C 
ATOM      2  F   UNL d   1       7.437   3.607 -13.004  0.00  0.00    -0.238 F 
ATOM      3  C   UNL d   1       8.451   5.253 -14.032  0.00  0.00     0.059 C 
ATOM      4  C   UNL d   1       7.944   6.266 -12.981  0.00  0.00     0.107 C 
ATOM      5  N   UNL d   1       8.916   6.405 -11.900  0.00  0.00    -0.317 N 
ATOM      6  C   UNL d   1       9.449   7.610 -11.552  0.00  0.00     0.257 C 
ATOM      7  O   UNL d   1       9.377   8.587 -12.286  0.00  0.00    -0.267 OA
ATOM      8  C   UNL d   1       9.180   5.132 -11.238  0.00  0.00     0.107 C 
ATOM      9  C   UNL d   1       9.665   4.085 -12.255  0.00  0.00     0.059 C 
ENDROOT
BRANCH   1  10
ATOM     10  C   UNL d   1       9.218   2.931 -14.485  0.00  0.00     0.323 C 
BRANCH  10  11
ATOM     11  N   UNL d   1       9.028   1.555 -14.064  0.00  0.00     0.350 N 
BRANCH  11  12
ATOM     12  C   UNL d   1       9.058   0.620 -15.181  0.00  0.00     0.355 C 
BRANCH  12  13
ATOM     13  C   UNL d   1       7.668   0.207 -15.649  0.00  0.00     0.176 A 
ATOM     14  N   UNL d   1       7.489   0.117 -16.969  0.00  0.00    -0.228 NA
ATOM     15  C   UNL d   1       6.291  -0.336 -17.393  0.00  0.00     0.098 A 
ATOM     16  C   UNL d   1       5.263  -0.679 -16.492  0.00  0.00     0.017 A 
ATOM     17  C   UNL d   1       3.905  -1.155 -16.964  0.00  0.00     0.034 C 
ATOM     18  C   UNL d   1       5.568  -0.547 -15.125  0.00  0.00     0.098 A 
ATOM     19  N   UNL d   1       6.767  -0.090 -14.707  0.00  0.00    -0.228 NA
ENDBRANCH  12  13
ENDBRANCH  11  12
ENDBRANCH  10  11
ENDBRANCH   1  10
BRANCH   6  20
ATOM     20  C   UNL d   1      10.104   7.763 -10.208  0.00  0.00     0.057 A 
ATOM     21  C   UNL d   1       9.460   7.274  -9.064  0.00  0.00     0.018 A 
ATOM     22  C   UNL d   1      10.068   7.442  -7.810  0.00  0.00     0.085 A 
ATOM     23  C   UNL d   1      11.292   8.112  -7.679  0.00  0.00     0.151 A 
ATOM     24 CL   UNL d   1       9.271   6.784  -6.447  0.00  0.00    -0.080 Cl
ATOM     25  C   UNL d   1      11.925   8.622  -8.812  0.00  0.00     0.031 A 
ATOM     26  F   UNL d   1      11.847   8.282  -6.458  0.00  0.00    -0.203 F 
ATOM     27  C   UNL d   1      11.315   8.471 -10.076  0.00  0.00     0.007 A 
ENDBRANCH   6  20
TORSDOF 5
