REMARK  5 active torsions:
REMARK  status: ('A' for Active; 'I' for Inactive)
REMARK    1  A    between atoms: O_2  and  C_3 
REMARK    2  A    between atoms: C_11  and  C_12 
REMARK    3  A    between atoms: N_15  and  C_16 
REMARK    4  A    between atoms: C_16  and  C_17 
REMARK    5  A    between atoms: C_17  and  C_18 
ROOT
ATOM      1  C   UNL d   1       9.478   5.960 -11.541  0.00  0.00     0.011 C 
ATOM      2  C   UNL d   1       9.084   5.438 -10.150  0.00  0.00     0.036 C 
ATOM      3  C   UNL d   1       9.914   6.046  -9.065  0.00  0.00     0.250 C 
ATOM      4  N   UNL d   1       9.787   7.502  -9.085  0.00  0.00     0.137 N 
ATOM      5  C   UNL d   1      10.263   8.044 -10.365  0.00  0.00     0.250 C 
ATOM      6  C   UNL d   1       9.434   7.483 -11.569  0.00  0.00     0.036 C 
ENDROOT
BRANCH   1   7
ATOM      7  C   UNL d   1       8.696   5.302 -12.729  0.00  0.00     0.062 C 
ATOM      8  C   UNL d   1       7.403   4.570 -12.281  0.00  0.00     0.012 C 
ATOM      9  C   UNL d   1       6.639   3.907 -13.383  0.00  0.00     0.027 C 
ATOM     10  C   UNL d   1       7.548   3.072 -14.252  0.00  0.00    -0.018 A 
ATOM     11  C   UNL d   1       8.935   3.330 -14.388  0.00  0.00     0.031 A 
ATOM     12  C   UNL d   1       6.958   2.016 -14.957  0.00  0.00     0.020 A 
ATOM     13  C   UNL d   1       9.700   2.523 -15.263  0.00  0.00     0.004 A 
ATOM     14  C   UNL d   1       9.592   4.431 -13.641  0.00  0.00     0.172 C 
ATOM     15  C   UNL d   1       9.092   1.485 -15.995  0.00  0.00     0.024 A 
ATOM     16  C   UNL d   1       7.714   1.220 -15.850  0.00  0.00     0.094 A 
ATOM     17  O   UNL d   1      10.802   4.698 -13.772  0.00  0.00    -0.291 OA
BRANCH  16  18
ATOM     18  O   UNL d   1       7.181   0.199 -16.612  0.00  0.00    -0.328 OA
ATOM     19  C   UNL d   1       5.817  -0.130 -16.368  0.00  0.00     0.181 C 
ENDBRANCH  16  18
ENDBRANCH   1   7
BRANCH   4  20
ATOM     20  C   UNL d   1      10.536   8.065  -7.983  0.00  0.00     0.255 C 
BRANCH  20  21
ATOM     21  C   UNL d   1       9.816   7.808  -6.645  0.00  0.00     0.062 C 
BRANCH  21  22
ATOM     22  C   UNL d   1      10.697   8.171  -5.474  0.00  0.00    -0.020 A 
ATOM     23  C   UNL d   1      11.460   7.166  -4.838  0.00  0.00    -0.004 A 
ATOM     24  C   UNL d   1      12.247   7.478  -3.710  0.00  0.00    -0.000 A 
ATOM     25  C   UNL d   1      12.250   8.787  -3.199  0.00  0.00    -0.000 A 
ATOM     26  C   UNL d   1      11.464   9.781  -3.817  0.00  0.00    -0.000 A 
ATOM     27  C   UNL d   1      10.720   9.486  -4.969  0.00  0.00    -0.004 A 
ENDBRANCH  21  22
ENDBRANCH  20  21
ENDBRANCH   4  20
TORSDOF 5
