REMARK  9 active torsions:
REMARK  status: ('A' for Active; 'I' for Inactive)
REMARK    1  A    between atoms: O_2  and  C_3 
REMARK    2  A    between atoms: C_6  and  N_7 
REMARK    3  A    between atoms: N_10  and  C_11 
REMARK    4  A    between atoms: C_11  and  C_12 
REMARK    5  A    between atoms: C_12  and  C_13 
REMARK    6  A    between atoms: C_13  and  C_14 
REMARK    7  A    between atoms: C_14  and  O_15 
REMARK    8  A    between atoms: O_15  and  C_16 
REMARK    9  A    between atoms: C_29  and  O_30 
ROOT
ATOM      1  N   UNL d   1       7.477   3.795 -13.820  0.00  0.00    -0.343 N 
ATOM      2  C   UNL d   1       8.759   4.271 -14.343  0.00  0.00     0.137 C 
ATOM      3  C   UNL d   1       9.685   4.681 -13.191  0.00  0.00     0.274 C 
ATOM      4  N   UNL d   1       9.025   5.707 -12.383  0.00  0.00     0.141 N 
ATOM      5  C   UNL d   1       7.819   5.142 -11.787  0.00  0.00     0.274 C 
ATOM      6  C   UNL d   1       6.842   4.730 -12.890  0.00  0.00     0.137 C 
ENDROOT
BRANCH   4   7
ATOM      7  C   UNL d   1       9.889   6.090 -11.289  0.00  0.00     0.251 C 
BRANCH   7   8
ATOM      8  C   UNL d   1       9.662   7.548 -10.879  0.00  0.00     0.038 C 
BRANCH   8   9
ATOM      9  C   UNL d   1      10.726   7.987  -9.856  0.00  0.00     0.035 C 
BRANCH   9  10
ATOM     10  C   UNL d   1      10.215   9.162  -8.989  0.00  0.00     0.149 C 
BRANCH  10  11
ATOM     11  O   UNL d   1      11.171   9.576  -8.010  0.00  0.00    -0.331 OA
BRANCH  11  12
ATOM     12  C   UNL d   1      11.248   8.820  -6.859  0.00  0.00     0.096 C 
ATOM     13  C   UNL d   1      11.936   9.349  -5.729  0.00  0.00     0.043 C 
ATOM     14  C   UNL d   1      12.020   8.545  -4.588  0.00  0.00     0.082 C 
ATOM     15  C   UNL d   1      11.544   7.244  -4.581  0.00  0.00    -0.004 C 
ATOM     16  N   UNL d   1      12.636   9.020  -3.422  0.00  0.00    -0.212 NA
ATOM     17  C   UNL d   1      10.869   6.746  -5.714  0.00  0.00    -0.001 C 
ATOM     18  C   UNL d   1      11.707   6.352  -3.387  0.00  0.00     0.038 C 
ATOM     19  C   UNL d   1      10.642   7.550  -6.800  0.00  0.00     0.024 C 
ATOM     20  C   UNL d   1      11.684   7.140  -2.102  0.00  0.00     0.095 C 
ATOM     21  C   UNL d   1      12.552   8.390  -2.283  0.00  0.00     0.256 C 
ATOM     22  O   UNL d   1      13.202   8.779  -1.353  0.00  0.00    -0.270 OA
ENDBRANCH  11  12
ENDBRANCH  10  11
ENDBRANCH   9  10
ENDBRANCH   8   9
ENDBRANCH   7   8
ENDBRANCH   4   7
BRANCH   1  23
ATOM     23  C   UNL d   1       6.857   2.548 -14.163  0.00  0.00     0.079 A 
ATOM     24  C   UNL d   1       5.905   2.005 -13.286  0.00  0.00     0.021 A 
ATOM     25  C   UNL d   1       5.309   0.766 -13.500  0.00  0.00     0.026 A 
ATOM     26  C   UNL d   1       5.614   0.035 -14.658  0.00  0.00     0.096 A 
ATOM     27  C   UNL d   1       6.547   0.569 -15.583  0.00  0.00     0.050 A 
ATOM     28  C   UNL d   1       7.176   1.827 -15.348  0.00  0.00     0.112 A 
BRANCH  26  29
ATOM     29  O   UNL d   1       5.036  -1.189 -14.837  0.00  0.00    -0.328 OA
ATOM     30  C   UNL d   1       3.875  -1.161 -15.644  0.00  0.00     0.181 C 
ENDBRANCH  26  29
BRANCH  28  31
ATOM     31  O   UNL d   1       8.049   2.381 -16.261  0.00  0.00    -0.327 OA
ATOM     32  C   UNL d   1       8.448   1.658 -17.400  0.00  0.00     0.181 C 
ENDBRANCH  28  31
ENDBRANCH   1  23
TORSDOF 9
