REMARK  7 active torsions:
REMARK  status: ('A' for Active; 'I' for Inactive)
REMARK    1  A    between atoms: C_7  and  C_8 
REMARK    2  A    between atoms: C_11  and  C_12 
REMARK       I    between atoms: C_12  and  N_14 
REMARK    3  A    between atoms: N_14  and  C_15 
REMARK    4  A    between atoms: C_15  and  C_16 
REMARK    5  A    between atoms: C_17  and  C_18 
REMARK    6  A    between atoms: C_18  and  N_19 
REMARK    7  A    between atoms: N_22  and  C_23 
ROOT
ATOM      1  C   UNL d   1       9.148   6.022 -12.183  0.00  0.00     0.155 C 
ENDROOT
BRANCH   1   2
ATOM      2  N   UNL d   1       9.738   6.408 -10.901  0.00  0.00    -0.229 NA
ATOM      3  C   UNL d   1       9.864   7.674 -10.469  0.00  0.00     0.275 C 
ATOM      4  O   UNL d   1       9.626   8.659 -11.170  0.00  0.00    -0.266 OA
BRANCH   3   5
ATOM      5  C   UNL d   1      10.308   7.836  -9.057  0.00  0.00     0.058 A 
ATOM      6  C   UNL d   1      11.329   8.752  -8.729  0.00  0.00     0.005 A 
ATOM      7  C   UNL d   1      11.709   8.938  -7.384  0.00  0.00     0.002 A 
ATOM      8  C   UNL d   1      11.053   8.252  -6.341  0.00  0.00     0.017 A 
ATOM      9  C   UNL d   1      10.019   7.354  -6.681  0.00  0.00     0.002 A 
ATOM     10  C   UNL d   1       9.656   7.138  -8.021  0.00  0.00     0.005 A 
BRANCH   8  11
ATOM     11  C   UNL d   1      11.479   8.449  -4.937  0.00  0.00     0.077 A 
ATOM     12  C   UNL d   1      11.933   7.398  -4.114  0.00  0.00    -0.004 A 
ATOM     13  C   UNL d   1      12.045   6.003  -4.630  0.00  0.00     0.033 C 
ATOM     14  C   UNL d   1      12.313   7.658  -2.780  0.00  0.00    -0.001 A 
ATOM     15  C   UNL d   1      12.266   8.966  -2.318  0.00  0.00     0.020 A 
ATOM     16  C   UNL d   1      11.811   9.961  -3.204  0.00  0.00     0.099 A 
ATOM     17  N   UNL d   1      11.404   9.718  -4.471  0.00  0.00    -0.244 NA
ENDBRANCH   8  11
ENDBRANCH   3   5
ENDBRANCH   1   2
BRANCH   1  18
ATOM     18  C   UNL d   1       9.996   4.998 -12.913  0.00  0.00    -0.003 C 
ATOM     19  C   UNL d   1      10.759   5.278 -13.984  0.00  0.00     0.006 C 
BRANCH  19  20
ATOM     20  C   UNL d   1      11.662   4.316 -14.712  0.00  0.00     0.276 C 
BRANCH  20  21
ATOM     21  N   UNL d   1      10.920   3.245 -15.368  0.00  0.00     0.145 N 
ATOM     22  C   UNL d   1      11.865   2.394 -16.081  0.00  0.00     0.275 C 
ATOM     23  C   UNL d   1      11.136   1.201 -16.726  0.00  0.00     0.137 C 
ATOM     24  N   UNL d   1      10.057   1.677 -17.592  0.00  0.00    -0.344 N 
ATOM     25  C   UNL d   1       9.167   2.653 -16.978  0.00  0.00     0.137 C 
ATOM     26  C   UNL d   1       9.957   3.789 -16.324  0.00  0.00     0.275 C 
BRANCH  24  27
ATOM     27  C   UNL d   1       9.909   1.242 -18.931  0.00  0.00     0.068 A 
ATOM     28  C   UNL d   1       8.651   0.928 -19.522  0.00  0.00     0.084 A 
ATOM     29  C   UNL d   1       8.584   0.516 -20.878  0.00  0.00     0.070 A 
ATOM     30 CL   UNL d   1       7.168   0.944 -18.611  0.00  0.00    -0.080 Cl
ATOM     31  C   UNL d   1       9.754   0.398 -21.638  0.00  0.00     0.012 A 
ATOM     32 CL   UNL d   1       7.071   0.138 -21.613  0.00  0.00    -0.081 Cl
ATOM     33  C   UNL d   1      10.999   0.687 -21.065  0.00  0.00     0.002 A 
ATOM     34  C   UNL d   1      11.075   1.112 -19.725  0.00  0.00     0.018 A 
ENDBRANCH  24  27
ENDBRANCH  20  21
ENDBRANCH  19  20
ENDBRANCH   1  18
TORSDOF 7
