REMARK  12 active torsions:
REMARK  status: ('A' for Active; 'I' for Inactive)
REMARK    1  A    between atoms: O_2  and  C_3 
REMARK    2  A    between atoms: C_9  and  C_10 
REMARK    3  A    between atoms: C_12  and  C_13 
REMARK    4  A    between atoms: C_13  and  N_14 
REMARK    5  A    between atoms: N_14  and  C_15 
REMARK    6  A    between atoms: N_14  and  C_31 
REMARK    7  A    between atoms: C_15  and  C_16 
REMARK    8  A    between atoms: C_16  and  C_17 
REMARK    9  A    between atoms: C_17  and  S_18 
REMARK   10  A    between atoms: S_18  and  C_19 
REMARK   11  A    between atoms: C_22  and  C_23 
REMARK   12  A    between atoms: C_31  and  C_32 
ROOT
ATOM      1  N   UNL d   1       9.629   4.287 -14.100  0.00  0.00     0.137 N 
ENDROOT
BRANCH   1   2
ATOM      2  C   UNL d   1       9.653   4.116 -12.644  0.00  0.00     0.251 C 
BRANCH   2   3
ATOM      3  C   UNL d   1       9.246   5.392 -11.922  0.00  0.00     0.038 A 
ATOM      4  C   UNL d   1       9.229   5.396 -10.394  0.00  0.00     0.026 A 
ATOM      5  C   UNL d   1       7.933   5.442 -11.177  0.00  0.00     0.007 A 
BRANCH   4   6
ATOM      6  C   UNL d   1       9.677   6.581  -9.593  0.00  0.00     0.002 A 
ATOM      7  C   UNL d   1       9.264   6.759  -8.231  0.00  0.00     0.090 A 
ATOM      8  C   UNL d   1       9.695   7.916  -7.524  0.00  0.00     0.026 A 
ATOM      9  C   UNL d   1      10.534   8.865  -8.124  0.00  0.00     0.032 A 
ATOM     10  C   UNL d   1      10.927   8.677  -9.442  0.00  0.00     0.140 A 
ATOM     11  F   UNL d   1      11.695   9.594 -10.066  0.00  0.00    -0.204 F 
ATOM     12  C   UNL d   1      10.496   7.569 -10.175  0.00  0.00     0.027 A 
BRANCH   7  13
ATOM     13  O   UNL d   1       8.428   5.820  -7.712  0.00  0.00    -0.328 OA
ATOM     14  C   UNL d   1       7.933   6.108  -6.439  0.00  0.00     0.181 C 
ENDBRANCH   7  13
ENDBRANCH   4   6
ENDBRANCH   2   3
ENDBRANCH   1   2
BRANCH   1  15
ATOM     15  C   UNL d   1      10.903   4.803 -14.592  0.00  0.00     0.251 C 
BRANCH  15  16
ATOM     16  C   UNL d   1      11.100   4.688 -16.111  0.00  0.00     0.047 C 
BRANCH  16  17
ATOM     17  C   UNL d   1      10.690   5.939 -16.883  0.00  0.00     0.067 C 
BRANCH  17  18
ATOM     18  S   UNL d   1      11.076   5.793 -18.653  0.00  0.00    -0.075 SA
BRANCH  18  19
ATOM     19  C   UNL d   1      12.813   5.531 -18.524  0.00  0.00     0.193 A 
ATOM     20  N   UNL d   1      13.670   6.527 -18.216  0.00  0.00    -0.289 N 
ATOM     21  C   UNL d   1      14.858   5.883 -18.212  0.00  0.00     0.167 A 
ATOM     22  C   UNL d   1      13.391   7.938 -17.975  0.00  0.00     0.134 C 
ATOM     23  N   UNL d   1      14.742   4.574 -18.445  0.00  0.00    -0.128 NA
ATOM     24  N   UNL d   1      13.404   4.344 -18.668  0.00  0.00    -0.122 NA
BRANCH  21  25
ATOM     25  C   UNL d   1      16.157   6.521 -17.998  0.00  0.00     0.036 A 
ATOM     26  C   UNL d   1      16.521   7.669 -18.736  0.00  0.00     0.003 A 
ATOM     27  C   UNL d   1      17.770   8.283 -18.524  0.00  0.00     0.000 A 
ATOM     28  C   UNL d   1      18.667   7.748 -17.579  0.00  0.00     0.000 A 
ATOM     29  C   UNL d   1      18.309   6.602 -16.842  0.00  0.00     0.000 A 
ATOM     30  C   UNL d   1      17.059   5.988 -17.055  0.00  0.00     0.003 A 
ENDBRANCH  21  25
ENDBRANCH  18  19
ENDBRANCH  17  18
ENDBRANCH  16  17
ENDBRANCH  15  16
ENDBRANCH   1  15
BRANCH   1  31
ATOM     31  C   UNL d   1       9.234   3.032 -14.723  0.00  0.00     0.250 C 
BRANCH  31  32
ATOM     32  C   UNL d   1      10.306   1.959 -14.649  0.00  0.00     0.033 A 
ATOM     33  C   UNL d   1      10.055   0.575 -15.179  0.00  0.00     0.002 A 
ATOM     34  C   UNL d   1      11.023   1.479 -15.893  0.00  0.00     0.002 A 
ENDBRANCH  31  32
ENDBRANCH   1  31
TORSDOF 12
