REMARK  8 active torsions:
REMARK  status: ('A' for Active; 'I' for Inactive)
REMARK    1  A    between atoms: O_2  and  C_3 
REMARK    2  A    between atoms: C_8  and  N_9 
REMARK    3  A    between atoms: N_12  and  C_13 
REMARK    4  A    between atoms: C_13  and  C_14 
REMARK    5  A    between atoms: C_14  and  C_15 
REMARK    6  A    between atoms: C_15  and  C_16 
REMARK    7  A    between atoms: C_16  and  N_17 
REMARK       I    between atoms: N_17  and  C_18 
REMARK    8  A    between atoms: C_18  and  C_20 
ROOT
ATOM      1  C   UNL d   1       9.545   6.489 -10.091  0.00  0.00     0.157 A 
ATOM      2  C   UNL d   1       9.142   6.350  -8.776  0.00  0.00     0.032 A 
ATOM      3  C   UNL d   1      10.040   7.155  -7.991  0.00  0.00     0.026 A 
ATOM      4  C   UNL d   1      10.232   7.494  -6.636  0.00  0.00     0.012 A 
ATOM      5  C   UNL d   1      11.278   8.374  -6.257  0.00  0.00     0.068 A 
ATOM      6  C   UNL d   1      11.467   8.712  -4.863  0.00  0.00     0.101 C 
ATOM      7  N   UNL d   1      11.626   8.980  -3.749  0.00  0.00    -0.191 NA
ATOM      8  C   UNL d   1      12.157   8.914  -7.223  0.00  0.00     0.012 A 
ATOM      9  C   UNL d   1      11.998   8.577  -8.575  0.00  0.00     0.025 A 
ATOM     10  C   UNL d   1      10.951   7.716  -8.912  0.00  0.00     0.100 A 
ATOM     11  O   UNL d   1      10.658   7.291 -10.174  0.00  0.00    -0.302 OA
ENDROOT
BRANCH   1  12
ATOM     12  C   UNL d   1       9.045   5.958 -11.366  0.00  0.00     0.298 C 
ATOM     13  N   UNL d   1       7.712   5.942 -11.491  0.00  0.00    -0.233 NA
ATOM     14  O   UNL d   1       9.806   5.650 -12.288  0.00  0.00    -0.263 OA
BRANCH  13  15
ATOM     15  C   UNL d   1       6.998   5.723 -12.732  0.00  0.00     0.129 C 
BRANCH  15  16
ATOM     16  C   UNL d   1       6.835   4.244 -13.117  0.00  0.00     0.029 C 
BRANCH  16  17
ATOM     17  C   UNL d   1       8.152   3.653 -13.638  0.00  0.00     0.037 C 
BRANCH  17  18
ATOM     18  C   UNL d   1       7.992   2.337 -14.407  0.00  0.00     0.251 C 
BRANCH  18  19
ATOM     19  N   UNL d   1       9.287   1.857 -14.888  0.00  0.00     0.141 N 
ATOM     20  C   UNL d   1       9.081   0.550 -15.519  0.00  0.00     0.274 C 
ATOM     21  C   UNL d   1      10.416  -0.039 -16.016  0.00  0.00     0.137 C 
ATOM     22  N   UNL d   1      11.098   0.903 -16.910  0.00  0.00    -0.343 N 
ATOM     23  C   UNL d   1      11.247   2.252 -16.366  0.00  0.00     0.137 C 
ATOM     24  C   UNL d   1       9.895   2.773 -15.867  0.00  0.00     0.274 C 
BRANCH  22  25
ATOM     25  C   UNL d   1      11.466   0.599 -18.206  0.00  0.00     0.079 A 
ATOM     26  C   UNL d   1      10.601  -0.094 -19.113  0.00  0.00     0.110 A 
ATOM     27  C   UNL d   1      11.056  -0.407 -20.408  0.00  0.00     0.026 A 
ATOM     28  C   UNL d   1      12.353  -0.050 -20.830  0.00  0.00     0.002 A 
ATOM     29  C   UNL d   1      13.200   0.654 -19.960  0.00  0.00     0.002 A 
ATOM     30  C   UNL d   1      12.756   0.988 -18.673  0.00  0.00     0.019 A 
BRANCH  26  31
ATOM     31  O   UNL d   1       9.333  -0.400 -18.651  0.00  0.00    -0.327 OA
ATOM     32  C   UNL d   1       8.433  -1.042 -19.531  0.00  0.00     0.181 C 
ENDBRANCH  26  31
ENDBRANCH  22  25
ENDBRANCH  18  19
ENDBRANCH  17  18
ENDBRANCH  16  17
ENDBRANCH  15  16
ENDBRANCH  13  15
ENDBRANCH   1  12
TORSDOF 8
