REMARK  8 active torsions:
REMARK  status: ('A' for Active; 'I' for Inactive)
REMARK    1  A    between atoms: C_6  and  C_7 
REMARK    2  A    between atoms: C_10  and  S_11 
REMARK    3  A    between atoms: S_11  and  C_12 
REMARK    4  A    between atoms: C_12  and  C_13 
REMARK    5  A    between atoms: C_13  and  C_14 
REMARK    6  A    between atoms: C_14  and  N_15 
REMARK    7  A    between atoms: C_19  and  C_20 
REMARK    8  A    between atoms: C_24  and  C_25 
ROOT
ATOM      1  N   UNL d   1       9.475   5.527 -11.473  0.00  0.00     0.137 N 
ATOM      2  C   UNL d   1       9.236   4.391 -10.605  0.00  0.00     0.251 C 
ATOM      3  C   UNL d   1       9.545   4.917  -9.233  0.00  0.00     0.039 A 
ATOM      4  C   UNL d   1       8.502   5.604  -8.390  0.00  0.00     0.008 A 
ATOM      5  C   UNL d   1       9.401   6.411  -9.299  0.00  0.00     0.052 A 
ATOM      6  C   UNL d   1       9.049   6.715 -10.744  0.00  0.00     0.254 C 
ENDROOT
BRANCH   1   7
ATOM      7  C   UNL d   1       8.751   5.372 -12.738  0.00  0.00     0.251 C 
BRANCH   7   8
ATOM      8  C   UNL d   1       9.555   4.381 -13.583  0.00  0.00     0.047 C 
BRANCH   8   9
ATOM      9  C   UNL d   1       8.922   4.099 -14.960  0.00  0.00     0.067 C 
BRANCH   9  10
ATOM     10  S   UNL d   1       9.794   2.840 -15.959  0.00  0.00    -0.075 SA
BRANCH  10  11
ATOM     11  C   UNL d   1      11.335   3.622 -16.247  0.00  0.00     0.193 A 
ATOM     12  N   UNL d   1      12.023   4.231 -15.288  0.00  0.00    -0.122 NA
ATOM     13  N   UNL d   1      13.087   4.793 -15.913  0.00  0.00    -0.126 NA
ATOM     14  C   UNL d   1      13.005   4.423 -17.194  0.00  0.00     0.191 A 
ATOM     15  N   UNL d   1      11.918   3.670 -17.457  0.00  0.00    -0.287 N 
ATOM     16  C   UNL d   1      11.516   3.048 -18.720  0.00  0.00     0.134 C 
BRANCH  14  17
ATOM     17  C   UNL d   1      14.062   4.798 -18.130  0.00  0.00     0.151 A 
ATOM     18  C   UNL d   1      15.209   5.554 -17.959  0.00  0.00     0.087 A 
ATOM     19  C   UNL d   1      15.718   6.273 -16.733  0.00  0.00     0.054 C 
ATOM     20  N   UNL d   1      15.903   5.580 -19.158  0.00  0.00    -0.221 NA
ATOM     21  C   UNL d   1      15.148   4.852 -19.979  0.00  0.00     0.225 A 
ATOM     22  O   UNL d   1      14.025   4.334 -19.426  0.00  0.00    -0.282 OA
ENDBRANCH  14  17
ENDBRANCH  10  11
ENDBRANCH   9  10
ENDBRANCH   8   9
ENDBRANCH   7   8
ENDBRANCH   1   7
BRANCH   5  23
ATOM     23  C   UNL d   1      10.475   7.275  -8.712  0.00  0.00    -0.021 A 
ATOM     24  C   UNL d   1      10.390   7.726  -7.378  0.00  0.00    -0.000 A 
ATOM     25  C   UNL d   1      11.437   8.476  -6.814  0.00  0.00     0.071 A 
ATOM     26  C   UNL d   1      12.553   8.789  -7.606  0.00  0.00     0.004 A 
ATOM     27  C   UNL d   1      12.643   8.388  -8.937  0.00  0.00    -0.000 A 
ATOM     28  C   UNL d   1      11.602   7.618  -9.479  0.00  0.00    -0.004 A 
BRANCH  25  29
ATOM     29  C   UNL d   1      11.339   8.913  -5.365  0.00  0.00     0.419 C 
ATOM     30  F   UNL d   1      10.331   9.774  -5.244  0.00  0.00    -0.166 F 
ATOM     31  F   UNL d   1      11.097   7.842  -4.612  0.00  0.00    -0.166 F 
ATOM     32  F   UNL d   1      12.451   9.500  -4.926  0.00  0.00    -0.166 F 
ENDBRANCH  25  29
ENDBRANCH   5  23
TORSDOF 8
