REMARK  7 active torsions:
REMARK  status: ('A' for Active; 'I' for Inactive)
REMARK    1  A    between atoms: C_6  and  S_7 
REMARK    2  A    between atoms: S_7  and  C_10 
REMARK    3  A    between atoms: C_10  and  C_11 
REMARK    4  A    between atoms: N_14  and  C_15 
REMARK    5  A    between atoms: C_15  and  C_16 
REMARK    6  A    between atoms: C_16  and  C_17 
REMARK    7  A    between atoms: C_17  and  C_18 
ROOT
ATOM      1  C   UNL d   1       9.232   1.946 -15.730  0.00  0.00     0.052 C 
ATOM      2  C   UNL d   1       8.968   1.242 -17.049  0.00  0.00     0.038 C 
ATOM      3  C   UNL d   1      10.350   1.089 -17.648  0.00  0.00     0.250 C 
ATOM      4  N   UNL d   1      11.112   2.200 -17.089  0.00  0.00     0.137 N 
ATOM      5  C   UNL d   1      10.743   2.175 -15.681  0.00  0.00     0.251 C 
ENDROOT
BRANCH   4   6
ATOM      6  C   UNL d   1      12.552   2.033 -17.253  0.00  0.00     0.251 C 
BRANCH   6   7
ATOM      7  C   UNL d   1      12.961   2.111 -18.735  0.00  0.00     0.042 C 
BRANCH   7   8
ATOM      8  C   UNL d   1      14.422   1.726 -18.963  0.00  0.00     0.050 C 
BRANCH   8   9
ATOM      9  C   UNL d   1      14.760   1.504 -20.401  0.00  0.00     0.088 A 
ATOM     10  C   UNL d   1      14.687   0.318 -21.158  0.00  0.00     0.041 A 
ATOM     11  C   UNL d   1      15.097   0.595 -22.463  0.00  0.00     0.129 A 
ATOM     12  C   UNL d   1      14.299  -1.006 -20.817  0.00  0.00     0.006 A 
ATOM     13  O   UNL d   1      15.426   1.945 -22.463  0.00  0.00    -0.211 OA
ATOM     14  C   UNL d   1      15.122  -0.370 -23.472  0.00  0.00     0.057 A 
ATOM     15  N   UNL d   1      15.200   2.497 -21.172  0.00  0.00    -0.131 NA
ATOM     16  C   UNL d   1      14.714  -1.683 -23.145  0.00  0.00     0.142 A 
ATOM     17  F   UNL d   1      14.749  -2.648 -24.092  0.00  0.00    -0.204 F 
ATOM     18  C   UNL d   1      14.318  -1.999 -21.824  0.00  0.00     0.030 A 
ENDBRANCH   8   9
ENDBRANCH   7   8
ENDBRANCH   6   7
ENDBRANCH   4   6
BRANCH   1  19
ATOM     19  C   UNL d   1       8.691   1.194 -14.497  0.00  0.00     0.129 C 
BRANCH  19  20
ATOM     20  S   UNL d   1       6.878   1.424 -14.272  0.00  0.00     0.190 S 
ATOM     21  O   UNL d   1       6.381   0.403 -13.357  0.00  0.00    -0.222 OA
ATOM     22  O   UNL d   1       6.287   1.517 -15.636  0.00  0.00    -0.222 OA
BRANCH  20  23
ATOM     23  C   UNL d   1       6.714   3.045 -13.494  0.00  0.00     0.084 A 
ATOM     24  C   UNL d   1       5.564   3.309 -12.724  0.00  0.00     0.011 A 
ATOM     25  C   UNL d   1       5.483   4.530 -12.022  0.00  0.00     0.000 A 
ATOM     26  C   UNL d   1       6.541   5.458 -12.024  0.00  0.00    -0.004 A 
ATOM     27  C   UNL d   1       7.700   5.161 -12.736  0.00  0.00    -0.021 A 
ATOM     28  C   UNL d   1       8.853   6.122 -12.757  0.00  0.00     0.031 C 
ATOM     29  C   UNL d   1       7.785   3.969 -13.466  0.00  0.00     0.007 A 
ENDBRANCH  20  23
ENDBRANCH  19  20
ENDBRANCH   1  19
TORSDOF 7
