REMARK  8 active torsions:
REMARK  status: ('A' for Active; 'I' for Inactive)
REMARK    1  A    between atoms: C_3  and  S_4 
REMARK    2  A    between atoms: S_4  and  C_5 
REMARK    3  A    between atoms: C_5  and  C_6 
REMARK    4  A    between atoms: C_6  and  C_7 
REMARK    5  A    between atoms: C_7  and  N_8 
REMARK    6  A    between atoms: N_13  and  C_14 
REMARK    7  A    between atoms: C_17  and  C_18 
REMARK    8  A    between atoms: C_28  and  C_29 
ROOT
ATOM      1  N   UNL d   1      11.653   5.518 -14.940  0.00  0.00     0.138 N 
ATOM      2  C   UNL d   1      11.932   6.774 -15.657  0.00  0.00     0.252 C 
ATOM      3  C   UNL d   1      12.932   6.417 -16.748  0.00  0.00     0.052 C 
ATOM      4  C   UNL d   1      12.677   7.063 -18.126  0.00  0.00     0.021 C 
ATOM      5  C   UNL d   1      12.885   5.896 -19.080  0.00  0.00     0.077 C 
ATOM      6  N   UNL d   1      12.403   4.714 -18.380  0.00  0.00    -0.252 NA
ATOM      7  C   UNL d   1      12.698   4.920 -16.962  0.00  0.00     0.097 C 
ATOM      8  C   UNL d   1      11.546   4.563 -16.019  0.00  0.00     0.266 C 
ENDROOT
BRANCH   1   9
ATOM      9  C   UNL d   1      10.417   5.506 -14.170  0.00  0.00     0.251 C 
BRANCH   9  10
ATOM     10  C   UNL d   1      10.269   4.303 -13.254  0.00  0.00     0.047 C 
BRANCH  10  11
ATOM     11  C   UNL d   1       8.902   4.251 -12.593  0.00  0.00     0.067 C 
BRANCH  11  12
ATOM     12  S   UNL d   1       8.274   5.862 -11.982  0.00  0.00    -0.075 SA
BRANCH  12  13
ATOM     13  C   UNL d   1       8.982   5.948 -10.381  0.00  0.00     0.193 A 
ATOM     14  N   UNL d   1       9.491   7.073  -9.822  0.00  0.00    -0.289 N 
ATOM     15  C   UNL d   1       9.557   8.411 -10.388  0.00  0.00     0.134 C 
ATOM     16  C   UNL d   1       9.852   6.622  -8.595  0.00  0.00     0.168 A 
ATOM     17  N   UNL d   1       9.619   5.311  -8.425  0.00  0.00    -0.128 NA
ATOM     18  N   UNL d   1       9.041   4.872  -9.592  0.00  0.00    -0.122 NA
BRANCH  16  19
ATOM     19  C   UNL d   1      10.452   7.377  -7.471  0.00  0.00     0.053 A 
ATOM     20  C   UNL d   1      10.837   8.669  -7.492  0.00  0.00     0.082 A 
ATOM     21  N   UNL d   1      11.403   9.310  -6.364  0.00  0.00    -0.292 N 
ATOM     22  C   UNL d   1      11.598   8.700  -5.168  0.00  0.00     0.261 A 
ATOM     23  C   UNL d   1      11.755  10.701  -6.469  0.00  0.00     0.134 C 
ATOM     24  C   UNL d   1      11.213   7.304  -5.123  0.00  0.00     0.061 A 
ATOM     25  O   UNL d   1      12.086   9.274  -4.190  0.00  0.00    -0.267 OA
ATOM     26  C   UNL d   1      10.677   6.708  -6.209  0.00  0.00     0.009 A 
ENDBRANCH  16  19
ENDBRANCH  12  13
ENDBRANCH  11  12
ENDBRANCH  10  11
ENDBRANCH   9  10
ENDBRANCH   1   9
BRANCH   6  27
ATOM     27  C   UNL d   1      12.662   3.441 -18.914  0.00  0.00     0.036 A 
ATOM     28  C   UNL d   1      13.246   3.284 -20.203  0.00  0.00     0.011 A 
ATOM     29  C   UNL d   1      13.551   2.011 -20.700  0.00  0.00     0.005 A 
ATOM     30  C   UNL d   1      13.286   0.860 -19.936  0.00  0.00     0.071 A 
ATOM     31  C   UNL d   1      12.672   0.990 -18.675  0.00  0.00     0.005 A 
ATOM     32  C   UNL d   1      12.376   2.260 -18.173  0.00  0.00     0.011 A 
BRANCH  30  33
ATOM     33  C   UNL d   1      13.617  -0.516 -20.467  0.00  0.00     0.419 C 
ATOM     34  F   UNL d   1      14.645  -0.465 -21.322  0.00  0.00    -0.166 F 
ATOM     35  F   UNL d   1      13.927  -1.344 -19.469  0.00  0.00    -0.166 F 
ATOM     36  F   UNL d   1      12.544  -0.980 -21.105  0.00  0.00    -0.166 F 
ENDBRANCH  30  33
ENDBRANCH   6  27
TORSDOF 8
