REMARK  5 active torsions:
REMARK  status: ('A' for Active; 'I' for Inactive)
REMARK    1  A    between atoms: C_9  and  N_10 
REMARK    2  A    between atoms: N_13  and  C_14 
REMARK    3  A    between atoms: C_14  and  C_15 
REMARK    4  A    between atoms: C_15  and  C_16 
REMARK    5  A    between atoms: C_16  and  C_17 
ROOT
ATOM      1  N   UNL d   1       9.528   3.738 -14.491  0.00  0.00    -0.343 N 
ATOM      2  C   UNL d   1       9.449   5.184 -14.528  0.00  0.00     0.137 C 
ATOM      3  C   UNL d   1       8.815   5.713 -13.223  0.00  0.00     0.274 C 
ATOM      4  N   UNL d   1       9.568   5.238 -12.055  0.00  0.00     0.141 N 
ATOM      5  C   UNL d   1       9.525   3.774 -12.060  0.00  0.00     0.274 C 
ATOM      6  C   UNL d   1      10.170   3.183 -13.320  0.00  0.00     0.137 C 
ENDROOT
BRANCH   4   7
ATOM      7  C   UNL d   1       8.936   5.750 -10.838  0.00  0.00     0.251 C 
BRANCH   7   8
ATOM      8  C   UNL d   1       9.853   5.581  -9.613  0.00  0.00     0.040 C 
BRANCH   8   9
ATOM      9  C   UNL d   1       9.282   6.232  -8.346  0.00  0.00     0.030 C 
BRANCH   9  10
ATOM     10  C   UNL d   1      10.054   7.441  -7.927  0.00  0.00    -0.002 A 
ATOM     11  C   UNL d   1      10.678   7.690  -6.654  0.00  0.00     0.017 A 
ATOM     12  C   UNL d   1      11.297   8.971  -6.708  0.00  0.00     0.081 A 
ATOM     13  C   UNL d   1      10.797   6.971  -5.445  0.00  0.00     0.031 A 
ATOM     14  N   UNL d   1      11.063   9.436  -7.980  0.00  0.00    -0.244 NA
ATOM     15  C   UNL d   1      11.988   9.519  -5.614  0.00  0.00     0.021 A 
ATOM     16  C   UNL d   1      10.307   8.539  -8.706  0.00  0.00     0.095 A 
ATOM     17  C   UNL d   1      12.082   8.781  -4.420  0.00  0.00     0.031 A 
ATOM     18  C   UNL d   1      11.492   7.504  -4.341  0.00  0.00     0.140 A 
ATOM     19  F   UNL d   1      11.586   6.789  -3.196  0.00  0.00    -0.204 F 
ENDBRANCH   9  10
ENDBRANCH   8   9
ENDBRANCH   7   8
ENDBRANCH   4   7
BRANCH   1  20
ATOM     20  C   UNL d   1       9.052   2.932 -15.535  0.00  0.00     0.080 A 
ATOM     21  C   UNL d   1       9.412   3.204 -16.875  0.00  0.00     0.128 A 
ATOM     22  O   UNL d   1      10.315   4.205 -17.161  0.00  0.00    -0.321 OA
ATOM     23  C   UNL d   1       8.872   2.418 -17.919  0.00  0.00     0.108 A 
ATOM     24  C   UNL d   1      10.271   4.801 -18.465  0.00  0.00     0.202 C 
ATOM     25  C   UNL d   1       9.276   5.972 -18.474  0.00  0.00     0.043 C 
ATOM     26  C   UNL d   1       9.950   3.786 -19.584  0.00  0.00     0.283 C 
ATOM     27  N   UNL d   1       9.258   2.693 -19.245  0.00  0.00    -0.208 NA
ATOM     28  O   UNL d   1      10.307   3.995 -20.740  0.00  0.00    -0.268 OA
ATOM     29  C   UNL d   1       7.979   1.369 -17.637  0.00  0.00     0.021 A 
ATOM     30  C   UNL d   1       7.620   1.097 -16.306  0.00  0.00     0.003 A 
ATOM     31  C   UNL d   1       8.159   1.871 -15.257  0.00  0.00     0.019 A 
ENDBRANCH   1  20
TORSDOF 5
