REMARK  8 active torsions:
REMARK  status: ('A' for Active; 'I' for Inactive)
REMARK    1  A    between atoms: O_2  and  C_3 
REMARK    2  A    between atoms: C_8  and  N_9 
REMARK    3  A    between atoms: N_12  and  C_13 
REMARK    4  A    between atoms: C_13  and  C_14 
REMARK    5  A    between atoms: C_14  and  C_15 
REMARK    6  A    between atoms: C_15  and  C_16 
REMARK    7  A    between atoms: C_16  and  N_17 
REMARK    8  A    between atoms: C_19  and  C_20 
ROOT
ATOM      1  C   UNL d   1      12.462   2.086 -19.587  0.00  0.00     0.029 C 
ENDROOT
BRANCH   1   2
ATOM      2  C   UNL d   1      12.915   3.482 -19.131  0.00  0.00     0.037 C 
BRANCH   2   3
ATOM      3  C   UNL d   1      13.726   4.250 -20.194  0.00  0.00     0.251 C 
BRANCH   3   4
ATOM      4  N   UNL d   1      14.383   5.443 -19.655  0.00  0.00     0.141 N 
ATOM      5  C   UNL d   1      15.049   6.154 -20.762  0.00  0.00     0.274 C 
ATOM      6  C   UNL d   1      15.722   7.456 -20.265  0.00  0.00     0.137 C 
ATOM      7  N   UNL d   1      16.622   7.177 -19.152  0.00  0.00    -0.343 N 
ATOM      8  C   UNL d   1      16.078   6.358 -18.084  0.00  0.00     0.137 C 
ATOM      9  C   UNL d   1      15.414   5.104 -18.660  0.00  0.00     0.274 C 
BRANCH   7  10
ATOM     10  C   UNL d   1      17.961   7.534 -19.183  0.00  0.00     0.079 A 
ATOM     11  C   UNL d   1      18.940   6.738 -19.845  0.00  0.00     0.110 A 
ATOM     12  C   UNL d   1      20.285   7.179 -19.864  0.00  0.00     0.026 A 
ATOM     13  C   UNL d   1      20.657   8.383 -19.237  0.00  0.00     0.002 A 
ATOM     14  C   UNL d   1      19.695   9.155 -18.569  0.00  0.00     0.002 A 
ATOM     15  C   UNL d   1      18.355   8.734 -18.540  0.00  0.00     0.019 A 
BRANCH  11  16
ATOM     16  O   UNL d   1      18.507   5.570 -20.438  0.00  0.00    -0.327 OA
ATOM     17  C   UNL d   1      19.471   4.774 -21.121  0.00  0.00     0.181 C 
ENDBRANCH  11  16
ENDBRANCH   7  10
ENDBRANCH   3   4
ENDBRANCH   2   3
ENDBRANCH   1   2
BRANCH   1  18
ATOM     18  C   UNL d   1      12.419   1.083 -18.413  0.00  0.00     0.129 C 
BRANCH  18  19
ATOM     19  N   UNL d   1      11.304   1.306 -17.512  0.00  0.00    -0.231 N 
ATOM     20  N   UNL d   1      11.309   2.352 -16.653  0.00  0.00    -0.064 NA
ATOM     21  N   UNL d   1      10.188   2.319 -16.009  0.00  0.00    -0.129 NA
ATOM     22  C   UNL d   1       9.441   1.214 -16.421  0.00  0.00     0.123 A 
ATOM     23  C   UNL d   1      10.156   0.560 -17.385  0.00  0.00     0.118 A 
BRANCH  22  24
ATOM     24  C   UNL d   1       8.127   0.915 -15.852  0.00  0.00     0.021 A 
ATOM     25  C   UNL d   1       7.230   0.074 -16.543  0.00  0.00     0.003 A 
ATOM     26  C   UNL d   1       5.976  -0.239 -15.980  0.00  0.00     0.018 A 
ATOM     27  C   UNL d   1       5.595   0.271 -14.712  0.00  0.00     0.081 A 
ATOM     28  C   UNL d   1       5.084  -1.076 -16.674  0.00  0.00     0.003 A 
ATOM     29  C   UNL d   1       6.495   1.119 -14.039  0.00  0.00     0.019 A 
ATOM     30  N   UNL d   1       4.403  -0.018 -14.143  0.00  0.00    -0.244 NA
ATOM     31  C   UNL d   1       7.751   1.435 -14.598  0.00  0.00     0.003 A 
ATOM     32  C   UNL d   1       3.550  -0.812 -14.824  0.00  0.00     0.099 A 
ATOM     33  C   UNL d   1       3.843  -1.360 -16.084  0.00  0.00     0.021 A 
ENDBRANCH  22  24
ENDBRANCH  18  19
ENDBRANCH   1  18
TORSDOF 8
