REMARK  2 active torsions:
REMARK  status: ('A' for Active; 'I' for Inactive)
REMARK    1  A    between atoms: N_13  and  C_14 
REMARK    2  A    between atoms: C_14  and  C_15 
ROOT
ATOM      1  C   UNL d   1      12.316   6.685  -3.466  0.00  0.00     0.003 A 
ATOM      2  C   UNL d   1      11.952   6.360  -4.787  0.00  0.00     0.011 A 
ATOM      3  C   UNL d   1      11.371   7.279  -5.690  0.00  0.00     0.038 A 
ATOM      4  C   UNL d   1      11.205   8.538  -5.169  0.00  0.00     0.025 A 
ATOM      5  C   UNL d   1      10.660   9.683  -5.760  0.00  0.00     0.001 A 
ATOM      6  C   UNL d   1      10.659  10.687  -4.848  0.00  0.00     0.095 A 
ATOM      7  N   UNL d   1      11.242  10.164  -3.688  0.00  0.00    -0.244 NA
ATOM      8  C   UNL d   1      11.568   8.887  -3.868  0.00  0.00     0.082 A 
ATOM      9  C   UNL d   1      12.140   7.981  -2.998  0.00  0.00     0.019 A 
ATOM     10  C   UNL d   1      10.267   9.417  -7.205  0.00  0.00     0.046 C 
ATOM     11  C   UNL d   1       9.954   7.941  -7.504  0.00  0.00     0.100 C 
ATOM     12  C   UNL d   1       9.714   7.779  -9.006  0.00  0.00     0.267 C 
ATOM     13  N   UNL d   1       9.360   6.389  -9.299  0.00  0.00     0.140 N 
ATOM     14  C   UNL d   1      10.562   5.648  -8.977  0.00  0.00     0.268 C 
ATOM     15  C   UNL d   1      10.850   5.728  -7.484  0.00  0.00     0.112 C 
ATOM     16  N   UNL d   1      11.040   7.077  -7.047  0.00  0.00    -0.249 NA
ENDROOT
BRANCH  13  17
ATOM     17  C   UNL d   1       9.162   6.257 -10.733  0.00  0.00     0.250 C 
BRANCH  17  18
ATOM     18  C   UNL d   1       8.495   4.917 -11.095  0.00  0.00     0.033 C 
ATOM     19  C   UNL d   1       7.056   5.133 -11.577  0.00  0.00     0.002 C 
ATOM     20  C   UNL d   1       7.022   5.828 -12.937  0.00  0.00     0.000 C 
ATOM     21  C   UNL d   1       7.867   5.054 -13.963  0.00  0.00     0.000 C 
ATOM     22  C   UNL d   1       9.316   4.869 -13.502  0.00  0.00     0.000 C 
ATOM     23  C   UNL d   1       9.318   4.163 -12.158  0.00  0.00     0.002 C 
ENDBRANCH  17  18
ENDBRANCH  13  17
TORSDOF 2
