REMARK  6 active torsions:
REMARK  status: ('A' for Active; 'I' for Inactive)
REMARK    1  A    between atoms: S_2  and  N_4 
REMARK    2  A    between atoms: S_2  and  C_22 
REMARK    3  A    between atoms: N_4  and  C_5 
REMARK    4  A    between atoms: N_13  and  C_14 
REMARK    5  A    between atoms: C_14  and  C_15 
REMARK    6  A    between atoms: C_25  and  C_26 
ROOT
ATOM      1  C   UNL d   1       7.279   4.832 -12.508  0.00  0.00     0.093 A 
ATOM      2  C   UNL d   1       6.149   4.023 -12.281  0.00  0.00     0.020 A 
ATOM      3  C   UNL d   1       5.939   2.879 -13.094  0.00  0.00    -0.003 A 
ATOM      4  C   UNL d   1       6.865   2.520 -14.105  0.00  0.00    -0.024 A 
ATOM      5  C   UNL d   1       7.989   3.341 -14.322  0.00  0.00    -0.022 A 
ATOM      6  C   UNL d   1       8.162   4.455 -13.521  0.00  0.00     0.015 A 
ATOM      7  C   UNL d   1       9.048   3.160 -15.389  0.00  0.00     0.061 C 
ATOM      8  C   UNL d   1       9.691   1.817 -15.284  0.00  0.00     0.255 C 
ATOM      9  N   UNL d   1       8.887   0.785 -15.937  0.00  0.00     0.144 N 
ATOM     10  C   UNL d   1       7.838   0.328 -15.018  0.00  0.00     0.255 C 
ATOM     11  C   UNL d   1       6.634   1.277 -14.935  0.00  0.00     0.061 C 
ENDROOT
BRANCH   1  12
ATOM     12  N   UNL d   1       7.520   5.996 -11.762  0.00  0.00    -0.158 NA
BRANCH  12  13
ATOM     13  S   UNL d   1       8.780   7.227 -11.976  0.00  0.00     0.285 S 
ATOM     14  O   UNL d   1       9.852   6.673 -12.765  0.00  0.00    -0.198 OA
ATOM     15  O   UNL d   1       8.091   8.470 -12.390  0.00  0.00    -0.198 OA
BRANCH  13  16
ATOM     16  C   UNL d   1       9.469   7.376 -10.330  0.00  0.00     0.105 A 
ATOM     17  C   UNL d   1      10.094   8.578  -9.972  0.00  0.00     0.013 A 
ATOM     18  C   UNL d   1      10.575   8.745  -8.671  0.00  0.00     0.001 A 
ATOM     19  C   UNL d   1      10.440   7.721  -7.703  0.00  0.00     0.000 A 
ATOM     20  C   UNL d   1       9.814   6.510  -8.097  0.00  0.00     0.001 A 
ATOM     21  C   UNL d   1       9.341   6.331  -9.402  0.00  0.00     0.013 A 
BRANCH  19  22
ATOM     22  C   UNL d   1      10.952   7.905  -6.333  0.00  0.00     0.000 A 
ATOM     23  C   UNL d   1      11.351   6.797  -5.553  0.00  0.00     0.000 A 
ATOM     24  C   UNL d   1      11.851   6.955  -4.248  0.00  0.00     0.000 A 
ATOM     25  C   UNL d   1      11.964   8.242  -3.697  0.00  0.00     0.000 A 
ATOM     26  C   UNL d   1      11.571   9.357  -4.456  0.00  0.00     0.000 A 
ATOM     27  C   UNL d   1      11.072   9.193  -5.760  0.00  0.00     0.000 A 
ENDBRANCH  19  22
ENDBRANCH  13  16
ENDBRANCH  12  13
ENDBRANCH   1  12
BRANCH   9  28
ATOM     28  C   UNL d   1       9.790  -0.317 -16.259  0.00  0.00     0.297 C 
BRANCH  28  29
ATOM     29  C   UNL d   1      10.675  -0.081 -17.462  0.00  0.00     0.116 A 
ATOM     30  N   UNL d   1      11.602   0.864 -17.441  0.00  0.00    -0.150 NA
ATOM     31  N   UNL d   1      12.173   0.832 -18.647  0.00  0.00    -0.147 NA
ATOM     32  C   UNL d   1      11.691  -0.200 -19.415  0.00  0.00     0.123 A 
ATOM     33  C   UNL d   1      10.713  -0.818 -18.681  0.00  0.00     0.041 A 
ENDBRANCH  28  29
ENDBRANCH   9  28
TORSDOF 6
