REMARK  8 active torsions:
REMARK  status: ('A' for Active; 'I' for Inactive)
REMARK    1  A    between atoms: C_2  and  C_3 
REMARK       I    between atoms: C_2  and  N_9 
REMARK    2  A    between atoms: C_3  and  C_4 
REMARK    3  A    between atoms: C_4  and  C_5 
REMARK    4  A    between atoms: N_9  and  C_10 
REMARK    5  A    between atoms: C_13  and  C_14 
REMARK    6  A    between atoms: C_14  and  C_15 
REMARK    7  A    between atoms: C_15  and  N_16 
REMARK    8  A    between atoms: C_19  and  C_20 
ROOT
ATOM      1  C   UNL d   1       8.357   5.756 -12.094  0.00  0.00     0.035 C 
ENDROOT
BRANCH   1   2
ATOM      2  C   UNL d   1       7.877   4.784 -13.192  0.00  0.00     0.002 C 
ATOM      3  C   UNL d   1       8.892   3.653 -13.453  0.00  0.00     0.002 C 
ATOM      4  C   UNL d   1       8.395   2.660 -14.510  0.00  0.00     0.024 C 
ATOM      5  C   UNL d   1       6.991   2.101 -14.169  0.00  0.00     0.106 C 
ATOM      6  C   UNL d   1       5.993   3.239 -13.943  0.00  0.00     0.024 C 
ATOM      7  C   UNL d   1       6.465   4.222 -12.886  0.00  0.00     0.002 C 
BRANCH   5   8
ATOM      8  N   UNL d   1       6.563   1.197 -15.236  0.00  0.00    -0.240 NA
ATOM      9  C   UNL d   1       5.787   0.127 -15.038  0.00  0.00     0.252 C 
ATOM     10  O   UNL d   1       5.096  -0.052 -14.039  0.00  0.00    -0.271 OA
BRANCH   9  11
ATOM     11  C   UNL d   1       5.860  -0.950 -16.113  0.00  0.00     0.098 C 
BRANCH  11  12
ATOM     12  C   UNL d   1       4.741  -0.858 -17.155  0.00  0.00     0.113 C 
BRANCH  12  13
ATOM     13  C   UNL d   1       5.137  -0.043 -18.395  0.00  0.00     0.398 C 
ATOM     14  F   UNL d   1       6.133  -0.652 -19.041  0.00  0.00    -0.170 F 
ATOM     15  F   UNL d   1       4.092   0.042 -19.215  0.00  0.00    -0.170 F 
ATOM     16  F   UNL d   1       5.533   1.187 -18.055  0.00  0.00    -0.170 F 
ENDBRANCH  12  13
ENDBRANCH  11  12
ENDBRANCH   9  11
ENDBRANCH   5   8
ENDBRANCH   1   2
BRANCH   1  17
ATOM     17  C   UNL d   1       8.425   5.091 -10.707  0.00  0.00     0.250 C 
BRANCH  17  18
ATOM     18  N   UNL d   1       8.877   6.004  -9.683  0.00  0.00     0.137 N 
ATOM     19  C   UNL d   1       8.546   5.443  -8.373  0.00  0.00     0.251 C 
ATOM     20  C   UNL d   1       8.942   6.436  -7.271  0.00  0.00     0.040 C 
ATOM     21  C   UNL d   1      10.446   6.762  -7.336  0.00  0.00     0.026 C 
ATOM     22  C   UNL d   1      10.824   7.162  -8.781  0.00  0.00     0.040 C 
ATOM     23  C   UNL d   1      10.312   6.146  -9.787  0.00  0.00     0.251 C 
BRANCH  21  24
ATOM     24  C   UNL d   1      10.832   7.843  -6.332  0.00  0.00    -0.024 A 
ATOM     25  C   UNL d   1      11.361   7.550  -5.054  0.00  0.00    -0.001 A 
ATOM     26  C   UNL d   1      11.659   8.522  -4.114  0.00  0.00     0.090 A 
ATOM     27  C   UNL d   1      11.600   6.229  -4.439  0.00  0.00     0.061 A 
ATOM     28  C   UNL d   1      11.453   9.866  -4.409  0.00  0.00     0.024 A 
ATOM     29  O   UNL d   1      12.082   8.032  -2.917  0.00  0.00    -0.331 OA
ATOM     30  C   UNL d   1      11.001  10.179  -5.706  0.00  0.00     0.002 A 
ATOM     31  C   UNL d   1      10.648   9.197  -6.644  0.00  0.00    -0.004 A 
ATOM     32  C   UNL d   1      12.053   6.601  -3.006  0.00  0.00     0.154 A 
ENDBRANCH  21  24
ENDBRANCH  17  18
ENDBRANCH   1  17
TORSDOF 8
