REMARK  0 active torsions:
REMARK  status: ('A' for Active; 'I' for Inactive)
ROOT
ATOM      1  C   UNL d   1      11.849   9.382  -6.110  0.00  0.00    -0.000 A 
ATOM      2  C   UNL d   1      12.524   9.157  -7.319  0.00  0.00    -0.000 A 
ATOM      3  C   UNL d   1      12.065   8.245  -8.286  0.00  0.00    -0.002 A 
ATOM      4  C   UNL d   1      10.909   7.517  -8.030  0.00  0.00     0.009 A 
ATOM      5  C   UNL d   1      10.251   7.686  -6.799  0.00  0.00    -0.022 A 
ATOM      6  C   UNL d   1      10.719   8.613  -5.838  0.00  0.00    -0.004 A 
ATOM      7  C   UNL d   1       9.067   6.814  -6.502  0.00  0.00     0.061 C 
ATOM      8  C   UNL d   1       8.527   6.043  -7.706  0.00  0.00     0.256 C 
ATOM      9  N   UNL d   1       9.624   5.451  -8.440  0.00  0.00     0.148 N 
ATOM     10  C   UNL d   1       9.129   4.508  -9.448  0.00  0.00     0.278 C 
ATOM     11  C   UNL d   1       8.464   5.116 -10.683  0.00  0.00     0.012 A 
ATOM     12  C   UNL d   1       7.476   4.572 -11.532  0.00  0.00    -0.002 A 
ATOM     13  C   UNL d   1       7.004   5.348 -12.609  0.00  0.00     0.001 A 
ATOM     14  C   UNL d   1       7.548   6.627 -12.843  0.00  0.00     0.019 A 
ATOM     15  C   UNL d   1       8.541   7.134 -12.030  0.00  0.00     0.081 A 
ATOM     16  N   UNL d   1       9.161   8.346 -11.999  0.00  0.00    -0.244 NA
ATOM     17  C   UNL d   1       9.999   8.417 -10.892  0.00  0.00     0.097 A 
ATOM     18  C   UNL d   1       9.849   7.232 -10.254  0.00  0.00     0.033 A 
ATOM     19  C   UNL d   1       8.964   6.389 -10.950  0.00  0.00     0.015 A 
ATOM     20  C   UNL d   1      10.387   6.534  -9.063  0.00  0.00     0.266 C 
ENDROOT
TORSDOF 0
