REMARK  10 active torsions:
REMARK  status: ('A' for Active; 'I' for Inactive)
REMARK    1  A    between atoms: N_2  and  C_4 
REMARK    2  A    between atoms: C_7  and  O_8 
REMARK    3  A    between atoms: O_8  and  C_9 
REMARK    4  A    between atoms: C_9  and  C_10 
REMARK    5  A    between atoms: C_10  and  N_11 
REMARK    6  A    between atoms: N_11  and  C_12 
REMARK    7  A    between atoms: C_12  and  C_13 
REMARK    8  A    between atoms: C_13  and  C_14 
REMARK    9  A    between atoms: C_14  and  O_15 
REMARK   10  A    between atoms: O_15  and  C_16 
ROOT
ATOM      1  C   UNL d   1       8.969   5.015 -11.777  0.00  0.00     0.323 C 
ENDROOT
BRANCH   1   2
ATOM      2  C   UNL d   1       8.052   5.320 -12.972  0.00  0.00     0.187 C 
BRANCH   2   3
ATOM      3  O   UNL d   1       8.225   4.328 -13.985  0.00  0.00    -0.329 OA
BRANCH   3   4
ATOM      4  C   UNL d   1       7.433   3.201 -13.989  0.00  0.00     0.094 A 
ATOM      5  C   UNL d   1       7.822   2.131 -14.825  0.00  0.00     0.026 A 
ATOM      6  C   UNL d   1       7.050   0.951 -14.910  0.00  0.00     0.025 A 
ATOM      7  C   UNL d   1       5.866   0.816 -14.149  0.00  0.00     0.127 A 
ATOM      8  C   UNL d   1       5.490   1.882 -13.298  0.00  0.00     0.025 A 
ATOM      9  C   UNL d   1       6.249   3.065 -13.228  0.00  0.00     0.026 A 
BRANCH   7  10
ATOM     10  N   UNL d   1       5.028  -0.392 -14.253  0.00  0.00    -0.114 N 
ATOM     11  O   UNL d   1       3.967  -0.410 -13.640  0.00  0.00    -0.532 OA
ATOM     12  O   UNL d   1       5.431  -1.324 -14.939  0.00  0.00    -0.532 OA
ENDBRANCH   7  10
ENDBRANCH   3   4
ENDBRANCH   2   3
ENDBRANCH   1   2
BRANCH   1  13
ATOM     13  N   UNL d   1       8.697   5.965 -10.710  0.00  0.00     0.342 N 
BRANCH  13  14
ATOM     14  C   UNL d   1       9.664   5.838  -9.637  0.00  0.00     0.293 C 
BRANCH  14  15
ATOM     15  C   UNL d   1       9.380   6.891  -8.557  0.00  0.00     0.071 C 
BRANCH  15  16
ATOM     16  C   UNL d   1      10.441   6.864  -7.455  0.00  0.00     0.151 C 
BRANCH  16  17
ATOM     17  O   UNL d   1      10.338   8.055  -6.681  0.00  0.00    -0.331 OA
BRANCH  17  18
ATOM     18  C   UNL d   1      10.989   8.121  -5.465  0.00  0.00     0.094 A 
ATOM     19  C   UNL d   1      11.477   6.991  -4.761  0.00  0.00     0.024 A 
ATOM     20  C   UNL d   1      12.090   7.144  -3.500  0.00  0.00     0.002 A 
ATOM     21  C   UNL d   1      12.226   8.420  -2.930  0.00  0.00     0.000 A 
ATOM     22  C   UNL d   1      11.738   9.546  -3.616  0.00  0.00     0.002 A 
ATOM     23  C   UNL d   1      11.124   9.395  -4.877  0.00  0.00     0.024 A 
ENDBRANCH  17  18
ENDBRANCH  16  17
ENDBRANCH  15  16
ENDBRANCH  14  15
ENDBRANCH  13  14
ENDBRANCH   1  13
TORSDOF 10
