REMARK  4 active torsions:
REMARK  status: ('A' for Active; 'I' for Inactive)
REMARK    1  A    between atoms: C_5  and  C_6 
REMARK    2  A    between atoms: C_6  and  C_7 
REMARK    3  A    between atoms: C_7  and  N_8 
REMARK    4  A    between atoms: N_11  and  C_12 
ROOT
ATOM      1  N   UNL d   1       9.083   5.907  -9.622  0.00  0.00     0.141 N 
ATOM      2  C   UNL d   1       9.386   7.326  -9.821  0.00  0.00     0.274 C 
ATOM      3  C   UNL d   1       9.165   8.113  -8.499  0.00  0.00     0.138 C 
ATOM      4  N   UNL d   1      10.001   7.557  -7.471  0.00  0.00    -0.329 N 
ATOM      5  C   UNL d   1       9.792   6.141  -7.287  0.00  0.00     0.138 C 
ATOM      6  C   UNL d   1       9.998   5.407  -8.616  0.00  0.00     0.274 C 
ENDROOT
BRANCH   1   7
ATOM      7  C   UNL d   1       9.268   5.154 -10.840  0.00  0.00     0.255 C 
BRANCH   7   8
ATOM      8  C   UNL d   1       8.174   5.463 -11.869  0.00  0.00     0.063 C 
BRANCH   8   9
ATOM      9  C   UNL d   1       7.968   4.366 -12.904  0.00  0.00    -0.003 A 
ATOM     10  C   UNL d   1       6.694   3.780 -13.001  0.00  0.00    -0.003 A 
ATOM     11  C   UNL d   1       6.454   2.748 -13.922  0.00  0.00    -0.005 A 
ATOM     12  C   UNL d   1       7.486   2.269 -14.762  0.00  0.00    -0.024 A 
ATOM     13  C   UNL d   1       7.186   1.134 -15.723  0.00  0.00     0.031 C 
ATOM     14  C   UNL d   1       8.773   2.854 -14.672  0.00  0.00    -0.009 A 
ATOM     15  C   UNL d   1       9.007   3.908 -13.764  0.00  0.00     0.076 A 
ATOM     16  C   UNL d   1       9.954   2.341 -15.495  0.00  0.00     0.033 C 
ATOM     17  N   UNL d   1      10.294   4.490 -13.682  0.00  0.00    -0.212 NA
ATOM     18  C   UNL d   1      11.284   4.296 -14.579  0.00  0.00     0.256 C 
ATOM     19  C   UNL d   1      10.938   3.482 -15.819  0.00  0.00     0.094 C 
ATOM     20  O   UNL d   1      12.416   4.741 -14.423  0.00  0.00    -0.270 OA
ATOM     21  C   UNL d   1      10.644   1.164 -14.775  0.00  0.00     0.005 C 
ENDBRANCH   8   9
ENDBRANCH   7   8
ENDBRANCH   1   7
BRANCH   4  22
ATOM     22  C   UNL d   1      10.761   8.362  -6.643  0.00  0.00     0.148 A 
ATOM     23  C   UNL d   1      11.230   8.001  -5.311  0.00  0.00     0.042 A 
ATOM     24  C   UNL d   1      12.004   9.070  -4.794  0.00  0.00     0.050 A 
ATOM     25  C   UNL d   1      11.054   6.878  -4.465  0.00  0.00     0.004 A 
ATOM     26  S   UNL d   1      12.020  10.350  -5.981  0.00  0.00     0.015 SA
ATOM     27  C   UNL d   1      12.661   9.007  -3.550  0.00  0.00     0.008 A 
ATOM     28  N   UNL d   1      11.107   9.546  -7.107  0.00  0.00    -0.192 NA
ATOM     29  C   UNL d   1      12.516   7.863  -2.756  0.00  0.00     0.001 A 
ATOM     30  C   UNL d   1      11.716   6.811  -3.210  0.00  0.00     0.000 A 
ENDBRANCH   4  22
TORSDOF 4
