REMARK  5 active torsions:
REMARK  status: ('A' for Active; 'I' for Inactive)
REMARK    1  A    between atoms: C_2  and  N_5 
REMARK    2  A    between atoms: N_5  and  C_6 
REMARK    3  A    between atoms: C_6  and  C_7 
REMARK    4  A    between atoms: C_7  and  C_9 
REMARK    5  A    between atoms: C_14  and  C_15 
ROOT
ATOM      1  C   UNL d   1      10.790   9.052  -6.670  0.00  0.00     0.010 A 
ATOM      2  C   UNL d   1       9.651   8.231  -6.515  0.00  0.00     0.000 A 
ATOM      3  C   UNL d   1       9.318   7.268  -7.495  0.00  0.00     0.027 A 
ATOM      4  C   UNL d   1      10.128   7.118  -8.642  0.00  0.00     0.129 A 
ATOM      5  O   UNL d   1       9.764   6.212  -9.599  0.00  0.00    -0.190 OA
ATOM      6  C   UNL d   1      11.293   7.909  -8.789  0.00  0.00     0.036 A 
ATOM      7  C   UNL d   1      11.611   8.847  -7.793  0.00  0.00    -0.002 A 
ENDROOT
BRANCH   1   8
ATOM      8  C   UNL d   1      11.160  10.125  -5.650  0.00  0.00     0.198 C 
ATOM      9  O   UNL d   1      11.857  11.161  -6.275  0.00  0.00    -0.216 OA
BRANCH   8  10
ATOM     10  C   UNL d   1      12.092   9.548  -4.559  0.00  0.00     0.157 C 
BRANCH  10  11
ATOM     11  N   UNL d   1      11.372   8.575  -3.768  0.00  0.00    -0.296 NA
BRANCH  11  12
ATOM     12  C   UNL d   1      12.017   7.746  -2.736  0.00  0.00     0.080 C 
ATOM     13  C   UNL d   1      12.622   8.578  -1.608  0.00  0.00     0.024 C 
ATOM     14  C   UNL d   1      13.052   6.942  -3.416  0.00  0.00     0.024 C 
ATOM     15  C   UNL d   1      11.029   6.727  -2.150  0.00  0.00     0.024 C 
ENDBRANCH  11  12
ENDBRANCH  10  11
ENDBRANCH   8  10
ENDBRANCH   1   8
BRANCH   6  16
ATOM     16  C   UNL d   1      12.190   7.793 -10.012  0.00  0.00     0.211 C 
ATOM     17  O   UNL d   1      13.568   7.978  -9.741  0.00  0.00    -0.215 OA
ENDBRANCH   6  16
TORSDOF 5
