REMARK  7 active torsions:
REMARK  status: ('A' for Active; 'I' for Inactive)
REMARK    1  A    between atoms: O_2  and  C_3 
REMARK    2  A    between atoms: C_8  and  N_9 
REMARK    3  A    between atoms: N_12  and  C_13 
REMARK    4  A    between atoms: C_13  and  C_14 
REMARK    5  A    between atoms: C_14  and  C_15 
REMARK    6  A    between atoms: C_15  and  N_16 
REMARK       I    between atoms: N_16  and  C_17 
REMARK    7  A    between atoms: C_17  and  C_19 
ROOT
ATOM      1  N   UNL d   1       8.203   4.718 -12.273  0.00  0.00    -0.343 N 
ATOM      2  C   UNL d   1       7.395   5.926 -12.296  0.00  0.00     0.137 C 
ATOM      3  C   UNL d   1       8.302   7.164 -12.111  0.00  0.00     0.274 C 
ATOM      4  N   UNL d   1       9.097   7.042 -10.883  0.00  0.00     0.141 N 
ATOM      5  C   UNL d   1       9.937   5.856 -10.966  0.00  0.00     0.274 C 
ATOM      6  C   UNL d   1       9.093   4.585 -11.132  0.00  0.00     0.137 C 
ENDROOT
BRANCH   4   7
ATOM      7  C   UNL d   1       9.865   8.273 -10.683  0.00  0.00     0.253 C 
BRANCH   7   8
ATOM      8  C   UNL d   1      10.518   8.337  -9.292  0.00  0.00     0.062 C 
BRANCH   8   9
ATOM      9  C   UNL d   1       9.482   8.436  -8.148  0.00  0.00     0.131 C 
BRANCH   9  10
ATOM     10  N   UNL d   1      10.108   8.570  -6.833  0.00  0.00    -0.233 NA
ATOM     11  C   UNL d   1      10.994   7.724  -6.281  0.00  0.00     0.294 C 
ATOM     12  O   UNL d   1      11.407   6.704  -6.831  0.00  0.00    -0.264 OA
BRANCH  11  13
ATOM     13  C   UNL d   1      11.437   8.061  -4.890  0.00  0.00     0.158 A 
ATOM     14  N   UNL d   1      11.442   9.361  -4.485  0.00  0.00    -0.236 NA
ATOM     15  C   UNL d   1      11.862   9.591  -3.225  0.00  0.00     0.120 A 
ATOM     16  C   UNL d   1      12.267   8.544  -2.367  0.00  0.00     0.120 A 
ATOM     17  N   UNL d   1      12.265   7.253  -2.762  0.00  0.00    -0.239 NA
ATOM     18  C   UNL d   1      11.859   7.026  -4.029  0.00  0.00     0.123 A 
ENDBRANCH  11  13
ENDBRANCH   9  10
ENDBRANCH   8   9
ENDBRANCH   7   8
ENDBRANCH   4   7
BRANCH   1  19
ATOM     19  C   UNL d   1       8.225   3.799 -13.337  0.00  0.00     0.079 A 
ATOM     20  C   UNL d   1       9.442   3.417 -13.956  0.00  0.00     0.110 A 
ATOM     21  C   UNL d   1       9.411   2.419 -14.965  0.00  0.00     0.026 A 
ATOM     22  C   UNL d   1       8.197   1.828 -15.356  0.00  0.00     0.002 A 
ATOM     23  C   UNL d   1       6.999   2.223 -14.747  0.00  0.00     0.002 A 
ATOM     24  C   UNL d   1       7.008   3.214 -13.747  0.00  0.00     0.019 A 
BRANCH  20  25
ATOM     25  O   UNL d   1      10.602   4.045 -13.547  0.00  0.00    -0.327 OA
ATOM     26  C   UNL d   1      11.821   3.688 -14.176  0.00  0.00     0.181 C 
ENDBRANCH  20  25
ENDBRANCH   1  19
TORSDOF 7
