REMARK  2 active torsions:
REMARK  status: ('A' for Active; 'I' for Inactive)
REMARK    1  A    between atoms: C_7  and  C_8 
REMARK    2  A    between atoms: C_14  and  N_15 
ROOT
ATOM      1  C   UNL d   1       8.180   0.731 -16.242  0.00  0.00    -0.001 A 
ATOM      2  C   UNL d   1       9.218  -0.141 -16.627  0.00  0.00     0.001 A 
ATOM      3  C   UNL d   1      10.412   0.368 -17.163  0.00  0.00     0.006 A 
ATOM      4  C   UNL d   1      10.594   1.753 -17.297  0.00  0.00     0.027 A 
ATOM      5  C   UNL d   1       9.555   2.662 -16.920  0.00  0.00     0.015 A 
ATOM      6  C   UNL d   1       8.345   2.112 -16.425  0.00  0.00    -0.002 A 
ATOM      7  C   UNL d   1       9.700   4.198 -16.864  0.00  0.00     0.246 C 
ATOM      8  C   UNL d   1      10.711   4.910 -17.788  0.00  0.00     0.065 C 
ATOM      9  C   UNL d   1      10.844   4.325 -19.181  0.00  0.00    -0.014 A 
ATOM     10  C   UNL d   1      10.305   4.986 -20.303  0.00  0.00    -0.004 A 
ATOM     11  C   UNL d   1      10.458   4.423 -21.587  0.00  0.00    -0.000 A 
ATOM     12  C   UNL d   1      11.140   3.202 -21.750  0.00  0.00     0.001 A 
ATOM     13  C   UNL d   1      11.677   2.538 -20.630  0.00  0.00     0.006 A 
ATOM     14  C   UNL d   1      11.531   3.112 -19.354  0.00  0.00     0.025 A 
ATOM     15  S   UNL d   1      12.146   2.284 -17.938  0.00  0.00    -0.087 SA
ENDROOT
BRANCH   1  16
ATOM     16  C   UNL d   1       6.926   0.229 -15.656  0.00  0.00    -0.004 A 
ATOM     17  C   UNL d   1       5.971  -0.437 -16.456  0.00  0.00    -0.022 A 
ATOM     18  C   UNL d   1       6.229  -0.652 -17.937  0.00  0.00     0.031 C 
ATOM     19  C   UNL d   1       4.770  -0.909 -15.883  0.00  0.00    -0.004 A 
ATOM     20  C   UNL d   1       4.506  -0.707 -14.516  0.00  0.00    -0.000 A 
ATOM     21  C   UNL d   1       5.442  -0.025 -13.716  0.00  0.00    -0.000 A 
ATOM     22  C   UNL d   1       6.648   0.434 -14.284  0.00  0.00    -0.000 A 
ENDBRANCH   1  16
BRANCH   7  23
ATOM     23  N   UNL d   1       9.844   4.694 -15.486  0.00  0.00     0.144 N 
ATOM     24  C   UNL d   1      10.632   3.799 -14.652  0.00  0.00     0.286 C 
ATOM     25  C   UNL d   1      10.784   4.354 -13.262  0.00  0.00     0.286 C 
ATOM     26  N   UNL d   1       9.506   4.603 -12.569  0.00  0.00     0.143 N 
ATOM     27  C   UNL d   1       8.755   5.539 -13.365  0.00  0.00     0.286 C 
ATOM     28  C   UNL d   1       9.679   5.101 -11.213  0.00  0.00     0.285 C 
ATOM     29  C   UNL d   1       8.591   4.978 -14.781  0.00  0.00     0.286 C 
ENDBRANCH   7  23
TORSDOF 2
