REMARK  9 active torsions:
REMARK  status: ('A' for Active; 'I' for Inactive)
REMARK    1  A    between atoms: C_2  and  O_4 
REMARK    2  A    between atoms: O_4  and  C_5 
REMARK    3  A    between atoms: C_10  and  N_11 
REMARK    4  A    between atoms: N_15  and  C_16 
REMARK    5  A    between atoms: C_16  and  C_17 
REMARK    6  A    between atoms: C_17  and  C_18 
REMARK    7  A    between atoms: C_18  and  C_19 
REMARK    8  A    between atoms: C_19  and  O_20 
REMARK    9  A    between atoms: O_20  and  C_21 
ROOT
ATOM      1  N   UNL d   1       7.949   1.540 -15.010  0.00  0.00    -0.345 N 
ATOM      2  C   UNL d   1       8.753   0.538 -14.336  0.00  0.00     0.104 C 
ATOM      3  C   UNL d   1       9.953   0.021 -15.180  0.00  0.00     0.059 C 
ATOM      4  C   UNL d   1      10.830   1.143 -15.736  0.00  0.00     0.252 C 
ATOM      5  N   UNL d   1      10.378   1.637 -17.041  0.00  0.00     0.139 N 
ATOM      6  C   UNL d   1       9.164   2.451 -16.946  0.00  0.00     0.274 C 
ATOM      7  C   UNL d   1       7.941   1.653 -16.446  0.00  0.00     0.137 C 
ENDROOT
BRANCH   5   8
ATOM      8  C   UNL d   1      11.454   2.389 -17.689  0.00  0.00     0.250 C 
BRANCH   8   9
ATOM      9  C   UNL d   1      12.114   3.469 -16.796  0.00  0.00     0.038 C 
BRANCH   9  10
ATOM     10  C   UNL d   1      13.496   3.876 -17.279  0.00  0.00     0.035 C 
BRANCH  10  11
ATOM     11  C   UNL d   1      14.095   4.845 -16.241  0.00  0.00     0.151 C 
BRANCH  11  12
ATOM     12  O   UNL d   1      13.547   6.171 -16.352  0.00  0.00    -0.315 OA
BRANCH  12  13
ATOM     13  C   UNL d   1      14.058   6.979 -17.320  0.00  0.00     0.179 A 
ATOM     14  N   UNL d   1      15.002   6.458 -18.116  0.00  0.00    -0.204 NA
ATOM     15  C   UNL d   1      15.590   7.176 -19.042  0.00  0.00     0.163 A 
ATOM     16  C   UNL d   1      15.254   8.547 -19.245  0.00  0.00     0.014 A 
ATOM     17  N   UNL d   1      16.563   6.564 -19.863  0.00  0.00    -0.193 NA
ATOM     18  C   UNL d   1      14.260   9.107 -18.433  0.00  0.00     0.002 A 
ATOM     19  C   UNL d   1      15.933   9.301 -20.375  0.00  0.00     0.039 C 
ATOM     20  C   UNL d   1      13.621   8.321 -17.457  0.00  0.00     0.044 A 
ATOM     21  C   UNL d   1      17.289   8.698 -20.824  0.00  0.00     0.095 C 
ATOM     22  C   UNL d   1      17.352   7.166 -20.744  0.00  0.00     0.257 C 
ATOM     23  O   UNL d   1      18.150   6.558 -21.454  0.00  0.00    -0.270 OA
ENDBRANCH  12  13
ENDBRANCH  11  12
ENDBRANCH  10  11
ENDBRANCH   9  10
ENDBRANCH   8   9
ENDBRANCH   5   8
BRANCH   1  24
ATOM     24  C   UNL d   1       7.252   2.515 -14.228  0.00  0.00     0.079 A 
ATOM     25  C   UNL d   1       7.925   3.557 -13.555  0.00  0.00     0.109 A 
ATOM     26  C   UNL d   1       7.160   4.461 -12.735  0.00  0.00     0.026 A 
ATOM     27  C   UNL d   1       5.804   4.281 -12.595  0.00  0.00     0.002 A 
ATOM     28  C   UNL d   1       5.145   3.225 -13.247  0.00  0.00     0.002 A 
ATOM     29  C   UNL d   1       5.881   2.333 -14.050  0.00  0.00     0.019 A 
BRANCH  25  30
ATOM     30  O   UNL d   1       9.281   3.633 -13.662  0.00  0.00    -0.332 OA
BRANCH  30  31
ATOM     31  C   UNL d   1      10.011   4.373 -12.721  0.00  0.00     0.122 C 
ATOM     32  C   UNL d   1       9.765   3.959 -11.246  0.00  0.00     0.033 C 
ATOM     33  C   UNL d   1       9.891   5.864 -12.961  0.00  0.00     0.033 C 
ENDBRANCH  30  31
ENDBRANCH  25  30
ENDBRANCH   1  24
TORSDOF 9
