REMARK  7 active torsions:
REMARK  status: ('A' for Active; 'I' for Inactive)
REMARK    1  A    between atoms: O_2  and  C_3 
REMARK    2  A    between atoms: C_8  and  N_9 
REMARK    3  A    between atoms: N_12  and  C_13 
REMARK    4  A    between atoms: C_13  and  C_14 
REMARK    5  A    between atoms: C_14  and  C_16 
REMARK    6  A    between atoms: C_16  and  N_17 
REMARK    7  A    between atoms: C_21  and  C_23 
ROOT
ATOM      1  C   UNL d   1      11.130   2.587 -16.591  0.00  0.00     0.208 C 
ATOM      2  O   UNL d   1      12.505   2.518 -16.874  0.00  0.00    -0.219 OA
ENDROOT
BRANCH   1   3
ATOM      3  C   UNL d   1      10.846   3.965 -15.960  0.00  0.00     0.285 C 
BRANCH   3   4
ATOM      4  N   UNL d   1      10.029   3.899 -14.759  0.00  0.00     0.144 N 
ATOM      5  C   UNL d   1       9.414   5.187 -14.477  0.00  0.00     0.274 C 
ATOM      6  C   UNL d   1       8.460   5.160 -13.268  0.00  0.00     0.137 C 
ATOM      7  N   UNL d   1       9.239   4.730 -12.113  0.00  0.00    -0.343 N 
ATOM      8  C   UNL d   1       9.905   3.466 -12.332  0.00  0.00     0.137 C 
ATOM      9  C   UNL d   1      10.807   3.505 -13.582  0.00  0.00     0.274 C 
BRANCH   7  10
ATOM     10  C   UNL d   1       9.376   5.453 -10.904  0.00  0.00     0.079 A 
ATOM     11  C   UNL d   1       9.447   6.862 -10.900  0.00  0.00     0.110 A 
ATOM     12  C   UNL d   1       9.565   7.570  -9.663  0.00  0.00     0.026 A 
ATOM     13  C   UNL d   1       9.536   6.888  -8.433  0.00  0.00     0.002 A 
ATOM     14  C   UNL d   1       9.481   5.494  -8.441  0.00  0.00     0.002 A 
ATOM     15  C   UNL d   1       9.453   4.782  -9.660  0.00  0.00     0.019 A 
BRANCH  11  16
ATOM     16  O   UNL d   1       9.415   7.496 -12.125  0.00  0.00    -0.327 OA
ATOM     17  C   UNL d   1       9.019   8.829 -12.145  0.00  0.00     0.181 C 
ENDBRANCH  11  16
ENDBRANCH   7  10
ENDBRANCH   3   4
ENDBRANCH   1   3
BRANCH   1  18
ATOM     18  C   UNL d   1      10.359   2.362 -17.918  0.00  0.00     0.148 C 
BRANCH  18  19
ATOM     19  N   UNL d   1       9.446   1.217 -17.839  0.00  0.00    -0.247 N 
ATOM     20  C   UNL d   1       8.110   1.324 -17.890  0.00  0.00     0.265 A 
ATOM     21  C   UNL d   1       7.490  -0.062 -17.767  0.00  0.00     0.179 A 
ATOM     22  O   UNL d   1       7.458   2.356 -18.011  0.00  0.00    -0.269 OA
ATOM     23  N   UNL d   1       8.723  -0.818 -17.684  0.00  0.00    -0.209 NA
ATOM     24  C   UNL d   1       6.736  -0.438 -19.064  0.00  0.00     0.039 C 
ATOM     25  C   UNL d   1       9.826  -0.069 -17.731  0.00  0.00     0.348 A 
ATOM     26  O   UNL d   1      10.976  -0.492 -17.681  0.00  0.00    -0.245 OA
BRANCH  21  27
ATOM     27  C   UNL d   1       6.635  -0.137 -16.483  0.00  0.00     0.006 A 
ATOM     28  C   UNL d   1       5.244  -0.417 -16.539  0.00  0.00    -0.002 A 
ATOM     29  C   UNL d   1       4.478  -0.511 -15.366  0.00  0.00    -0.000 A 
ATOM     30  C   UNL d   1       5.072  -0.305 -14.112  0.00  0.00    -0.000 A 
ATOM     31  C   UNL d   1       6.451  -0.034 -14.030  0.00  0.00    -0.000 A 
ATOM     32  C   UNL d   1       7.224   0.055 -15.206  0.00  0.00    -0.002 A 
ENDBRANCH  21  27
ENDBRANCH  18  19
ENDBRANCH   1  18
TORSDOF 7
