REMARK  8 active torsions:
REMARK  status: ('A' for Active; 'I' for Inactive)
REMARK    1  A    between atoms: O_2  and  C_3 
REMARK    2  A    between atoms: C_8  and  N_9 
REMARK    3  A    between atoms: N_15  and  C_16 
REMARK    4  A    between atoms: C_16  and  C_17 
REMARK    5  A    between atoms: C_17  and  C_18 
REMARK    6  A    between atoms: C_18  and  S_19 
REMARK    7  A    between atoms: S_19  and  C_20 
REMARK    8  A    between atoms: C_23  and  C_24 
ROOT
ATOM      1  N   UNL d   1       9.716   6.603 -10.942  0.00  0.00    -0.347 N 
ATOM      2  C   UNL d   1       9.237   7.331 -12.111  0.00  0.00     0.102 C 
ATOM      3  C   UNL d   1       7.780   6.930 -12.438  0.00  0.00     0.024 C 
ATOM      4  C   UNL d   1       7.562   5.412 -12.505  0.00  0.00     0.008 C 
ATOM      5  C   UNL d   1       8.286   4.841 -13.744  0.00  0.00     0.035 C 
ATOM      6  C   UNL d   1       7.984   3.362 -13.954  0.00  0.00     0.250 C 
ATOM      7  N   UNL d   1       6.534   3.127 -14.047  0.00  0.00     0.137 N 
ATOM      8  C   UNL d   1       5.814   3.581 -12.852  0.00  0.00     0.250 C 
ATOM      9  C   UNL d   1       6.051   5.082 -12.627  0.00  0.00     0.035 C 
ATOM     10  C   UNL d   1       8.091   4.805 -11.184  0.00  0.00     0.024 C 
ATOM     11  C   UNL d   1       9.553   5.162 -10.908  0.00  0.00     0.102 C 
ENDROOT
BRANCH   7  12
ATOM     12  C   UNL d   1       6.254   1.710 -14.262  0.00  0.00     0.251 C 
BRANCH  12  13
ATOM     13  C   UNL d   1       6.693   1.276 -15.669  0.00  0.00     0.047 C 
BRANCH  13  14
ATOM     14  C   UNL d   1       6.320  -0.166 -16.008  0.00  0.00     0.067 C 
BRANCH  14  15
ATOM     15  S   UNL d   1       6.404  -0.562 -17.799  0.00  0.00    -0.075 SA
BRANCH  15  16
ATOM     16  C   UNL d   1       7.836   0.344 -18.293  0.00  0.00     0.193 A 
ATOM     17  N   UNL d   1       9.053  -0.211 -18.465  0.00  0.00    -0.289 N 
ATOM     18  C   UNL d   1       9.809   0.868 -18.808  0.00  0.00     0.167 A 
ATOM     19  C   UNL d   1       9.420  -1.614 -18.282  0.00  0.00     0.134 C 
ATOM     20  N   UNL d   1       9.099   1.998 -18.837  0.00  0.00    -0.128 NA
ATOM     21  N   UNL d   1       7.808   1.649 -18.554  0.00  0.00    -0.122 NA
BRANCH  18  22
ATOM     22  C   UNL d   1      11.243   0.885 -19.113  0.00  0.00     0.036 A 
ATOM     23  C   UNL d   1      12.073   1.917 -18.607  0.00  0.00     0.003 A 
ATOM     24  C   UNL d   1      13.457   1.930 -18.898  0.00  0.00     0.000 A 
ATOM     25  C   UNL d   1      14.027   0.890 -19.661  0.00  0.00     0.000 A 
ATOM     26  C   UNL d   1      13.207  -0.131 -20.172  0.00  0.00     0.000 A 
ATOM     27  C   UNL d   1      11.818  -0.103 -19.946  0.00  0.00     0.003 A 
ENDBRANCH  18  22
ENDBRANCH  15  16
ENDBRANCH  14  15
ENDBRANCH  13  14
ENDBRANCH  12  13
ENDBRANCH   7  12
BRANCH   1  28
ATOM     28  C   UNL d   1      10.219   7.289  -9.819  0.00  0.00     0.079 A 
ATOM     29  C   UNL d   1       9.725   7.056  -8.516  0.00  0.00     0.110 A 
ATOM     30  C   UNL d   1      10.281   7.753  -7.406  0.00  0.00     0.026 A 
ATOM     31  C   UNL d   1      11.343   8.645  -7.600  0.00  0.00     0.002 A 
ATOM     32  C   UNL d   1      11.828   8.847  -8.901  0.00  0.00     0.002 A 
ATOM     33  C   UNL d   1      11.249   8.209  -9.995  0.00  0.00     0.019 A 
BRANCH  29  34
ATOM     34  O   UNL d   1       8.699   6.161  -8.397  0.00  0.00    -0.327 OA
ATOM     35  C   UNL d   1       8.111   6.070  -7.141  0.00  0.00     0.181 C 
ENDBRANCH  29  34
ENDBRANCH   1  28
TORSDOF 8
