REMARK  4 active torsions:
REMARK  status: ('A' for Active; 'I' for Inactive)
REMARK    1  A    between atoms: C_4  and  C_5 
REMARK    2  A    between atoms: C_5  and  N_6 
REMARK    3  A    between atoms: C_9  and  N_10 
REMARK    4  A    between atoms: C_14  and  C_15 
ROOT
ATOM      1  N   UNL d   1       8.187   5.179 -11.883  0.00  0.00     0.141 N 
ATOM      2  C   UNL d   1       7.080   4.338 -12.335  0.00  0.00     0.253 C 
ATOM      3  C   UNL d   1       7.312   3.919 -13.792  0.00  0.00     0.060 C 
ATOM      4  C   UNL d   1       8.696   3.251 -14.000  0.00  0.00     0.109 C 
ATOM      5  C   UNL d   1       9.795   4.149 -13.401  0.00  0.00     0.060 C 
ATOM      6  C   UNL d   1       9.447   4.452 -11.961  0.00  0.00     0.253 C 
ENDROOT
BRANCH   4   7
ATOM      7  N   UNL d   1       8.938   2.911 -15.407  0.00  0.00    -0.253 N 
ATOM      8  C   UNL d   1       8.366   1.937 -16.226  0.00  0.00     0.079 A 
ATOM      9  C   UNL d   1       8.875   2.118 -17.481  0.00  0.00     0.041 A 
ATOM     10  C   UNL d   1       9.780   3.208 -17.348  0.00  0.00     0.122 A 
ATOM     11  N   UNL d   1       9.790   3.687 -16.123  0.00  0.00    -0.168 NA
BRANCH   8  12
ATOM     12  C   UNL d   1       7.365   0.959 -15.767  0.00  0.00     0.017 A 
ATOM     13  C   UNL d   1       7.385   0.383 -14.467  0.00  0.00     0.002 A 
ATOM     14  C   UNL d   1       6.379  -0.506 -14.047  0.00  0.00     0.000 A 
ATOM     15  C   UNL d   1       5.378  -0.925 -14.950  0.00  0.00     0.000 A 
ATOM     16  C   UNL d   1       5.377  -0.420 -16.262  0.00  0.00     0.000 A 
ATOM     17  C   UNL d   1       6.348   0.524 -16.660  0.00  0.00     0.002 A 
ENDBRANCH   8  12
ENDBRANCH   4   7
BRANCH   1  18
ATOM     18  C   UNL d   1       7.955   5.567 -10.501  0.00  0.00     0.277 C 
BRANCH  18  19
ATOM     19  C   UNL d   1       9.072   6.387  -9.861  0.00  0.00     0.011 A 
ATOM     20  C   UNL d   1       9.720   7.413 -10.593  0.00  0.00    -0.002 A 
ATOM     21  C   UNL d   1      10.763   8.154 -10.017  0.00  0.00    -0.000 A 
ATOM     22  C   UNL d   1      11.164   7.887  -8.692  0.00  0.00    -0.000 A 
ATOM     23  C   UNL d   1      10.513   6.881  -7.953  0.00  0.00    -0.000 A 
ATOM     24  C   UNL d   1       9.465   6.134  -8.536  0.00  0.00    -0.002 A 
ENDBRANCH  18  19
ENDBRANCH   1  18
TORSDOF 4
