REMARK  6 active torsions:
REMARK  status: ('A' for Active; 'I' for Inactive)
REMARK       I    between atoms: C_2  and  N_3 
REMARK    1  A    between atoms: C_2  and  C_23 
REMARK    2  A    between atoms: N_3  and  C_4 
REMARK    3  A    between atoms: C_4  and  C_5 
REMARK    4  A    between atoms: C_5  and  C_6 
REMARK    5  A    between atoms: C_6  and  C_7 
REMARK    6  A    between atoms: C_7  and  N_8 
ROOT
ATOM      1  C   UNL d   1       9.514   5.410 -12.003  0.00  0.00     0.029 C 
ENDROOT
BRANCH   1   2
ATOM      2  C   UNL d   1       9.099   6.751 -11.395  0.00  0.00     0.129 C 
BRANCH   2   3
ATOM      3  N   UNL d   1       9.683   6.918 -10.061  0.00  0.00    -0.234 NA
ATOM      4  C   UNL d   1       9.928   8.096  -9.473  0.00  0.00     0.275 C 
ATOM      5  O   UNL d   1       9.822   9.169 -10.046  0.00  0.00    -0.266 OA
BRANCH   4   6
ATOM      6  C   UNL d   1      10.393   8.055  -8.057  0.00  0.00     0.058 A 
ATOM      7  C   UNL d   1      11.150   9.138  -7.565  0.00  0.00     0.005 A 
ATOM      8  C   UNL d   1      11.612   9.143  -6.245  0.00  0.00     0.000 A 
ATOM      9  C   UNL d   1      11.313   8.058  -5.405  0.00  0.00     0.000 A 
ATOM     10  C   UNL d   1      10.529   6.992  -5.883  0.00  0.00     0.000 A 
ATOM     11  C   UNL d   1      11.798   8.042  -4.048  0.00  0.00     0.000 A 
ATOM     12  C   UNL d   1      10.052   6.991  -7.197  0.00  0.00     0.005 A 
ATOM     13  C   UNL d   1      12.165   6.804  -3.451  0.00  0.00     0.000 A 
ATOM     14  C   UNL d   1      11.836   9.231  -3.309  0.00  0.00     0.000 A 
ATOM     15  C   UNL d   1      12.625   6.785  -2.131  0.00  0.00     0.000 A 
ATOM     16  C   UNL d   1      12.702   7.981  -1.425  0.00  0.00     0.000 A 
ATOM     17  C   UNL d   1      12.269   9.177  -1.984  0.00  0.00     0.000 A 
ENDBRANCH   4   6
ENDBRANCH   2   3
ENDBRANCH   1   2
BRANCH   1  18
ATOM     18  C   UNL d   1       9.117   5.192 -13.438  0.00  0.00     0.037 C 
BRANCH  18  19
ATOM     19  C   UNL d   1       9.286   3.719 -13.850  0.00  0.00     0.250 C 
BRANCH  19  20
ATOM     20  N   UNL d   1       8.727   3.564 -15.195  0.00  0.00     0.135 N 
ATOM     21  C   UNL d   1       7.551   2.701 -15.280  0.00  0.00     0.224 C 
ATOM     22  C   UNL d   1       7.919   1.229 -15.148  0.00  0.00     0.053 C 
ATOM     23  C   UNL d   1       6.391   3.214 -14.391  0.00  0.00     0.038 C 
ATOM     24  C   UNL d   1       8.954   0.862 -16.240  0.00  0.00     0.008 C 
ATOM     25  C   UNL d   1       6.614   0.382 -15.183  0.00  0.00    -0.023 A 
ATOM     26  C   UNL d   1      10.151   1.834 -16.209  0.00  0.00     0.036 C 
ATOM     27  C   UNL d   1       9.692   3.301 -16.261  0.00  0.00     0.250 C 
ATOM     28  C   UNL d   1       5.524   0.781 -14.355  0.00  0.00    -0.001 A 
ATOM     29  C   UNL d   1       6.467  -0.770 -16.003  0.00  0.00    -0.004 A 
ATOM     30  C   UNL d   1       4.393  -0.058 -14.334  0.00  0.00     0.127 A 
ATOM     31  C   UNL d   1       5.636   2.120 -13.598  0.00  0.00     0.030 C 
ATOM     32  C   UNL d   1       4.284  -1.222 -15.080  0.00  0.00     0.027 A 
ATOM     33  O   UNL d   1       3.304   0.232 -13.642  0.00  0.00    -0.191 OA
ATOM     34  C   UNL d   1       5.344  -1.601 -15.917  0.00  0.00     0.002 A 
ENDBRANCH  19  20
ENDBRANCH  18  19
ENDBRANCH   1  18
TORSDOF 6
