REMARK  10 active torsions:
REMARK  status: ('A' for Active; 'I' for Inactive)
REMARK       I    between atoms: C_2  and  N_3 
REMARK    1  A    between atoms: C_2  and  C_24 
REMARK    2  A    between atoms: N_3  and  C_4 
REMARK    3  A    between atoms: C_4  and  C_5 
REMARK    4  A    between atoms: C_5  and  C_6 
REMARK    5  A    between atoms: C_6  and  C_7 
REMARK    6  A    between atoms: C_7  and  N_8 
REMARK    7  A    between atoms: N_11  and  C_12 
REMARK    8  A    between atoms: C_17  and  O_18 
REMARK    9  A    between atoms: O_18  and  C_19 
REMARK   10  A    between atoms: C_19  and  C_20 
ROOT
ATOM      1  N   UNL d   1       8.664   4.862 -13.190  0.00  0.00     0.141 N 
ATOM      2  C   UNL d   1       7.271   4.613 -12.786  0.00  0.00     0.274 C 
ATOM      3  C   UNL d   1       6.454   3.958 -13.882  0.00  0.00     0.137 C 
ATOM      4  N   UNL d   1       7.144   2.771 -14.382  0.00  0.00    -0.343 N 
ATOM      5  C   UNL d   1       8.554   2.958 -14.732  0.00  0.00     0.137 C 
ATOM      6  C   UNL d   1       9.315   3.610 -13.571  0.00  0.00     0.274 C 
ENDROOT
BRANCH   1   7
ATOM      7  C   UNL d   1       9.426   5.510 -12.123  0.00  0.00     0.251 C 
BRANCH   7   8
ATOM      8  C   UNL d   1       9.003   5.052 -10.701  0.00  0.00     0.037 C 
BRANCH   8   9
ATOM      9  C   UNL d   1       9.659   5.861  -9.611  0.00  0.00     0.029 C 
BRANCH   9  10
ATOM     10  C   UNL d   1       8.827   5.851  -8.324  0.00  0.00     0.129 C 
BRANCH  10  11
ATOM     11  N   UNL d   1       9.563   6.407  -7.202  0.00  0.00    -0.234 NA
ATOM     12  C   UNL d   1      10.360   7.486  -7.216  0.00  0.00     0.275 C 
ATOM     13  O   UNL d   1      10.636   8.162  -8.207  0.00  0.00    -0.266 OA
BRANCH  12  14
ATOM     14  C   UNL d   1      10.866   7.913  -5.883  0.00  0.00     0.059 A 
ATOM     15  C   UNL d   1      11.355   6.970  -4.949  0.00  0.00     0.028 A 
ATOM     16  C   UNL d   1      11.862   7.424  -3.738  0.00  0.00     0.130 A 
ATOM     17  C   UNL d   1      11.860   8.822  -3.449  0.00  0.00     0.130 A 
ATOM     18  N   UNL d   1      12.363   6.755  -2.699  0.00  0.00    -0.102 NA
ATOM     19  C   UNL d   1      11.397   9.743  -4.378  0.00  0.00     0.023 A 
ATOM     20  N   UNL d   1      12.327   9.036  -2.224  0.00  0.00    -0.102 NA
ATOM     21  C   UNL d   1      10.908   9.285  -5.608  0.00  0.00     0.006 A 
ATOM     22  O   UNL d   1      12.655   7.757  -1.765  0.00  0.00    -0.106 OA
ENDBRANCH  12  14
ENDBRANCH  10  11
ENDBRANCH   9  10
ENDBRANCH   8   9
ENDBRANCH   7   8
ENDBRANCH   1   7
BRANCH   4  23
ATOM     23  C   UNL d   1       6.483   1.538 -14.482  0.00  0.00     0.079 A 
ATOM     24  C   UNL d   1       6.741   0.638 -15.563  0.00  0.00     0.110 A 
ATOM     25  C   UNL d   1       6.036  -0.589 -15.611  0.00  0.00     0.026 A 
ATOM     26  C   UNL d   1       5.078  -0.912 -14.639  0.00  0.00     0.002 A 
ATOM     27  C   UNL d   1       4.788  -0.009 -13.608  0.00  0.00     0.002 A 
ATOM     28  C   UNL d   1       5.509   1.196 -13.514  0.00  0.00     0.019 A 
BRANCH  24  29
ATOM     29  O   UNL d   1       7.593   1.030 -16.577  0.00  0.00    -0.326 OA
BRANCH  29  30
ATOM     30  C   UNL d   1       8.321   0.055 -17.330  0.00  0.00     0.187 C 
BRANCH  30  31
ATOM     31  C   UNL d   1       9.653  -0.292 -16.637  0.00  0.00     0.226 C 
ATOM     32  F   UNL d   1      10.271  -1.241 -17.333  0.00  0.00    -0.232 F 
ENDBRANCH  30  31
ENDBRANCH  29  30
ENDBRANCH  24  29
ENDBRANCH   4  23
TORSDOF 10
