REMARK  6 active torsions:
REMARK  status: ('A' for Active; 'I' for Inactive)
REMARK    1  A    between atoms: O_2  and  C_3 
REMARK    2  A    between atoms: C_8  and  N_9 
REMARK    3  A    between atoms: N_12  and  C_13 
REMARK    4  A    between atoms: C_13  and  C_14 
REMARK    5  A    between atoms: C_14  and  N_15 
REMARK       I    between atoms: N_15  and  C_16 
REMARK    6  A    between atoms: C_16  and  C_18 
ROOT
ATOM      1  C   UNL d   1       9.279   5.640 -11.282  0.00  0.00     0.277 C 
ENDROOT
BRANCH   1   2
ATOM      2  N   UNL d   1       8.801   5.240 -12.593  0.00  0.00     0.143 N 
ATOM      3  C   UNL d   1       9.886   5.295 -13.576  0.00  0.00     0.274 C 
ATOM      4  C   UNL d   1       9.357   4.857 -14.949  0.00  0.00     0.137 C 
ATOM      5  N   UNL d   1       8.773   3.527 -14.854  0.00  0.00    -0.343 N 
ATOM      6  C   UNL d   1       7.806   3.330 -13.788  0.00  0.00     0.137 C 
ATOM      7  C   UNL d   1       8.392   3.840 -12.463  0.00  0.00     0.274 C 
BRANCH   5   8
ATOM      8  C   UNL d   1       9.202   2.462 -15.677  0.00  0.00     0.079 A 
ATOM      9  C   UNL d   1       9.374   2.625 -17.076  0.00  0.00     0.110 A 
ATOM     10  C   UNL d   1       9.785   1.502 -17.842  0.00  0.00     0.026 A 
ATOM     11  C   UNL d   1      10.014   0.254 -17.236  0.00  0.00     0.002 A 
ATOM     12  C   UNL d   1       9.844   0.108 -15.851  0.00  0.00     0.002 A 
ATOM     13  C   UNL d   1       9.443   1.212 -15.078  0.00  0.00     0.019 A 
BRANCH   9  14
ATOM     14  O   UNL d   1       9.101   3.853 -17.651  0.00  0.00    -0.327 OA
ATOM     15  C   UNL d   1       9.293   4.018 -19.051  0.00  0.00     0.181 C 
ENDBRANCH   9  14
ENDBRANCH   5   8
ENDBRANCH   1   2
BRANCH   1  16
ATOM     16  C   UNL d   1       9.502   7.149 -11.140  0.00  0.00     0.164 C 
BRANCH  16  17
ATOM     17  N   UNL d   1      10.035   7.545  -9.844  0.00  0.00    -0.232 NA
ATOM     18  C   UNL d   1      10.015   6.850  -8.695  0.00  0.00     0.275 C 
ATOM     19  O   UNL d   1       9.700   5.661  -8.605  0.00  0.00    -0.266 OA
BRANCH  18  20
ATOM     20  C   UNL d   1      10.464   7.607  -7.480  0.00  0.00     0.058 A 
ATOM     21  C   UNL d   1      10.977   6.892  -6.383  0.00  0.00     0.005 A 
ATOM     22  C   UNL d   1      11.344   7.540  -5.195  0.00  0.00     0.000 A 
ATOM     23  C   UNL d   1      11.205   8.948  -5.102  0.00  0.00     0.000 A 
ATOM     24  C   UNL d   1      11.846   6.790  -4.113  0.00  0.00     0.000 A 
ATOM     25  C   UNL d   1      10.701   9.679  -6.195  0.00  0.00     0.000 A 
ATOM     26  C   UNL d   1      11.575   9.589  -3.911  0.00  0.00     0.000 A 
ATOM     27  C   UNL d   1      10.313   9.014  -7.376  0.00  0.00     0.005 A 
ATOM     28  C   UNL d   1      12.096   8.853  -2.835  0.00  0.00     0.000 A 
ATOM     29  C   UNL d   1      12.230   7.453  -2.933  0.00  0.00     0.000 A 
ENDBRANCH  18  20
ENDBRANCH  16  17
ENDBRANCH   1  16
TORSDOF 6
