REMARK  4 active torsions:
REMARK  status: ('A' for Active; 'I' for Inactive)
REMARK    1  A    between atoms: O_2  and  C_3 
REMARK    2  A    between atoms: C_9  and  C_10 
REMARK    3  A    between atoms: N_13  and  C_14 
REMARK    4  A    between atoms: C_14  and  C_15 
ROOT
ATOM      1  C   UNL d   1      10.167   7.473  -8.172  0.00  0.00    -0.021 C 
ATOM      2  C   UNL d   1      10.049   7.728  -9.488  0.00  0.00     0.005 C 
ATOM      3  C   UNL d   1       9.292   6.848 -10.471  0.00  0.00     0.277 C 
ATOM      4  N   UNL d   1       8.984   5.530  -9.867  0.00  0.00     0.146 N 
ATOM      5  C   UNL d   1       8.432   5.679  -8.532  0.00  0.00     0.256 C 
ATOM      6  C   UNL d   1       9.457   6.294  -7.571  0.00  0.00     0.061 C 
ENDROOT
BRANCH   4   7
ATOM      7  C   UNL d   1       8.009   4.824 -10.698  0.00  0.00     0.277 C 
BRANCH   7   8
ATOM      8  C   UNL d   1       8.561   4.406 -12.076  0.00  0.00     0.017 A 
ATOM      9  C   UNL d   1       7.689   3.701 -13.028  0.00  0.00     0.016 A 
ATOM     10  C   UNL d   1       8.304   3.259 -14.244  0.00  0.00     0.084 A 
ATOM     11  C   UNL d   1       6.368   3.307 -12.717  0.00  0.00     0.001 A 
ATOM     12  N   UNL d   1       9.635   3.624 -14.550  0.00  0.00    -0.208 NA
ATOM     13  C   UNL d   1       7.621   2.403 -15.109  0.00  0.00     0.019 A 
ATOM     14  C   UNL d   1      10.417   4.320 -13.730  0.00  0.00     0.279 A 
ATOM     15  C   UNL d   1       9.830   4.652 -12.433  0.00  0.00     0.060 A 
ATOM     16  O   UNL d   1      11.525   4.698 -14.095  0.00  0.00    -0.265 OA
ATOM     17  C   UNL d   1       6.335   1.967 -14.767  0.00  0.00     0.002 A 
ATOM     18  C   UNL d   1       5.717   2.414 -13.577  0.00  0.00     0.000 A 
ENDBRANCH   7   8
ENDBRANCH   4   7
BRANCH   1  19
ATOM     19  C   UNL d   1      10.959   8.340  -7.281  0.00  0.00     0.017 A 
ATOM     20  C   UNL d   1      11.421   9.550  -7.643  0.00  0.00     0.099 A 
ATOM     21  N   UNL d   1      12.021  10.144  -6.550  0.00  0.00    -0.244 NA
ATOM     22  C   UNL d   1      12.053   9.277  -5.492  0.00  0.00     0.082 A 
ATOM     23  C   UNL d   1      12.659   9.384  -4.245  0.00  0.00     0.021 A 
ATOM     24  C   UNL d   1      11.357   8.107  -5.925  0.00  0.00     0.021 A 
ATOM     25  C   UNL d   1      12.523   8.356  -3.333  0.00  0.00     0.026 A 
ATOM     26  C   UNL d   1      11.833   7.179  -3.707  0.00  0.00     0.094 A 
ATOM     27  C   UNL d   1      11.252   7.058  -4.977  0.00  0.00     0.026 A 
BRANCH  26  28
ATOM     28  O   UNL d   1      11.691   6.126  -2.848  0.00  0.00    -0.328 OA
ATOM     29  C   UNL d   1      12.691   6.014  -1.862  0.00  0.00     0.181 C 
ENDBRANCH  26  28
ENDBRANCH   1  19
TORSDOF 4
