REMARK  4 active torsions:
REMARK  status: ('A' for Active; 'I' for Inactive)
REMARK    1  A    between atoms: C_8  and  N_9 
REMARK    2  A    between atoms: N_12  and  C_13 
REMARK    3  A    between atoms: C_13  and  C_14 
REMARK    4  A    between atoms: C_18  and  C_19 
ROOT
ATOM      1  N   UNL d   1       9.439   6.332 -10.660  0.00  0.00    -0.343 N 
ATOM      2  C   UNL d   1       8.816   7.151 -11.688  0.00  0.00     0.137 C 
ATOM      3  C   UNL d   1       7.452   6.552 -12.158  0.00  0.00     0.275 C 
ATOM      4  N   UNL d   1       7.610   5.167 -12.581  0.00  0.00     0.145 N 
ATOM      5  C   UNL d   1       8.080   4.478 -11.389  0.00  0.00     0.275 C 
ATOM      6  C   UNL d   1       9.462   4.924 -10.917  0.00  0.00     0.137 C 
ENDROOT
BRANCH   4   7
ATOM      7  C   UNL d   1       6.319   4.607 -12.982  0.00  0.00     0.278 C 
BRANCH   7   8
ATOM      8  C   UNL d   1       6.366   3.153 -13.442  0.00  0.00     0.030 A 
ATOM      9  C   UNL d   1       7.332   2.695 -14.365  0.00  0.00     0.001 A 
ATOM     10  C   UNL d   1       7.356   1.332 -14.735  0.00  0.00     0.019 A 
ATOM     11  C   UNL d   1       6.384   0.489 -14.148  0.00  0.00     0.099 A 
ATOM     12  N   UNL d   1       5.458   0.906 -13.256  0.00  0.00    -0.243 NA
ATOM     13  C   UNL d   1       5.460   2.213 -12.918  0.00  0.00     0.097 A 
BRANCH  10  14
ATOM     14  C   UNL d   1       8.356   0.812 -15.686  0.00  0.00     0.002 A 
ATOM     15  C   UNL d   1       7.958   0.016 -16.783  0.00  0.00     0.000 A 
ATOM     16  C   UNL d   1       8.905  -0.481 -17.701  0.00  0.00     0.000 A 
ATOM     17  C   UNL d   1      10.270  -0.194 -17.529  0.00  0.00     0.000 A 
ATOM     18  C   UNL d   1      10.681   0.599 -16.442  0.00  0.00     0.000 A 
ATOM     19  C   UNL d   1       9.732   1.099 -15.528  0.00  0.00     0.000 A 
ENDBRANCH  10  14
ENDBRANCH   7   8
ENDBRANCH   4   7
BRANCH   1  20
ATOM     20  C   UNL d   1       9.766   6.821  -9.376  0.00  0.00     0.081 A 
ATOM     21  C   UNL d   1       8.896   6.732  -8.275  0.00  0.00     0.019 A 
ATOM     22  C   UNL d   1       9.249   7.287  -7.026  0.00  0.00     0.003 A 
ATOM     23  C   UNL d   1      10.516   7.878  -6.827  0.00  0.00     0.021 A 
ATOM     24  C   UNL d   1      11.406   7.953  -7.917  0.00  0.00     0.110 A 
ATOM     25  N   UNL d   1      12.678   8.448  -8.036  0.00  0.00    -0.196 NA
ATOM     26  C   UNL d   1      11.003   7.431  -9.160  0.00  0.00     0.137 A 
ATOM     27  C   UNL d   1      12.997   8.145  -9.296  0.00  0.00     0.323 A 
ATOM     28  O   UNL d   1      14.167   8.373  -9.927  0.00  0.00    -0.141 OA
ATOM     29  O   UNL d   1      12.030   7.593 -10.034  0.00  0.00    -0.266 OA
ENDBRANCH   1  20
TORSDOF 4
