REMARK  9 active torsions:
REMARK  status: ('A' for Active; 'I' for Inactive)
REMARK    1  A    between atoms: N_2  and  C_3 
REMARK    2  A    between atoms: C_6  and  C_7 
REMARK       I    between atoms: C_7  and  N_9 
REMARK    3  A    between atoms: N_9  and  C_10 
REMARK    4  A    between atoms: C_10  and  C_11 
REMARK    5  A    between atoms: C_11  and  C_12 
REMARK    6  A    between atoms: C_12  and  C_13 
REMARK    7  A    between atoms: C_13  and  N_14 
REMARK    8  A    between atoms: N_18  and  C_19 
REMARK    9  A    between atoms: C_24  and  O_25 
ROOT
ATOM      1  N   UNL d   1       9.285   2.906 -14.544  0.00  0.00     0.139 N 
ATOM      2  C   UNL d   1       9.905   1.577 -14.632  0.00  0.00     0.252 C 
ATOM      3  C   UNL d   1       9.920   1.036 -16.074  0.00  0.00     0.059 C 
ATOM      4  C   UNL d   1       8.666   0.231 -16.469  0.00  0.00     0.104 C 
ATOM      5  N   UNL d   1       7.409   0.903 -16.169  0.00  0.00    -0.345 N 
ATOM      6  C   UNL d   1       7.370   2.340 -16.039  0.00  0.00     0.137 C 
ATOM      7  C   UNL d   1       7.830   2.806 -14.652  0.00  0.00     0.274 C 
ENDROOT
BRANCH   1   8
ATOM      8  C   UNL d   1       9.599   3.492 -13.248  0.00  0.00     0.250 C 
BRANCH   8   9
ATOM      9  C   UNL d   1       9.313   5.003 -13.232  0.00  0.00     0.037 C 
BRANCH   9  10
ATOM     10  C   UNL d   1       9.349   5.475 -11.788  0.00  0.00     0.029 C 
BRANCH  10  11
ATOM     11  C   UNL d   1       9.279   6.995 -11.591  0.00  0.00     0.129 C 
BRANCH  11  12
ATOM     12  N   UNL d   1       9.791   7.420 -10.294  0.00  0.00    -0.234 NA
ATOM     13  C   UNL d   1       9.746   6.761  -9.117  0.00  0.00     0.275 C 
ATOM     14  O   UNL d   1       9.326   5.606  -8.985  0.00  0.00    -0.266 OA
BRANCH  13  15
ATOM     15  C   UNL d   1      10.305   7.492  -7.930  0.00  0.00     0.058 A 
ATOM     16  C   UNL d   1      10.623   6.753  -6.777  0.00  0.00     0.006 A 
ATOM     17  C   UNL d   1      11.082   7.368  -5.606  0.00  0.00     0.019 A 
ATOM     18  C   UNL d   1      11.253   8.770  -5.588  0.00  0.00     0.076 A 
ATOM     19  C   UNL d   1      10.953   9.528  -6.743  0.00  0.00     0.019 A 
ATOM     20  C   UNL d   1      10.469   8.898  -7.908  0.00  0.00     0.006 A 
BRANCH  18  21
ATOM     21  N   UNL d   1      11.703   9.445  -4.451  0.00  0.00    -0.269 NA
ATOM     22  C   UNL d   1      12.191   8.709  -3.300  0.00  0.00     0.152 C 
ENDBRANCH  18  21
ENDBRANCH  13  15
ENDBRANCH  11  12
ENDBRANCH  10  11
ENDBRANCH   9  10
ENDBRANCH   8   9
ENDBRANCH   1   8
BRANCH   5  23
ATOM     23  C   UNL d   1       6.244   0.136 -15.939  0.00  0.00     0.079 A 
ATOM     24  C   UNL d   1       5.850  -0.849 -16.870  0.00  0.00     0.110 A 
ATOM     25  C   UNL d   1       4.696  -1.623 -16.608  0.00  0.00     0.026 A 
ATOM     26  C   UNL d   1       3.928  -1.405 -15.449  0.00  0.00     0.002 A 
ATOM     27  C   UNL d   1       4.308  -0.413 -14.534  0.00  0.00     0.002 A 
ATOM     28  C   UNL d   1       5.464   0.356 -14.781  0.00  0.00     0.019 A 
BRANCH  24  29
ATOM     29  O   UNL d   1       6.608  -1.001 -18.022  0.00  0.00    -0.327 OA
ATOM     30  C   UNL d   1       6.308  -2.066 -18.901  0.00  0.00     0.181 C 
ENDBRANCH  24  29
ENDBRANCH   5  23
TORSDOF 9
