REMARK  7 active torsions:
REMARK  status: ('A' for Active; 'I' for Inactive)
REMARK       I    between atoms: C_2  and  N_3 
REMARK       I    between atoms: C_2  and  N_14 
REMARK    1  A    between atoms: N_3  and  C_4 
REMARK    2  A    between atoms: C_7  and  O_8 
REMARK    3  A    between atoms: O_8  and  C_9 
REMARK    4  A    between atoms: N_14  and  C_15 
REMARK    5  A    between atoms: N_18  and  C_19 
REMARK    6  A    between atoms: C_26  and  C_27 
REMARK    7  A    between atoms: N_34  and  C_35 
ROOT
ATOM      1  C   UNL d   1       9.730   3.783 -14.998  0.00  0.00     0.163 A 
ATOM      2  N   UNL d   1      10.726   4.258 -15.803  0.00  0.00    -0.205 NA
ATOM      3  C   UNL d   1      10.914   3.765 -17.035  0.00  0.00     0.202 A 
ATOM      4  N   UNL d   1      10.209   2.814 -17.655  0.00  0.00    -0.205 NA
ATOM      5  C   UNL d   1       9.197   2.342 -16.854  0.00  0.00     0.171 A 
ATOM      6  C   UNL d   1       8.910   2.750 -15.523  0.00  0.00     0.151 A 
ATOM      7  N   UNL d   1       7.825   2.050 -15.030  0.00  0.00    -0.222 NA
ATOM      8  C   UNL d   1       7.441   1.237 -15.963  0.00  0.00     0.150 A 
ATOM      9  N   UNL d   1       8.216   1.401 -17.116  0.00  0.00    -0.276 N 
ENDROOT
BRANCH   1  10
ATOM     10  N   UNL d   1       9.534   4.336 -13.772  0.00  0.00    -0.332 N 
ATOM     11  C   UNL d   1       8.856   3.690 -12.665  0.00  0.00     0.105 C 
ATOM     12  C   UNL d   1       7.747   4.593 -12.084  0.00  0.00     0.049 C 
ATOM     13  C   UNL d   1       8.306   5.957 -11.645  0.00  0.00     0.112 C 
ATOM     14  C   UNL d   1       9.029   6.563 -12.838  0.00  0.00     0.049 C 
ATOM     15  C   UNL d   1      10.114   5.599 -13.401  0.00  0.00     0.105 C 
BRANCH  13  16
ATOM     16  N   UNL d   1       9.187   5.805 -10.507  0.00  0.00    -0.219 NA
ATOM     17  C   UNL d   1       9.781   6.821  -9.860  0.00  0.00     0.364 C 
ATOM     18  O   UNL d   1       9.903   7.951 -10.323  0.00  0.00    -0.243 OA
ATOM     19  N   UNL d   1      10.186   6.447  -8.641  0.00  0.00    -0.190 NA
BRANCH  19  20
ATOM     20  C   UNL d   1      10.625   7.289  -7.590  0.00  0.00     0.105 A 
ATOM     21  C   UNL d   1      10.889   8.682  -7.667  0.00  0.00     0.120 A 
ATOM     22  N   UNL d   1      11.348   9.397  -6.615  0.00  0.00    -0.219 NA
ATOM     23  C   UNL d   1      11.534   8.761  -5.432  0.00  0.00     0.183 A 
ATOM     24  C   UNL d   1      11.197   7.402  -5.238  0.00  0.00     0.046 A 
ATOM     25  C   UNL d   1      10.775   6.670  -6.346  0.00  0.00     0.025 A 
BRANCH  23  26
ATOM     26  O   UNL d   1      12.155   9.519  -4.470  0.00  0.00    -0.257 OA
BRANCH  26  27
ATOM     27  C   UNL d   1      12.526   8.952  -3.290  0.00  0.00     0.456 C 
ATOM     28  F   UNL d   1      11.463   8.743  -2.489  0.00  0.00    -0.166 F 
ATOM     29  F   UNL d   1      13.147   7.766  -3.457  0.00  0.00    -0.166 F 
ENDBRANCH  26  27
ENDBRANCH  23  26
ENDBRANCH  19  20
ENDBRANCH  13  16
ENDBRANCH   1  10
BRANCH   9  30
ATOM     30  C   UNL d   1       8.004   0.632 -18.281  0.00  0.00     0.067 A 
ATOM     31  C   UNL d   1       9.047  -0.162 -18.801  0.00  0.00     0.018 A 
ATOM     32  C   UNL d   1       8.801  -1.002 -19.909  0.00  0.00     0.013 A 
ATOM     33  C   UNL d   1       7.529  -1.032 -20.500  0.00  0.00     0.058 A 
ATOM     34  C   UNL d   1       6.486  -0.234 -19.984  0.00  0.00     0.013 A 
ATOM     35 CL   UNL d   1       7.213  -2.101 -21.814  0.00  0.00    -0.082 Cl
ATOM     36  C   UNL d   1       6.732   0.620 -18.900  0.00  0.00     0.018 A 
ENDBRANCH   9  30
BRANCH   8  37
ATOM     37  C   UNL d   1       6.320   0.335 -15.602  0.00  0.00     0.045 A 
ATOM     38  C   UNL d   1       5.430   0.540 -14.481  0.00  0.00     0.061 A 
ATOM     39  C   UNL d   1       4.326  -0.313 -14.288  0.00  0.00     0.011 A 
ATOM     40 CL   UNL d   1       5.535   1.800 -13.273  0.00  0.00    -0.082 Cl
ATOM     41  C   UNL d   1       4.063  -1.366 -15.175  0.00  0.00     0.001 A 
ATOM     42  C   UNL d   1       4.953  -1.616 -16.231  0.00  0.00     0.000 A 
ATOM     43  C   UNL d   1       6.087  -0.809 -16.417  0.00  0.00     0.004 A 
ENDBRANCH   8  37
TORSDOF 7
