REMARK  6 active torsions:
REMARK  status: ('A' for Active; 'I' for Inactive)
REMARK    1  A    between atoms: S_2  and  C_3 
REMARK    2  A    between atoms: C_6  and  O_7 
REMARK    3  A    between atoms: O_7  and  C_8 
REMARK    4  A    between atoms: C_8  and  C_9 
REMARK    5  A    between atoms: C_9  and  N_10 
REMARK       I    between atoms: N_13  and  C_14 
REMARK    6  A    between atoms: C_14  and  C_16 
ROOT
ATOM      1  N   UNL d   1       8.994   5.153 -10.860  0.00  0.00     0.144 N 
ATOM      2  C   UNL d   1       8.512   5.169  -9.482  0.00  0.00     0.274 C 
ATOM      3  C   UNL d   1       9.590   5.659  -8.508  0.00  0.00     0.140 C 
ATOM      4  N   UNL d   1      10.039   6.996  -8.900  0.00  0.00    -0.311 N 
ATOM      5  C   UNL d   1      10.012   8.072  -8.089  0.00  0.00     0.275 C 
ATOM      6  O   UNL d   1       9.729   9.188  -8.525  0.00  0.00    -0.266 OA
ATOM      7  C   UNL d   1      10.438   7.094 -10.310  0.00  0.00     0.140 C 
ATOM      8  C   UNL d   1       9.361   6.519 -11.245  0.00  0.00     0.274 C 
ENDROOT
BRANCH   1   9
ATOM      9  C   UNL d   1       7.933   4.631 -11.730  0.00  0.00     0.283 C 
BRANCH   9  10
ATOM     10  C   UNL d   1       8.546   4.127 -13.056  0.00  0.00     0.184 C 
BRANCH  10  11
ATOM     11  O   UNL d   1       7.651   3.275 -13.751  0.00  0.00    -0.329 OA
BRANCH  11  12
ATOM     12  C   UNL d   1       8.180   2.358 -14.637  0.00  0.00     0.094 A 
ATOM     13  C   UNL d   1       9.572   2.201 -14.813  0.00  0.00     0.025 A 
ATOM     14  C   UNL d   1      10.073   1.235 -15.711  0.00  0.00     0.008 A 
ATOM     15  C   UNL d   1       9.191   0.430 -16.458  0.00  0.00     0.025 A 
ATOM     16  C   UNL d   1       7.792   0.583 -16.293  0.00  0.00     0.008 A 
ATOM     17  C   UNL d   1       7.297   1.542 -15.376  0.00  0.00     0.025 A 
BRANCH  15  18
ATOM     18  S   UNL d   1       9.866  -0.749 -17.595  0.00  0.00    -0.113 SA
ATOM     19  C   UNL d   1       8.515  -1.314 -18.651  0.00  0.00     0.074 C 
ENDBRANCH  15  18
ENDBRANCH  11  12
ENDBRANCH  10  11
ENDBRANCH   9  10
ENDBRANCH   1   9
BRANCH   5  20
ATOM     20  C   UNL d   1      10.550   7.937  -6.710  0.00  0.00     0.137 A 
ATOM     21  N   UNL d   1      10.732   9.089  -5.956  0.00  0.00    -0.241 NA
ATOM     22  C   UNL d   1      11.288   8.794  -4.724  0.00  0.00     0.082 A 
ATOM     23  C   UNL d   1      11.453   7.381  -4.706  0.00  0.00     0.019 A 
ATOM     24  C   UNL d   1      11.621   9.584  -3.612  0.00  0.00     0.019 A 
ATOM     25  C   UNL d   1      11.020   6.876  -5.973  0.00  0.00     0.025 A 
ATOM     26  C   UNL d   1      11.982   6.799  -3.533  0.00  0.00     0.002 A 
ATOM     27  C   UNL d   1      12.319   7.587  -2.417  0.00  0.00     0.000 A 
ATOM     28  C   UNL d   1      12.155   8.982  -2.458  0.00  0.00     0.002 A 
ENDBRANCH   5  20
TORSDOF 6
