REMARK  8 active torsions:
REMARK  status: ('A' for Active; 'I' for Inactive)
REMARK    1  A    between atoms: C_6  and  N_7 
REMARK    2  A    between atoms: N_10  and  C_11 
REMARK    3  A    between atoms: C_11  and  C_12 
REMARK    4  A    between atoms: C_12  and  C_13 
REMARK    5  A    between atoms: C_13  and  C_14 
REMARK    6  A    between atoms: C_14  and  O_15 
REMARK    7  A    between atoms: O_15  and  C_16 
REMARK    8  A    between atoms: C_19  and  C_20 
ROOT
ATOM      1  C   UNL d   1      12.823   0.647 -21.320  0.00  0.00     0.035 C 
ENDROOT
BRANCH   1   2
ATOM      2  C   UNL d   1      11.353   0.854 -20.987  0.00  0.00     0.038 C 
BRANCH   2   3
ATOM      3  C   UNL d   1      11.042   0.077 -19.693  0.00  0.00     0.251 C 
BRANCH   3   4
ATOM      4  N   UNL d   1       9.635   0.221 -19.338  0.00  0.00     0.141 N 
ATOM      5  C   UNL d   1       9.264  -0.891 -18.464  0.00  0.00     0.274 C 
ATOM      6  C   UNL d   1       7.773  -0.784 -18.118  0.00  0.00     0.137 C 
ATOM      7  N   UNL d   1       7.491   0.506 -17.515  0.00  0.00    -0.344 N 
ATOM      8  C   UNL d   1       7.943   1.659 -18.270  0.00  0.00     0.137 C 
ATOM      9  C   UNL d   1       9.429   1.494 -18.630  0.00  0.00     0.274 C 
BRANCH   7  10
ATOM     10  C   UNL d   1       6.802   0.625 -16.285  0.00  0.00     0.068 A 
ATOM     11  C   UNL d   1       7.293   1.540 -15.323  0.00  0.00     0.018 A 
ATOM     12  C   UNL d   1       6.646   1.705 -14.094  0.00  0.00     0.002 A 
ATOM     13  C   UNL d   1       5.499   0.943 -13.786  0.00  0.00     0.012 A 
ATOM     14  C   UNL d   1       4.999   0.027 -14.742  0.00  0.00     0.070 A 
ATOM     15 CL   UNL d   1       3.521  -0.809 -14.395  0.00  0.00    -0.081 Cl
ATOM     16  C   UNL d   1       5.635  -0.128 -15.986  0.00  0.00     0.084 A 
ATOM     17 CL   UNL d   1       4.872  -1.188 -17.135  0.00  0.00    -0.080 Cl
ENDBRANCH   7  10
ENDBRANCH   3   4
ENDBRANCH   2   3
ENDBRANCH   1   2
BRANCH   1  18
ATOM     18  C   UNL d   1      13.215   1.303 -22.666  0.00  0.00     0.149 C 
BRANCH  18  19
ATOM     19  O   UNL d   1      13.004   2.711 -22.757  0.00  0.00    -0.331 OA
BRANCH  19  20
ATOM     20  C   UNL d   1      13.808   3.568 -22.052  0.00  0.00     0.094 C 
ATOM     21  C   UNL d   1      14.648   3.198 -20.983  0.00  0.00     0.024 C 
ATOM     22  C   UNL d   1      15.318   4.155 -20.248  0.00  0.00     0.004 C 
ATOM     23  C   UNL d   1      15.332   5.509 -20.642  0.00  0.00     0.019 C 
ATOM     24  C   UNL d   1      14.560   5.886 -21.767  0.00  0.00     0.004 C 
ATOM     25  C   UNL d   1      13.771   4.937 -22.453  0.00  0.00     0.024 C 
BRANCH  23  26
ATOM     26  C   UNL d   1      16.154   6.472 -19.919  0.00  0.00     0.101 A 
ATOM     27  N   UNL d   1      17.108   6.048 -18.977  0.00  0.00    -0.227 NA
ATOM     28  C   UNL d   1      17.670   7.162 -18.505  0.00  0.00     0.148 A 
ATOM     29  N   UNL d   1      17.101   8.297 -19.123  0.00  0.00    -0.288 N 
ATOM     30  C   UNL d   1      18.683   7.384 -17.541  0.00  0.00     0.037 A 
ATOM     31  C   UNL d   1      16.152   7.821 -20.007  0.00  0.00     0.101 A 
ATOM     32  C   UNL d   1      17.476   9.566 -18.839  0.00  0.00     0.082 A 
ATOM     33  C   UNL d   1      18.458   9.772 -17.907  0.00  0.00     0.019 A 
ATOM     34  C   UNL d   1      19.064   8.674 -17.252  0.00  0.00     0.005 A 
ENDBRANCH  23  26
ENDBRANCH  19  20
ENDBRANCH  18  19
ENDBRANCH   1  18
TORSDOF 8
