REMARK  4 active torsions:
REMARK  status: ('A' for Active; 'I' for Inactive)
REMARK    1  A    between atoms: C_2  and  C_4 
REMARK    2  A    between atoms: C_4  and  C_5 
REMARK    3  A    between atoms: C_8  and  C_9 
REMARK    4  A    between atoms: C_9  and  C_11 
ROOT
ATOM      1  C   UNL d   1      11.317   8.318  -5.449  0.00  0.00    -0.022 A 
ATOM      2  C   UNL d   1      10.424   9.127  -6.193  0.00  0.00    -0.005 A 
ATOM      3  C   UNL d   1       9.689   8.570  -7.269  0.00  0.00    -0.004 A 
ATOM      4  C   UNL d   1       9.915   7.231  -7.652  0.00  0.00    -0.012 A 
ATOM      5  C   UNL d   1      10.865   6.459  -6.963  0.00  0.00    -0.004 A 
ATOM      6  C   UNL d   1      11.516   6.984  -5.832  0.00  0.00    -0.005 A 
ENDROOT
BRANCH   4   7
ATOM      7  C   UNL d   1       9.174   6.614  -8.816  0.00  0.00     0.110 C 
ATOM      8  C   UNL d   1       8.746   5.139  -8.588  0.00  0.00     0.016 C 
BRANCH   7   9
ATOM      9  C   UNL d   1       9.942   6.790 -10.144  0.00  0.00     0.189 C 
ATOM     10  O   UNL d   1       9.860   5.998 -11.076  0.00  0.00    -0.647 OA
ATOM     11  O   UNL d   1      10.748   7.898 -10.177  0.00  0.00    -0.647 OA
ENDBRANCH   7   9
ENDBRANCH   4   7
BRANCH   1  12
ATOM     12  C   UNL d   1      12.113   8.908  -4.286  0.00  0.00     0.026 C 
BRANCH  12  13
ATOM     13  C   UNL d   1      11.835   8.262  -2.906  0.00  0.00     0.004 C 
ATOM     14  C   UNL d   1      12.626   8.925  -1.794  0.00  0.00     0.000 C 
ATOM     15  C   UNL d   1      12.001   6.734  -2.850  0.00  0.00     0.000 C 
ENDBRANCH  12  13
ENDBRANCH   1  12
TORSDOF 4
