REMARK  3 active torsions:
REMARK  status: ('A' for Active; 'I' for Inactive)
REMARK    1  A    between atoms: N_5  and  C_6 
REMARK    2  A    between atoms: N_14  and  N_15 
REMARK       I    between atoms: N_15  and  C_16 
REMARK    3  A    between atoms: C_16  and  C_18 
ROOT
ATOM      1  C   UNL d   1       9.822   4.016 -20.276  0.00  0.00     0.142 C 
ATOM      2  N   UNL d   1       8.718   3.341 -20.370  0.00  0.00    -0.227 NA
ATOM      3  C   UNL d   1       8.432   2.138 -19.707  0.00  0.00     0.101 A 
ATOM      4  C   UNL d   1       7.588   1.243 -20.400  0.00  0.00     0.021 A 
ATOM      5  C   UNL d   1       7.136   0.057 -19.800  0.00  0.00     0.002 A 
ATOM      6  C   UNL d   1       7.512  -0.245 -18.479  0.00  0.00     0.002 A 
ATOM      7  C   UNL d   1       8.345   0.641 -17.769  0.00  0.00     0.021 A 
ATOM      8  C   UNL d   1       8.814   1.831 -18.371  0.00  0.00     0.101 A 
ATOM      9  N   UNL d   1       9.699   2.657 -17.667  0.00  0.00    -0.225 N 
ATOM     10  C   UNL d   1      10.946   2.983 -18.211  0.00  0.00     0.086 A 
ATOM     11  C   UNL d   1      12.115   2.711 -17.469  0.00  0.00     0.020 A 
ATOM     12  C   UNL d   1      13.378   3.004 -18.007  0.00  0.00     0.013 A 
ATOM     13  C   UNL d   1      13.484   3.546 -19.296  0.00  0.00     0.058 A 
ATOM     14 CL   UNL d   1      15.037   3.892 -19.963  0.00  0.00    -0.082 Cl
ATOM     15  C   UNL d   1      12.323   3.822 -20.037  0.00  0.00     0.016 A 
ATOM     16  C   UNL d   1      11.037   3.573 -19.496  0.00  0.00     0.052 A 
ENDROOT
BRANCH   9  17
ATOM     17  N   UNL d   1       9.414   2.987 -16.331  0.00  0.00    -0.123 NA
ATOM     18  C   UNL d   1       9.565   4.219 -15.809  0.00  0.00     0.295 C 
ATOM     19  O   UNL d   1      10.102   5.166 -16.390  0.00  0.00    -0.264 OA
BRANCH  18  20
ATOM     20  C   UNL d   1       9.063   4.370 -14.412  0.00  0.00     0.061 A 
ATOM     21  C   UNL d   1       9.815   5.140 -13.494  0.00  0.00     0.031 A 
ATOM     22  C   UNL d   1       9.309   5.300 -12.195  0.00  0.00     0.119 A 
ATOM     23  C   UNL d   1       8.104   4.751 -11.821  0.00  0.00     0.119 A 
ATOM     24  O   UNL d   1       9.855   5.958 -11.142  0.00  0.00    -0.300 OA
ATOM     25  C   UNL d   1       7.321   4.002 -12.715  0.00  0.00     0.026 A 
ATOM     26  O   UNL d   1       7.869   5.029 -10.516  0.00  0.00    -0.300 OA
ATOM     27  C   UNL d   1       7.821   3.804 -14.020  0.00  0.00     0.007 A 
ATOM     28  C   UNL d   1       8.960   5.787 -10.074  0.00  0.00     0.304 A 
ENDBRANCH  18  20
ENDBRANCH   9  17
BRANCH   1  29
ATOM     29  N   UNL d   1       9.950   5.260 -20.897  0.00  0.00    -0.330 N 
ATOM     30  C   UNL d   1       9.412   5.539 -22.224  0.00  0.00     0.138 C 
ATOM     31  C   UNL d   1       8.518   6.789 -22.204  0.00  0.00     0.274 C 
ATOM     32  N   UNL d   1       9.267   7.936 -21.689  0.00  0.00     0.143 N 
ATOM     33  C   UNL d   1       8.419   9.115 -21.703  0.00  0.00     0.286 C 
ATOM     34  C   UNL d   1       9.683   7.649 -20.315  0.00  0.00     0.274 C 
ATOM     35  C   UNL d   1      10.605   6.421 -20.294  0.00  0.00     0.138 C 
ENDBRANCH   1  29
TORSDOF 3
