REMARK  10 active torsions:
REMARK  status: ('A' for Active; 'I' for Inactive)
REMARK    1  A    between atoms: C_2  and  C_3 
REMARK    2  A    between atoms: C_3  and  C_4 
REMARK       I    between atoms: C_4  and  N_6 
REMARK    3  A    between atoms: N_6  and  C_7 
REMARK    4  A    between atoms: C_10  and  O_11 
REMARK    5  A    between atoms: O_11  and  C_12 
REMARK    6  A    between atoms: C_12  and  C_13 
REMARK    7  A    between atoms: C_13  and  C_15 
REMARK    8  A    between atoms: C_15  and  N_16 
REMARK    9  A    between atoms: N_16  and  C_17 
REMARK   10  A    between atoms: C_20  and  C_21 
ROOT
ATOM      1  C   UNL d   1       9.006   5.234 -10.543  0.00  0.00     0.085 A 
ATOM      2  C   UNL d   1       9.347   4.716  -9.265  0.00  0.00     0.021 A 
ATOM      3  C   UNL d   1       9.857   5.569  -8.281  0.00  0.00     0.026 A 
ATOM      4  C   UNL d   1      10.088   6.912  -8.509  0.00  0.00     0.097 A 
ATOM      5  C   UNL d   1       9.838   7.365  -9.811  0.00  0.00     0.059 A 
ATOM      6  C   UNL d   1       9.254   6.565 -10.802  0.00  0.00     0.024 A 
ENDROOT
BRANCH   4   7
ATOM      7  O   UNL d   1      10.408   7.825  -7.541  0.00  0.00    -0.328 OA
BRANCH   7   8
ATOM      8  C   UNL d   1      11.291   7.414  -6.525  0.00  0.00     0.184 C 
BRANCH   8   9
ATOM      9  C   UNL d   1      11.575   8.652  -5.652  0.00  0.00     0.206 C 
ATOM     10  O   UNL d   1      12.388   9.571  -6.348  0.00  0.00    -0.219 OA
BRANCH   9  11
ATOM     11  C   UNL d   1      12.336   8.222  -4.392  0.00  0.00     0.155 C 
BRANCH  11  12
ATOM     12  N   UNL d   1      11.467   8.224  -3.225  0.00  0.00    -0.295 NA
BRANCH  12  13
ATOM     13  C   UNL d   1      12.032   7.715  -1.973  0.00  0.00     0.098 C 
ATOM     14  C   UNL d   1      13.027   8.731  -1.377  0.00  0.00     0.026 C 
ATOM     15  C   UNL d   1      12.651   6.314  -2.098  0.00  0.00     0.026 C 
ENDBRANCH  12  13
ENDBRANCH  11  12
ENDBRANCH   9  11
ENDBRANCH   8   9
ENDBRANCH   7   8
ENDBRANCH   4   7
BRANCH   5  16
ATOM     16  C   UNL d   1       9.939   8.738 -10.166  0.00  0.00     0.175 C 
ATOM     17  C   UNL d   1      11.195   9.539  -9.829  0.00  0.00     0.077 C 
ATOM     18  O   UNL d   1       9.100   9.174 -10.939  0.00  0.00    -0.291 OA
ENDBRANCH   5  16
BRANCH   1  19
ATOM     19  N   UNL d   1       8.583   4.395 -11.582  0.00  0.00    -0.212 NA
ATOM     20  C   UNL d   1       7.654   4.646 -12.527  0.00  0.00     0.256 C 
ATOM     21  O   UNL d   1       6.897   5.606 -12.517  0.00  0.00    -0.270 OA
BRANCH  20  22
ATOM     22  C   UNL d   1       7.556   3.584 -13.630  0.00  0.00     0.090 C 
BRANCH  22  23
ATOM     23  C   UNL d   1       6.109   3.181 -13.973  0.00  0.00     0.010 C 
ATOM     24  C   UNL d   1       5.355   2.510 -12.809  0.00  0.00     0.001 C 
ENDBRANCH  22  23
ENDBRANCH  20  22
ENDBRANCH   1  19
TORSDOF 10
