REMARK  2 active torsions:
REMARK  status: ('A' for Active; 'I' for Inactive)
REMARK    1  A    between atoms: S_2  and  C_5 
REMARK    2  A    between atoms: C_7  and  C_8 
ROOT
ATOM      1  C   UNL d   1       9.409   6.603 -10.597  0.00  0.00     0.117 A 
ATOM      2  C   UNL d   1       9.500   7.567  -9.566  0.00  0.00     0.014 A 
ATOM      3  C   UNL d   1       9.740   7.141  -8.231  0.00  0.00     0.031 A 
ATOM      4  C   UNL d   1       9.849   5.774  -8.008  0.00  0.00     0.001 A 
ATOM      5  C   UNL d   1       9.768   4.820  -9.037  0.00  0.00     0.012 A 
ATOM      6  C   UNL d   1       9.516   5.228 -10.356  0.00  0.00     0.070 A 
ATOM      7 CL   UNL d   1       9.404   4.046 -11.632  0.00  0.00    -0.082 Cl
ENDROOT
BRANCH   3   8
ATOM      8  C   UNL d   1       9.751   8.131  -7.067  0.00  0.00     0.251 A 
ATOM      9  C   UNL d   1      10.693   7.813  -5.912  0.00  0.00     0.035 A 
ATOM     10  C   UNL d   1      11.549   8.884  -5.689  0.00  0.00     0.058 A 
ATOM     11  C   UNL d   1      10.683   6.766  -5.018  0.00  0.00     0.001 C 
ATOM     12  C   UNL d   1      11.215   9.940  -6.608  0.00  0.00     0.277 A 
ATOM     13  C   UNL d   1      12.524   8.884  -4.684  0.00  0.00     0.005 C 
ATOM     14  N   UNL d   1      10.257   9.460  -7.428  0.00  0.00    -0.200 NA
ATOM     15  O   UNL d   1      11.735  11.061  -6.541  0.00  0.00    -0.266 OA
ATOM     16  C   UNL d   1      12.648   7.711  -3.909  0.00  0.00     0.000 C 
ATOM     17  C   UNL d   1      11.736   6.651  -4.100  0.00  0.00    -0.000 C 
ATOM     18  O   UNL d   1       8.489   8.202  -6.489  0.00  0.00    -0.192 OA
ENDBRANCH   3   8
BRANCH   1  19
ATOM     19  S   UNL d   1       9.123   7.158 -12.249  0.00  0.00     0.303 S 
ATOM     20  N   UNL d   1       7.452   6.934 -12.441  0.00  0.00    -0.043 N 
ATOM     21  O   UNL d   1       9.805   6.263 -13.203  0.00  0.00    -0.197 OA
ATOM     22  O   UNL d   1       9.358   8.598 -12.242  0.00  0.00    -0.197 OA
ENDBRANCH   1  19
TORSDOF 2
