REMARK  5 active torsions:
REMARK  status: ('A' for Active; 'I' for Inactive)
REMARK    1  A    between atoms: N_2  and  C_4 
REMARK    2  A    between atoms: C_4  and  C_5 
REMARK    3  A    between atoms: C_7  and  C_8 
REMARK    4  A    between atoms: C_11  and  C_12 
REMARK    5  A    between atoms: N_18  and  C_19 
ROOT
ATOM      1  C   UNL d   1      13.050   5.313 -16.369  0.00  0.00     0.195 C 
ATOM      2  N   UNL d   1      11.964   5.566 -15.581  0.00  0.00    -0.208 NA
ATOM      3  C   UNL d   1      11.271   4.437 -15.713  0.00  0.00     0.165 C 
ATOM      4  N   UNL d   1      11.985   3.533 -16.432  0.00  0.00    -0.211 N 
ATOM      5  N   UNL d   1      13.099   4.112 -16.928  0.00  0.00    -0.147 NA
ENDROOT
BRANCH   3   6
ATOM      6  C   UNL d   1       9.949   4.276 -15.071  0.00  0.00     0.036 C 
ATOM      7  C   UNL d   1       9.022   3.338 -15.545  0.00  0.00     0.003 C 
ATOM      8  C   UNL d   1       7.865   3.028 -14.824  0.00  0.00    -0.004 C 
ATOM      9  C   UNL d   1       7.476   3.819 -13.738  0.00  0.00    -0.023 C 
ATOM     10  C   UNL d   1       8.343   4.862 -13.310  0.00  0.00    -0.004 C 
ATOM     11  C   UNL d   1       9.585   5.067 -13.958  0.00  0.00     0.003 C 
BRANCH   9  12
ATOM     12  C   UNL d   1       6.109   3.581 -13.077  0.00  0.00     0.019 C 
ATOM     13  C   UNL d   1       6.199   3.844 -11.577  0.00  0.00     0.004 C 
ATOM     14  C   UNL d   1       5.590   2.131 -13.274  0.00  0.00     0.004 C 
ATOM     15  C   UNL d   1       5.077   4.541 -13.684  0.00  0.00     0.004 C 
ENDBRANCH   9  12
ENDBRANCH   3   6
BRANCH   4  16
ATOM     16  C   UNL d   1      11.605   2.185 -16.717  0.00  0.00     0.087 C 
ATOM     17  C   UNL d   1      10.925   1.397 -15.757  0.00  0.00     0.047 C 
ATOM     18  C   UNL d   1      10.342   0.165 -16.119  0.00  0.00     0.133 C 
ATOM     19  C   UNL d   1      10.665  -0.416 -17.349  0.00  0.00     0.028 C 
ATOM     20  O   UNL d   1       9.475  -0.402 -15.252  0.00  0.00    -0.190 OA
ATOM     21  C   UNL d   1      11.483   0.288 -18.263  0.00  0.00     0.004 C 
ATOM     22  C   UNL d   1      11.941   1.592 -17.955  0.00  0.00     0.019 C 
ENDBRANCH   4  16
BRANCH   1  23
ATOM     23  C   UNL d   1      14.113   6.337 -16.612  0.00  0.00     0.317 C 
BRANCH  23  24
ATOM     24  N   UNL d   1      14.011   7.007 -17.910  0.00  0.00     0.149 N 
ATOM     25  C   UNL d   1      12.749   7.731 -18.019  0.00  0.00     0.286 C 
ATOM     26  C   UNL d   1      15.101   7.965 -18.041  0.00  0.00     0.286 C 
ENDBRANCH  23  24
ENDBRANCH   1  23
TORSDOF 5
