REMARK  5 active torsions:
REMARK  status: ('A' for Active; 'I' for Inactive)
REMARK    1  A    between atoms: N_11  and  C_12 
REMARK    2  A    between atoms: C_12  and  C_13 
REMARK    3  A    between atoms: C_13  and  C_14 
REMARK    4  A    between atoms: C_14  and  N_15 
REMARK    5  A    between atoms: C_18  and  N_19 
ROOT
ATOM      1  N   UNL d   1      10.248   7.785  -9.229  0.00  0.00     0.137 N 
ATOM      2  C   UNL d   1       9.102   8.287  -8.463  0.00  0.00     0.252 C 
ATOM      3  C   UNL d   1       9.445   8.405  -6.995  0.00  0.00     0.058 C 
ATOM      4  C   UNL d   1      10.666   9.296  -6.793  0.00  0.00     0.094 C 
ATOM      5  C   UNL d   1      11.847   8.928  -7.701  0.00  0.00     0.058 C 
ATOM      6  C   UNL d   1      11.356   8.752  -9.153  0.00  0.00     0.252 C 
ENDROOT
BRANCH   1   7
ATOM      7  C   UNL d   1       9.841   7.646 -10.623  0.00  0.00     0.252 C 
BRANCH   7   8
ATOM      8  C   UNL d   1       8.939   6.416 -10.868  0.00  0.00     0.060 C 
BRANCH   8   9
ATOM      9  C   UNL d   1       8.186   6.486 -12.224  0.00  0.00     0.111 C 
BRANCH   9  10
ATOM     10  N   UNL d   1       7.581   5.178 -12.555  0.00  0.00    -0.298 N 
ATOM     11  C   UNL d   1       6.301   4.933 -12.167  0.00  0.00     0.238 C 
ATOM     12  O   UNL d   1       5.578   5.779 -11.649  0.00  0.00    -0.272 OA
ATOM     13  C   UNL d   1       5.740   3.516 -12.358  0.00  0.00     0.095 C 
ATOM     14  C   UNL d   1       6.361   2.719 -13.523  0.00  0.00     0.057 C 
ATOM     15  C   UNL d   1       7.810   3.061 -13.764  0.00  0.00     0.075 A 
ATOM     16  C   UNL d   1       8.357   4.223 -13.267  0.00  0.00     0.076 A 
ATOM     17  N   UNL d   1       8.543   2.177 -14.479  0.00  0.00    -0.247 NA
ATOM     18  C   UNL d   1       9.741   4.477 -13.440  0.00  0.00     0.020 A 
ATOM     19  C   UNL d   1      10.498   3.575 -14.193  0.00  0.00     0.022 A 
ATOM     20  C   UNL d   1       9.855   2.427 -14.685  0.00  0.00     0.099 A 
ENDBRANCH   9  10
ENDBRANCH   8   9
ENDBRANCH   7   8
ENDBRANCH   1   7
BRANCH   4  21
ATOM     21  N   UNL d   1      11.085   9.235  -5.394  0.00  0.00    -0.281 N 
ATOM     22  C   UNL d   1      11.530   8.178  -4.658  0.00  0.00     0.082 A 
ATOM     23  C   UNL d   1      11.815   8.612  -3.374  0.00  0.00     0.102 A 
ATOM     24  C   UNL d   1      11.708   6.875  -5.051  0.00  0.00     0.019 A 
ATOM     25  N   UNL d   1      11.507   9.936  -3.339  0.00  0.00    -0.191 NA
ATOM     26  C   UNL d   1      12.281   7.814  -2.348  0.00  0.00     0.021 A 
ATOM     27  C   UNL d   1      11.051  10.253  -4.554  0.00  0.00     0.350 A 
ATOM     28  O   UNL d   1      10.593  11.301  -4.835  0.00  0.00    -0.244 OA
ATOM     29  C   UNL d   1      12.502   6.484  -2.724  0.00  0.00     0.002 A 
ATOM     30  C   UNL d   1      12.239   6.086  -4.043  0.00  0.00     0.002 A 
ENDBRANCH   4  21
TORSDOF 5
