REMARK  6 active torsions:
REMARK  status: ('A' for Active; 'I' for Inactive)
REMARK    1  A    between atoms: O_2  and  C_3 
REMARK    2  A    between atoms: C_6  and  N_7 
REMARK    3  A    between atoms: N_10  and  C_11 
REMARK    4  A    between atoms: C_11  and  C_12 
REMARK    5  A    between atoms: C_12  and  O_13 
REMARK    6  A    between atoms: O_13  and  C_14 
ROOT
ATOM      1  N   UNL d   1       7.294   2.797 -14.429  0.00  0.00    -0.344 N 
ATOM      2  C   UNL d   1       8.677   3.144 -14.710  0.00  0.00     0.137 C 
ATOM      3  C   UNL d   1       9.350   3.653 -13.416  0.00  0.00     0.274 C 
ATOM      4  N   UNL d   1       8.576   4.766 -12.820  0.00  0.00     0.144 N 
ATOM      5  C   UNL d   1       7.216   4.302 -12.508  0.00  0.00     0.274 C 
ATOM      6  C   UNL d   1       6.506   3.820 -13.764  0.00  0.00     0.137 C 
ENDROOT
BRANCH   4   7
ATOM      7  C   UNL d   1       9.247   5.211 -11.605  0.00  0.00     0.283 C 
BRANCH   7   8
ATOM      8  C   UNL d   1       8.451   6.288 -10.814  0.00  0.00     0.184 C 
BRANCH   8   9
ATOM      9  O   UNL d   1       8.695   6.021  -9.432  0.00  0.00    -0.329 OA
BRANCH   9  10
ATOM     10  C   UNL d   1       9.546   6.830  -8.721  0.00  0.00     0.096 A 
ATOM     11  C   UNL d   1       9.522   6.717  -7.298  0.00  0.00     0.045 A 
ATOM     12  C   UNL d   1      10.386   7.568  -6.596  0.00  0.00     0.103 A 
ATOM     13  C   UNL d   1      11.166   8.501  -7.247  0.00  0.00     0.102 A 
ATOM     14  N   UNL d   1      10.663   7.695  -5.240  0.00  0.00    -0.216 NA
ATOM     15  C   UNL d   1      11.211   8.625  -8.644  0.00  0.00     0.023 A 
ATOM     16  N   UNL d   1      11.856   9.196  -6.262  0.00  0.00    -0.216 NA
ATOM     17  C   UNL d   1      10.401   7.756  -9.379  0.00  0.00     0.026 A 
ATOM     18  C   UNL d   1      11.575   8.690  -5.036  0.00  0.00     0.221 A 
ATOM     19  S   UNL d   1      12.236   9.150  -3.593  0.00  0.00    -0.037 SA
ENDBRANCH   9  10
ENDBRANCH   8   9
ENDBRANCH   7   8
ENDBRANCH   4   7
BRANCH   1  20
ATOM     20  C   UNL d   1       6.718   1.569 -14.786  0.00  0.00     0.056 A 
ATOM     21  C   UNL d   1       5.763   0.965 -13.941  0.00  0.00     0.019 A 
ATOM     22  C   UNL d   1       5.159  -0.251 -14.322  0.00  0.00     0.026 A 
ATOM     23  C   UNL d   1       5.502  -0.865 -15.534  0.00  0.00     0.094 A 
ATOM     24  C   UNL d   1       6.452  -0.251 -16.382  0.00  0.00     0.026 A 
ATOM     25  C   UNL d   1       7.060   0.965 -16.003  0.00  0.00     0.019 A 
BRANCH  23  26
ATOM     26  O   UNL d   1       4.896  -2.068 -15.815  0.00  0.00    -0.328 OA
ATOM     27  C   UNL d   1       5.179  -2.679 -17.065  0.00  0.00     0.181 C 
ENDBRANCH  23  26
ENDBRANCH   1  20
TORSDOF 6
