REMARK  6 active torsions:
REMARK  status: ('A' for Active; 'I' for Inactive)
REMARK    1  A    between atoms: C_7  and  C_8 
REMARK    2  A    between atoms: C_8  and  C_10 
REMARK    3  A    between atoms: C_10  and  C_11 
REMARK    4  A    between atoms: C_11  and  C_12 
REMARK    5  A    between atoms: C_12  and  N_13 
REMARK    6  A    between atoms: N_16  and  C_17 
ROOT
ATOM      1  C   UNL d   1       9.755   7.457 -10.031  0.00  0.00     0.071 C 
ENDROOT
BRANCH   1   2
ATOM      2  C   UNL d   1       9.849   6.692  -8.689  0.00  0.00     0.173 C 
ATOM      3  O   UNL d   1       9.582   5.494  -8.620  0.00  0.00    -0.291 OA
BRANCH   2   4
ATOM      4  C   UNL d   1      10.342   7.455  -7.515  0.00  0.00     0.035 A 
ATOM      5  C   UNL d   1      10.914   6.748  -6.436  0.00  0.00     0.000 A 
ATOM      6  C   UNL d   1      11.296   7.426  -5.260  0.00  0.00    -0.004 A 
ATOM      7  C   UNL d   1      11.947   6.715  -4.095  0.00  0.00     0.038 C 
ATOM      8  C   UNL d   1      11.161   8.821  -5.186  0.00  0.00     0.080 A 
ATOM      9  C   UNL d   1      11.680   7.384  -2.743  0.00  0.00     0.095 C 
ATOM     10  C   UNL d   1      11.858   8.893  -2.860  0.00  0.00     0.256 C 
ATOM     11  O   UNL d   1      12.215   9.517  -1.874  0.00  0.00    -0.270 OA
ATOM     12  N   UNL d   1      11.553   9.496  -4.014  0.00  0.00    -0.212 NA
ATOM     13  C   UNL d   1      10.646   9.542  -6.270  0.00  0.00     0.019 A 
ATOM     14  C   UNL d   1      10.197   8.860  -7.424  0.00  0.00     0.004 A 
ENDBRANCH   2   4
ENDBRANCH   1   2
BRANCH   1  15
ATOM     15  C   UNL d   1       8.980   6.785 -11.175  0.00  0.00     0.043 C 
BRANCH  15  16
ATOM     16  C   UNL d   1       9.521   5.434 -11.641  0.00  0.00     0.251 C 
BRANCH  16  17
ATOM     17  N   UNL d   1       8.803   4.907 -12.781  0.00  0.00     0.141 N 
ATOM     18  C   UNL d   1       7.407   4.605 -12.417  0.00  0.00     0.274 C 
ATOM     19  C   UNL d   1       6.679   4.026 -13.623  0.00  0.00     0.138 C 
ATOM     20  N   UNL d   1       7.383   2.856 -14.118  0.00  0.00    -0.330 N 
ATOM     21  C   UNL d   1       8.809   3.025 -14.365  0.00  0.00     0.138 C 
ATOM     22  C   UNL d   1       9.476   3.648 -13.130  0.00  0.00     0.274 C 
BRANCH  20  23
ATOM     23  C   UNL d   1       6.718   1.642 -14.331  0.00  0.00     0.140 A 
ATOM     24  N   UNL d   1       5.710   1.345 -13.479  0.00  0.00    -0.227 NA
ATOM     25  C   UNL d   1       5.053   0.181 -13.651  0.00  0.00     0.101 A 
ATOM     26  C   UNL d   1       5.353  -0.731 -14.671  0.00  0.00     0.021 A 
ATOM     27  C   UNL d   1       6.385  -0.408 -15.566  0.00  0.00     0.005 A 
ATOM     28  C   UNL d   1       7.095   0.788 -15.386  0.00  0.00     0.037 A 
ENDBRANCH  20  23
ENDBRANCH  16  17
ENDBRANCH  15  16
ENDBRANCH   1  15
TORSDOF 6
