REMARK  7 active torsions:
REMARK  status: ('A' for Active; 'I' for Inactive)
REMARK    1  A    between atoms: C_6  and  C_7 
REMARK    2  A    between atoms: C_10  and  S_11 
REMARK    3  A    between atoms: S_11  and  C_12 
REMARK    4  A    between atoms: C_12  and  C_13 
REMARK    5  A    between atoms: C_13  and  C_14 
REMARK    6  A    between atoms: C_14  and  N_15 
REMARK    7  A    between atoms: C_22  and  C_23 
ROOT
ATOM      1  N   UNL d   1       6.873   0.384 -14.935  0.00  0.00     0.138 N 
ATOM      2  C   UNL d   1       6.157   0.816 -13.735  0.00  0.00     0.255 C 
ATOM      3  C   UNL d   1       5.845   2.328 -13.677  0.00  0.00     0.061 C 
ATOM      4  C   UNL d   1       6.992   3.229 -13.302  0.00  0.00    -0.022 A 
ATOM      5  C   UNL d   1       6.854   4.005 -12.130  0.00  0.00     0.017 A 
ATOM      6  C   UNL d   1       7.924   4.795 -11.680  0.00  0.00     0.106 A 
ATOM      7  N   UNL d   1       8.112   5.574 -10.557  0.00  0.00    -0.219 NA
ATOM      8  C   UNL d   1       9.328   6.104 -10.738  0.00  0.00     0.221 A 
ATOM      9  O   UNL d   1       9.943   5.739 -11.903  0.00  0.00    -0.287 OA
ATOM     10  C   UNL d   1       9.080   4.841 -12.478  0.00  0.00     0.119 A 
ATOM     11  C   UNL d   1       9.255   4.077 -13.638  0.00  0.00     0.022 A 
ATOM     12  C   UNL d   1       8.196   3.246 -14.055  0.00  0.00    -0.022 A 
ATOM     13  C   UNL d   1       8.388   2.397 -15.305  0.00  0.00     0.061 C 
ATOM     14  C   UNL d   1       8.248   0.880 -15.055  0.00  0.00     0.255 C 
ENDROOT
BRANCH   1  15
ATOM     15  C   UNL d   1       6.064   0.467 -16.157  0.00  0.00     0.251 C 
BRANCH  15  16
ATOM     16  C   UNL d   1       6.494  -0.574 -17.200  0.00  0.00     0.047 C 
BRANCH  16  17
ATOM     17  C   UNL d   1       5.691  -0.460 -18.505  0.00  0.00     0.067 C 
BRANCH  17  18
ATOM     18  S   UNL d   1       6.498  -1.319 -19.891  0.00  0.00    -0.075 SA
BRANCH  18  19
ATOM     19  C   UNL d   1       6.503  -2.952 -19.233  0.00  0.00     0.193 A 
ATOM     20  N   UNL d   1       7.610  -3.549 -18.794  0.00  0.00    -0.122 NA
ATOM     21  N   UNL d   1       7.212  -4.790 -18.364  0.00  0.00    -0.126 NA
ATOM     22  C   UNL d   1       5.898  -4.858 -18.598  0.00  0.00     0.191 A 
ATOM     23  N   UNL d   1       5.401  -3.725 -19.148  0.00  0.00    -0.287 N 
ATOM     24  C   UNL d   1       4.038  -3.426 -19.548  0.00  0.00     0.134 C 
BRANCH  22  25
ATOM     25  C   UNL d   1       5.126  -6.059 -18.294  0.00  0.00     0.151 A 
ATOM     26  C   UNL d   1       5.358  -7.127 -17.462  0.00  0.00     0.087 A 
ATOM     27  C   UNL d   1       6.499  -7.399 -16.529  0.00  0.00     0.054 C 
ATOM     28  N   UNL d   1       4.306  -8.020 -17.599  0.00  0.00    -0.221 NA
ATOM     29  C   UNL d   1       3.468  -7.428 -18.442  0.00  0.00     0.225 A 
ATOM     30  O   UNL d   1       3.920  -6.243 -18.922  0.00  0.00    -0.282 OA
ENDBRANCH  22  25
ENDBRANCH  18  19
ENDBRANCH  17  18
ENDBRANCH  16  17
ENDBRANCH  15  16
ENDBRANCH   1  15
BRANCH   8  31
ATOM     31  C   UNL d   1      10.013   7.114  -9.866  0.00  0.00     0.320 C 
ATOM     32  C   UNL d   1      10.000   8.517 -10.472  0.00  0.00     0.081 C 
ATOM     33  F   UNL d   1       9.446   7.161  -8.661  0.00  0.00    -0.196 F 
ATOM     34  F   UNL d   1      11.291   6.784  -9.703  0.00  0.00    -0.196 F 
ENDBRANCH   8  31
TORSDOF 7
