REMARK  5 active torsions:
REMARK  status: ('A' for Active; 'I' for Inactive)
REMARK    1  A    between atoms: C_2  and  C_3 
REMARK    2  A    between atoms: C_3  and  N_4 
REMARK    3  A    between atoms: N_4  and  C_5 
REMARK    4  A    between atoms: N_4  and  C_8 
REMARK    5  A    between atoms: C_5  and  C_6 
ROOT
ATOM      1  C   UNL d   1       7.144   4.589 -13.124  0.00  0.00     0.224 C 
ATOM      2  C   UNL d   1       7.957   3.556 -13.937  0.00  0.00     0.060 C 
ATOM      3  C   UNL d   1       7.145   2.317 -14.257  0.00  0.00    -0.018 C 
ATOM      4  C   UNL d   1       5.986   1.995 -13.654  0.00  0.00     0.042 C 
ATOM      5  C   UNL d   1       5.330   0.775 -13.983  0.00  0.00     0.096 C 
ATOM      6  N   UNL d   1       4.763  -0.191 -14.245  0.00  0.00    -0.192 NA
ATOM      7  C   UNL d   1       5.316   2.874 -12.616  0.00  0.00     0.038 C 
ATOM      8  C   UNL d   1       6.258   3.927 -12.038  0.00  0.00     0.039 C 
ENDROOT
BRANCH   1   9
ATOM      9  N   UNL d   1       7.986   5.688 -12.605  0.00  0.00     0.135 N 
BRANCH   9  10
ATOM     10  C   UNL d   1       8.988   5.184 -11.652  0.00  0.00     0.250 C 
BRANCH  10  11
ATOM     11  C   UNL d   1       9.740   6.243 -10.828  0.00  0.00     0.035 C 
ATOM     12  C   UNL d   1       9.728   5.896  -9.341  0.00  0.00     0.002 C 
ENDBRANCH  10  11
ENDBRANCH   9  10
BRANCH   9  13
ATOM     13  C   UNL d   1       7.165   6.744 -11.993  0.00  0.00     0.250 C 
BRANCH  13  14
ATOM     14  C   UNL d   1       6.081   7.389 -12.836  0.00  0.00     0.035 C 
ATOM     15  C   UNL d   1       5.229   8.371 -12.076  0.00  0.00     0.002 C 
ENDBRANCH  13  14
ENDBRANCH   9  13
ENDBRANCH   1   9
TORSDOF 5
