REMARK  8 active torsions:
REMARK  status: ('A' for Active; 'I' for Inactive)
REMARK    1  A    between atoms: C_4  and  C_5 
REMARK    2  A    between atoms: N_13  and  C_14 
REMARK    3  A    between atoms: C_14  and  C_15 
REMARK    4  A    between atoms: C_15  and  C_16 
REMARK    5  A    between atoms: C_16  and  S_17 
REMARK    6  A    between atoms: S_17  and  C_18 
REMARK    7  A    between atoms: C_21  and  C_22 
REMARK    8  A    between atoms: C_25  and  C_26 
ROOT
ATOM      1  C   UNL d   1      10.028   3.281 -15.281  0.00  0.00     0.251 C 
ENDROOT
BRANCH   1   2
ATOM      2  N   UNL d   1      10.893   4.387 -15.706  0.00  0.00     0.138 N 
ATOM      3  C   UNL d   1      12.280   3.928 -15.752  0.00  0.00     0.255 C 
ATOM      4  C   UNL d   1      13.282   5.086 -15.827  0.00  0.00     0.061 C 
ATOM      5  C   UNL d   1      13.487   5.621 -17.224  0.00  0.00    -0.024 A 
ATOM      6  C   UNL d   1      12.431   6.213 -17.945  0.00  0.00    -0.024 A 
ATOM      7  C   UNL d   1      14.767   5.522 -17.807  0.00  0.00    -0.003 A 
ATOM      8  C   UNL d   1      12.678   6.730 -19.235  0.00  0.00    -0.004 A 
ATOM      9  C   UNL d   1      11.041   6.297 -17.337  0.00  0.00     0.061 C 
ATOM     10  C   UNL d   1      13.970   6.652 -19.797  0.00  0.00     0.001 A 
ATOM     11  C   UNL d   1      15.035   6.062 -19.083  0.00  0.00     0.017 A 
ATOM     12  C   UNL d   1      10.424   4.930 -16.984  0.00  0.00     0.255 C 
BRANCH  11  13
ATOM     13  C   UNL d   1      16.372   5.984 -19.678  0.00  0.00     0.079 A 
ATOM     14  C   UNL d   1      16.741   5.721 -20.967  0.00  0.00     0.035 A 
ATOM     15  C   UNL d   1      18.165   5.750 -20.942  0.00  0.00     0.081 A 
ATOM     16  C   UNL d   1      19.126   5.529 -22.073  0.00  0.00     0.054 C 
ATOM     17  N   UNL d   1      18.632   6.005 -19.732  0.00  0.00    -0.174 NA
ATOM     18  N   UNL d   1      17.544   6.184 -18.960  0.00  0.00    -0.249 N 
ATOM     19  C   UNL d   1      17.749   6.521 -17.567  0.00  0.00     0.154 C 
ENDBRANCH  11  13
ENDBRANCH   1   2
BRANCH   1  20
ATOM     20  C   UNL d   1       8.915   3.772 -14.339  0.00  0.00     0.047 C 
BRANCH  20  21
ATOM     21  C   UNL d   1       9.448   4.424 -13.061  0.00  0.00     0.067 C 
BRANCH  21  22
ATOM     22  S   UNL d   1       8.110   4.817 -11.899  0.00  0.00    -0.075 SA
BRANCH  22  23
ATOM     23  C   UNL d   1       8.952   6.043 -10.956  0.00  0.00     0.193 A 
ATOM     24  N   UNL d   1       9.163   5.943  -9.631  0.00  0.00    -0.289 N 
ATOM     25  C   UNL d   1       9.838   7.088  -9.365  0.00  0.00     0.167 A 
ATOM     26  C   UNL d   1       8.755   4.877  -8.733  0.00  0.00     0.134 C 
ATOM     27  N   UNL d   1      10.026   7.840 -10.454  0.00  0.00    -0.128 NA
ATOM     28  N   UNL d   1       9.454   7.152 -11.495  0.00  0.00    -0.122 NA
BRANCH  25  29
ATOM     29  C   UNL d   1      10.339   7.509  -8.058  0.00  0.00     0.036 A 
ATOM     30  C   UNL d   1      10.241   8.860  -7.663  0.00  0.00     0.003 A 
ATOM     31  C   UNL d   1      10.726   9.272  -6.405  0.00  0.00     0.004 A 
ATOM     32  C   UNL d   1      11.287   8.332  -5.515  0.00  0.00     0.071 A 
ATOM     33  C   UNL d   1      11.387   6.982  -5.909  0.00  0.00     0.004 A 
ATOM     34  C   UNL d   1      10.935   6.583  -7.179  0.00  0.00     0.003 A 
BRANCH  32  35
ATOM     35  C   UNL d   1      11.830   8.780  -4.172  0.00  0.00     0.419 C 
ATOM     36  F   UNL d   1      11.886   7.773  -3.299  0.00  0.00    -0.166 F 
ATOM     37  F   UNL d   1      13.053   9.254  -4.357  0.00  0.00    -0.166 F 
ATOM     38  F   UNL d   1      11.069   9.741  -3.651  0.00  0.00    -0.166 F 
ENDBRANCH  32  35
ENDBRANCH  25  29
ENDBRANCH  22  23
ENDBRANCH  21  22
ENDBRANCH  20  21
ENDBRANCH   1  20
TORSDOF 8
