REMARK  4 active torsions:
REMARK  status: ('A' for Active; 'I' for Inactive)
REMARK    1  A    between atoms: C_4  and  C_5 
REMARK    2  A    between atoms: C_5  and  N_6 
REMARK    3  A    between atoms: C_9  and  C_10 
REMARK    4  A    between atoms: C_10  and  C_12 
ROOT
ATOM      1  N   UNL d   1       7.585   4.122 -13.719  0.00  0.00     0.137 N 
ATOM      2  C   UNL d   1       8.962   3.913 -13.258  0.00  0.00     0.251 C 
ATOM      3  C   UNL d   1       9.607   5.210 -12.797  0.00  0.00     0.043 C 
ATOM      4  C   UNL d   1       8.777   5.833 -11.670  0.00  0.00     0.066 C 
ATOM      5  C   UNL d   1       7.322   5.999 -12.142  0.00  0.00     0.043 C 
ATOM      6  C   UNL d   1       6.756   4.659 -12.634  0.00  0.00     0.251 C 
ENDROOT
BRANCH   1   7
ATOM      7  C   UNL d   1       6.984   2.880 -14.215  0.00  0.00     0.251 C 
BRANCH   7   8
ATOM      8  C   UNL d   1       7.810   2.198 -15.334  0.00  0.00     0.048 C 
ATOM      9  C   UNL d   1       8.898   1.240 -14.755  0.00  0.00     0.072 C 
ATOM     10  C   UNL d   1       9.748   0.558 -15.838  0.00  0.00     0.175 C 
ATOM     11  O   UNL d   1      10.948   0.374 -15.689  0.00  0.00    -0.291 OA
ATOM     12  C   UNL d   1       9.027   0.162 -17.055  0.00  0.00     0.055 A 
ATOM     13  C   UNL d   1       7.754   0.599 -17.247  0.00  0.00     0.081 A 
ATOM     14  C   UNL d   1       9.362  -0.606 -18.204  0.00  0.00     0.031 A 
ATOM     15  C   UNL d   1       6.918   1.470 -16.372  0.00  0.00     0.054 C 
ATOM     16  O   UNL d   1       7.248   0.146 -18.431  0.00  0.00    -0.309 OA
ATOM     17  C   UNL d   1       8.248  -0.591 -18.997  0.00  0.00     0.122 A 
ENDBRANCH   7   8
ENDBRANCH   1   7
BRANCH   4  18
ATOM     18  C   UNL d   1       9.357   7.196 -11.262  0.00  0.00     0.173 C 
ATOM     19  O   UNL d   1       9.370   8.113 -12.086  0.00  0.00    -0.291 OA
BRANCH  18  20
ATOM     20  C   UNL d   1       9.880   7.375  -9.878  0.00  0.00     0.035 A 
ATOM     21  C   UNL d   1       9.549   6.489  -8.823  0.00  0.00     0.005 A 
ATOM     22  C   UNL d   1      10.022   6.720  -7.519  0.00  0.00     0.030 A 
ATOM     23  C   UNL d   1      10.821   7.841  -7.241  0.00  0.00     0.140 A 
ATOM     24  C   UNL d   1      11.153   8.729  -8.279  0.00  0.00     0.030 A 
ATOM     25  F   UNL d   1      11.267   8.064  -5.983  0.00  0.00    -0.204 F 
ATOM     26  C   UNL d   1      10.691   8.499  -9.591  0.00  0.00     0.005 A 
ENDBRANCH  18  20
ENDBRANCH   4  18
TORSDOF 4
