REMARK  7 active torsions:
REMARK  status: ('A' for Active; 'I' for Inactive)
REMARK    1  A    between atoms: O_2  and  C_3 
REMARK    2  A    between atoms: C_8  and  N_9 
REMARK    3  A    between atoms: N_12  and  C_13 
REMARK    4  A    between atoms: C_13  and  C_14 
REMARK    5  A    between atoms: C_14  and  C_16 
REMARK    6  A    between atoms: C_16  and  N_17 
REMARK    7  A    between atoms: C_21  and  C_23 
ROOT
ATOM      1  C   UNL d   1      11.377   0.326 -18.564  0.00  0.00     0.208 C 
ATOM      2  O   UNL d   1      12.067  -0.805 -19.031  0.00  0.00    -0.219 OA
ENDROOT
BRANCH   1   3
ATOM      3  C   UNL d   1      10.387  -0.113 -17.471  0.00  0.00     0.285 C 
BRANCH   3   4
ATOM      4  N   UNL d   1       9.518   0.944 -16.972  0.00  0.00     0.144 N 
ATOM      5  C   UNL d   1       8.768   0.494 -15.794  0.00  0.00     0.274 C 
ATOM      6  C   UNL d   1       7.767   1.546 -15.312  0.00  0.00     0.137 C 
ATOM      7  N   UNL d   1       8.439   2.836 -15.136  0.00  0.00    -0.343 N 
ATOM      8  C   UNL d   1       9.241   3.282 -16.271  0.00  0.00     0.137 C 
ATOM      9  C   UNL d   1      10.241   2.191 -16.674  0.00  0.00     0.274 C 
BRANCH   7  10
ATOM     10  C   UNL d   1       8.346   3.618 -13.980  0.00  0.00     0.079 A 
ATOM     11  C   UNL d   1       7.148   3.652 -13.214  0.00  0.00     0.110 A 
ATOM     12  C   UNL d   1       7.116   4.423 -12.022  0.00  0.00     0.026 A 
ATOM     13  C   UNL d   1       8.225   5.185 -11.616  0.00  0.00     0.002 A 
ATOM     14  C   UNL d   1       9.399   5.174 -12.394  0.00  0.00     0.002 A 
ATOM     15  C   UNL d   1       9.451   4.382 -13.556  0.00  0.00     0.019 A 
BRANCH  11  16
ATOM     16  O   UNL d   1       6.065   2.927 -13.664  0.00  0.00    -0.327 OA
ATOM     17  C   UNL d   1       5.043   2.617 -12.727  0.00  0.00     0.181 C 
ENDBRANCH  11  16
ENDBRANCH   7  10
ENDBRANCH   3   4
ENDBRANCH   1   3
BRANCH   1  18
ATOM     18  C   UNL d   1      10.772   1.185 -19.713  0.00  0.00     0.148 C 
BRANCH  18  19
ATOM     19  N   UNL d   1       9.513   0.639 -20.259  0.00  0.00    -0.247 N 
ATOM     20  C   UNL d   1       8.264   1.046 -19.968  0.00  0.00     0.265 A 
ATOM     21  C   UNL d   1       7.276   0.121 -20.654  0.00  0.00     0.179 A 
ATOM     22  O   UNL d   1       7.917   2.003 -19.276  0.00  0.00    -0.269 OA
ATOM     23  N   UNL d   1       8.220  -0.723 -21.361  0.00  0.00    -0.209 NA
ATOM     24  C   UNL d   1       6.441   0.924 -21.674  0.00  0.00     0.039 C 
ATOM     25  C   UNL d   1       9.489  -0.397 -21.116  0.00  0.00     0.348 A 
ATOM     26  O   UNL d   1      10.469  -0.961 -21.592  0.00  0.00    -0.245 OA
BRANCH  21  27
ATOM     27  C   UNL d   1       6.437  -0.647 -19.611  0.00  0.00     0.006 A 
ATOM     28  C   UNL d   1       6.949  -1.825 -19.004  0.00  0.00    -0.002 A 
ATOM     29  C   UNL d   1       6.179  -2.546 -18.070  0.00  0.00    -0.000 A 
ATOM     30  C   UNL d   1       4.894  -2.100 -17.718  0.00  0.00    -0.000 A 
ATOM     31  C   UNL d   1       4.380  -0.925 -18.297  0.00  0.00    -0.000 A 
ATOM     32  C   UNL d   1       5.149  -0.200 -19.227  0.00  0.00    -0.002 A 
ENDBRANCH  21  27
ENDBRANCH  18  19
ENDBRANCH   1  18
TORSDOF 7
