REMARK  1 active torsions:
REMARK  status: ('A' for Active; 'I' for Inactive)
REMARK    1  A    between atoms: C_2  and  N_3 
ROOT
ATOM      1  N   UNL d   1       6.723   1.105 -15.421  0.00  0.00    -0.251 N 
ATOM      2  N   UNL d   1       5.657   0.275 -15.282  0.00  0.00    -0.168 NA
ATOM      3  C   UNL d   1       5.139   0.594 -14.093  0.00  0.00     0.117 C 
ATOM      4  C   UNL d   1       5.857   1.653 -13.464  0.00  0.00     0.016 C 
ATOM      5  C   UNL d   1       6.901   1.875 -14.297  0.00  0.00     0.076 C 
ATOM      6  C   UNL d   1       7.967   2.860 -14.097  0.00  0.00     0.031 A 
ATOM      7  C   UNL d   1       9.315   2.655 -14.335  0.00  0.00     0.089 A 
ATOM      8 CL   UNL d   1      10.141   1.245 -14.888  0.00  0.00    -0.075 Cl
ATOM      9  S   UNL d   1      10.317   4.001 -13.884  0.00  0.00    -0.064 SA
ATOM     10  C   UNL d   1       8.912   4.833 -13.299  0.00  0.00     0.084 A 
ATOM     11 CL   UNL d   1       9.075   6.351 -12.512  0.00  0.00    -0.076 Cl
ATOM     12  C   UNL d   1       7.737   4.132 -13.456  0.00  0.00    -0.003 A 
ATOM     13  C   UNL d   1       6.454   4.755 -12.917  0.00  0.00     0.028 C 
ATOM     14  C   UNL d   1       5.243   3.892 -12.593  0.00  0.00     0.009 C 
ATOM     15  C   UNL d   1       5.519   2.447 -12.235  0.00  0.00     0.030 C 
ENDROOT
BRANCH   1  16
ATOM     16  C   UNL d   1       7.407   1.128 -16.699  0.00  0.00     0.128 C 
ATOM     17  C   UNL d   1       8.050  -0.225 -17.013  0.00  0.00     0.029 C 
ENDBRANCH   1  16
TORSDOF 1
