REMARK  8 active torsions:
REMARK  status: ('A' for Active; 'I' for Inactive)
REMARK    1  A    between atoms: O_2  and  C_3 
REMARK    2  A    between atoms: C_9  and  C_10 
REMARK    3  A    between atoms: N_13  and  C_14 
REMARK    4  A    between atoms: C_14  and  C_15 
REMARK    5  A    between atoms: C_15  and  C_16 
REMARK    6  A    between atoms: C_16  and  C_17 
REMARK    7  A    between atoms: C_17  and  N_18 
REMARK    8  A    between atoms: C_22  and  C_23 
ROOT
ATOM      1  C   UNL d   1       7.620   4.711 -10.915  0.00  0.00     0.037 C 
ENDROOT
BRANCH   1   2
ATOM      2  C   UNL d   1       9.097   4.837 -10.531  0.00  0.00     0.250 C 
BRANCH   2   3
ATOM      3  N   UNL d   1       9.219   5.979  -9.612  0.00  0.00     0.137 N 
ATOM      4  C   UNL d   1      10.653   6.200  -9.508  0.00  0.00     0.251 C 
ATOM      5  C   UNL d   1      11.038   7.380  -8.585  0.00  0.00     0.040 C 
ATOM      6  C   UNL d   1      10.506   7.096  -7.175  0.00  0.00     0.028 C 
ATOM      7  C   UNL d   1       9.020   6.711  -7.274  0.00  0.00     0.040 C 
ATOM      8  C   UNL d   1       8.805   5.558  -8.264  0.00  0.00     0.251 C 
BRANCH   6   9
ATOM      9  C   UNL d   1      10.703   8.304  -6.311  0.00  0.00    -0.002 A 
ATOM     10  C   UNL d   1      10.409   9.583  -6.667  0.00  0.00     0.095 A 
ATOM     11  N   UNL d   1      10.697  10.415  -5.607  0.00  0.00    -0.244 NA
ATOM     12  C   UNL d   1      11.177   9.706  -4.547  0.00  0.00     0.081 A 
ATOM     13  C   UNL d   1      11.586  10.090  -3.280  0.00  0.00     0.021 A 
ATOM     14  C   UNL d   1      11.229   8.358  -4.970  0.00  0.00     0.017 A 
ATOM     15  C   UNL d   1      12.112   9.182  -2.394  0.00  0.00     0.026 A 
ATOM     16  C   UNL d   1      12.178   7.846  -2.763  0.00  0.00     0.094 A 
ATOM     17  C   UNL d   1      11.727   7.416  -4.039  0.00  0.00     0.025 A 
BRANCH  16  18
ATOM     18  O   UNL d   1      12.660   7.043  -1.795  0.00  0.00    -0.328 OA
ATOM     19  C   UNL d   1      12.751   5.691  -2.102  0.00  0.00     0.181 C 
ENDBRANCH  16  18
ENDBRANCH   6   9
ENDBRANCH   2   3
ENDBRANCH   1   2
BRANCH   1  20
ATOM     20  C   UNL d   1       7.373   3.991 -12.223  0.00  0.00     0.027 C 
BRANCH  20  21
ATOM     21  C   UNL d   1       6.043   3.177 -12.272  0.00  0.00     0.112 C 
BRANCH  21  22
ATOM     22  N   UNL d   1       6.041   2.083 -13.267  0.00  0.00    -0.270 N 
ATOM     23  C   UNL d   1       6.666   2.149 -14.443  0.00  0.00     0.243 A 
ATOM     24  C   UNL d   1       6.695   0.819 -15.176  0.00  0.00     0.113 A 
ATOM     25  O   UNL d   1       7.286   3.116 -14.840  0.00  0.00    -0.272 OA
ATOM     26  C   UNL d   1       6.046  -0.136 -14.174  0.00  0.00     0.102 A 
ATOM     27  C   UNL d   1       5.734   0.799 -13.015  0.00  0.00     0.240 A 
ATOM     28  O   UNL d   1       5.380   0.396 -11.933  0.00  0.00    -0.272 OA
BRANCH  24  29
ATOM     29  C   UNL d   1       8.113   0.428 -15.526  0.00  0.00     0.007 A 
ATOM     30  C   UNL d   1       8.600   0.005 -16.817  0.00  0.00     0.016 A 
ATOM     31  C   UNL d   1       9.995  -0.263 -16.701  0.00  0.00     0.081 A 
ATOM     32  C   UNL d   1       8.005  -0.186 -18.086  0.00  0.00     0.001 A 
ATOM     33  N   UNL d   1      10.310  -0.006 -15.381  0.00  0.00    -0.244 NA
ATOM     34  C   UNL d   1      10.764  -0.693 -17.792  0.00  0.00     0.019 A 
ATOM     35  C   UNL d   1       9.196   0.412 -14.689  0.00  0.00     0.095 A 
ATOM     36  C   UNL d   1      10.146  -0.869 -19.039  0.00  0.00     0.002 A 
ATOM     37  C   UNL d   1       8.770  -0.619 -19.184  0.00  0.00     0.000 A 
ENDBRANCH  24  29
ENDBRANCH  21  22
ENDBRANCH  20  21
ENDBRANCH   1  20
TORSDOF 8
