REMARK  7 active torsions:
REMARK  status: ('A' for Active; 'I' for Inactive)
REMARK    1  A    between atoms: C_3  and  S_4 
REMARK    2  A    between atoms: S_4  and  C_5 
REMARK    3  A    between atoms: C_5  and  C_6 
REMARK    4  A    between atoms: C_6  and  C_7 
REMARK    5  A    between atoms: C_7  and  N_8 
REMARK    6  A    between atoms: N_16  and  C_17 
REMARK    7  A    between atoms: C_27  and  C_28 
ROOT
ATOM      1  N   UNL d   1       9.117   5.461 -11.003  0.00  0.00     0.137 N 
ATOM      2  C   UNL d   1       8.781   4.635  -9.842  0.00  0.00     0.250 C 
ATOM      3  C   UNL d   1       8.294   5.564  -8.718  0.00  0.00     0.035 C 
ATOM      4  C   UNL d   1       9.316   6.682  -8.331  0.00  0.00     0.008 C 
ATOM      5  C   UNL d   1       9.754   7.449  -9.600  0.00  0.00     0.035 C 
ATOM      6  C   UNL d   1      10.142   6.476 -10.697  0.00  0.00     0.250 C 
ATOM      7  C   UNL d   1       8.725   7.631  -7.254  0.00  0.00     0.024 C 
ATOM      8  C   UNL d   1       9.771   8.623  -6.746  0.00  0.00     0.103 C 
ATOM      9  N   UNL d   1      10.945   7.921  -6.249  0.00  0.00    -0.334 N 
ATOM     10  C   UNL d   1      11.590   6.949  -7.112  0.00  0.00     0.103 C 
ATOM     11  C   UNL d   1      10.523   5.998  -7.670  0.00  0.00     0.024 C 
ENDROOT
BRANCH   1  12
ATOM     12  C   UNL d   1       9.468   4.581 -12.122  0.00  0.00     0.251 C 
BRANCH  12  13
ATOM     13  C   UNL d   1       9.521   5.292 -13.492  0.00  0.00     0.047 C 
BRANCH  13  14
ATOM     14  C   UNL d   1       9.878   4.300 -14.614  0.00  0.00     0.067 C 
BRANCH  14  15
ATOM     15  S   UNL d   1       9.897   5.031 -16.292  0.00  0.00    -0.075 SA
BRANCH  15  16
ATOM     16  C   UNL d   1      11.581   5.561 -16.444  0.00  0.00     0.193 A 
ATOM     17  N   UNL d   1      12.036   6.200 -17.544  0.00  0.00    -0.289 N 
ATOM     18  C   UNL d   1      11.288   6.594 -18.732  0.00  0.00     0.134 C 
ATOM     19  C   UNL d   1      13.355   6.346 -17.270  0.00  0.00     0.167 A 
ATOM     20  N   UNL d   1      13.692   5.824 -16.087  0.00  0.00    -0.128 NA
ATOM     21  N   UNL d   1      12.530   5.335 -15.534  0.00  0.00    -0.122 NA
BRANCH  19  22
ATOM     22  C   UNL d   1      14.351   6.981 -18.130  0.00  0.00     0.036 A 
ATOM     23  C   UNL d   1      14.053   8.179 -18.817  0.00  0.00     0.003 A 
ATOM     24  C   UNL d   1      15.015   8.777 -19.653  0.00  0.00     0.000 A 
ATOM     25  C   UNL d   1      16.287   8.193 -19.792  0.00  0.00     0.000 A 
ATOM     26  C   UNL d   1      16.600   7.008 -19.097  0.00  0.00     0.000 A 
ATOM     27  C   UNL d   1      15.631   6.402 -18.269  0.00  0.00     0.003 A 
ENDBRANCH  19  22
ENDBRANCH  15  16
ENDBRANCH  14  15
ENDBRANCH  13  14
ENDBRANCH  12  13
ENDBRANCH   1  12
BRANCH   9  28
ATOM     28  C   UNL d   1      11.393   8.136  -4.936  0.00  0.00     0.140 A 
ATOM     29  N   UNL d   1      11.365   9.397  -4.476  0.00  0.00    -0.227 NA
ATOM     30  C   UNL d   1      11.814   9.630  -3.223  0.00  0.00     0.101 A 
ATOM     31  C   UNL d   1      12.294   8.625  -2.378  0.00  0.00     0.021 A 
ATOM     32  C   UNL d   1      12.303   7.298  -2.846  0.00  0.00     0.005 A 
ATOM     33  C   UNL d   1      11.847   7.046  -4.148  0.00  0.00     0.037 A 
ENDBRANCH   9  28
TORSDOF 7
