REMARK  8 active torsions:
REMARK  status: ('A' for Active; 'I' for Inactive)
REMARK    1  A    between atoms: C_3  and  S_4 
REMARK    2  A    between atoms: S_4  and  C_5 
REMARK    3  A    between atoms: C_5  and  C_6 
REMARK    4  A    between atoms: C_6  and  C_7 
REMARK    5  A    between atoms: C_7  and  N_8 
REMARK    6  A    between atoms: N_13  and  C_14 
REMARK    7  A    between atoms: C_17  and  C_18 
REMARK    8  A    between atoms: C_28  and  C_29 
ROOT
ATOM      1  N   UNL d   1      11.323   5.179 -15.846  0.00  0.00     0.138 N 
ATOM      2  C   UNL d   1      12.276   4.072 -15.810  0.00  0.00     0.252 C 
ATOM      3  C   UNL d   1      13.434   4.590 -16.677  0.00  0.00     0.052 C 
ATOM      4  C   UNL d   1      14.077   3.571 -17.619  0.00  0.00     0.021 C 
ATOM      5  C   UNL d   1      14.249   4.343 -18.915  0.00  0.00     0.077 C 
ATOM      6  N   UNL d   1      13.115   5.249 -18.975  0.00  0.00    -0.252 NA
ATOM      7  C   UNL d   1      12.803   5.634 -17.596  0.00  0.00     0.097 C 
ATOM      8  C   UNL d   1      11.313   5.590 -17.241  0.00  0.00     0.266 C 
ENDROOT
BRANCH   1   9
ATOM      9  C   UNL d   1       9.977   4.829 -15.411  0.00  0.00     0.251 C 
BRANCH   9  10
ATOM     10  C   UNL d   1       9.862   4.859 -13.879  0.00  0.00     0.047 C 
BRANCH  10  11
ATOM     11  C   UNL d   1       8.465   5.306 -13.412  0.00  0.00     0.067 C 
BRANCH  11  12
ATOM     12  S   UNL d   1       8.127   4.821 -11.693  0.00  0.00    -0.075 SA
BRANCH  12  13
ATOM     13  C   UNL d   1       8.973   6.087 -10.798  0.00  0.00     0.193 A 
ATOM     14  N   UNL d   1       9.177   6.014  -9.464  0.00  0.00    -0.289 N 
ATOM     15  C   UNL d   1       8.704   4.969  -8.571  0.00  0.00     0.134 C 
ATOM     16  C   UNL d   1       9.873   7.164  -9.227  0.00  0.00     0.167 A 
ATOM     17  N   UNL d   1      10.059   7.896 -10.333  0.00  0.00    -0.128 NA
ATOM     18  N   UNL d   1       9.464   7.199 -11.356  0.00  0.00    -0.122 NA
BRANCH  16  19
ATOM     19  C   UNL d   1      10.425   7.640  -7.932  0.00  0.00     0.042 A 
ATOM     20  C   UNL d   1      10.867   8.924  -7.804  0.00  0.00     0.066 A 
ATOM     21  C   UNL d   1      11.414   9.471  -6.551  0.00  0.00     0.279 A 
ATOM     22  N   UNL d   1      11.456   8.605  -5.516  0.00  0.00    -0.206 NA
ATOM     23  O   UNL d   1      11.805  10.630  -6.420  0.00  0.00    -0.265 OA
ATOM     24  C   UNL d   1      11.056   7.269  -5.615  0.00  0.00     0.102 A 
ATOM     25  C   UNL d   1      10.564   6.778  -6.766  0.00  0.00     0.024 A 
ENDBRANCH  16  19
ENDBRANCH  12  13
ENDBRANCH  11  12
ENDBRANCH  10  11
ENDBRANCH   9  10
ENDBRANCH   1   9
BRANCH   6  26
ATOM     26  C   UNL d   1      13.128   6.251 -19.969  0.00  0.00     0.036 A 
ATOM     27  C   UNL d   1      14.040   6.192 -21.053  0.00  0.00     0.011 A 
ATOM     28  C   UNL d   1      14.073   7.212 -22.025  0.00  0.00     0.005 A 
ATOM     29  C   UNL d   1      13.179   8.293 -21.943  0.00  0.00     0.071 A 
ATOM     30  C   UNL d   1      12.267   8.359 -20.870  0.00  0.00     0.005 A 
ATOM     31  C   UNL d   1      12.240   7.351 -19.893  0.00  0.00     0.011 A 
BRANCH  29  32
ATOM     32  C   UNL d   1      13.213   9.393 -22.981  0.00  0.00     0.419 C 
ATOM     33  F   UNL d   1      13.820   8.982 -24.096  0.00  0.00    -0.166 F 
ATOM     34  F   UNL d   1      11.972   9.777 -23.285  0.00  0.00    -0.166 F 
ATOM     35  F   UNL d   1      13.886  10.424 -22.475  0.00  0.00    -0.166 F 
ENDBRANCH  29  32
ENDBRANCH   6  26
TORSDOF 8
