REMARK  3 active torsions:
REMARK  status: ('A' for Active; 'I' for Inactive)
REMARK    1  A    between atoms: C_4  and  C_5 
REMARK    2  A    between atoms: C_5  and  N_6 
REMARK    3  A    between atoms: N_9  and  C_10 
ROOT
ATOM      1  N   UNL d   1      11.179   7.719  -6.539  0.00  0.00     0.145 N 
ATOM      2  C   UNL d   1       9.744   7.831  -6.806  0.00  0.00     0.275 C 
ATOM      3  C   UNL d   1       9.502   8.720  -8.046  0.00  0.00     0.137 C 
ATOM      4  N   UNL d   1      10.251   8.233  -9.204  0.00  0.00    -0.344 N 
ATOM      5  C   UNL d   1      11.637   7.952  -8.989  0.00  0.00     0.137 C 
ATOM      6  C   UNL d   1      11.791   7.134  -7.710  0.00  0.00     0.275 C 
ENDROOT
BRANCH   4   7
ATOM      7  C   UNL d   1       9.652   7.887 -10.421  0.00  0.00     0.058 A 
ATOM      8  C   UNL d   1       9.472   6.560 -10.852  0.00  0.00     0.035 A 
ATOM      9  C   UNL d   1       8.717   6.330 -12.034  0.00  0.00     0.083 A 
ATOM     10  C   UNL d   1       9.800   5.298 -10.301  0.00  0.00     0.024 C 
ATOM     11  C   UNL d   1       8.128   7.361 -12.745  0.00  0.00     0.019 A 
ATOM     12  N   UNL d   1       8.742   4.991 -12.271  0.00  0.00    -0.244 NA
ATOM     13  C   UNL d   1       8.355   8.680 -12.357  0.00  0.00     0.003 A 
ATOM     14  C   UNL d   1       9.081   8.903 -11.176  0.00  0.00     0.017 A 
ATOM     15  C   UNL d   1       9.461   4.387 -11.280  0.00  0.00     0.099 C 
ENDBRANCH   4   7
BRANCH   1  16
ATOM     16  C   UNL d   1      11.432   6.852  -5.389  0.00  0.00     0.277 C 
BRANCH  16  17
ATOM     17  C   UNL d   1      11.719   7.658  -4.146  0.00  0.00     0.011 A 
ATOM     18  C   UNL d   1      11.596   9.067  -4.142  0.00  0.00    -0.002 A 
ATOM     19  C   UNL d   1      11.860   9.783  -2.979  0.00  0.00    -0.000 A 
ATOM     20  C   UNL d   1      12.254   9.129  -1.816  0.00  0.00    -0.000 A 
ATOM     21  C   UNL d   1      12.422   7.744  -1.829  0.00  0.00    -0.000 A 
ATOM     22  C   UNL d   1      12.137   6.995  -2.978  0.00  0.00    -0.002 A 
ENDBRANCH  16  17
ENDBRANCH   1  16
TORSDOF 3
