REMARK  9 active torsions:
REMARK  status: ('A' for Active; 'I' for Inactive)
REMARK    1  A    between atoms: O_2  and  C_3 
REMARK    2  A    between atoms: C_8  and  N_9 
REMARK    3  A    between atoms: N_12  and  C_13 
REMARK    4  A    between atoms: C_13  and  C_14 
REMARK    5  A    between atoms: C_14  and  C_15 
REMARK    6  A    between atoms: C_15  and  C_16 
REMARK    7  A    between atoms: C_16  and  C_17 
REMARK    8  A    between atoms: C_17  and  N_18 
REMARK       I    between atoms: N_18  and  C_19 
REMARK    9  A    between atoms: C_19  and  C_21 
ROOT
ATOM      1  C   UNL d   1       8.450   7.116 -12.114  0.00  0.00     0.035 C 
ENDROOT
BRANCH   1   2
ATOM      2  C   UNL d   1       9.124   5.806 -12.501  0.00  0.00     0.250 C 
BRANCH   2   3
ATOM      3  N   UNL d   1       8.327   5.062 -13.462  0.00  0.00     0.141 N 
ATOM      4  C   UNL d   1       9.077   3.841 -13.778  0.00  0.00     0.274 C 
ATOM      5  C   UNL d   1       8.351   3.024 -14.840  0.00  0.00     0.137 C 
ATOM      6  N   UNL d   1       6.972   2.767 -14.405  0.00  0.00    -0.343 N 
ATOM      7  C   UNL d   1       6.194   3.905 -13.937  0.00  0.00     0.137 C 
ATOM      8  C   UNL d   1       7.009   4.695 -12.911  0.00  0.00     0.274 C 
BRANCH   6   9
ATOM      9  C   UNL d   1       6.396   1.503 -14.396  0.00  0.00     0.079 A 
ATOM     10  C   UNL d   1       6.670   0.524 -15.404  0.00  0.00     0.110 A 
ATOM     11  C   UNL d   1       6.017  -0.730 -15.324  0.00  0.00     0.026 A 
ATOM     12  C   UNL d   1       5.105  -0.988 -14.298  0.00  0.00     0.002 A 
ATOM     13  C   UNL d   1       4.824  -0.011 -13.350  0.00  0.00     0.002 A 
ATOM     14  C   UNL d   1       5.484   1.204 -13.356  0.00  0.00     0.019 A 
BRANCH  10  15
ATOM     15  O   UNL d   1       7.542   0.829 -16.436  0.00  0.00    -0.327 OA
ATOM     16  C   UNL d   1       7.620  -0.067 -17.532  0.00  0.00     0.181 C 
ENDBRANCH  10  15
ENDBRANCH   6   9
ENDBRANCH   2   3
ENDBRANCH   1   2
BRANCH   1  17
ATOM     17  C   UNL d   1       9.435   8.173 -11.605  0.00  0.00     0.004 C 
BRANCH  17  18
ATOM     18  C   UNL d   1      10.081   7.783 -10.270  0.00  0.00     0.026 C 
BRANCH  18  19
ATOM     19  C   UNL d   1      11.293   8.670  -9.883  0.00  0.00     0.129 C 
BRANCH  19  20
ATOM     20  N   UNL d   1      11.611   8.592  -8.464  0.00  0.00    -0.233 NA
ATOM     21  C   UNL d   1      10.757   8.910  -7.481  0.00  0.00     0.294 C 
ATOM     22  O   UNL d   1       9.646   9.397  -7.645  0.00  0.00    -0.264 OA
BRANCH  21  23
ATOM     23  C   UNL d   1      11.239   8.646  -6.137  0.00  0.00     0.160 A 
ATOM     24  N   UNL d   1      11.405   7.420  -5.713  0.00  0.00    -0.160 NA
ATOM     25  N   UNL d   1      11.804   7.577  -4.423  0.00  0.00    -0.228 N 
ATOM     26  C   UNL d   1      11.799   8.928  -4.040  0.00  0.00     0.085 A 
ATOM     27  C   UNL d   1      12.167   6.578  -3.600  0.00  0.00     0.101 A 
ATOM     28  C   UNL d   1      11.397   9.637  -5.127  0.00  0.00     0.045 A 
ATOM     29  C   UNL d   1      12.171   9.233  -2.710  0.00  0.00     0.019 A 
ATOM     30  C   UNL d   1      12.543   8.216  -1.871  0.00  0.00     0.003 A 
ATOM     31  C   UNL d   1      12.543   6.878  -2.316  0.00  0.00     0.021 A 
ENDBRANCH  21  23
ENDBRANCH  19  20
ENDBRANCH  18  19
ENDBRANCH  17  18
ENDBRANCH   1  17
TORSDOF 9
