REMARK  6 active torsions:
REMARK  status: ('A' for Active; 'I' for Inactive)
REMARK    1  A    between atoms: C_2  and  C_3 
REMARK    2  A    between atoms: C_2  and  C_22 
REMARK    3  A    between atoms: C_3  and  C_4 
REMARK    4  A    between atoms: C_4  and  C_5 
REMARK    5  A    between atoms: C_5  and  N_6 
REMARK    6  A    between atoms: N_12  and  C_13 
ROOT
ATOM      1  N   UNL d   1       9.521   4.164 -14.222  0.00  0.00     0.135 N 
ATOM      2  C   UNL d   1      10.592   4.463 -15.169  0.00  0.00     0.221 C 
ATOM      3  C   UNL d   1      11.623   3.340 -14.978  0.00  0.00     0.035 C 
ATOM      4  C   UNL d   1      10.791   2.132 -14.553  0.00  0.00     0.037 C 
ATOM      5  C   UNL d   1       9.389   2.711 -14.295  0.00  0.00     0.241 C 
ATOM      6  C   UNL d   1       8.294   2.379 -15.330  0.00  0.00     0.135 C 
ATOM      7  N   UNL d   1       8.694   2.373 -16.749  0.00  0.00    -0.346 N 
ATOM      8  C   UNL d   1       9.738   3.238 -17.318  0.00  0.00     0.103 C 
ATOM      9  C   UNL d   1       9.981   4.570 -16.584  0.00  0.00     0.057 C 
ENDROOT
BRANCH   1  10
ATOM     10  C   UNL d   1       9.872   4.609 -12.877  0.00  0.00     0.251 C 
BRANCH  10  11
ATOM     11  C   UNL d   1       8.644   4.686 -11.953  0.00  0.00     0.043 C 
BRANCH  11  12
ATOM     12  C   UNL d   1       8.998   5.160 -10.525  0.00  0.00     0.071 C 
BRANCH  12  13
ATOM     13  C   UNL d   1       9.459   6.627 -10.422  0.00  0.00     0.173 C 
ATOM     14  O   UNL d   1       9.460   7.343 -11.426  0.00  0.00    -0.291 OA
BRANCH  13  15
ATOM     15  C   UNL d   1       9.921   7.103  -9.094  0.00  0.00     0.035 A 
ATOM     16  C   UNL d   1       9.482   6.495  -7.894  0.00  0.00     0.005 A 
ATOM     17  C   UNL d   1       9.895   7.008  -6.649  0.00  0.00     0.030 A 
ATOM     18  C   UNL d   1      10.750   8.124  -6.593  0.00  0.00     0.140 A 
ATOM     19  C   UNL d   1      11.183   8.738  -7.783  0.00  0.00     0.030 A 
ATOM     20  F   UNL d   1      11.145   8.616  -5.396  0.00  0.00    -0.204 F 
ATOM     21  C   UNL d   1      10.760   8.236  -9.028  0.00  0.00     0.005 A 
ENDBRANCH  13  15
ENDBRANCH  12  13
ENDBRANCH  11  12
ENDBRANCH  10  11
ENDBRANCH   1  10
BRANCH   7  22
ATOM     22  C   UNL d   1       8.048   1.464 -17.622  0.00  0.00     0.056 A 
ATOM     23  C   UNL d   1       6.748   0.976 -17.333  0.00  0.00     0.018 A 
ATOM     24  C   UNL d   1       6.097   0.081 -18.204  0.00  0.00     0.013 A 
ATOM     25  C   UNL d   1       6.730  -0.343 -19.384  0.00  0.00     0.058 A 
ATOM     26  C   UNL d   1       8.019   0.129 -19.691  0.00  0.00     0.013 A 
ATOM     27 CL   UNL d   1       5.931  -1.438 -20.451  0.00  0.00    -0.082 Cl
ATOM     28  C   UNL d   1       8.673   1.020 -18.817  0.00  0.00     0.018 A 
ENDBRANCH   7  22
TORSDOF 6
