REMARK  12 active torsions:
REMARK  status: ('A' for Active; 'I' for Inactive)
REMARK    1  A    between atoms: O_2  and  C_3 
REMARK    2  A    between atoms: C_7  and  C_8 
REMARK    3  A    between atoms: C_8  and  C_9 
REMARK    4  A    between atoms: C_9  and  C_10 
REMARK    5  A    between atoms: C_15  and  O_16 
REMARK    6  A    between atoms: O_16  and  C_17 
REMARK    7  A    between atoms: C_17  and  C_18 
REMARK    8  A    between atoms: C_18  and  C_19 
REMARK    9  A    between atoms: C_19  and  C_20 
REMARK   10  A    between atoms: C_20  and  N_21 
REMARK   11  A    between atoms: N_24  and  C_25 
REMARK   12  A    between atoms: C_29  and  C_30 
ROOT
ATOM      1  C   UNL d   1      11.048   2.383 -15.034  0.00  0.00     0.035 C 
ENDROOT
BRANCH   1   2
ATOM      2  C   UNL d   1      11.014   3.925 -14.841  0.00  0.00     0.149 C 
BRANCH   2   3
ATOM      3  O   UNL d   1      10.436   4.284 -13.600  0.00  0.00    -0.331 OA
BRANCH   3   4
ATOM      4  C   UNL d   1       9.072   4.114 -13.399  0.00  0.00     0.090 A 
ATOM      5  C   UNL d   1       8.530   4.540 -12.161  0.00  0.00     0.001 A 
ATOM      6  C   UNL d   1       7.149   4.379 -11.888  0.00  0.00    -0.002 A 
ATOM      7  C   UNL d   1       6.312   3.728 -12.814  0.00  0.00    -0.000 A 
ATOM      8  C   UNL d   1       6.855   3.286 -14.025  0.00  0.00     0.002 A 
ATOM      9  C   UNL d   1       8.188   3.541 -14.335  0.00  0.00     0.024 A 
BRANCH   5  10
ATOM     10  C   UNL d   1       9.424   5.231 -11.132  0.00  0.00     0.033 C 
BRANCH  10  11
ATOM     11  C   UNL d   1       8.742   6.412 -10.465  0.00  0.00     0.031 C 
BRANCH  11  12
ATOM     12  C   UNL d   1       9.699   7.261  -9.649  0.00  0.00    -0.020 A 
ATOM     13  C   UNL d   1      10.581   8.140 -10.290  0.00  0.00    -0.004 A 
ATOM     14  C   UNL d   1      11.448   8.935  -9.528  0.00  0.00     0.002 A 
ATOM     15  C   UNL d   1      11.423   8.859  -8.118  0.00  0.00     0.024 A 
ATOM     16  C   UNL d   1      10.528   7.984  -7.471  0.00  0.00     0.094 A 
ATOM     17  C   UNL d   1       9.647   7.203  -8.252  0.00  0.00     0.020 A 
BRANCH  16  18
ATOM     18  O   UNL d   1      10.557   7.936  -6.098  0.00  0.00    -0.328 OA
ATOM     19  C   UNL d   1      10.353   6.646  -5.530  0.00  0.00     0.181 C 
ENDBRANCH  16  18
ENDBRANCH  11  12
ENDBRANCH  10  11
ENDBRANCH   5  10
ENDBRANCH   3   4
ENDBRANCH   2   3
ENDBRANCH   1   2
BRANCH   1  20
ATOM     20  C   UNL d   1      11.626   2.003 -16.413  0.00  0.00     0.038 C 
BRANCH  20  21
ATOM     21  C   UNL d   1      11.277   0.545 -16.788  0.00  0.00     0.251 C 
BRANCH  21  22
ATOM     22  N   UNL d   1      10.125   0.433 -17.673  0.00  0.00     0.141 N 
ATOM     23  C   UNL d   1       8.861   0.668 -16.946  0.00  0.00     0.274 C 
ATOM     24  C   UNL d   1       7.648   0.590 -17.868  0.00  0.00     0.137 C 
ATOM     25  N   UNL d   1       7.632  -0.685 -18.548  0.00  0.00    -0.344 N 
ATOM     26  C   UNL d   1       8.871  -1.046 -19.212  0.00  0.00     0.137 C 
ATOM     27  C   UNL d   1      10.068  -0.922 -18.242  0.00  0.00     0.274 C 
BRANCH  25  28
ATOM     28  C   UNL d   1       6.479  -1.510 -18.514  0.00  0.00     0.056 A 
ATOM     29  C   UNL d   1       6.605  -2.912 -18.539  0.00  0.00     0.021 A 
ATOM     30  C   UNL d   1       5.446  -3.731 -18.517  0.00  0.00     0.073 A 
ATOM     31  C   UNL d   1       4.182  -3.127 -18.445  0.00  0.00     0.004 A 
ATOM     32  C   UNL d   1       4.048  -1.734 -18.415  0.00  0.00     0.001 A 
ATOM     33  C   UNL d   1       5.198  -0.921 -18.451  0.00  0.00     0.017 A 
BRANCH  30  34
ATOM     34  C   UNL d   1       5.604  -5.244 -18.563  0.00  0.00     0.419 C 
ATOM     35  F   UNL d   1       4.488  -5.836 -18.989  0.00  0.00    -0.166 F 
ATOM     36  F   UNL d   1       6.588  -5.582 -19.396  0.00  0.00    -0.166 F 
ATOM     37  F   UNL d   1       5.902  -5.699 -17.346  0.00  0.00    -0.166 F 
ENDBRANCH  30  34
ENDBRANCH  25  28
ENDBRANCH  21  22
ENDBRANCH  20  21
ENDBRANCH   1  20
TORSDOF 12
