REMARK  1 active torsions:
REMARK  status: ('A' for Active; 'I' for Inactive)
REMARK    1  A    between atoms: C_2  and  C_3 
ROOT
ATOM      1  C   UNL d   1      11.671   8.697  -8.545  0.00  0.00     0.083 C 
ATOM      2  C   UNL d   1      11.543   8.619  -7.031  0.00  0.00    -0.020 A 
ATOM      3  C   UNL d   1      11.860   9.728  -6.211  0.00  0.00    -0.004 A 
ATOM      4  C   UNL d   1      11.813   9.568  -4.806  0.00  0.00    -0.000 A 
ATOM      5  C   UNL d   1      11.520   8.324  -4.249  0.00  0.00    -0.000 A 
ATOM      6  C   UNL d   1      11.187   7.228  -5.053  0.00  0.00    -0.004 A 
ATOM      7  C   UNL d   1      11.178   7.390  -6.448  0.00  0.00    -0.021 A 
ATOM      8  C   UNL d   1      10.776   6.194  -7.277  0.00  0.00     0.052 C 
ATOM      9  C   UNL d   1      10.319   6.540  -8.685  0.00  0.00    -0.021 A 
ATOM     10  C   UNL d   1       9.459   5.660  -9.379  0.00  0.00    -0.004 A 
ATOM     11  C   UNL d   1       8.997   6.001 -10.662  0.00  0.00    -0.000 A 
ATOM     12  C   UNL d   1       9.388   7.227 -11.237  0.00  0.00    -0.000 A 
ATOM     13  C   UNL d   1      10.198   8.128 -10.518  0.00  0.00    -0.004 A 
ATOM     14  C   UNL d   1      10.700   7.768  -9.250  0.00  0.00    -0.020 A 
ENDROOT
BRANCH   1  15
ATOM     15  C   UNL d   1      13.133   8.301  -8.861  0.00  0.00     0.347 C 
ATOM     16  N   UNL d   1      13.331   8.149 -10.288  0.00  0.00     0.619 N 
ENDBRANCH   1  15
TORSDOF 1
