REMARK  7 active torsions:
REMARK  status: ('A' for Active; 'I' for Inactive)
REMARK       I    between atoms: C_2  and  N_3 
REMARK    1  A    between atoms: C_2  and  C_21 
REMARK    2  A    between atoms: N_3  and  C_4 
REMARK    3  A    between atoms: C_4  and  C_5 
REMARK    4  A    between atoms: C_5  and  C_6 
REMARK    5  A    between atoms: C_6  and  C_7 
REMARK    6  A    between atoms: C_7  and  N_8 
REMARK    7  A    between atoms: N_11  and  C_12 
ROOT
ATOM      1  C   UNL d   1       6.203   2.292 -14.845  0.00  0.00     0.029 C 
ENDROOT
BRANCH   1   2
ATOM      2  C   UNL d   1       6.311   1.020 -15.707  0.00  0.00     0.129 C 
BRANCH   2   3
ATOM      3  N   UNL d   1       7.308   1.201 -16.744  0.00  0.00    -0.234 NA
ATOM      4  C   UNL d   1       7.234   0.717 -17.988  0.00  0.00     0.275 C 
ATOM      5  O   UNL d   1       6.237   0.157 -18.446  0.00  0.00    -0.266 OA
BRANCH   4   6
ATOM      6  C   UNL d   1       8.506   0.813 -18.784  0.00  0.00     0.058 A 
ATOM      7  C   UNL d   1       8.736  -0.076 -19.859  0.00  0.00     0.005 A 
ATOM      8  C   UNL d   1       9.921   0.006 -20.623  0.00  0.00     0.000 A 
ATOM      9  C   UNL d   1      10.891   0.991 -20.315  0.00  0.00     0.000 A 
ATOM     10  C   UNL d   1      10.146  -0.882 -21.697  0.00  0.00     0.000 A 
ATOM     11  C   UNL d   1      10.664   1.884 -19.250  0.00  0.00     0.000 A 
ATOM     12  C   UNL d   1      12.075   1.079 -21.077  0.00  0.00     0.000 A 
ATOM     13  C   UNL d   1       9.478   1.802 -18.495  0.00  0.00     0.005 A 
ATOM     14  C   UNL d   1      12.292   0.189 -22.147  0.00  0.00     0.000 A 
ATOM     15  C   UNL d   1      11.329  -0.790 -22.457  0.00  0.00     0.000 A 
ENDBRANCH   4   6
ENDBRANCH   2   3
ENDBRANCH   1   2
BRANCH   1  16
ATOM     16  C   UNL d   1       7.266   2.553 -13.870  0.00  0.00     0.037 C 
BRANCH  16  17
ATOM     17  C   UNL d   1       6.849   3.694 -12.893  0.00  0.00     0.251 C 
BRANCH  17  18
ATOM     18  N   UNL d   1       7.973   3.989 -12.005  0.00  0.00     0.141 N 
ATOM     19  C   UNL d   1       8.781   5.043 -12.571  0.00  0.00     0.274 C 
ATOM     20  C   UNL d   1       9.930   5.267 -11.619  0.00  0.00     0.137 C 
ATOM     21  N   UNL d   1       9.509   5.632 -10.269  0.00  0.00    -0.344 N 
ATOM     22  C   UNL d   1       8.553   4.720  -9.667  0.00  0.00     0.137 C 
ATOM     23  C   UNL d   1       7.468   4.428 -10.722  0.00  0.00     0.274 C 
BRANCH  21  24
ATOM     24  C   UNL d   1       9.908   6.809  -9.597  0.00  0.00     0.057 A 
ATOM     25  C   UNL d   1       9.972   6.881  -8.175  0.00  0.00     0.028 A 
ATOM     26  C   UNL d   1      10.395   8.068  -7.541  0.00  0.00     0.059 A 
ATOM     27  C   UNL d   1      10.773   9.190  -8.285  0.00  0.00     0.011 A 
ATOM     28 CL   UNL d   1      10.483   8.144  -5.813  0.00  0.00    -0.082 Cl
ATOM     29  C   UNL d   1      10.754   9.115  -9.695  0.00  0.00     0.002 A 
ATOM     30  C   UNL d   1      10.290   7.959 -10.337  0.00  0.00     0.017 A 
ENDBRANCH  21  24
ENDBRANCH  17  18
ENDBRANCH  16  17
ENDBRANCH   1  16
TORSDOF 7
