REMARK  8 active torsions:
REMARK  status: ('A' for Active; 'I' for Inactive)
REMARK    1  A    between atoms: O_2  and  C_3 
REMARK    2  A    between atoms: C_8  and  N_9 
REMARK    3  A    between atoms: N_12  and  C_13 
REMARK    4  A    between atoms: C_13  and  C_14 
REMARK    5  A    between atoms: C_14  and  C_15 
REMARK    6  A    between atoms: C_15  and  C_16 
REMARK    7  A    between atoms: C_16  and  N_17 
REMARK    8  A    between atoms: C_23  and  C_24 
ROOT
ATOM      1  C   UNL d   1       7.437   4.454 -13.488  0.00  0.00     0.104 C 
ENDROOT
BRANCH   1   2
ATOM      2  C   UNL d   1       6.362   3.412 -13.164  0.00  0.00     0.026 C 
BRANCH   2   3
ATOM      3  C   UNL d   1       6.184   2.427 -14.320  0.00  0.00     0.037 C 
BRANCH   3   4
ATOM      4  C   UNL d   1       7.342   1.448 -14.589  0.00  0.00     0.251 C 
BRANCH   4   5
ATOM      5  N   UNL d   1       8.367   2.085 -15.413  0.00  0.00     0.141 N 
ATOM      6  C   UNL d   1       9.699   1.650 -14.992  0.00  0.00     0.274 C 
ATOM      7  C   UNL d   1      10.797   2.402 -15.777  0.00  0.00     0.137 C 
ATOM      8  N   UNL d   1      10.557   2.276 -17.209  0.00  0.00    -0.343 N 
ATOM      9  C   UNL d   1       9.210   2.583 -17.672  0.00  0.00     0.137 C 
ATOM     10  C   UNL d   1       8.152   1.829 -16.839  0.00  0.00     0.274 C 
BRANCH   8  11
ATOM     11  C   UNL d   1      11.514   1.721 -18.072  0.00  0.00     0.079 A 
ATOM     12  C   UNL d   1      12.790   2.318 -18.216  0.00  0.00     0.110 A 
ATOM     13  C   UNL d   1      13.707   1.758 -19.150  0.00  0.00     0.026 A 
ATOM     14  C   UNL d   1      13.367   0.624 -19.907  0.00  0.00     0.002 A 
ATOM     15  C   UNL d   1      12.101   0.039 -19.759  0.00  0.00     0.002 A 
ATOM     16  C   UNL d   1      11.177   0.591 -18.846  0.00  0.00     0.019 A 
BRANCH  12  17
ATOM     17  O   UNL d   1      13.081   3.443 -17.465  0.00  0.00    -0.327 OA
ATOM     18  C   UNL d   1      14.305   4.128 -17.704  0.00  0.00     0.181 C 
ENDBRANCH  12  17
ENDBRANCH   8  11
ENDBRANCH   4   5
ENDBRANCH   3   4
ENDBRANCH   2   3
ENDBRANCH   1   2
BRANCH   1  19
ATOM     19  N   UNL d   1       7.816   5.238 -12.330  0.00  0.00    -0.317 N 
ATOM     20  C   UNL d   1       8.958   4.923 -11.664  0.00  0.00     0.257 C 
ATOM     21  C   UNL d   1       9.372   5.814 -10.543  0.00  0.00     0.052 A 
ATOM     22  O   UNL d   1       9.679   3.967 -11.957  0.00  0.00    -0.267 OA
ATOM     23  C   UNL d   1       9.466   7.221 -10.691  0.00  0.00    -0.018 A 
ATOM     24  C   UNL d   1       9.755   5.224  -9.322  0.00  0.00     0.004 A 
ATOM     25  C   UNL d   1       9.074   7.906 -12.006  0.00  0.00     0.029 C 
ATOM     26  C   UNL d   1       9.906   8.005  -9.597  0.00  0.00    -0.004 A 
ATOM     27  C   UNL d   1       7.576   7.740 -12.401  0.00  0.00     0.029 C 
ATOM     28  C   UNL d   1       6.942   6.386 -12.019  0.00  0.00     0.105 C 
ATOM     29  C   UNL d   1      10.274   7.414  -8.360  0.00  0.00     0.006 A 
ATOM     30  C   UNL d   1      10.213   6.015  -8.258  0.00  0.00     0.001 A 
BRANCH  29  31
ATOM     31  C   UNL d   1      10.735   8.209  -7.238  0.00  0.00     0.029 A 
ATOM     32  S   UNL d   1      10.757   7.565  -5.620  0.00  0.00    -0.086 SA
ATOM     33  C   UNL d   1      11.363   9.068  -4.973  0.00  0.00     0.035 A 
ATOM     34  C   UNL d   1      11.541   9.998  -5.965  0.00  0.00     0.007 A 
ATOM     35  C   UNL d   1      11.201   9.494  -7.250  0.00  0.00     0.007 A 
ENDBRANCH  29  31
ENDBRANCH   1  19
TORSDOF 8
