REMARK  4 active torsions:
REMARK  status: ('A' for Active; 'I' for Inactive)
REMARK    1  A    between atoms: C_2  and  C_5 
REMARK    2  A    between atoms: C_7  and  O_8 
REMARK    3  A    between atoms: O_8  and  C_9 
REMARK    4  A    between atoms: C_20  and  C_21 
ROOT
ATOM      1  C   UNL d   1       9.276   1.355 -16.875  0.00  0.00     0.075 A 
ATOM      2  C   UNL d   1       8.591   0.281 -16.269  0.00  0.00     0.029 A 
ATOM      3  C   UNL d   1       7.788   0.480 -15.129  0.00  0.00     0.102 A 
ATOM      4  C   UNL d   1       7.722   1.743 -14.529  0.00  0.00     0.025 A 
ATOM      5  C   UNL d   1       8.436   2.804 -15.094  0.00  0.00     0.003 A 
ATOM      6  C   UNL d   1       9.190   2.639 -16.278  0.00  0.00     0.020 A 
ENDROOT
BRANCH   3   7
ATOM      7  O   UNL d   1       7.091  -0.542 -14.558  0.00  0.00    -0.289 OA
BRANCH   7   8
ATOM      8  C   UNL d   1       5.772  -0.664 -14.894  0.00  0.00     0.189 A 
ATOM      9  C   UNL d   1       5.316  -1.089 -16.173  0.00  0.00     0.071 A 
ATOM     10  C   UNL d   1       3.916  -1.209 -16.417  0.00  0.00     0.011 A 
ATOM     11  S   UNL d   1       6.218  -1.521 -17.646  0.00  0.00    -0.083 SA
ATOM     12  C   UNL d   1       3.082  -0.849 -15.327  0.00  0.00     0.021 A 
ATOM     13  C   UNL d   1       3.623  -1.619 -17.779  0.00  0.00     0.008 A 
ATOM     14  C   UNL d   1       3.615  -0.427 -14.108  0.00  0.00     0.101 A 
ATOM     15  N   UNL d   1       4.931  -0.346 -13.884  0.00  0.00    -0.220 NA
ATOM     16  C   UNL d   1       4.756  -1.864 -18.508  0.00  0.00     0.035 A 
ENDBRANCH   7   8
ENDBRANCH   3   7
BRANCH   1  17
ATOM     17  C   UNL d   1      10.097   1.109 -18.143  0.00  0.00     0.419 C 
ATOM     18  F   UNL d   1      10.115  -0.179 -18.488  0.00  0.00    -0.166 F 
ATOM     19  F   UNL d   1      11.357   1.496 -17.948  0.00  0.00    -0.166 F 
ATOM     20  F   UNL d   1       9.587   1.788 -19.170  0.00  0.00    -0.166 F 
ENDBRANCH   1  17
BRANCH   6  21
ATOM     21  C   UNL d   1       9.875   3.814 -16.843  0.00  0.00     0.065 A 
ATOM     22  N   UNL d   1      10.966   4.314 -16.196  0.00  0.00    -0.289 N 
ATOM     23  C   UNL d   1      11.683   5.445 -16.665  0.00  0.00     0.148 A 
ATOM     24  C   UNL d   1      11.606   3.902 -15.038  0.00  0.00     0.102 A 
ATOM     25  C   UNL d   1      11.226   6.061 -17.861  0.00  0.00     0.037 A 
ATOM     26  N   UNL d   1      12.697   5.715 -15.848  0.00  0.00    -0.225 NA
ATOM     27  C   UNL d   1      10.124   5.561 -18.509  0.00  0.00     0.005 A 
ATOM     28  C   UNL d   1       9.448   4.434 -17.994  0.00  0.00     0.018 A 
ATOM     29  C   UNL d   1      12.653   4.748 -14.855  0.00  0.00     0.120 A 
ENDBRANCH   6  21
TORSDOF 4
