REMARK  6 active torsions:
REMARK  status: ('A' for Active; 'I' for Inactive)
REMARK    1  A    between atoms: O_2  and  C_3 
REMARK    2  A    between atoms: C_8  and  N_9 
REMARK    3  A    between atoms: N_12  and  C_13 
REMARK    4  A    between atoms: C_13  and  C_14 
REMARK    5  A    between atoms: C_16  and  C_17 
REMARK    6  A    between atoms: C_18  and  C_19 
ROOT
ATOM      1  C   UNL d   1       9.836   3.573 -14.394  0.00  0.00    -0.006 A 
ATOM      2  C   UNL d   1      10.494   4.457 -13.482  0.00  0.00     0.059 A 
ATOM      3  C   UNL d   1       9.541   4.831 -12.485  0.00  0.00     0.024 A 
ATOM      4  C   UNL d   1       8.304   4.202 -12.704  0.00  0.00     0.003 A 
ATOM      5  C   UNL d   1       7.172   4.327 -11.890  0.00  0.00     0.000 A 
ATOM      6  C   UNL d   1       5.918   3.648 -12.044  0.00  0.00     0.000 A 
ATOM      7  C   UNL d   1       5.524   2.721 -13.063  0.00  0.00    -0.000 A 
ATOM      8  C   UNL d   1       6.267   2.232 -14.191  0.00  0.00    -0.000 A 
ATOM      9  C   UNL d   1       7.608   2.532 -14.595  0.00  0.00    -0.001 A 
ATOM     10  C   UNL d   1       8.510   3.376 -13.945  0.00  0.00    -0.005 A 
ENDROOT
BRANCH   1  11
ATOM     11  C   UNL d   1      10.506   2.991 -15.628  0.00  0.00     0.273 C 
BRANCH  11  12
ATOM     12  N   UNL d   1      10.182   3.712 -16.859  0.00  0.00     0.145 N 
ATOM     13  C   UNL d   1      10.836   3.057 -18.002  0.00  0.00     0.275 C 
ATOM     14  C   UNL d   1      10.490   3.773 -19.327  0.00  0.00     0.137 C 
ATOM     15  N   UNL d   1      10.820   5.189 -19.239  0.00  0.00    -0.343 N 
ATOM     16  C   UNL d   1      10.276   5.868 -18.072  0.00  0.00     0.137 C 
ATOM     17  C   UNL d   1      10.665   5.100 -16.795  0.00  0.00     0.275 C 
BRANCH  15  18
ATOM     18  C   UNL d   1      11.689   5.816 -20.157  0.00  0.00     0.079 A 
ATOM     19  C   UNL d   1      12.741   6.672 -19.741  0.00  0.00     0.110 A 
ATOM     20  C   UNL d   1      13.550   7.301 -20.725  0.00  0.00     0.026 A 
ATOM     21  C   UNL d   1      13.342   7.059 -22.096  0.00  0.00     0.002 A 
ATOM     22  C   UNL d   1      12.317   6.194 -22.500  0.00  0.00     0.002 A 
ATOM     23  C   UNL d   1      11.491   5.579 -21.538  0.00  0.00     0.019 A 
BRANCH  19  24
ATOM     24  O   UNL d   1      12.957   6.830 -18.385  0.00  0.00    -0.327 OA
ATOM     25  C   UNL d   1      13.877   7.820 -17.952  0.00  0.00     0.181 C 
ENDBRANCH  19  24
ENDBRANCH  15  18
ENDBRANCH  11  12
ENDBRANCH   1  11
BRANCH   3  26
ATOM     26  C   UNL d   1       9.843   5.729 -11.373  0.00  0.00    -0.064 C 
ATOM     27  C   UNL d   1      10.092   6.463 -10.427  0.00  0.00    -0.060 C 
BRANCH  27  28
ATOM     28  C   UNL d   1      10.407   7.330  -9.298  0.00  0.00     0.042 A 
ATOM     29  C   UNL d   1      11.682   7.921  -9.170  0.00  0.00     0.008 A 
ATOM     30  C   UNL d   1      11.970   8.750  -8.065  0.00  0.00     0.001 A 
ATOM     31  C   UNL d   1      10.978   9.022  -7.102  0.00  0.00     0.000 A 
ATOM     32  C   UNL d   1       9.702   8.440  -7.232  0.00  0.00     0.001 A 
ATOM     33  C   UNL d   1       9.431   7.586  -8.318  0.00  0.00     0.008 A 
ENDBRANCH  27  28
ENDBRANCH   3  26
TORSDOF 6
