REMARK  10 active torsions:
REMARK  status: ('A' for Active; 'I' for Inactive)
REMARK    1  A    between atoms: C_2  and  N_3 
REMARK    2  A    between atoms: N_3  and  C_4 
REMARK    3  A    between atoms: N_3  and  C_19 
REMARK    4  A    between atoms: C_4  and  C_5 
REMARK    5  A    between atoms: C_5  and  C_6 
REMARK    6  A    between atoms: C_6  and  O_7 
REMARK    7  A    between atoms: O_7  and  C_8 
REMARK    8  A    between atoms: C_19  and  C_20 
REMARK    9  A    between atoms: C_22  and  C_23 
REMARK   10  A    between atoms: C_29  and  O_30 
ROOT
ATOM      1  N   UNL d   1       8.993   2.325 -14.800  0.00  0.00     0.137 N 
ENDROOT
BRANCH   1   2
ATOM      2  C   UNL d   1       8.073   1.321 -15.357  0.00  0.00     0.250 C 
ATOM      3  C   UNL d   1       7.418   0.430 -14.291  0.00  0.00     0.037 C 
ENDBRANCH   1   2
BRANCH   1   4
ATOM      4  C   UNL d   1       8.270   3.329 -14.000  0.00  0.00     0.253 C 
BRANCH   4   5
ATOM      5  C   UNL d   1       9.181   4.305 -13.227  0.00  0.00     0.068 C 
BRANCH   5   6
ATOM      6  C   UNL d   1       8.361   5.446 -12.596  0.00  0.00     0.151 C 
BRANCH   6   7
ATOM      7  O   UNL d   1       9.282   6.379 -12.027  0.00  0.00    -0.331 OA
BRANCH   7   8
ATOM      8  C   UNL d   1       9.457   6.432 -10.669  0.00  0.00     0.096 A 
ATOM      9  C   UNL d   1      10.248   7.494 -10.131  0.00  0.00     0.043 A 
ATOM     10  C   UNL d   1      10.386   7.646  -8.742  0.00  0.00     0.082 A 
ATOM     11  C   UNL d   1       9.758   6.734  -7.879  0.00  0.00    -0.004 A 
ATOM     12  N   UNL d   1      11.168   8.712  -8.197  0.00  0.00    -0.212 NA
ATOM     13  C   UNL d   1       8.990   5.668  -8.407  0.00  0.00    -0.001 A 
ATOM     14  C   UNL d   1       9.940   6.865  -6.383  0.00  0.00     0.038 C 
ATOM     15  C   UNL d   1       8.861   5.502  -9.785  0.00  0.00     0.024 A 
ATOM     16  C   UNL d   1      10.151   8.332  -5.976  0.00  0.00     0.095 C 
ATOM     17  C   UNL d   1      11.140   9.062  -6.896  0.00  0.00     0.256 C 
ATOM     18  O   UNL d   1      11.854   9.950  -6.432  0.00  0.00    -0.270 OA
ENDBRANCH   7   8
ENDBRANCH   6   7
ENDBRANCH   5   6
ENDBRANCH   4   5
ENDBRANCH   1   4
BRANCH   1  19
ATOM     19  C   UNL d   1       9.709   2.997 -15.891  0.00  0.00     0.251 C 
BRANCH  19  20
ATOM     20  C   UNL d   1      10.471   2.063 -16.817  0.00  0.00     0.038 A 
ATOM     21  C   UNL d   1      11.604   2.600 -17.668  0.00  0.00     0.026 A 
ATOM     22  C   UNL d   1      11.911   1.690 -16.499  0.00  0.00     0.007 A 
BRANCH  21  23
ATOM     23  C   UNL d   1      11.973   4.052 -17.641  0.00  0.00     0.002 A 
ATOM     24  C   UNL d   1      11.093   5.033 -18.158  0.00  0.00     0.090 A 
ATOM     25  C   UNL d   1      11.463   6.394 -18.074  0.00  0.00     0.026 A 
ATOM     26  C   UNL d   1      12.689   6.768 -17.487  0.00  0.00     0.032 A 
ATOM     27  C   UNL d   1      13.565   5.780 -16.999  0.00  0.00     0.140 A 
ATOM     28  C   UNL d   1      13.209   4.430 -17.082  0.00  0.00     0.027 A 
ATOM     29  F   UNL d   1      14.749   6.129 -16.439  0.00  0.00    -0.204 F 
BRANCH  24  30
ATOM     30  O   UNL d   1       9.895   4.603 -18.698  0.00  0.00    -0.328 OA
ATOM     31  C   UNL d   1       9.015   5.575 -19.244  0.00  0.00     0.181 C 
ENDBRANCH  24  30
ENDBRANCH  21  23
ENDBRANCH  19  20
ENDBRANCH   1  19
TORSDOF 10
