REMARK  6 active torsions:
REMARK  status: ('A' for Active; 'I' for Inactive)
REMARK    1  A    between atoms: C_2  and  C_3 
REMARK    2  A    between atoms: C_3  and  C_4 
REMARK    3  A    between atoms: C_4  and  C_5 
REMARK    4  A    between atoms: C_4  and  N_16 
REMARK    5  A    between atoms: C_5  and  C_7 
REMARK    6  A    between atoms: C_10  and  N_11 
ROOT
ATOM      1  C   UNL d   1      11.166   4.212 -14.614  0.00  0.00     0.204 C 
ATOM      2  O   UNL d   1      12.241   4.067 -14.043  0.00  0.00    -0.289 OA
ENDROOT
BRANCH   1   3
ATOM      3  C   UNL d   1       9.874   3.632 -13.953  0.00  0.00     0.280 C 
BRANCH   3   4
ATOM      4  C   UNL d   1       9.270   2.412 -14.719  0.00  0.00     0.041 C 
BRANCH   4   5
ATOM      5  C   UNL d   1      10.272   1.282 -14.981  0.00  0.00     0.003 C 
ATOM      6  C   UNL d   1       9.567   0.101 -15.641  0.00  0.00     0.000 C 
ENDBRANCH   4   5
ENDBRANCH   3   4
BRANCH   3   7
ATOM      7  N   UNL d   1       8.849   4.653 -13.607  0.00  0.00     0.142 N 
ATOM      8  C   UNL d   1       7.788   4.145 -12.741  0.00  0.00     0.251 C 
ATOM      9  C   UNL d   1       7.068   5.393 -12.245  0.00  0.00     0.037 C 
ATOM     10  C   UNL d   1       8.118   6.492 -12.318  0.00  0.00     0.037 C 
ATOM     11  C   UNL d   1       9.368   5.782 -12.836  0.00  0.00     0.251 C 
ENDBRANCH   3   7
ENDBRANCH   1   3
BRANCH   1  12
ATOM     12  C   UNL d   1      11.097   4.986 -15.899  0.00  0.00     0.037 A 
ATOM     13  C   UNL d   1       9.936   4.996 -16.704  0.00  0.00     0.005 A 
ATOM     14  C   UNL d   1       9.924   5.672 -17.942  0.00  0.00     0.024 A 
ATOM     15  C   UNL d   1      11.056   6.396 -18.378  0.00  0.00     0.127 A 
ATOM     16  C   UNL d   1      12.207   6.421 -17.550  0.00  0.00     0.024 A 
ATOM     17  C   UNL d   1      12.228   5.711 -16.334  0.00  0.00     0.005 A 
BRANCH  15  18
ATOM     18  N   UNL d   1      11.005   7.144 -19.643  0.00  0.00    -0.114 N 
ATOM     19  O   UNL d   1      12.034   7.685 -20.047  0.00  0.00    -0.532 OA
ATOM     20  O   UNL d   1       9.934   7.205 -20.238  0.00  0.00    -0.532 OA
ENDBRANCH  15  18
ENDBRANCH   1  12
TORSDOF 6
