REMARK  6 active torsions:
REMARK  status: ('A' for Active; 'I' for Inactive)
REMARK    1  A    between atoms: C_2  and  N_3 
REMARK    2  A    between atoms: N_3  and  C_4 
REMARK    3  A    between atoms: N_3  and  C_6 
REMARK    4  A    between atoms: C_6  and  C_7 
REMARK    5  A    between atoms: C_7  and  C_8 
REMARK    6  A    between atoms: C_12  and  C_13 
ROOT
ATOM      1  C   UNL d   1       7.817   5.320 -12.175  0.00  0.00     0.155 A 
ATOM      2  C   UNL d   1       6.387   5.823 -12.377  0.00  0.00     0.038 C 
ATOM      3  O   UNL d   1       7.846   4.393 -11.099  0.00  0.00    -0.326 OA
ATOM      4  C   UNL d   1       8.597   4.919 -10.077  0.00  0.00     0.119 A 
ATOM      5  C   UNL d   1       9.188   6.089 -10.330  0.00  0.00     0.061 A 
ATOM      6  C   UNL d   1       8.733   6.432 -11.673  0.00  0.00     0.200 A 
ATOM      7  O   UNL d   1       9.026   7.412 -12.358  0.00  0.00    -0.289 OA
ENDROOT
BRANCH   1   8
ATOM      8  C   UNL d   1       8.458   4.683 -13.430  0.00  0.00     0.071 C 
BRANCH   8   9
ATOM      9  C   UNL d   1       7.635   3.494 -13.962  0.00  0.00     0.253 C 
BRANCH   9  10
ATOM     10  N   UNL d   1       8.335   2.635 -14.922  0.00  0.00     0.137 N 
BRANCH  10  11
ATOM     11  C   UNL d   1       9.418   1.864 -14.293  0.00  0.00     0.250 C 
ATOM     12  C   UNL d   1      10.356   1.212 -15.312  0.00  0.00     0.037 C 
ENDBRANCH  10  11
BRANCH  10  13
ATOM     13  C   UNL d   1       7.372   1.786 -15.643  0.00  0.00     0.250 C 
ATOM     14  C   UNL d   1       6.582   0.776 -14.773  0.00  0.00     0.037 C 
ENDBRANCH  10  13
ENDBRANCH   9  10
ENDBRANCH   8   9
ENDBRANCH   1   8
BRANCH   5  15
ATOM     15  C   UNL d   1      10.004   6.887  -9.376  0.00  0.00     0.005 A 
ATOM     16  C   UNL d   1      10.737   8.011  -9.824  0.00  0.00     0.000 A 
ATOM     17  C   UNL d   1      11.562   8.726  -8.950  0.00  0.00     0.000 A 
ATOM     18  C   UNL d   1      11.682   8.334  -7.601  0.00  0.00     0.000 A 
ATOM     19  C   UNL d   1      10.961   7.219  -7.137  0.00  0.00     0.000 A 
ATOM     20  C   UNL d   1      10.128   6.495  -8.020  0.00  0.00     0.000 A 
ENDBRANCH   5  15
TORSDOF 6
