REMARK  8 active torsions:
REMARK  status: ('A' for Active; 'I' for Inactive)
REMARK    1  A    between atoms: C_2  and  C_3 
REMARK    2  A    between atoms: C_8  and  C_9 
REMARK    3  A    between atoms: N_16  and  C_17 
REMARK    4  A    between atoms: C_17  and  C_18 
REMARK    5  A    between atoms: C_18  and  C_19 
REMARK    6  A    between atoms: C_19  and  C_20 
REMARK    7  A    between atoms: C_20  and  C_21 
REMARK    8  A    between atoms: C_21  and  C_22 
ROOT
ATOM      1  O   UNL d   1       9.695   1.253 -14.484  0.00  0.00    -0.221 OA
ATOM      2  C   UNL d   1      10.039   2.516 -15.046  0.00  0.00     0.149 C 
ATOM      3  C   UNL d   1       8.747   3.253 -15.403  0.00  0.00     0.070 C 
ATOM      4  C   UNL d   1       7.907   3.601 -14.145  0.00  0.00     0.253 C 
ATOM      5  N   UNL d   1       8.699   4.416 -13.228  0.00  0.00     0.137 N 
ATOM      6  C   UNL d   1       9.872   3.668 -12.792  0.00  0.00     0.253 C 
ATOM      7  C   UNL d   1      10.779   3.303 -13.974  0.00  0.00     0.070 C 
ENDROOT
BRANCH   2   8
ATOM      8  C   UNL d   1      10.910   2.344 -16.315  0.00  0.00     0.005 A 
ATOM      9  C   UNL d   1      10.947   1.119 -17.002  0.00  0.00     0.003 A 
ATOM     10  C   UNL d   1      11.764   0.937 -18.142  0.00  0.00     0.082 A 
ATOM     11  C   UNL d   1      12.565   2.011 -18.604  0.00  0.00     0.062 A 
ATOM     12  C   UNL d   1      12.526   3.247 -17.936  0.00  0.00     0.011 A 
ATOM     13 CL   UNL d   1      13.593   1.845 -19.987  0.00  0.00    -0.082 Cl
ATOM     14  C   UNL d   1      11.697   3.424 -16.817  0.00  0.00    -0.001 A 
BRANCH  10  15
ATOM     15  C   UNL d   1      11.755  -0.410 -18.852  0.00  0.00     0.420 C 
ATOM     16  F   UNL d   1      12.983  -0.927 -18.846  0.00  0.00    -0.166 F 
ATOM     17  F   UNL d   1      10.930  -1.270 -18.256  0.00  0.00    -0.166 F 
ATOM     18  F   UNL d   1      11.347  -0.263 -20.112  0.00  0.00    -0.166 F 
ENDBRANCH  10  15
ENDBRANCH   2   8
BRANCH   5  19
ATOM     19  C   UNL d   1       7.872   4.748 -12.052  0.00  0.00     0.250 C 
BRANCH  19  20
ATOM     20  C   UNL d   1       8.599   5.668 -11.068  0.00  0.00     0.035 C 
BRANCH  20  21
ATOM     21  C   UNL d   1       9.233   4.926  -9.868  0.00  0.00     0.002 C 
BRANCH  21  22
ATOM     22  C   UNL d   1      10.140   5.821  -9.020  0.00  0.00     0.005 C 
BRANCH  22  23
ATOM     23  C   UNL d   1       9.382   6.977  -8.358  0.00  0.00     0.026 C 
BRANCH  23  24
ATOM     24  C   UNL d   1      10.199   7.678  -7.291  0.00  0.00    -0.022 A 
ATOM     25  C   UNL d   1      10.497   7.010  -6.088  0.00  0.00    -0.002 A 
ATOM     26  C   UNL d   1      11.245   7.652  -5.083  0.00  0.00     0.029 A 
ATOM     27  C   UNL d   1      11.686   8.969  -5.275  0.00  0.00     0.140 A 
ATOM     28  C   UNL d   1      11.400   9.646  -6.479  0.00  0.00     0.029 A 
ATOM     29  F   UNL d   1      12.400   9.583  -4.302  0.00  0.00    -0.204 F 
ATOM     30  C   UNL d   1      10.659   8.998  -7.489  0.00  0.00    -0.002 A 
ENDBRANCH  23  24
ENDBRANCH  22  23
ENDBRANCH  21  22
ENDBRANCH  20  21
ENDBRANCH  19  20
ENDBRANCH   5  19
TORSDOF 8
