REMARK  8 active torsions:
REMARK  status: ('A' for Active; 'I' for Inactive)
REMARK    1  A    between atoms: C_2  and  N_3 
REMARK    2  A    between atoms: C_2  and  C_21 
REMARK    3  A    between atoms: N_3  and  C_4 
REMARK    4  A    between atoms: C_8  and  N_9 
REMARK    5  A    between atoms: N_9  and  C_10 
REMARK    6  A    between atoms: C_10  and  C_11 
REMARK    7  A    between atoms: C_11  and  O_12 
REMARK    8  A    between atoms: O_12  and  C_13 
ROOT
ATOM      1  C   UNL d   1       8.522   3.492 -13.697  0.00  0.00     0.081 A 
ATOM      2  C   UNL d   1       7.146   3.437 -14.048  0.00  0.00     0.040 A 
ATOM      3  C   UNL d   1       6.229   4.175 -13.298  0.00  0.00     0.102 A 
ATOM      4  N   UNL d   1       6.585   4.994 -12.282  0.00  0.00    -0.226 NA
ATOM      5  C   UNL d   1       7.889   5.096 -11.972  0.00  0.00     0.160 A 
ATOM      6  C   UNL d   1       8.898   4.351 -12.645  0.00  0.00     0.057 A 
ENDROOT
BRANCH   5   7
ATOM      7  N   UNL d   1       8.157   5.982 -10.942  0.00  0.00    -0.250 NA
BRANCH   7   8
ATOM      8  C   UNL d   1       9.488   6.262 -10.459  0.00  0.00     0.160 C 
BRANCH   8   9
ATOM      9  C   UNL d   1       9.866   7.724 -10.765  0.00  0.00     0.175 C 
BRANCH   9  10
ATOM     10  O   UNL d   1      11.029   8.061 -10.033  0.00  0.00    -0.329 OA
BRANCH  10  11
ATOM     11  C   UNL d   1      10.881   8.376  -8.699  0.00  0.00     0.094 A 
ATOM     12  C   UNL d   1       9.649   8.327  -7.993  0.00  0.00     0.026 A 
ATOM     13  C   UNL d   1       9.591   8.705  -6.644  0.00  0.00     0.032 A 
ATOM     14  C   UNL d   1      10.747   9.153  -5.982  0.00  0.00     0.140 A 
ATOM     15  C   UNL d   1      11.970   9.188  -6.667  0.00  0.00     0.032 A 
ATOM     16  F   UNL d   1      10.680   9.546  -4.687  0.00  0.00    -0.204 F 
ATOM     17  C   UNL d   1      12.039   8.781  -8.014  0.00  0.00     0.026 A 
ENDBRANCH  10  11
ENDBRANCH   9  10
ENDBRANCH   8   9
ENDBRANCH   7   8
ENDBRANCH   5   7
BRANCH   1  18
ATOM     18  N   UNL d   1       9.536   2.721 -14.299  0.00  0.00    -0.268 NA
BRANCH  18  19
ATOM     19  C   UNL d   1       9.332   1.781 -15.398  0.00  0.00     0.126 C 
ATOM     20  C   UNL d   1      10.542   0.826 -15.533  0.00  0.00     0.031 C 
BRANCH  19  21
ATOM     21  C   UNL d   1       8.058   0.975 -15.300  0.00  0.00    -0.000 A 
ATOM     22  C   UNL d   1       7.128   0.975 -16.375  0.00  0.00    -0.002 A 
ATOM     23  C   UNL d   1       5.899   0.314 -16.234  0.00  0.00    -0.000 A 
ATOM     24  C   UNL d   1       5.580  -0.352 -15.032  0.00  0.00    -0.000 A 
ATOM     25  C   UNL d   1       6.503  -0.359 -13.970  0.00  0.00    -0.000 A 
ATOM     26  C   UNL d   1       7.730   0.307 -14.107  0.00  0.00    -0.002 A 
ENDBRANCH  19  21
ENDBRANCH  18  19
ENDBRANCH   1  18
TORSDOF 8
