REMARK  6 active torsions:
REMARK  status: ('A' for Active; 'I' for Inactive)
REMARK    1  A    between atoms: C_7  and  C_8 
REMARK    2  A    between atoms: C_8  and  C_10 
REMARK    3  A    between atoms: C_10  and  C_11 
REMARK    4  A    between atoms: C_11  and  C_12 
REMARK    5  A    between atoms: C_12  and  N_13 
REMARK    6  A    between atoms: C_16  and  C_18 
ROOT
ATOM      1  N   UNL d   1       9.969   6.284  -9.672  0.00  0.00     0.137 N 
ATOM      2  C   UNL d   1       8.891   6.130  -8.695  0.00  0.00     0.253 C 
ATOM      3  C   UNL d   1       9.444   6.422  -7.294  0.00  0.00     0.070 C 
ATOM      4  C   UNL d   1      10.095   7.822  -7.176  0.00  0.00     0.149 C 
ATOM      5  O   UNL d   1       9.071   8.786  -7.410  0.00  0.00    -0.221 OA
ATOM      6  C   UNL d   1      11.094   8.013  -8.317  0.00  0.00     0.070 C 
ATOM      7  C   UNL d   1      10.479   7.650  -9.687  0.00  0.00     0.253 C 
ENDROOT
BRANCH   1   8
ATOM      8  C   UNL d   1       9.471   5.961 -11.002  0.00  0.00     0.251 C 
BRANCH   8   9
ATOM      9  C   UNL d   1       9.275   4.455 -11.142  0.00  0.00     0.043 C 
BRANCH   9  10
ATOM     10  C   UNL d   1       9.765   3.880 -12.473  0.00  0.00     0.071 C 
BRANCH  10  11
ATOM     11  C   UNL d   1       8.770   3.977 -13.630  0.00  0.00     0.173 C 
ATOM     12  O   UNL d   1       8.245   5.058 -13.897  0.00  0.00    -0.291 OA
BRANCH  11  13
ATOM     13  C   UNL d   1       8.452   2.706 -14.329  0.00  0.00     0.031 A 
ATOM     14  C   UNL d   1       9.439   1.825 -14.876  0.00  0.00    -0.019 A 
ATOM     15  C   UNL d   1      10.948   2.047 -14.812  0.00  0.00     0.031 C 
ATOM     16  C   UNL d   1       9.005   0.671 -15.569  0.00  0.00    -0.004 A 
ATOM     17  C   UNL d   1       7.642   0.382 -15.738  0.00  0.00    -0.000 A 
ATOM     18  C   UNL d   1       6.674   1.240 -15.191  0.00  0.00     0.000 A 
ATOM     19  C   UNL d   1       7.079   2.406 -14.513  0.00  0.00     0.003 A 
ENDBRANCH  11  13
ENDBRANCH  10  11
ENDBRANCH   9  10
ENDBRANCH   8   9
ENDBRANCH   1   8
BRANCH   4  20
ATOM     20  C   UNL d   1      10.785   8.062  -5.815  0.00  0.00     0.005 A 
ATOM     21  C   UNL d   1      11.338   6.999  -5.059  0.00  0.00    -0.001 A 
ATOM     22  C   UNL d   1      11.916   7.219  -3.795  0.00  0.00     0.011 A 
ATOM     23  C   UNL d   1      11.979   8.512  -3.268  0.00  0.00     0.058 A 
ATOM     24  C   UNL d   1      11.465   9.594  -4.005  0.00  0.00     0.011 A 
ATOM     25 CL   UNL d   1      12.660   8.766  -1.694  0.00  0.00    -0.082 Cl
ATOM     26  C   UNL d   1      10.879   9.364  -5.275  0.00  0.00    -0.001 A 
ENDBRANCH   4  20
TORSDOF 6
