REMARK  3 active torsions:
REMARK  status: ('A' for Active; 'I' for Inactive)
REMARK    1  A    between atoms: N_5  and  C_6 
REMARK    2  A    between atoms: N_15  and  C_16 
REMARK    3  A    between atoms: C_16  and  C_17 
ROOT
ATOM      1  O   UNL d   1       6.246  -3.357 -18.180  0.00  0.00    -0.269 OA
ATOM      2  C   UNL d   1       5.891  -2.712 -19.157  0.00  0.00     0.271 A 
ATOM      3  N   UNL d   1       5.210  -3.231 -20.172  0.00  0.00    -0.211 NA
ATOM      4  C   UNL d   1       4.926  -2.236 -21.201  0.00  0.00     0.234 A 
ATOM      5  N   UNL d   1       5.566  -1.010 -20.723  0.00  0.00    -0.323 N 
ATOM      6  C   UNL d   1       6.185  -1.225 -19.407  0.00  0.00     0.142 A 
ATOM      7  C   UNL d   1       5.549  -0.332 -18.314  0.00  0.00     0.065 C 
ATOM      8  C   UNL d   1       6.321  -0.377 -16.977  0.00  0.00     0.253 C 
ATOM      9  N   UNL d   1       7.725  -0.015 -17.186  0.00  0.00     0.140 N 
ATOM     10  C   UNL d   1       8.377  -0.990 -18.066  0.00  0.00     0.253 C 
ATOM     11  C   UNL d   1       7.713  -0.952 -19.436  0.00  0.00     0.065 C 
ENDROOT
BRANCH   9  12
ATOM     12  C   UNL d   1       8.429   0.036 -15.912  0.00  0.00     0.283 C 
BRANCH  12  13
ATOM     13  C   UNL d   1       8.845   1.475 -15.583  0.00  0.00     0.185 C 
ATOM     14  O   UNL d   1       7.950   2.074 -14.622  0.00  0.00    -0.327 OA
ATOM     15  C   UNL d   1       8.449   3.225 -14.020  0.00  0.00     0.118 A 
ATOM     16  C   UNL d   1       9.801   3.561 -14.135  0.00  0.00     0.116 A 
ATOM     17  C   UNL d   1       7.568   4.106 -13.257  0.00  0.00     0.043 A 
ATOM     18  O   UNL d   1      10.704   2.768 -14.817  0.00  0.00    -0.326 OA
ATOM     19  C   UNL d   1      10.334   4.733 -13.591  0.00  0.00     0.028 A 
ATOM     20  C   UNL d   1      10.284   1.444 -15.060  0.00  0.00     0.181 C 
ATOM     21  C   UNL d   1       9.520   5.610 -12.856  0.00  0.00     0.021 A 
ATOM     22  C   UNL d   1       8.202   5.276 -12.717  0.00  0.00     0.084 A 
ATOM     23  N   UNL d   1       7.235   6.000 -12.032  0.00  0.00    -0.244 NA
ATOM     24  C   UNL d   1       6.041   5.338 -12.118  0.00  0.00     0.099 A 
ATOM     25  C   UNL d   1       6.190   4.175 -12.856  0.00  0.00     0.024 A 
ENDBRANCH  12  13
ENDBRANCH   9  12
BRANCH   5  26
ATOM     26  C   UNL d   1       6.197  -0.166 -21.655  0.00  0.00     0.058 A 
ATOM     27  C   UNL d   1       5.868   1.193 -21.623  0.00  0.00     0.017 A 
ATOM     28  C   UNL d   1       6.531   2.099 -22.472  0.00  0.00     0.002 A 
ATOM     29  C   UNL d   1       7.537   1.651 -23.341  0.00  0.00     0.000 A 
ATOM     30  C   UNL d   1       7.877   0.290 -23.370  0.00  0.00     0.002 A 
ATOM     31  C   UNL d   1       7.208  -0.628 -22.535  0.00  0.00     0.017 A 
ENDBRANCH   5  26
TORSDOF 3
