REMARK  2 active torsions:
REMARK  status: ('A' for Active; 'I' for Inactive)
REMARK    1  A    between atoms: N_11  and  C_12 
REMARK    2  A    between atoms: C_12  and  C_13 
ROOT
ATOM      1  N   UNL d   1      14.870   3.396 -19.731  0.00  0.00    -0.191 NA
ATOM      2  C   UNL d   1      14.210   3.596 -18.801  0.00  0.00     0.101 C 
ATOM      3  C   UNL d   1      13.381   3.839 -17.636  0.00  0.00     0.068 A 
ATOM      4  C   UNL d   1      13.550   5.013 -16.876  0.00  0.00     0.010 A 
ATOM      5  C   UNL d   1      12.752   5.238 -15.739  0.00  0.00    -0.004 A 
ATOM      6  C   UNL d   1      11.792   4.283 -15.348  0.00  0.00    -0.026 A 
ATOM      7  C   UNL d   1      11.620   3.101 -16.110  0.00  0.00    -0.024 A 
ATOM      8  C   UNL d   1      12.416   2.885 -17.252  0.00  0.00     0.006 A 
ATOM      9  C   UNL d   1      10.604   2.044 -15.701  0.00  0.00     0.057 C 
ATOM     10  C   UNL d   1       9.668   1.590 -16.829  0.00  0.00     0.255 C 
ATOM     11  N   UNL d   1       8.591   0.935 -16.092  0.00  0.00     0.142 N 
ATOM     12  C   UNL d   1       8.291   1.885 -15.033  0.00  0.00     0.251 C 
ATOM     13  C   UNL d   1       9.632   2.441 -14.579  0.00  0.00     0.040 C 
ATOM     14  C   UNL d   1       9.548   3.947 -14.286  0.00  0.00     0.007 C 
ATOM     15  C   UNL d   1      10.936   4.538 -14.120  0.00  0.00     0.026 C 
ENDROOT
BRANCH  11  16
ATOM     16  C   UNL d   1       7.440   0.649 -16.943  0.00  0.00     0.277 C 
BRANCH  16  17
ATOM     17  C   UNL d   1       6.252  -0.004 -16.238  0.00  0.00     0.011 A 
ATOM     18  C   UNL d   1       5.653   0.604 -15.103  0.00  0.00    -0.002 A 
ATOM     19  C   UNL d   1       4.575  -0.012 -14.439  0.00  0.00    -0.000 A 
ATOM     20  C   UNL d   1       4.062  -1.231 -14.921  0.00  0.00    -0.000 A 
ATOM     21  C   UNL d   1       4.646  -1.845 -16.047  0.00  0.00    -0.000 A 
ATOM     22  C   UNL d   1       5.721  -1.224 -16.710  0.00  0.00    -0.002 A 
ENDBRANCH  16  17
ENDBRANCH  11  16
TORSDOF 2
