REMARK  4 active torsions:
REMARK  status: ('A' for Active; 'I' for Inactive)
REMARK    1  A    between atoms: O_2  and  C_3 
REMARK    2  A    between atoms: N_13  and  C_14 
REMARK    3  A    between atoms: C_14  and  C_15 
REMARK    4  A    between atoms: C_15  and  N_16 
ROOT
ATOM      1  C   UNL d   1       9.606   4.389 -12.312  0.00  0.00     0.275 C 
ENDROOT
BRANCH   1   2
ATOM      2  N   UNL d   1       9.477   4.419 -13.761  0.00  0.00     0.139 N 
ATOM      3  C   UNL d   1      10.640   3.858 -14.460  0.00  0.00     0.251 C 
ATOM      4  C   UNL d   1      10.453   2.338 -14.427  0.00  0.00     0.040 C 
ATOM      5  C   UNL d   1      11.070   1.583 -15.610  0.00  0.00     0.007 C 
ATOM      6  C   UNL d   1       8.948   2.146 -14.241  0.00  0.00     0.057 C 
ATOM      7  C   UNL d   1      10.163   1.588 -16.845  0.00  0.00     0.028 C 
ATOM      8  C   UNL d   1       8.782   1.029 -16.526  0.00  0.00    -0.004 A 
ATOM      9  C   UNL d   1       8.079   0.252 -17.479  0.00  0.00     0.090 A 
ATOM     10  C   UNL d   1       8.215   1.285 -15.257  0.00  0.00    -0.023 A 
ATOM     11  C   UNL d   1       6.799  -0.258 -17.137  0.00  0.00     0.024 A 
ATOM     12  C   UNL d   1       6.240  -0.003 -15.873  0.00  0.00     0.002 A 
ATOM     13  C   UNL d   1       6.942   0.772 -14.935  0.00  0.00    -0.004 A 
ATOM     14  C   UNL d   1       8.406   3.570 -14.220  0.00  0.00     0.255 C 
BRANCH   9  15
ATOM     15  O   UNL d   1       8.685   0.032 -18.698  0.00  0.00    -0.328 OA
ATOM     16  C   UNL d   1       8.025  -0.798 -19.640  0.00  0.00     0.181 C 
ENDBRANCH   9  15
ENDBRANCH   1   2
BRANCH   1  17
ATOM     17  C   UNL d   1       8.592   5.332 -11.616  0.00  0.00     0.149 C 
BRANCH  17  18
ATOM     18  N   UNL d   1       9.133   5.917 -10.363  0.00  0.00    -0.245 N 
ATOM     19  C   UNL d   1       9.711   7.157 -10.454  0.00  0.00     0.272 A 
ATOM     20  C   UNL d   1      10.263   7.670  -9.199  0.00  0.00     0.105 A 
ATOM     21  O   UNL d   1       9.774   7.840 -11.477  0.00  0.00    -0.266 OA
ATOM     22  C   UNL d   1      10.161   7.008  -8.036  0.00  0.00     0.115 A 
ATOM     23  S   UNL d   1      11.066   9.193  -9.065  0.00  0.00    -0.079 SA
ATOM     24  N   UNL d   1       9.532   5.763  -8.052  0.00  0.00    -0.190 NA
ATOM     25  C   UNL d   1      10.719   7.686  -6.903  0.00  0.00     0.106 A 
ATOM     26  C   UNL d   1       8.998   5.237  -9.162  0.00  0.00     0.352 A 
ATOM     27  O   UNL d   1       8.429   4.162  -9.025  0.00  0.00    -0.244 OA
ATOM     28  C   UNL d   1      11.249   8.948  -7.317  0.00  0.00     0.049 A 
ATOM     29  N   UNL d   1      10.781   7.265  -5.641  0.00  0.00    -0.242 NA
ATOM     30  C   UNL d   1      11.820   9.801  -6.361  0.00  0.00     0.010 A 
ATOM     31  C   UNL d   1      11.865   9.358  -5.030  0.00  0.00     0.021 A 
ATOM     32  C   UNL d   1      11.369   8.074  -4.734  0.00  0.00     0.099 A 
ENDBRANCH  17  18
ENDBRANCH   1  17
TORSDOF 4
