REMARK  5 active torsions:
REMARK  status: ('A' for Active; 'I' for Inactive)
REMARK    1  A    between atoms: N_12  and  C_13 
REMARK    2  A    between atoms: C_13  and  C_14 
REMARK    3  A    between atoms: C_14  and  C_15 
REMARK    4  A    between atoms: C_15  and  N_16 
REMARK    5  A    between atoms: N_19  and  C_20 
ROOT
ATOM      1  C   UNL d   1       9.790   5.016 -12.843  0.00  0.00     0.252 C 
ENDROOT
BRANCH   1   2
ATOM      2  C   UNL d   1       9.160   6.428 -12.822  0.00  0.00     0.060 C 
BRANCH   2   3
ATOM      3  C   UNL d   1       8.463   6.712 -11.514  0.00  0.00     0.106 C 
BRANCH   3   4
ATOM      4  N   UNL d   1       9.356   6.793 -10.348  0.00  0.00    -0.317 N 
ATOM      5  C   UNL d   1       9.792   7.979  -9.870  0.00  0.00     0.257 C 
ATOM      6  O   UNL d   1       9.652   9.037 -10.481  0.00  0.00    -0.267 OA
ATOM      7  C   UNL d   1      10.425   8.047  -8.516  0.00  0.00     0.052 A 
ATOM      8  C   UNL d   1       9.952   7.321  -7.394  0.00  0.00    -0.018 A 
ATOM      9  C   UNL d   1      11.511   8.930  -8.372  0.00  0.00     0.004 A 
ATOM     10  C   UNL d   1      10.608   7.445  -6.153  0.00  0.00    -0.004 A 
ATOM     11  C   UNL d   1       8.715   6.435  -7.452  0.00  0.00     0.029 C 
ATOM     12  C   UNL d   1      11.672   8.356  -6.015  0.00  0.00    -0.000 A 
ATOM     13  C   UNL d   1      12.145   9.069  -7.131  0.00  0.00     0.000 A 
ATOM     14  C   UNL d   1       8.829   5.267  -8.417  0.00  0.00     0.029 C 
ATOM     15  C   UNL d   1       9.646   5.522  -9.665  0.00  0.00     0.105 C 
ENDBRANCH   3   4
ENDBRANCH   2   3
ENDBRANCH   1   2
BRANCH   1  16
ATOM     16  N   UNL d   1      10.330   4.640 -14.137  0.00  0.00     0.141 N 
ATOM     17  C   UNL d   1      11.153   3.441 -13.965  0.00  0.00     0.274 C 
ATOM     18  C   UNL d   1      11.720   2.954 -15.317  0.00  0.00     0.137 C 
ATOM     19  N   UNL d   1      10.650   2.796 -16.276  0.00  0.00    -0.344 N 
ATOM     20  C   UNL d   1       9.716   3.900 -16.398  0.00  0.00     0.137 C 
ATOM     21  C   UNL d   1       9.203   4.320 -15.015  0.00  0.00     0.274 C 
BRANCH  19  22
ATOM     22  C   UNL d   1      10.509   1.626 -17.018  0.00  0.00     0.068 A 
ATOM     23  C   UNL d   1      11.497   1.221 -17.938  0.00  0.00     0.084 A 
ATOM     24  C   UNL d   1      11.323   0.046 -18.680  0.00  0.00     0.070 A 
ATOM     25 CL   UNL d   1      12.900   2.216 -18.228  0.00  0.00    -0.080 Cl
ATOM     26  C   UNL d   1      10.150  -0.730 -18.528  0.00  0.00     0.012 A 
ATOM     27 CL   UNL d   1      12.512  -0.452 -19.835  0.00  0.00    -0.081 Cl
ATOM     28  C   UNL d   1       9.161  -0.308 -17.610  0.00  0.00     0.002 A 
ATOM     29  C   UNL d   1       9.341   0.854 -16.858  0.00  0.00     0.018 A 
ENDBRANCH  19  22
ENDBRANCH   1  16
TORSDOF 5
