REMARK  7 active torsions:
REMARK  status: ('A' for Active; 'I' for Inactive)
REMARK    1  A    between atoms: S_2  and  N_4 
REMARK    2  A    between atoms: S_2  and  C_27 
REMARK    3  A    between atoms: N_4  and  C_5 
REMARK    4  A    between atoms: C_8  and  N_9 
REMARK    5  A    between atoms: C_12  and  C_13 
REMARK    6  A    between atoms: C_18  and  O_19 
REMARK    7  A    between atoms: O_19  and  C_20 
ROOT
ATOM      1  C   UNL d   1       9.982   6.438  -8.675  0.00  0.00     0.116 C 
ATOM      2  C   UNL d   1       8.901   5.424  -8.417  0.00  0.00     0.027 C 
ATOM      3  C   UNL d   1       8.751   4.450  -9.542  0.00  0.00     0.035 C 
ATOM      4  C   UNL d   1       8.398   5.208 -10.829  0.00  0.00     0.219 C 
ATOM      5  C   UNL d   1       9.450   6.300 -11.129  0.00  0.00     0.035 C 
ATOM      6  C   UNL d   1       9.701   7.221  -9.950  0.00  0.00     0.027 C 
ENDROOT
BRANCH   4   7
ATOM      7  N   UNL d   1       8.226   4.293 -11.966  0.00  0.00     0.135 N 
ATOM      8  C   UNL d   1       7.280   4.838 -12.928  0.00  0.00     0.251 C 
ATOM      9  C   UNL d   1       6.962   3.767 -13.977  0.00  0.00     0.040 C 
ATOM     10  C   UNL d   1       8.258   3.297 -14.716  0.00  0.00     0.028 C 
ATOM     11  C   UNL d   1       9.258   2.785 -13.694  0.00  0.00     0.040 C 
ATOM     12  C   UNL d   1       9.473   3.843 -12.607  0.00  0.00     0.251 C 
BRANCH  10  13
ATOM     13  C   UNL d   1       8.041   2.318 -15.878  0.00  0.00    -0.000 A 
ATOM     14  C   UNL d   1       7.257   1.144 -15.756  0.00  0.00     0.090 A 
ATOM     15  C   UNL d   1       7.128   0.290 -16.878  0.00  0.00     0.024 A 
ATOM     16  C   UNL d   1       7.673   0.642 -18.126  0.00  0.00     0.002 A 
ATOM     17  C   UNL d   1       8.438   1.809 -18.252  0.00  0.00    -0.000 A 
ATOM     18  C   UNL d   1       8.644   2.627 -17.129  0.00  0.00    -0.002 A 
BRANCH  14  19
ATOM     19  O   UNL d   1       6.615   0.882 -14.551  0.00  0.00    -0.334 OA
BRANCH  19  20
ATOM     20  C   UNL d   1       5.859  -0.311 -14.378  0.00  0.00     0.121 A 
ATOM     21  C   UNL d   1       4.477  -0.057 -13.814  0.00  0.00     0.033 A 
ATOM     22  C   UNL d   1       4.635  -0.460 -15.255  0.00  0.00     0.033 A 
ENDBRANCH  19  20
ENDBRANCH  14  19
ENDBRANCH  10  13
ENDBRANCH   4   7
BRANCH   1  23
ATOM     23  N   UNL d   1      10.047   7.312  -7.525  0.00  0.00    -0.187 NA
BRANCH  23  24
ATOM     24  S   UNL d   1      11.372   8.344  -7.431  0.00  0.00     0.283 S 
ATOM     25  O   UNL d   1      12.521   7.600  -7.968  0.00  0.00    -0.199 OA
ATOM     26  O   UNL d   1      10.949   9.591  -8.093  0.00  0.00    -0.199 OA
BRANCH  24  27
ATOM     27  C   UNL d   1      11.511   8.544  -5.641  0.00  0.00     0.133 A 
ATOM     28  C   UNL d   1      11.332   9.798  -5.039  0.00  0.00     0.152 A 
ATOM     29  C   UNL d   1      11.460   9.954  -3.640  0.00  0.00     0.031 A 
ATOM     30  F   UNL d   1      11.070  10.884  -5.786  0.00  0.00    -0.203 F 
ATOM     31  C   UNL d   1      11.807   8.864  -2.841  0.00  0.00     0.014 A 
ATOM     32  C   UNL d   1      11.979   7.624  -3.437  0.00  0.00     0.059 A 
ATOM     33  C   UNL d   1      11.805   7.424  -4.823  0.00  0.00     0.027 A 
ATOM     34 CL   UNL d   1      12.428   6.396  -2.356  0.00  0.00    -0.082 Cl
ENDBRANCH  24  27
ENDBRANCH  23  24
ENDBRANCH   1  23
TORSDOF 7
