REMARK  6 active torsions:
REMARK  status: ('A' for Active; 'I' for Inactive)
REMARK    1  A    between atoms: N_2  and  C_3 
REMARK    2  A    between atoms: C_5  and  O_6 
REMARK    3  A    between atoms: C_8  and  C_9 
REMARK       I    between atoms: C_9  and  N_11 
REMARK    4  A    between atoms: N_11  and  C_12 
REMARK    5  A    between atoms: N_15  and  C_16 
REMARK    6  A    between atoms: C_16  and  C_17 
ROOT
ATOM      1  C   UNL d   1       9.039   6.179 -10.276  0.00  0.00     0.111 C 
ATOM      2  C   UNL d   1       9.509   5.627  -8.945  0.00  0.00     0.060 C 
ATOM      3  C   UNL d   1       9.379   6.684  -7.870  0.00  0.00     0.253 C 
ATOM      4  N   UNL d   1      10.214   7.858  -8.157  0.00  0.00     0.141 N 
ATOM      5  C   UNL d   1       9.706   8.482  -9.383  0.00  0.00     0.253 C 
ATOM      6  C   UNL d   1       9.799   7.491 -10.573  0.00  0.00     0.056 C 
ATOM      7  C   UNL d   1       9.273   8.143 -11.849  0.00  0.00     0.004 C 
ENDROOT
BRANCH   1   8
ATOM      8  N   UNL d   1       9.261   5.175 -11.310  0.00  0.00    -0.236 NA
ATOM      9  C   UNL d   1       8.405   4.929 -12.310  0.00  0.00     0.277 C 
ATOM     10  O   UNL d   1       7.256   5.364 -12.354  0.00  0.00    -0.266 OA
BRANCH   9  11
ATOM     11  C   UNL d   1       8.982   4.113 -13.423  0.00  0.00     0.081 A 
ATOM     12  C   UNL d   1       8.217   3.115 -14.064  0.00  0.00     0.100 A 
ATOM     13  C   UNL d   1       8.813   2.369 -15.109  0.00  0.00     0.044 A 
ATOM     14  C   UNL d   1      10.142   2.612 -15.528  0.00  0.00     0.089 A 
ATOM     15  C   UNL d   1      10.880   3.632 -14.894  0.00  0.00     0.075 A 
ATOM     16  C   UNL d   1      10.304   4.370 -13.850  0.00  0.00     0.020 A 
ATOM     17 CL   UNL d   1      12.497   4.006 -15.376  0.00  0.00    -0.081 Cl
BRANCH  12  18
ATOM     18  O   UNL d   1       6.916   2.916 -13.643  0.00  0.00    -0.328 OA
ATOM     19  C   UNL d   1       6.259   1.719 -14.024  0.00  0.00     0.181 C 
ENDBRANCH  12  18
BRANCH  14  20
ATOM     20  N   UNL d   1      10.748   1.875 -16.559  0.00  0.00    -0.268 NA
ATOM     21  C   UNL d   1      10.125   0.670 -17.082  0.00  0.00     0.152 C 
ENDBRANCH  14  20
ENDBRANCH   9  11
ENDBRANCH   1   8
BRANCH   4  22
ATOM     22  C   UNL d   1      10.152   8.828  -7.055  0.00  0.00     0.277 C 
BRANCH  22  23
ATOM     23  C   UNL d   1      10.957   8.446  -5.810  0.00  0.00     0.011 A 
ATOM     24  C   UNL d   1      10.763   7.220  -5.127  0.00  0.00    -0.002 A 
ATOM     25  C   UNL d   1      11.555   6.865  -4.041  0.00  0.00    -0.000 A 
ATOM     26  C   UNL d   1      12.505   7.764  -3.523  0.00  0.00    -0.000 A 
ATOM     27  C   UNL d   1      12.662   9.026  -4.139  0.00  0.00    -0.000 A 
ATOM     28  C   UNL d   1      11.910   9.363  -5.299  0.00  0.00    -0.002 A 
ENDBRANCH  22  23
ENDBRANCH   4  22
TORSDOF 6
