REMARK  9 active torsions:
REMARK  status: ('A' for Active; 'I' for Inactive)
REMARK    1  A    between atoms: O_2  and  C_3 
REMARK    2  A    between atoms: C_9  and  C_10 
REMARK    3  A    between atoms: C_12  and  C_13 
REMARK    4  A    between atoms: C_13  and  N_14 
REMARK    5  A    between atoms: N_14  and  C_15 
REMARK    6  A    between atoms: C_15  and  C_16 
REMARK    7  A    between atoms: C_16  and  C_17 
REMARK    8  A    between atoms: C_17  and  O_18 
REMARK    9  A    between atoms: O_18  and  C_19 
ROOT
ATOM      1  C   UNL d   1      10.082   6.976 -10.724  0.00  0.00     0.293 C 
ENDROOT
BRANCH   1   2
ATOM      2  N   UNL d   1       8.947   6.066 -10.772  0.00  0.00     0.339 N 
BRANCH   2   3
ATOM      3  C   UNL d   1       9.094   5.110 -11.842  0.00  0.00     0.290 C 
BRANCH   3   4
ATOM      4  C   UNL d   1       9.304   5.816 -13.174  0.00  0.00     0.041 A 
ATOM      5  C   UNL d   1       9.227   5.053 -14.470  0.00  0.00     0.026 A 
ATOM      6  C   UNL d   1      10.572   5.544 -13.966  0.00  0.00     0.007 A 
BRANCH   5   7
ATOM      7  C   UNL d   1       8.863   3.614 -14.488  0.00  0.00     0.001 A 
ATOM      8  C   UNL d   1       9.795   2.654 -14.936  0.00  0.00     0.090 A 
ATOM      9  C   UNL d   1       9.432   1.292 -14.889  0.00  0.00     0.025 A 
ATOM     10  C   UNL d   1       8.151   0.905 -14.458  0.00  0.00     0.013 A 
ATOM     11  C   UNL d   1       7.211   1.873 -14.069  0.00  0.00     0.058 A 
ATOM     12 CL   UNL d   1       5.659   1.377 -13.511  0.00  0.00    -0.082 Cl
ATOM     13  C   UNL d   1       7.567   3.230 -14.081  0.00  0.00     0.009 A 
BRANCH   8  14
ATOM     14  O   UNL d   1      11.030   3.105 -15.352  0.00  0.00    -0.328 OA
ATOM     15  C   UNL d   1      11.820   2.249 -16.158  0.00  0.00     0.181 C 
ENDBRANCH   8  14
ENDBRANCH   5   7
ENDBRANCH   3   4
ENDBRANCH   2   3
ENDBRANCH   1   2
BRANCH   1  16
ATOM     16  C   UNL d   1       9.871   7.960  -9.569  0.00  0.00     0.071 C 
BRANCH  16  17
ATOM     17  C   UNL d   1      11.131   8.851  -9.409  0.00  0.00     0.151 C 
BRANCH  17  18
ATOM     18  O   UNL d   1      11.116   9.536  -8.165  0.00  0.00    -0.331 OA
BRANCH  18  19
ATOM     19  C   UNL d   1      11.342   8.786  -7.043  0.00  0.00     0.096 C 
ATOM     20  C   UNL d   1      11.649   9.475  -5.832  0.00  0.00     0.043 C 
ATOM     21  C   UNL d   1      11.859   8.741  -4.648  0.00  0.00     0.082 C 
ATOM     22  C   UNL d   1      11.711   7.339  -4.639  0.00  0.00    -0.004 C 
ATOM     23  N   UNL d   1      12.251   9.375  -3.451  0.00  0.00    -0.212 NA
ATOM     24  C   UNL d   1      11.392   6.676  -5.841  0.00  0.00    -0.001 C 
ATOM     25  C   UNL d   1      12.013   6.531  -3.400  0.00  0.00     0.038 C 
ATOM     26  C   UNL d   1      11.289   7.365  -7.033  0.00  0.00     0.024 C 
ATOM     27  C   UNL d   1      11.719   7.325  -2.176  0.00  0.00     0.095 C 
ATOM     28  C   UNL d   1      12.209   8.741  -2.274  0.00  0.00     0.256 C 
ATOM     29  O   UNL d   1      12.606   9.209  -1.256  0.00  0.00    -0.270 OA
ENDBRANCH  18  19
ENDBRANCH  17  18
ENDBRANCH  16  17
ENDBRANCH   1  16
TORSDOF 9
