REMARK  3 active torsions:
REMARK  status: ('A' for Active; 'I' for Inactive)
REMARK    1  A    between atoms: C_2  and  C_3 
REMARK    2  A    between atoms: C_3  and  N_4 
REMARK    3  A    between atoms: C_8  and  C_9 
ROOT
ATOM      1  C   UNL d   1       7.706   3.790 -13.241  0.00  0.00    -0.020 A 
ATOM      2  C   UNL d   1       6.423   3.216 -13.378  0.00  0.00    -0.004 A 
ATOM      3  C   UNL d   1       6.260   2.024 -14.113  0.00  0.00     0.000 A 
ATOM      4  C   UNL d   1       7.356   1.417 -14.754  0.00  0.00     0.010 A 
ATOM      5  C   UNL d   1       8.639   1.989 -14.624  0.00  0.00     0.068 A 
ATOM      6  C   UNL d   1       9.786   1.360 -15.256  0.00  0.00     0.101 C 
ATOM      7  N   UNL d   1      10.697   0.856 -15.762  0.00  0.00    -0.191 NA
ATOM      8  C   UNL d   1       8.810   3.160 -13.860  0.00  0.00     0.006 A 
ENDROOT
BRANCH   1   9
ATOM      9  C   UNL d   1       7.909   5.042 -12.389  0.00  0.00     0.056 C 
ATOM     10  C   UNL d   1       8.761   6.082 -13.127  0.00  0.00     0.008 C 
ATOM     11  C   UNL d   1       9.015   7.290 -12.235  0.00  0.00     0.036 C 
ATOM     12  C   UNL d   1       9.623   6.851 -10.897  0.00  0.00     0.251 C 
ATOM     13  N   UNL d   1       8.743   5.902 -10.212  0.00  0.00     0.142 N 
ATOM     14  C   UNL d   1       8.536   4.698 -11.020  0.00  0.00     0.255 C 
BRANCH  13  15
ATOM     15  C   UNL d   1       9.259   5.536  -8.894  0.00  0.00     0.277 C 
BRANCH  15  16
ATOM     16  C   UNL d   1       9.327   6.718  -7.943  0.00  0.00     0.009 C 
ATOM     17  C   UNL d   1       8.656   6.795  -6.787  0.00  0.00    -0.003 C 
ENDBRANCH  15  16
ENDBRANCH  13  15
ENDBRANCH   1   9
TORSDOF 3
