REMARK  6 active torsions:
REMARK  status: ('A' for Active; 'I' for Inactive)
REMARK    1  A    between atoms: C_2  and  C_4 
REMARK    2  A    between atoms: C_6  and  N_7 
REMARK    3  A    between atoms: N_8  and  C_9 
REMARK    4  A    between atoms: C_12  and  S_13 
REMARK    5  A    between atoms: S_13  and  N_16 
REMARK    6  A    between atoms: N_16  and  C_17 
ROOT
ATOM      1  C   UNL d   1       9.187   5.357 -10.666  0.00  0.00     0.103 A 
ATOM      2  C   UNL d   1       9.043   4.981  -9.312  0.00  0.00     0.022 A 
ATOM      3  C   UNL d   1       9.354   5.892  -8.286  0.00  0.00     0.015 A 
ATOM      4  C   UNL d   1       9.820   7.179  -8.613  0.00  0.00     0.105 A 
ATOM      5  C   UNL d   1       9.942   7.577  -9.958  0.00  0.00     0.015 A 
ATOM      6  C   UNL d   1       9.616   6.668 -10.985  0.00  0.00     0.022 A 
ENDROOT
BRANCH   1   7
ATOM      7  N   UNL d   1       8.852   4.410 -11.661  0.00  0.00    -0.148 NA
ATOM      8  N   UNL d   1       9.501   4.419 -12.730  0.00  0.00    -0.148 NA
BRANCH   8   9
ATOM      9  C   UNL d   1       9.061   3.501 -13.714  0.00  0.00     0.103 A 
ATOM     10  C   UNL d   1      10.022   2.853 -14.517  0.00  0.00     0.029 A 
ATOM     11  C   UNL d   1       9.641   1.884 -15.481  0.00  0.00     0.091 A 
ATOM     12  C   UNL d   1       8.259   1.585 -15.637  0.00  0.00     0.137 A 
ATOM     13  C   UNL d   1       7.304   2.242 -14.841  0.00  0.00     0.029 A 
ATOM     14  O   UNL d   1       7.806   0.683 -16.555  0.00  0.00    -0.190 OA
ATOM     15  C   UNL d   1       7.693   3.205 -13.900  0.00  0.00     0.023 A 
BRANCH  11  16
ATOM     16  C   UNL d   1      10.708   1.200 -16.299  0.00  0.00     0.213 C 
ATOM     17  O   UNL d   1      10.573   0.081 -16.791  0.00  0.00    -0.644 OA
ATOM     18  O   UNL d   1      11.860   1.921 -16.428  0.00  0.00    -0.644 OA
ENDBRANCH  11  16
ENDBRANCH   8   9
ENDBRANCH   1   7
BRANCH   4  19
ATOM     19  S   UNL d   1      10.252   8.329  -7.317  0.00  0.00     0.287 S 
ATOM     20  O   UNL d   1      11.232   9.296  -7.827  0.00  0.00    -0.198 OA
ATOM     21  O   UNL d   1       9.033   8.757  -6.625  0.00  0.00    -0.198 OA
BRANCH  19  22
ATOM     22  N   UNL d   1      11.095   7.354  -6.173  0.00  0.00    -0.139 NA
BRANCH  22  23
ATOM     23  C   UNL d   1      11.465   7.687  -4.872  0.00  0.00     0.175 A 
ATOM     24  N   UNL d   1      11.462   8.988  -4.501  0.00  0.00    -0.225 NA
ATOM     25  C   UNL d   1      11.863   9.296  -3.248  0.00  0.00     0.101 A 
ATOM     26  C   UNL d   1      12.266   8.331  -2.306  0.00  0.00     0.021 A 
ATOM     27  C   UNL d   1      12.255   6.977  -2.690  0.00  0.00     0.005 A 
ATOM     28  C   UNL d   1      11.860   6.655  -3.997  0.00  0.00     0.040 A 
ENDBRANCH  22  23
ENDBRANCH  19  22
ENDBRANCH   4  19
TORSDOF 6
