REMARK  6 active torsions:
REMARK  status: ('A' for Active; 'I' for Inactive)
REMARK       I    between atoms: C_2  and  N_3 
REMARK    1  A    between atoms: C_2  and  C_27 
REMARK    2  A    between atoms: N_3  and  C_4 
REMARK    3  A    between atoms: C_7  and  C_8 
REMARK    4  A    between atoms: C_8  and  C_9 
REMARK    5  A    between atoms: C_9  and  N_10 
REMARK    6  A    between atoms: C_13  and  C_14 
ROOT
ATOM      1  C   UNL d   1       9.719   6.322  -9.833  0.00  0.00     0.107 C 
ATOM      2  C   UNL d   1       8.544   5.402  -9.527  0.00  0.00     0.024 C 
ATOM      3  C   UNL d   1       8.240   4.574 -10.755  0.00  0.00     0.002 C 
ATOM      4  C   UNL d   1       7.915   5.388 -12.000  0.00  0.00     0.002 C 
ATOM      5  C   UNL d   1       9.136   6.263 -12.305  0.00  0.00     0.002 C 
ATOM      6  C   UNL d   1       9.489   7.134 -11.103  0.00  0.00     0.024 C 
ENDROOT
BRANCH   4   7
ATOM      7  C   UNL d   1       7.684   4.449 -13.196  0.00  0.00     0.035 C 
BRANCH   7   8
ATOM      8  C   UNL d   1       6.492   3.472 -13.046  0.00  0.00     0.250 C 
BRANCH   8   9
ATOM      9  N   UNL d   1       6.302   2.564 -14.186  0.00  0.00     0.137 N 
ATOM     10  C   UNL d   1       7.568   2.104 -14.768  0.00  0.00     0.251 C 
ATOM     11  C   UNL d   1       7.269   1.305 -16.036  0.00  0.00     0.040 C 
ATOM     12  C   UNL d   1       6.420   0.049 -15.747  0.00  0.00     0.028 C 
ATOM     13  C   UNL d   1       5.209   0.431 -14.920  0.00  0.00     0.040 C 
ATOM     14  C   UNL d   1       5.532   1.393 -13.742  0.00  0.00     0.251 C 
BRANCH  12  15
ATOM     15  C   UNL d   1       5.932  -0.626 -17.055  0.00  0.00     0.002 C 
ATOM     16  C   UNL d   1       5.579  -1.994 -17.069  0.00  0.00     0.115 C 
ATOM     17  C   UNL d   1       5.352  -2.684 -18.243  0.00  0.00     0.119 C 
ATOM     18  O   UNL d   1       5.423  -2.851 -16.021  0.00  0.00    -0.300 OA
ATOM     19  C   UNL d   1       5.239  -2.011 -19.474  0.00  0.00     0.026 C 
ATOM     20  O   UNL d   1       5.229  -4.011 -17.978  0.00  0.00    -0.300 OA
ATOM     21  C   UNL d   1       5.431  -0.605 -19.478  0.00  0.00     0.002 C 
ATOM     22  C   UNL d   1       5.795   0.087 -18.289  0.00  0.00    -0.002 C 
ATOM     23  C   UNL d   1       5.447  -4.138 -16.590  0.00  0.00     0.304 C 
ENDBRANCH  12  15
ENDBRANCH   8   9
ENDBRANCH   7   8
ENDBRANCH   4   7
BRANCH   1  24
ATOM     24  N   UNL d   1       9.892   7.237  -8.729  0.00  0.00    -0.236 NA
ATOM     25  C   UNL d   1      10.623   6.925  -7.636  0.00  0.00     0.275 C 
ATOM     26  O   UNL d   1      11.051   5.807  -7.441  0.00  0.00    -0.266 OA
BRANCH  25  27
ATOM     27  C   UNL d   1      10.898   8.063  -6.695  0.00  0.00     0.060 A 
ATOM     28  C   UNL d   1      11.287   7.927  -5.309  0.00  0.00     0.022 A 
ATOM     29  C   UNL d   1      11.546   9.123  -4.572  0.00  0.00     0.082 A 
ATOM     30  C   UNL d   1      11.448   6.693  -4.646  0.00  0.00     0.002 A 
ATOM     31  N   UNL d   1      11.460  10.338  -5.131  0.00  0.00    -0.244 NA
ATOM     32  C   UNL d   1      11.956   9.059  -3.222  0.00  0.00     0.019 A 
ATOM     33  C   UNL d   1      11.172  10.430  -6.442  0.00  0.00     0.099 A 
ATOM     34  C   UNL d   1      10.868   9.339  -7.240  0.00  0.00     0.025 A 
ATOM     35  C   UNL d   1      12.110   7.824  -2.570  0.00  0.00     0.002 A 
ATOM     36  C   UNL d   1      11.852   6.647  -3.291  0.00  0.00     0.000 A 
ENDBRANCH  25  27
ENDBRANCH   1  24
TORSDOF 6
