REMARK  7 active torsions:
REMARK  status: ('A' for Active; 'I' for Inactive)
REMARK    1  A    between atoms: C_2  and  C_3 
REMARK    2  A    between atoms: C_3  and  N_4 
REMARK    3  A    between atoms: N_4  and  C_5 
REMARK    4  A    between atoms: N_4  and  C_8 
REMARK    5  A    between atoms: C_5  and  C_6 
REMARK    6  A    between atoms: C_16  and  C_17 
REMARK    7  A    between atoms: C_17  and  C_19 
ROOT
ATOM      1  C   UNL d   1       8.857   1.937 -16.642  0.00  0.00     0.253 C 
ATOM      2  C   UNL d   1       9.930   2.399 -15.622  0.00  0.00     0.182 C 
ATOM      3  O   UNL d   1       9.405   3.383 -14.744  0.00  0.00    -0.329 OA
ATOM      4  C   UNL d   1       8.182   3.106 -14.165  0.00  0.00     0.093 A 
ATOM      5  C   UNL d   1       7.307   2.117 -14.688  0.00  0.00     0.002 A 
ATOM      6  C   UNL d   1       6.060   1.889 -14.079  0.00  0.00    -0.002 A 
ATOM      7  C   UNL d   1       5.661   2.623 -12.954  0.00  0.00    -0.000 A 
ATOM      8  C   UNL d   1       6.540   3.587 -12.402  0.00  0.00     0.005 A 
ATOM      9  C   UNL d   1       7.786   3.824 -13.021  0.00  0.00     0.061 A 
ATOM     10  C   UNL d   1       7.665   1.308 -15.930  0.00  0.00     0.064 C 
ENDROOT
BRANCH   9  11
ATOM     11  C   UNL d   1       8.728   4.772 -12.403  0.00  0.00     0.197 C 
ATOM     12  O   UNL d   1       9.823   4.414 -11.974  0.00  0.00    -0.286 OA
BRANCH  11  13
ATOM     13  C   UNL d   1       8.313   6.177 -12.397  0.00  0.00     0.039 A 
ATOM     14  C   UNL d   1       7.010   6.558 -12.818  0.00  0.00     0.003 A 
ATOM     15  C   UNL d   1       6.634   7.888 -12.848  0.00  0.00     0.000 A 
ATOM     16  C   UNL d   1       7.577   8.825 -12.441  0.00  0.00     0.000 A 
ATOM     17  C   UNL d   1       8.866   8.501 -12.067  0.00  0.00     0.000 A 
ATOM     18  C   UNL d   1       9.243   7.160 -12.015  0.00  0.00     0.003 A 
ENDBRANCH  11  13
ENDBRANCH   9  11
BRANCH   1  19
ATOM     19  N   UNL d   1       9.399   1.062 -17.693  0.00  0.00     0.138 N 
BRANCH  19  20
ATOM     20  C   UNL d   1      10.115   1.820 -18.730  0.00  0.00     0.250 C 
BRANCH  20  21
ATOM     21  C   UNL d   1       9.268   2.920 -19.388  0.00  0.00     0.035 C 
ATOM     22  C   UNL d   1       9.442   4.325 -18.753  0.00  0.00     0.002 C 
ENDBRANCH  20  21
ENDBRANCH  19  20
BRANCH  19  23
ATOM     23  C   UNL d   1      10.221  -0.018 -17.123  0.00  0.00     0.250 C 
BRANCH  23  24
ATOM     24  C   UNL d   1      10.689  -1.050 -18.158  0.00  0.00     0.035 C 
ATOM     25  C   UNL d   1      12.104  -0.724 -18.697  0.00  0.00     0.002 C 
ENDBRANCH  23  24
ENDBRANCH  19  23
ENDBRANCH   1  19
TORSDOF 7
