REMARK  11 active torsions:
REMARK  status: ('A' for Active; 'I' for Inactive)
REMARK    1  A    between atoms: C_2  and  O_3 
REMARK    2  A    between atoms: O_3  and  C_4 
REMARK    3  A    between atoms: C_10  and  C_11 
REMARK    4  A    between atoms: C_13  and  C_14 
REMARK    5  A    between atoms: C_14  and  N_15 
REMARK    6  A    between atoms: N_15  and  C_17 
REMARK    7  A    between atoms: C_17  and  C_18 
REMARK    8  A    between atoms: C_18  and  C_19 
REMARK    9  A    between atoms: C_19  and  S_20 
REMARK   10  A    between atoms: S_20  and  C_21 
REMARK   11  A    between atoms: C_24  and  C_25 
ROOT
ATOM      1  N   UNL d   1       8.588   1.350 -14.421  0.00  0.00     0.139 N 
ATOM      2  C   UNL d   1       9.677   1.732 -15.316  0.00  0.00     0.285 C 
ENDROOT
BRANCH   1   3
ATOM      3  C   UNL d   1       7.766   0.376 -15.130  0.00  0.00     0.251 C 
BRANCH   3   4
ATOM      4  C   UNL d   1       6.716  -0.302 -14.226  0.00  0.00     0.038 A 
ATOM      5  C   UNL d   1       5.572  -1.076 -14.880  0.00  0.00     0.026 A 
ATOM      6  C   UNL d   1       5.291   0.213 -14.141  0.00  0.00     0.007 A 
BRANCH   5   7
ATOM      7  C   UNL d   1       5.452  -1.169 -16.388  0.00  0.00     0.002 A 
ATOM      8  C   UNL d   1       5.412  -2.425 -17.060  0.00  0.00     0.090 A 
ATOM      9  C   UNL d   1       5.390  -2.461 -18.474  0.00  0.00     0.026 A 
ATOM     10  C   UNL d   1       5.422  -1.270 -19.239  0.00  0.00     0.032 A 
ATOM     11  C   UNL d   1       5.448  -0.039 -18.573  0.00  0.00     0.140 A 
ATOM     12  F   UNL d   1       5.532   1.116 -19.278  0.00  0.00    -0.204 F 
ATOM     13  C   UNL d   1       5.444   0.013 -17.177  0.00  0.00     0.027 A 
BRANCH   8  14
ATOM     14  O   UNL d   1       5.460  -3.570 -16.272  0.00  0.00    -0.331 OA
BRANCH  14  15
ATOM     15  C   UNL d   1       5.360  -4.840 -16.904  0.00  0.00     0.149 C 
ATOM     16  C   UNL d   1       6.751  -5.228 -17.432  0.00  0.00     0.035 C 
ENDBRANCH  14  15
ENDBRANCH   8  14
ENDBRANCH   5   7
ENDBRANCH   3   4
ENDBRANCH   1   3
BRANCH   1  17
ATOM     17  C   UNL d   1       7.757   2.520 -14.118  0.00  0.00     0.251 C 
BRANCH  17  18
ATOM     18  C   UNL d   1       8.558   3.607 -13.391  0.00  0.00     0.047 C 
BRANCH  18  19
ATOM     19  C   UNL d   1       7.650   4.650 -12.739  0.00  0.00     0.067 C 
BRANCH  19  20
ATOM     20  S   UNL d   1       8.558   6.209 -12.517  0.00  0.00    -0.075 SA
BRANCH  20  21
ATOM     21  C   UNL d   1       8.992   6.134 -10.811  0.00  0.00     0.193 A 
ATOM     22  N   UNL d   1       9.545   7.200 -10.181  0.00  0.00    -0.289 N 
ATOM     23  C   UNL d   1       9.662   6.721  -8.916  0.00  0.00     0.167 A 
ATOM     24  C   UNL d   1       9.903   8.506 -10.765  0.00  0.00     0.134 C 
ATOM     25  N   UNL d   1       9.236   5.455  -8.801  0.00  0.00    -0.128 NA
ATOM     26  N   UNL d   1       8.806   5.064 -10.037  0.00  0.00    -0.122 NA
BRANCH  23  27
ATOM     27  C   UNL d   1      10.208   7.431  -7.762  0.00  0.00     0.036 A 
ATOM     28  C   UNL d   1      10.916   6.691  -6.764  0.00  0.00     0.003 A 
ATOM     29  C   UNL d   1      11.437   7.333  -5.631  0.00  0.00     0.000 A 
ATOM     30  C   UNL d   1      11.392   8.746  -5.529  0.00  0.00     0.000 A 
ATOM     31  C   UNL d   1      10.699   9.474  -6.533  0.00  0.00     0.000 A 
ATOM     32  C   UNL d   1      10.046   8.823  -7.598  0.00  0.00     0.003 A 
ENDBRANCH  23  27
ENDBRANCH  20  21
ENDBRANCH  19  20
ENDBRANCH  18  19
ENDBRANCH  17  18
ENDBRANCH   1  17
TORSDOF 11
