REMARK  3 active torsions:
REMARK  status: ('A' for Active; 'I' for Inactive)
REMARK    1  A    between atoms: N_2  and  C_3 
REMARK    2  A    between atoms: C_3  and  C_4 
REMARK    3  A    between atoms: C_4  and  C_5 
ROOT
ATOM      1  C   UNL d   1      11.238   8.469  -5.330  0.00  0.00     0.061 A 
ATOM      2  C   UNL d   1      11.458   7.177  -4.817  0.00  0.00     0.015 A 
ATOM      3  C   UNL d   1      11.920   7.047  -3.497  0.00  0.00     0.003 A 
ATOM      4  C   UNL d   1      12.136   8.210  -2.739  0.00  0.00     0.021 A 
ATOM      5  C   UNL d   1      11.879   9.459  -3.339  0.00  0.00     0.099 A 
ATOM      6  N   UNL d   1      11.452   9.592  -4.611  0.00  0.00    -0.248 NA
ENDROOT
BRANCH   1   7
ATOM      7  C   UNL d   1      10.726   8.652  -6.734  0.00  0.00     0.084 C 
BRANCH   7   8
ATOM      8  C   UNL d   1      11.827   8.495  -7.799  0.00  0.00     0.296 C 
BRANCH   8   9
ATOM      9  N   UNL d   1      11.334   8.785  -9.140  0.00  0.00     0.342 N 
ATOM     10  C   UNL d   1      10.400   7.777  -9.627  0.00  0.00     0.328 C 
ENDBRANCH   8   9
ENDBRANCH   7   8
ENDBRANCH   1   7
TORSDOF 3
