REMARK  4 active torsions:
REMARK  status: ('A' for Active; 'I' for Inactive)
REMARK    1  A    between atoms: C_2  and  C_3 
REMARK       I    between atoms: C_2  and  N_18 
REMARK    2  A    between atoms: C_3  and  N_4 
REMARK    3  A    between atoms: N_7  and  C_8 
REMARK    4  A    between atoms: C_8  and  C_9 
ROOT
ATOM      1  N   UNL d   1       9.962   2.466 -14.987  0.00  0.00     0.151 N 
ATOM      2  C   UNL d   1       8.679   2.070 -14.383  0.00  0.00     0.286 C 
ATOM      3  C   UNL d   1       7.926   3.280 -13.796  0.00  0.00     0.286 C 
ATOM      4  N   UNL d   1       8.736   3.999 -12.819  0.00  0.00     0.146 N 
ATOM      5  C   UNL d   1       9.987   4.408 -13.456  0.00  0.00     0.286 C 
ATOM      6  C   UNL d   1      10.757   3.209 -14.026  0.00  0.00     0.286 C 
ENDROOT
BRANCH   1   7
ATOM      7  C   UNL d   1      10.717   1.363 -15.592  0.00  0.00     0.337 C 
BRANCH   7   8
ATOM      8  C   UNL d   1       9.992   0.659 -16.728  0.00  0.00     0.272 C 
ATOM      9  O   UNL d   1       9.954  -0.565 -16.675  0.00  0.00    -0.270 OA
ATOM     10  N   UNL d   1       9.457   1.407 -17.740  0.00  0.00    -0.298 N 
ATOM     11  C   UNL d   1       8.601   0.923 -18.772  0.00  0.00     0.059 A 
ATOM     12  C   UNL d   1       9.680   2.858 -17.937  0.00  0.00     0.114 A 
ATOM     13  C   UNL d   1       8.305   1.954 -19.660  0.00  0.00    -0.004 A 
ATOM     14  C   UNL d   1       8.037  -0.358 -18.962  0.00  0.00     0.028 A 
ATOM     15  C   UNL d   1       8.992   3.235 -19.261  0.00  0.00     0.052 A 
ATOM     16  C   UNL d   1       7.458   1.749 -20.764  0.00  0.00    -0.002 A 
ATOM     17  C   UNL d   1       6.890   0.468 -20.964  0.00  0.00     0.011 A 
ATOM     18  C   UNL d   1       7.188  -0.577 -20.062  0.00  0.00     0.059 A 
ATOM     19 CL   UNL d   1       6.510  -2.141 -20.284  0.00  0.00    -0.082 Cl
ENDBRANCH   7   8
ENDBRANCH   1   7
BRANCH   4  20
ATOM     20  C   UNL d   1       8.005   5.128 -12.250  0.00  0.00     0.277 C 
BRANCH  20  21
ATOM     21  C   UNL d   1       8.727   5.782 -11.087  0.00  0.00     0.011 A 
ATOM     22  C   UNL d   1       8.667   5.213  -9.799  0.00  0.00    -0.002 A 
ATOM     23  C   UNL d   1       9.325   5.831  -8.717  0.00  0.00     0.011 A 
ATOM     24  C   UNL d   1      10.050   7.021  -8.917  0.00  0.00     0.058 A 
ATOM     25  C   UNL d   1      10.118   7.591 -10.203  0.00  0.00     0.011 A 
ATOM     26 CL   UNL d   1      10.857   7.775  -7.590  0.00  0.00    -0.082 Cl
ATOM     27  C   UNL d   1       9.458   6.983 -11.280  0.00  0.00    -0.002 A 
ENDBRANCH  20  21
ENDBRANCH   4  20
TORSDOF 4
