REMARK  5 active torsions:
REMARK  status: ('A' for Active; 'I' for Inactive)
REMARK    1  A    between atoms: C_8  and  C_9 
REMARK    2  A    between atoms: C_9  and  C_10 
REMARK    3  A    between atoms: C_10  and  C_11 
REMARK    4  A    between atoms: C_11  and  N_12 
REMARK    5  A    between atoms: N_15  and  C_16 
ROOT
ATOM      1  N   UNL d   1       9.626   6.250 -10.864  0.00  0.00     0.140 N 
ATOM      2  C   UNL d   1       9.516   4.776 -10.779  0.00  0.00     0.268 C 
ATOM      3  C   UNL d   1       9.845   4.132 -12.146  0.00  0.00     0.112 C 
ATOM      4  N   UNL d   1       8.928   4.619 -13.161  0.00  0.00    -0.247 NA
ATOM      5  C   UNL d   1       8.884   6.075 -13.209  0.00  0.00     0.112 C 
ATOM      6  C   UNL d   1       8.666   6.782 -11.837  0.00  0.00     0.268 C 
ENDROOT
BRANCH   1   7
ATOM      7  C   UNL d   1       9.285   6.827  -9.571  0.00  0.00     0.251 C 
BRANCH   7   8
ATOM      8  C   UNL d   1      10.465   6.711  -8.599  0.00  0.00     0.040 C 
BRANCH   8   9
ATOM      9  C   UNL d   1      10.034   6.641  -7.130  0.00  0.00     0.030 C 
BRANCH   9  10
ATOM     10  C   UNL d   1      10.420   7.856  -6.369  0.00  0.00    -0.002 A 
ATOM     11  C   UNL d   1      10.205   9.148  -6.758  0.00  0.00     0.095 A 
ATOM     12  N   UNL d   1      10.682   9.991  -5.775  0.00  0.00    -0.244 NA
ATOM     13  C   UNL d   1      11.223   9.274  -4.734  0.00  0.00     0.081 A 
ATOM     14  C   UNL d   1      11.791   9.658  -3.508  0.00  0.00     0.019 A 
ATOM     15  C   UNL d   1      11.080   7.907  -5.100  0.00  0.00     0.015 A 
ATOM     16  C   UNL d   1      12.284   8.687  -2.632  0.00  0.00    -0.003 A 
ATOM     17  C   UNL d   1      12.163   7.328  -2.970  0.00  0.00    -0.022 A 
ATOM     18  C   UNL d   1      12.663   6.271  -2.022  0.00  0.00     0.031 C 
ATOM     19  C   UNL d   1      11.556   6.945  -4.184  0.00  0.00    -0.003 A 
ENDBRANCH   9  10
ENDBRANCH   8   9
ENDBRANCH   7   8
ENDBRANCH   1   7
BRANCH   4  20
ATOM     20  C   UNL d   1       7.686   3.979 -13.172  0.00  0.00     0.061 A 
ATOM     21  C   UNL d   1       7.484   2.876 -14.047  0.00  0.00     0.127 A 
ATOM     22  C   UNL d   1       6.229   2.201 -14.012  0.00  0.00     0.117 A 
ATOM     23  O   UNL d   1       8.483   2.446 -14.887  0.00  0.00    -0.325 OA
ATOM     24  C   UNL d   1       5.203   2.649 -13.145  0.00  0.00     0.026 A 
ATOM     25  O   UNL d   1       5.950   1.111 -14.804  0.00  0.00    -0.326 OA
ATOM     26  C   UNL d   1       5.428   3.767 -12.326  0.00  0.00     0.003 A 
ATOM     27  C   UNL d   1       6.659   4.370 -12.298  0.00  0.00     0.013 A 
ATOM     28  C   UNL d   1       7.105   0.510 -15.354  0.00  0.00     0.181 C 
ATOM     29  C   UNL d   1       8.039   1.584 -15.930  0.00  0.00     0.181 C 
ENDBRANCH   4  20
TORSDOF 5
