REMARK  1 active torsions:
REMARK  status: ('A' for Active; 'I' for Inactive)
REMARK    1  A    between atoms: C_6  and  C_7 
ROOT
ATOM      1  C   UNL d   1      12.079   9.061  -2.528  0.00  0.00     0.002 A 
ATOM      2  C   UNL d   1      12.261   7.673  -2.371  0.00  0.00     0.002 A 
ATOM      3  C   UNL d   1      11.987   6.798  -3.439  0.00  0.00     0.021 A 
ATOM      4  C   UNL d   1      11.530   7.334  -4.654  0.00  0.00     0.101 A 
ATOM      5  N   UNL d   1      11.176   6.796  -5.875  0.00  0.00    -0.224 NA
ATOM      6  C   UNL d   1      10.829   7.814  -6.689  0.00  0.00     0.181 A 
ATOM      7  N   UNL d   1      10.902   9.018  -6.112  0.00  0.00    -0.224 NA
ATOM      8  C   UNL d   1      11.355   8.735  -4.841  0.00  0.00     0.101 A 
ATOM      9  C   UNL d   1      11.620   9.586  -3.751  0.00  0.00     0.021 A 
ENDROOT
BRANCH   6  10
ATOM     10  C   UNL d   1      10.400   7.611  -8.075  0.00  0.00     0.124 A 
ATOM     11  N   UNL d   1      10.283   8.708  -8.937  0.00  0.00    -0.233 NA
ATOM     12  C   UNL d   1       9.872   8.353 -10.153  0.00  0.00     0.135 A 
ATOM     13  S   UNL d   1       9.651   6.627 -10.364  0.00  0.00    -0.064 SA
ATOM     14  C   UNL d   1      10.103   6.418  -8.700  0.00  0.00     0.059 A 
ENDBRANCH   6  10
TORSDOF 1
