REMARK  2 active torsions:
REMARK  status: ('A' for Active; 'I' for Inactive)
REMARK    1  A    between atoms: C_3  and  C_4 
REMARK    2  A    between atoms: N_13  and  C_14 
ROOT
ATOM      1  C   UNL d   1       8.664   6.949  -6.820  0.00  0.00     0.052 C 
ATOM      2  C   UNL d   1       9.900   7.530  -7.486  0.00  0.00     0.059 A 
ATOM      3  C   UNL d   1      10.242   7.568  -8.778  0.00  0.00     0.098 A 
ATOM      4  N   UNL d   1      11.459   8.194  -8.858  0.00  0.00    -0.191 NA
ATOM      5  C   UNL d   1      11.832   8.575  -7.631  0.00  0.00     0.350 A 
ATOM      6  O   UNL d   1      12.850   9.186  -7.384  0.00  0.00    -0.244 OA
ATOM      7  N   UNL d   1      10.905   8.152  -6.755  0.00  0.00    -0.284 N 
ENDROOT
BRANCH   7   8
ATOM      8  C   UNL d   1      10.943   8.242  -5.276  0.00  0.00     0.094 C 
ATOM      9  C   UNL d   1      11.468   6.946  -4.617  0.00  0.00     0.058 C 
ATOM     10  C   UNL d   1      11.637   7.077  -3.080  0.00  0.00     0.252 C 
ATOM     11  N   UNL d   1      12.490   8.240  -2.780  0.00  0.00     0.139 N 
ATOM     12  C   UNL d   1      11.855   9.476  -3.228  0.00  0.00     0.252 C 
ATOM     13  C   UNL d   1      12.662   8.329  -1.344  0.00  0.00     0.285 C 
ATOM     14  C   UNL d   1      11.748   9.459  -4.748  0.00  0.00     0.058 C 
ENDBRANCH   7   8
BRANCH   3  15
ATOM     15  C   UNL d   1       9.619   6.963  -9.945  0.00  0.00     0.019 A 
ATOM     16  C   UNL d   1       9.621   7.681 -11.154  0.00  0.00     0.002 A 
ATOM     17  C   UNL d   1       9.025   7.112 -12.289  0.00  0.00     0.000 A 
ATOM     18  C   UNL d   1       8.413   5.849 -12.213  0.00  0.00     0.000 A 
ATOM     19  C   UNL d   1       8.405   5.142 -10.998  0.00  0.00     0.000 A 
ATOM     20  C   UNL d   1       9.016   5.694  -9.858  0.00  0.00     0.002 A 
ENDBRANCH   3  15
TORSDOF 2
