REMARK  6 active torsions:
REMARK  status: ('A' for Active; 'I' for Inactive)
REMARK    1  A    between atoms: O_2  and  C_3 
REMARK    2  A    between atoms: N_11  and  C_12 
REMARK    3  A    between atoms: C_12  and  C_13 
REMARK    4  A    between atoms: C_18  and  C_19 
REMARK    5  A    between atoms: C_19  and  N_20 
REMARK       I    between atoms: N_20  and  C_21 
REMARK    6  A    between atoms: C_21  and  C_23 
ROOT
ATOM      1  C   UNL d   1       7.963   5.733 -12.344  0.00  0.00     0.009 C 
ATOM      2  C   UNL d   1       6.804   6.347 -12.800  0.00  0.00    -0.003 C 
ATOM      3  C   UNL d   1       6.715   7.744 -12.850  0.00  0.00    -0.000 C 
ATOM      4  C   UNL d   1       7.759   8.561 -12.444  0.00  0.00    -0.000 C 
ATOM      5  C   UNL d   1       8.895   7.959 -11.883  0.00  0.00    -0.003 C 
ATOM      6  C   UNL d   1       8.944   6.544 -11.775  0.00  0.00     0.000 C 
ENDROOT
BRANCH   1   7
ATOM      7  C   UNL d   1       8.105   4.228 -12.484  0.00  0.00     0.277 C 
BRANCH   7   8
ATOM      8  N   UNL d   1       9.110   3.865 -13.506  0.00  0.00     0.146 N 
ATOM      9  C   UNL d   1       8.599   4.208 -14.812  0.00  0.00     0.277 C 
ATOM     10  C   UNL d   1       9.477   3.683 -15.961  0.00  0.00     0.009 A 
ATOM     11  C   UNL d   1      10.312   2.570 -15.769  0.00  0.00    -0.020 A 
ATOM     12  C   UNL d   1       9.453   4.293 -17.228  0.00  0.00     0.027 A 
ATOM     13  C   UNL d   1      11.102   2.051 -16.809  0.00  0.00     0.022 A 
ATOM     14  C   UNL d   1      10.382   1.939 -14.404  0.00  0.00     0.061 C 
ATOM     15  C   UNL d   1      11.056   2.655 -18.087  0.00  0.00     0.119 A 
ATOM     16  C   UNL d   1      10.220   3.776 -18.289  0.00  0.00     0.153 A 
ATOM     17  O   UNL d   1      10.124   4.362 -19.520  0.00  0.00    -0.188 OA
ATOM     18  C   UNL d   1       9.212   2.415 -13.530  0.00  0.00     0.256 C 
BRANCH  15  19
ATOM     19  O   UNL d   1      11.805   2.184 -19.138  0.00  0.00    -0.326 OA
ATOM     20  C   UNL d   1      12.704   1.118 -18.877  0.00  0.00     0.181 C 
ENDBRANCH  15  19
ENDBRANCH   7   8
ENDBRANCH   1   7
BRANCH   6  21
ATOM     21  C   UNL d   1      10.089   5.910 -11.067  0.00  0.00     0.155 C 
BRANCH  21  22
ATOM     22  N   UNL d   1      10.620   6.622  -9.920  0.00  0.00    -0.229 NA
ATOM     23  C   UNL d   1      10.130   6.445  -8.689  0.00  0.00     0.275 C 
ATOM     24  O   UNL d   1       9.320   5.564  -8.402  0.00  0.00    -0.266 OA
BRANCH  23  25
ATOM     25  C   UNL d   1      10.662   7.383  -7.660  0.00  0.00     0.058 A 
ATOM     26  C   UNL d   1      10.982   6.911  -6.367  0.00  0.00     0.011 A 
ATOM     27  C   UNL d   1      11.459   7.795  -5.380  0.00  0.00     0.035 A 
ATOM     28  C   UNL d   1      11.603   9.158  -5.689  0.00  0.00     0.007 A 
ATOM     29 BR   UNL d   1      12.006   7.170  -3.660  0.00  0.00    -0.049 Br
ATOM     30  C   UNL d   1      11.325   9.623  -6.986  0.00  0.00     0.001 A 
ATOM     31  C   UNL d   1      10.858   8.745  -7.976  0.00  0.00     0.005 A 
ENDBRANCH  23  25
ENDBRANCH  21  22
ENDBRANCH   6  21
TORSDOF 6
