REMARK  5 active torsions:
REMARK  status: ('A' for Active; 'I' for Inactive)
REMARK    1  A    between atoms: N_9  and  C_10 
REMARK    2  A    between atoms: C_10  and  C_11 
REMARK    3  A    between atoms: C_11  and  C_12 
REMARK    4  A    between atoms: C_12  and  C_13 
REMARK    5  A    between atoms: C_13  and  C_14 
ROOT
ATOM      1  C   UNL d   1       6.772   3.963 -12.850  0.00  0.00     0.036 C 
ENDROOT
BRANCH   1   2
ATOM      2  C   UNL d   1       8.288   4.145 -13.107  0.00  0.00     0.251 C 
BRANCH   2   3
ATOM      3  N   UNL d   1       8.901   5.235 -12.344  0.00  0.00     0.142 N 
ATOM      4  C   UNL d   1       8.231   6.512 -12.549  0.00  0.00     0.255 C 
ATOM      5  C   UNL d   1       9.063   7.655 -11.955  0.00  0.00     0.061 C 
ATOM      6  C   UNL d   1       9.529   7.347 -10.541  0.00  0.00    -0.022 A 
ATOM      7  C   UNL d   1       9.485   6.020 -10.060  0.00  0.00     0.007 A 
ATOM      8  C   UNL d   1       9.952   8.385  -9.693  0.00  0.00    -0.004 A 
ATOM      9  C   UNL d   1       9.877   5.736  -8.736  0.00  0.00    -0.003 A 
ATOM     10  C   UNL d   1       8.944   4.905 -10.926  0.00  0.00     0.276 C 
ATOM     11  C   UNL d   1      10.342   6.771  -7.903  0.00  0.00    -0.000 A 
ATOM     12  C   UNL d   1      10.368   8.099  -8.379  0.00  0.00    -0.000 A 
ENDBRANCH   2   3
ENDBRANCH   1   2
BRANCH   1  13
ATOM     13  C   UNL d   1       6.101   3.025 -13.837  0.00  0.00     0.009 C 
BRANCH  13  14
ATOM     14  C   UNL d   1       6.580   1.575 -13.735  0.00  0.00     0.053 C 
BRANCH  14  15
ATOM     15  C   UNL d   1       6.115   0.734 -14.854  0.00  0.00     0.088 A 
ATOM     16  S   UNL d   1       4.801  -0.431 -14.660  0.00  0.00    -0.071 SA
ATOM     17  C   UNL d   1       4.979  -0.823 -16.362  0.00  0.00     0.048 A 
ATOM     18  C   UNL d   1       6.018  -0.034 -16.941  0.00  0.00     0.087 A 
ATOM     19  C   UNL d   1       4.251  -1.746 -17.126  0.00  0.00     0.008 A 
ATOM     20  N   UNL d   1       6.658   0.837 -16.072  0.00  0.00    -0.243 NA
ATOM     21  C   UNL d   1       6.291  -0.200 -18.313  0.00  0.00     0.020 A 
ATOM     22  C   UNL d   1       5.564  -1.129 -19.086  0.00  0.00     0.002 A 
ATOM     23  C   UNL d   1       4.546  -1.899 -18.488  0.00  0.00     0.001 A 
ENDBRANCH  14  15
ENDBRANCH  13  14
ENDBRANCH   1  13
TORSDOF 5
