REMARK  5 active torsions:
REMARK  status: ('A' for Active; 'I' for Inactive)
REMARK    1  A    between atoms: N_12  and  C_13 
REMARK    2  A    between atoms: C_13  and  C_14 
REMARK    3  A    between atoms: C_14  and  C_15 
REMARK    4  A    between atoms: C_15  and  N_16 
REMARK    5  A    between atoms: C_19  and  N_20 
ROOT
ATOM      1  N   UNL d   1       9.711   6.338  -9.675  0.00  0.00     0.137 N 
ATOM      2  C   UNL d   1      10.920   7.110  -9.902  0.00  0.00     0.252 C 
ATOM      3  C   UNL d   1      11.180   8.076  -8.743  0.00  0.00     0.058 C 
ATOM      4  C   UNL d   1      11.286   7.340  -7.386  0.00  0.00     0.094 C 
ATOM      5  C   UNL d   1      10.034   6.453  -7.244  0.00  0.00     0.058 C 
ATOM      6  C   UNL d   1       9.829   5.535  -8.461  0.00  0.00     0.252 C 
ENDROOT
BRANCH   1   7
ATOM      7  C   UNL d   1       9.399   5.516 -10.834  0.00  0.00     0.252 C 
BRANCH   7   8
ATOM      8  C   UNL d   1       7.926   5.094 -10.853  0.00  0.00     0.060 C 
BRANCH   8   9
ATOM      9  C   UNL d   1       7.237   5.314 -12.216  0.00  0.00     0.111 C 
BRANCH   9  10
ATOM     10  N   UNL d   1       7.302   4.097 -13.087  0.00  0.00    -0.299 N 
ATOM     11  C   UNL d   1       6.195   3.317 -13.230  0.00  0.00     0.238 C 
ATOM     12  O   UNL d   1       5.108   3.558 -12.713  0.00  0.00    -0.272 OA
ATOM     13  C   UNL d   1       6.271   2.096 -14.150  0.00  0.00     0.093 C 
ATOM     14  C   UNL d   1       7.634   1.394 -14.175  0.00  0.00     0.038 C 
ATOM     15  C   UNL d   1       8.765   2.422 -14.235  0.00  0.00    -0.006 A 
ATOM     16  C   UNL d   1       8.551   3.731 -13.726  0.00  0.00     0.060 A 
ATOM     17  C   UNL d   1       9.991   2.038 -14.818  0.00  0.00    -0.001 A 
ATOM     18  C   UNL d   1       9.630   4.659 -13.811  0.00  0.00     0.047 A 
ATOM     19  C   UNL d   1      10.864   4.262 -14.382  0.00  0.00     0.142 A 
ATOM     20  C   UNL d   1      11.054   2.962 -14.880  0.00  0.00     0.029 A 
ATOM     21  F   UNL d   1      11.899   5.100 -14.438  0.00  0.00    -0.204 F 
ENDBRANCH   9  10
ENDBRANCH   8   9
ENDBRANCH   7   8
ENDBRANCH   1   7
BRANCH   4  22
ATOM     22  N   UNL d   1      11.394   8.217  -6.210  0.00  0.00    -0.281 N 
ATOM     23  C   UNL d   1      11.574   7.779  -4.894  0.00  0.00     0.082 A 
ATOM     24  C   UNL d   1      11.664   8.901  -4.091  0.00  0.00     0.102 A 
ATOM     25  C   UNL d   1      11.768   6.492  -4.367  0.00  0.00     0.019 A 
ATOM     26  N   UNL d   1      11.444   9.965  -4.886  0.00  0.00    -0.191 NA
ATOM     27  C   UNL d   1      11.962   8.897  -2.736  0.00  0.00     0.021 A 
ATOM     28  C   UNL d   1      11.346   9.595  -6.172  0.00  0.00     0.350 A 
ATOM     29  O   UNL d   1      11.358  10.374  -7.063  0.00  0.00    -0.244 OA
ATOM     30  C   UNL d   1      12.176   7.620  -2.192  0.00  0.00     0.002 A 
ATOM     31  C   UNL d   1      12.054   6.452  -2.980  0.00  0.00     0.002 A 
ENDBRANCH   4  22
TORSDOF 5
