REMARK  8 active torsions:
REMARK  status: ('A' for Active; 'I' for Inactive)
REMARK    1  A    between atoms: O_2  and  C_3 
REMARK    2  A    between atoms: C_8  and  N_9 
REMARK    3  A    between atoms: N_12  and  C_13 
REMARK    4  A    between atoms: C_13  and  C_14 
REMARK    5  A    between atoms: C_14  and  C_15 
REMARK    6  A    between atoms: C_15  and  C_16 
REMARK    7  A    between atoms: C_16  and  N_17 
REMARK       I    between atoms: N_17  and  C_18 
REMARK       I    between atoms: C_18  and  N_20 
REMARK    8  A    between atoms: N_21  and  C_22 
ROOT
ATOM      1  C   UNL d   1       7.806   3.577 -13.465  0.00  0.00     0.037 C 
ENDROOT
BRANCH   1   2
ATOM      2  C   UNL d   1       9.051   4.361 -13.046  0.00  0.00     0.251 C 
BRANCH   2   3
ATOM      3  N   UNL d   1       8.671   5.370 -12.070  0.00  0.00     0.141 N 
ATOM      4  C   UNL d   1       9.678   6.436 -12.087  0.00  0.00     0.274 C 
ATOM      5  C   UNL d   1       9.432   7.521 -11.048  0.00  0.00     0.137 C 
ATOM      6  N   UNL d   1       9.457   6.857  -9.743  0.00  0.00    -0.343 N 
ATOM      7  C   UNL d   1       8.473   5.796  -9.615  0.00  0.00     0.137 C 
ATOM      8  C   UNL d   1       8.705   4.765 -10.712  0.00  0.00     0.274 C 
BRANCH   6   9
ATOM      9  C   UNL d   1      10.125   7.402  -8.640  0.00  0.00     0.079 A 
ATOM     10  C   UNL d   1      11.485   7.785  -8.775  0.00  0.00     0.110 A 
ATOM     11  C   UNL d   1      12.165   8.307  -7.634  0.00  0.00     0.026 A 
ATOM     12  C   UNL d   1      11.520   8.417  -6.401  0.00  0.00     0.002 A 
ATOM     13  C   UNL d   1      10.185   8.034  -6.266  0.00  0.00     0.002 A 
ATOM     14  C   UNL d   1       9.467   7.546  -7.384  0.00  0.00     0.019 A 
BRANCH  10  15
ATOM     15  O   UNL d   1      12.134   7.570  -9.979  0.00  0.00    -0.327 OA
ATOM     16  C   UNL d   1      13.544   7.777 -10.089  0.00  0.00     0.181 C 
ENDBRANCH  10  15
ENDBRANCH   6   9
ENDBRANCH   2   3
ENDBRANCH   1   2
BRANCH   1  17
ATOM     17  C   UNL d   1       8.154   2.352 -14.315  0.00  0.00     0.029 C 
BRANCH  17  18
ATOM     18  C   UNL d   1       6.942   1.436 -14.546  0.00  0.00     0.131 C 
BRANCH  18  19
ATOM     19  N   UNL d   1       7.224   0.379 -15.517  0.00  0.00    -0.216 NA
ATOM     20  C   UNL d   1       7.066   0.509 -16.843  0.00  0.00     0.382 C 
ATOM     21  O   UNL d   1       6.780   1.556 -17.427  0.00  0.00    -0.241 OA
ATOM     22  N   UNL d   1       7.189  -0.767 -17.591  0.00  0.00    -0.088 NA
ATOM     23  N   UNL d   1       6.127  -1.071 -18.169  0.00  0.00    -0.144 NA
BRANCH  23  24
ATOM     24  C   UNL d   1       6.078  -2.306 -18.858  0.00  0.00     0.108 A 
ATOM     25  C   UNL d   1       4.885  -2.644 -19.532  0.00  0.00     0.053 A 
ATOM     26  C   UNL d   1       4.807  -3.836 -20.280  0.00  0.00     0.171 A 
ATOM     27  C   UNL d   1       5.913  -4.702 -20.349  0.00  0.00     0.195 A 
ATOM     28  F   UNL d   1       3.670  -4.138 -20.950  0.00  0.00    -0.202 F 
ATOM     29  C   UNL d   1       7.094  -4.385 -19.655  0.00  0.00     0.171 A 
ATOM     30  F   UNL d   1       5.849  -5.837 -21.083  0.00  0.00    -0.199 F 
ATOM     31  C   UNL d   1       7.178  -3.197 -18.910  0.00  0.00     0.053 A 
ATOM     32  F   UNL d   1       8.165  -5.212 -19.716  0.00  0.00    -0.202 F 
ENDBRANCH  23  24
ENDBRANCH  18  19
ENDBRANCH  17  18
ENDBRANCH   1  17
TORSDOF 8
