REMARK  1 active torsions:
REMARK  status: ('A' for Active; 'I' for Inactive)
REMARK    1  A    between atoms: O_2  and  C_3 
ROOT
ATOM      1  C   UNL d   1       9.036   5.817 -11.802  0.00  0.00     0.094 A 
ATOM      2  C   UNL d   1       8.650   4.976 -10.741  0.00  0.00     0.024 A 
ATOM      3  C   UNL d   1       8.755   5.381  -9.403  0.00  0.00    -0.003 A 
ATOM      4  C   UNL d   1       9.186   6.663  -9.087  0.00  0.00    -0.026 A 
ATOM      5  C   UNL d   1       9.554   7.547 -10.154  0.00  0.00    -0.022 A 
ATOM      6  C   UNL d   1       9.469   7.101 -11.488  0.00  0.00     0.020 A 
ATOM      7  C   UNL d   1       9.867   9.007  -9.930  0.00  0.00     0.061 C 
ATOM      8  C   UNL d   1      11.357   9.281  -9.751  0.00  0.00     0.255 C 
ATOM      9  N   UNL d   1      11.849   8.728  -8.489  0.00  0.00     0.144 N 
ATOM     10  C   UNL d   1      13.264   8.565  -8.521  0.00  0.00     0.286 C 
ATOM     11  C   UNL d   1      11.422   9.467  -7.293  0.00  0.00     0.277 C 
ATOM     12  C   UNL d   1      11.495   8.724  -5.969  0.00  0.00     0.007 A 
ATOM     13  C   UNL d   1      12.059   9.390  -4.862  0.00  0.00    -0.003 A 
ATOM     14  C   UNL d   1      12.152   8.772  -3.601  0.00  0.00    -0.000 A 
ATOM     15  C   UNL d   1      11.690   7.454  -3.451  0.00  0.00    -0.000 A 
ATOM     16  C   UNL d   1      11.125   6.790  -4.557  0.00  0.00    -0.004 A 
ATOM     17  C   UNL d   1      11.018   7.408  -5.814  0.00  0.00    -0.024 A 
ATOM     18  C   UNL d   1      10.486   6.602  -6.986  0.00  0.00     0.031 C 
ATOM     19  C   UNL d   1       9.201   7.130  -7.631  0.00  0.00     0.031 C 
ENDROOT
BRANCH   1  20
ATOM     20  O   UNL d   1       8.980   5.450 -13.135  0.00  0.00    -0.328 OA
ATOM     21  C   UNL d   1       8.589   4.117 -13.445  0.00  0.00     0.181 C 
ENDBRANCH   1  20
TORSDOF 1
