REMARK  2 active torsions:
REMARK  status: ('A' for Active; 'I' for Inactive)
REMARK    1  A    between atoms: C_2  and  C_3 
REMARK    2  A    between atoms: C_3  and  N_4 
ROOT
ATOM      1  N   UNL d   1      11.204   8.574  -5.151  0.00  0.00     0.140 N 
ATOM      2  C   UNL d   1      12.089   9.531  -5.809  0.00  0.00     0.251 C 
ATOM      3  C   UNL d   1      11.677   9.567  -7.279  0.00  0.00     0.042 C 
ATOM      4  C   UNL d   1      10.450   8.688  -7.324  0.00  0.00     0.055 C 
ATOM      5  C   UNL d   1      10.079   8.014  -8.636  0.00  0.00    -0.022 A 
ATOM      6  C   UNL d   1      10.296   8.652  -9.873  0.00  0.00    -0.004 A 
ATOM      7  C   UNL d   1       9.861   8.038 -11.060  0.00  0.00     0.002 A 
ATOM      8  C   UNL d   1       9.280   6.759 -11.040  0.00  0.00     0.027 A 
ATOM      9  C   UNL d   1       9.060   6.120  -9.817  0.00  0.00     0.127 A 
ATOM     10  O   UNL d   1       8.407   4.923  -9.824  0.00  0.00    -0.191 OA
ATOM     11  C   UNL d   1       9.440   6.756  -8.606  0.00  0.00    -0.001 A 
ATOM     12  C   UNL d   1       9.170   6.056  -7.285  0.00  0.00     0.030 C 
ATOM     13  C   UNL d   1       9.543   6.840  -6.006  0.00  0.00     0.038 C 
ATOM     14  C   UNL d   1      10.785   7.691  -6.233  0.00  0.00     0.224 C 
ENDROOT
BRANCH   1  15
ATOM     15  C   UNL d   1      11.855   7.887  -4.036  0.00  0.00     0.276 C 
BRANCH  15  16
ATOM     16  C   UNL d   1      12.456   8.832  -3.000  0.00  0.00     0.009 C 
ATOM     17  C   UNL d   1      12.255   8.750  -1.682  0.00  0.00    -0.003 C 
ENDBRANCH  15  16
ENDBRANCH   1  15
TORSDOF 2
