REMARK  6 active torsions:
REMARK  status: ('A' for Active; 'I' for Inactive)
REMARK    1  A    between atoms: C_4  and  N_5 
REMARK    2  A    between atoms: N_8  and  C_9 
REMARK    3  A    between atoms: C_9  and  C_10 
REMARK    4  A    between atoms: C_10  and  C_11 
REMARK    5  A    between atoms: C_11  and  N_12 
REMARK    6  A    between atoms: N_12  and  C_13 
ROOT
ATOM      1  C   UNL d   1       8.944   7.274 -11.639  0.00  0.00     0.253 C 
ENDROOT
BRANCH   1   2
ATOM      2  N   UNL d   1       8.156   6.455 -12.561  0.00  0.00     0.141 N 
ATOM      3  C   UNL d   1       9.033   5.457 -13.155  0.00  0.00     0.274 C 
ATOM      4  C   UNL d   1       8.261   4.650 -14.185  0.00  0.00     0.137 C 
ATOM      5  N   UNL d   1       7.040   4.044 -13.610  0.00  0.00    -0.344 N 
ATOM      6  C   UNL d   1       6.166   5.002 -12.918  0.00  0.00     0.137 C 
ATOM      7  C   UNL d   1       6.991   5.822 -11.928  0.00  0.00     0.274 C 
BRANCH   5   8
ATOM      8  C   UNL d   1       6.731   2.686 -13.717  0.00  0.00     0.056 A 
ATOM      9  C   UNL d   1       5.671   2.082 -12.974  0.00  0.00     0.017 A 
ATOM     10  C   UNL d   1       5.448   0.691 -13.007  0.00  0.00     0.002 A 
ATOM     11  C   UNL d   1       6.251  -0.156 -13.791  0.00  0.00     0.000 A 
ATOM     12  C   UNL d   1       7.294   0.404 -14.541  0.00  0.00     0.002 A 
ATOM     13  C   UNL d   1       7.529   1.796 -14.511  0.00  0.00     0.017 A 
ENDBRANCH   5   8
ENDBRANCH   1   2
BRANCH   1  14
ATOM     14  C   UNL d   1       9.347   6.506 -10.350  0.00  0.00     0.062 C 
BRANCH  14  15
ATOM     15  C   UNL d   1      10.076   7.400  -9.380  0.00  0.00     0.129 C 
BRANCH  15  16
ATOM     16  N   UNL d   1      10.255   6.738  -8.099  0.00  0.00    -0.255 NA
BRANCH  16  17
ATOM     17  C   UNL d   1      10.711   7.351  -6.949  0.00  0.00     0.165 C 
ATOM     18  C   UNL d   1      10.836   8.875  -7.028  0.00  0.00     0.214 C 
ATOM     19  O   UNL d   1      10.777   9.542  -5.778  0.00  0.00    -0.321 OA
ATOM     20  C   UNL d   1      11.311   8.859  -4.721  0.00  0.00     0.112 A 
ATOM     21  C   UNL d   1      11.467   7.456  -4.761  0.00  0.00     0.105 A 
ATOM     22  C   UNL d   1      11.650   9.595  -3.570  0.00  0.00     0.026 A 
ATOM     23  N   UNL d   1      11.059   6.711  -5.875  0.00  0.00    -0.227 NA
ATOM     24  C   UNL d   1      11.996   6.793  -3.634  0.00  0.00     0.021 A 
ATOM     25  C   UNL d   1      12.358   7.532  -2.487  0.00  0.00     0.002 A 
ATOM     26  C   UNL d   1      12.195   8.926  -2.456  0.00  0.00     0.002 A 
ENDBRANCH  16  17
ENDBRANCH  15  16
ENDBRANCH  14  15
ENDBRANCH   1  14
TORSDOF 6
