REMARK  6 active torsions:
REMARK  status: ('A' for Active; 'I' for Inactive)
REMARK       I    between atoms: C_2  and  N_3 
REMARK    1  A    between atoms: C_2  and  C_23 
REMARK    2  A    between atoms: N_3  and  C_4 
REMARK    3  A    between atoms: C_4  and  C_5 
REMARK    4  A    between atoms: C_5  and  C_6 
REMARK    5  A    between atoms: C_6  and  C_7 
REMARK    6  A    between atoms: C_7  and  N_8 
ROOT
ATOM      1  C   UNL d   1       8.993   3.282 -15.314  0.00  0.00     0.251 C 
ENDROOT
BRANCH   1   2
ATOM      2  C   UNL d   1       8.439   3.331 -13.893  0.00  0.00     0.037 C 
BRANCH   2   3
ATOM      3  C   UNL d   1       7.329   4.369 -13.706  0.00  0.00     0.029 C 
BRANCH   3   4
ATOM      4  C   UNL d   1       6.770   4.345 -12.286  0.00  0.00     0.129 C 
BRANCH   4   5
ATOM      5  N   UNL d   1       7.672   4.814 -11.250  0.00  0.00    -0.233 NA
ATOM      6  C   UNL d   1       8.751   5.588 -11.397  0.00  0.00     0.293 C 
ATOM      7  O   UNL d   1       9.264   5.885 -12.490  0.00  0.00    -0.264 OA
BRANCH   6   8
ATOM      8  C   UNL d   1       9.300   6.146 -10.154  0.00  0.00     0.139 A 
ATOM      9  N   UNL d   1      10.259   7.136 -10.286  0.00  0.00    -0.241 NA
ATOM     10  C   UNL d   1      10.675   7.587  -9.065  0.00  0.00     0.082 A 
ATOM     11  C   UNL d   1       9.938   6.840  -8.109  0.00  0.00     0.019 A 
ATOM     12  C   UNL d   1      11.633   8.561  -8.704  0.00  0.00     0.019 A 
ATOM     13  C   UNL d   1       9.075   5.934  -8.818  0.00  0.00     0.025 A 
ATOM     14  C   UNL d   1      10.185   7.108  -6.747  0.00  0.00     0.002 A 
ATOM     15  C   UNL d   1      11.139   8.079  -6.367  0.00  0.00     0.000 A 
ATOM     16  C   UNL d   1      11.861   8.796  -7.339  0.00  0.00     0.002 A 
ENDBRANCH   6   8
ENDBRANCH   4   5
ENDBRANCH   3   4
ENDBRANCH   2   3
ENDBRANCH   1   2
BRANCH   1  17
ATOM     17  N   UNL d   1       9.966   2.217 -15.554  0.00  0.00     0.143 N 
ATOM     18  C   UNL d   1      10.493   2.234 -16.930  0.00  0.00     0.280 C 
ATOM     19  C   UNL d   1      11.497   1.083 -17.128  0.00  0.00     0.173 C 
ATOM     20  C   UNL d   1      11.180   3.536 -17.402  0.00  0.00     0.185 C 
ATOM     21  O   UNL d   1      10.825  -0.149 -16.905  0.00  0.00    -0.348 OA
ATOM     22  C   UNL d   1      12.146   1.124 -18.493  0.00  0.00     0.031 A 
ATOM     23  C   UNL d   1      10.329  -0.246 -15.579  0.00  0.00     0.178 C 
ATOM     24  C   UNL d   1       9.357   0.899 -15.319  0.00  0.00     0.282 C 
ATOM     25  C   UNL d   1      12.137   2.325 -19.240  0.00  0.00     0.092 A 
ATOM     26  C   UNL d   1      12.775  -0.029 -19.009  0.00  0.00     0.028 A 
ATOM     27  C   UNL d   1      12.732   2.346 -20.516  0.00  0.00     0.026 A 
ATOM     28  O   UNL d   1      11.536   3.477 -18.782  0.00  0.00    -0.329 OA
ATOM     29  C   UNL d   1      13.354   1.195 -21.035  0.00  0.00     0.029 A 
ATOM     30  C   UNL d   1      13.379   0.006 -20.279  0.00  0.00     0.131 A 
ATOM     31  O   UNL d   1      13.984  -1.112 -20.773  0.00  0.00    -0.190 OA
ENDBRANCH   1  17
TORSDOF 6
