REMARK  4 active torsions:
REMARK  status: ('A' for Active; 'I' for Inactive)
REMARK    1  A    between atoms: C_5  and  C_6 
REMARK    2  A    between atoms: C_8  and  C_9 
REMARK    3  A    between atoms: N_14  and  C_15 
REMARK    4  A    between atoms: C_15  and  C_16 
ROOT
ATOM      1  C   UNL d   1       8.937   5.027 -13.729  0.00  0.00     0.261 C 
ATOM      2  C   UNL d   1       9.745   5.585 -12.555  0.00  0.00     0.040 C 
ATOM      3  C   UNL d   1       8.933   5.976 -11.324  0.00  0.00     0.004 C 
ATOM      4  C   UNL d   1       8.038   4.835 -10.942  0.00  0.00     0.035 C 
ATOM      5  C   UNL d   1       7.199   4.401 -12.137  0.00  0.00     0.251 C 
ATOM      6  N   UNL d   1       8.070   3.926 -13.242  0.00  0.00     0.145 N 
ENDROOT
BRANCH   1   7
ATOM      7  C   UNL d   1       9.926   4.630 -14.832  0.00  0.00     0.113 C 
ATOM      8  C   UNL d   1      10.155   3.340 -15.375  0.00  0.00     0.039 C 
ATOM      9  C   UNL d   1      10.999   3.559 -16.431  0.00  0.00     0.104 C 
ATOM     10  N   UNL d   1      11.362   4.884 -16.395  0.00  0.00    -0.148 NA
ATOM     11  N   UNL d   1      10.738   5.531 -15.394  0.00  0.00    -0.150 NA
BRANCH   9  12
ATOM     12  C   UNL d   1      11.474   2.621 -17.428  0.00  0.00     0.019 A 
ATOM     13  C   UNL d   1      12.274   3.077 -18.502  0.00  0.00     0.002 A 
ATOM     14  C   UNL d   1      12.790   2.176 -19.447  0.00  0.00     0.011 A 
ATOM     15  C   UNL d   1      12.495   0.804 -19.345  0.00  0.00     0.058 A 
ATOM     16 CL   UNL d   1      13.149  -0.306 -20.498  0.00  0.00    -0.082 Cl
ATOM     17  C   UNL d   1      11.662   0.332 -18.307  0.00  0.00     0.011 A 
ATOM     18  C   UNL d   1      11.151   1.241 -17.363  0.00  0.00     0.002 A 
ENDBRANCH   9  12
ENDBRANCH   1   7
BRANCH   6  19
ATOM     19  C   UNL d   1       7.208   3.439 -14.317  0.00  0.00     0.277 C 
BRANCH  19  20
ATOM     20  C   UNL d   1       6.719   2.038 -14.121  0.00  0.00     0.011 A 
ATOM     21  C   UNL d   1       7.439   0.937 -14.716  0.00  0.00    -0.002 A 
ATOM     22  C   UNL d   1       6.949  -0.340 -14.509  0.00  0.00    -0.000 A 
ATOM     23  C   UNL d   1       5.771  -0.584 -13.835  0.00  0.00    -0.000 A 
ATOM     24  C   UNL d   1       5.021   0.507 -13.305  0.00  0.00    -0.000 A 
ATOM     25  C   UNL d   1       5.541   1.800 -13.412  0.00  0.00    -0.002 A 
ENDBRANCH  19  20
ENDBRANCH   6  19
TORSDOF 4
