REMARK  2 active torsions:
REMARK  status: ('A' for Active; 'I' for Inactive)
REMARK    1  A    between atoms: C_8  and  C_9 
REMARK    2  A    between atoms: C_15  and  N_16 
ROOT
ATOM      1  C   UNL d   1       7.199   0.914 -14.737  0.00  0.00    -0.001 A 
ATOM      2  C   UNL d   1       8.282   0.046 -14.815  0.00  0.00     0.001 A 
ATOM      3  C   UNL d   1       9.583   0.452 -14.923  0.00  0.00     0.006 A 
ATOM      4  C   UNL d   1       9.823   1.815 -14.877  0.00  0.00     0.030 A 
ATOM      5  C   UNL d   1       8.756   2.769 -14.737  0.00  0.00     0.013 A 
ATOM      6  C   UNL d   1       7.430   2.297 -14.686  0.00  0.00     0.001 A 
ATOM      7  C   UNL d   1       9.049   4.257 -14.492  0.00  0.00     0.019 C 
ATOM      8  C   UNL d   1      10.376   4.901 -15.011  0.00  0.00     0.065 C 
ATOM      9  C   UNL d   1      10.799   4.396 -16.349  0.00  0.00    -0.011 A 
ATOM     10  C   UNL d   1      10.724   5.183 -17.513  0.00  0.00    -0.003 A 
ATOM     11  C   UNL d   1      11.320   4.725 -18.698  0.00  0.00    -0.000 A 
ATOM     12  C   UNL d   1      12.007   3.473 -18.706  0.00  0.00     0.001 A 
ATOM     13  C   UNL d   1      12.068   2.686 -17.534  0.00  0.00     0.006 A 
ATOM     14  C   UNL d   1      11.454   3.136 -16.378  0.00  0.00     0.026 A 
ATOM     15  S   UNL d   1      11.479   2.265 -14.882  0.00  0.00    -0.087 SA
ENDROOT
BRANCH   1  16
ATOM     16  C   UNL d   1       5.871   0.275 -14.712  0.00  0.00    -0.008 A 
ATOM     17  C   UNL d   1       5.289  -0.241 -15.899  0.00  0.00    -0.022 A 
ATOM     18  C   UNL d   1       5.955  -0.032 -17.232  0.00  0.00     0.031 C 
ATOM     19  C   UNL d   1       4.021  -0.840 -15.870  0.00  0.00    -0.004 A 
ATOM     20  C   UNL d   1       3.309  -0.853 -14.674  0.00  0.00    -0.001 A 
ATOM     21  C   UNL d   1       3.864  -0.397 -13.513  0.00  0.00    -0.004 A 
ATOM     22  C   UNL d   1       5.156   0.143 -13.503  0.00  0.00    -0.022 A 
ATOM     23  C   UNL d   1       5.739   0.558 -12.192  0.00  0.00     0.031 C 
ENDBRANCH   1  16
BRANCH   7  24
ATOM     24  N   UNL d   1       8.673   4.615 -13.110  0.00  0.00    -0.252 NA
ATOM     25  C   UNL d   1       8.767   6.066 -12.867  0.00  0.00     0.112 C 
ATOM     26  C   UNL d   1       8.409   6.485 -11.447  0.00  0.00     0.268 C 
ATOM     27  N   UNL d   1       9.261   5.796 -10.493  0.00  0.00     0.142 N 
ATOM     28  C   UNL d   1       9.092   4.380 -10.704  0.00  0.00     0.268 C 
ATOM     29  C   UNL d   1       8.896   6.111  -9.125  0.00  0.00     0.285 C 
ATOM     30  C   UNL d   1       9.478   3.909 -12.102  0.00  0.00     0.112 C 
ENDBRANCH   7  24
TORSDOF 2
