REMARK  8 active torsions:
REMARK  status: ('A' for Active; 'I' for Inactive)
REMARK    1  A    between atoms: C_2  and  C_3 
REMARK    2  A    between atoms: C_3  and  N_4 
REMARK    3  A    between atoms: N_4  and  C_5 
REMARK    4  A    between atoms: N_4  and  C_12 
REMARK    5  A    between atoms: C_5  and  C_6 
REMARK    6  A    between atoms: C_6  and  C_7 
REMARK    7  A    between atoms: C_12  and  C_13 
REMARK    8  A    between atoms: C_13  and  C_14 
ROOT
ATOM      1  N   UNL d   1       8.417   5.605 -11.450  0.00  0.00     0.138 N 
ENDROOT
BRANCH   1   2
ATOM      2  C   UNL d   1       8.982   6.392 -12.552  0.00  0.00     0.250 C 
BRANCH   2   3
ATOM      3  C   UNL d   1       9.172   7.915 -12.279  0.00  0.00     0.035 C 
ATOM      4  C   UNL d   1       9.863   8.283 -10.962  0.00  0.00     0.002 C 
ENDBRANCH   2   3
ENDBRANCH   1   2
BRANCH   1   5
ATOM      5  C   UNL d   1       9.372   5.375 -10.375  0.00  0.00     0.255 C 
BRANCH   5   6
ATOM      6  C   UNL d   1       8.768   5.702  -8.978  0.00  0.00     0.062 C 
BRANCH   6   7
ATOM      7  C   UNL d   1       9.569   6.684  -8.128  0.00  0.00    -0.013 A 
ATOM      8  C   UNL d   1       9.077   7.335  -7.021  0.00  0.00     0.031 A 
ATOM      9  S   UNL d   1      10.206   8.487  -6.359  0.00  0.00    -0.086 SA
ATOM     10  C   UNL d   1      11.392   8.074  -7.555  0.00  0.00     0.035 A 
ATOM     11  C   UNL d   1      10.915   7.121  -8.404  0.00  0.00     0.003 A 
ENDBRANCH   6   7
ENDBRANCH   5   6
ENDBRANCH   1   5
BRANCH   1  12
ATOM     12  C   UNL d   1       7.939   4.291 -11.912  0.00  0.00     0.255 C 
BRANCH  12  13
ATOM     13  C   UNL d   1       6.978   4.346 -13.123  0.00  0.00     0.068 C 
BRANCH  13  14
ATOM     14  C   UNL d   1       6.616   2.998 -13.639  0.00  0.00     0.009 A 
ATOM     15  S   UNL d   1       5.431   2.006 -12.861  0.00  0.00    -0.091 SA
ATOM     16  C   UNL d   1       5.630   0.755 -14.018  0.00  0.00     0.035 A 
ATOM     17  C   UNL d   1       6.578   1.073 -14.948  0.00  0.00     0.007 A 
ATOM     18  C   UNL d   1       7.154   2.360 -14.723  0.00  0.00     0.003 A 
ENDBRANCH  13  14
ENDBRANCH  12  13
ENDBRANCH   1  12
TORSDOF 8
