REMARK  2 active torsions:
REMARK  status: ('A' for Active; 'I' for Inactive)
REMARK    1  A    between atoms: N_10  and  C_11 
REMARK    2  A    between atoms: C_11  and  C_12 
ROOT
ATOM      1 CL   UNL d   1       9.688   0.399 -16.212  0.00  0.00    -0.082 Cl
ATOM      2  C   UNL d   1       8.542   1.279 -15.264  0.00  0.00     0.058 A 
ATOM      3  C   UNL d   1       7.283   0.718 -14.968  0.00  0.00     0.013 A 
ATOM      4  C   UNL d   1       6.360   1.435 -14.177  0.00  0.00     0.025 A 
ATOM      5  C   UNL d   1       6.682   2.721 -13.691  0.00  0.00     0.090 A 
ATOM      6  C   UNL d   1       7.962   3.272 -13.973  0.00  0.00     0.003 A 
ATOM      7  C   UNL d   1       8.880   2.552 -14.766  0.00  0.00     0.009 A 
ATOM      8  C   UNL d   1       8.373   4.589 -13.339  0.00  0.00     0.062 C 
ATOM      9  C   UNL d   1       9.339   4.388 -12.160  0.00  0.00     0.255 C 
ATOM     10  N   UNL d   1       9.028   5.485 -11.255  0.00  0.00     0.142 N 
ATOM     11  C   UNL d   1       7.575   5.482 -11.258  0.00  0.00     0.254 C 
ATOM     12  C   UNL d   1       7.218   5.381 -12.728  0.00  0.00     0.070 C 
ATOM     13  C   UNL d   1       5.821   4.785 -12.974  0.00  0.00     0.151 C 
ATOM     14  O   UNL d   1       5.786   3.368 -12.879  0.00  0.00    -0.331 OA
ENDROOT
BRANCH  10  15
ATOM     15  C   UNL d   1       9.505   5.282  -9.891  0.00  0.00     0.277 C 
BRANCH  15  16
ATOM     16  C   UNL d   1       9.675   6.555  -9.095  0.00  0.00     0.011 A 
ATOM     17  C   UNL d   1       9.054   6.682  -7.840  0.00  0.00    -0.002 A 
ATOM     18  C   UNL d   1       9.210   7.863  -7.092  0.00  0.00    -0.000 A 
ATOM     19  C   UNL d   1      10.034   8.897  -7.573  0.00  0.00    -0.000 A 
ATOM     20  C   UNL d   1      10.691   8.761  -8.814  0.00  0.00    -0.000 A 
ATOM     21  C   UNL d   1      10.515   7.588  -9.570  0.00  0.00    -0.002 A 
ENDBRANCH  15  16
ENDBRANCH  10  15
TORSDOF 2
