REMARK  2 active torsions:
REMARK  status: ('A' for Active; 'I' for Inactive)
REMARK    1  A    between atoms: N_2  and  C_4 
REMARK    2  A    between atoms: C_4  and  C_5 
ROOT
ATOM      1  C   UNL d   1      11.048   3.544 -16.263  0.00  0.00     0.180 C 
ATOM      2  C   UNL d   1      11.067   2.770 -14.950  0.00  0.00     0.064 C 
ATOM      3  C   UNL d   1       9.721   2.066 -14.992  0.00  0.00     0.134 C 
ATOM      4  C   UNL d   1       8.554   2.833 -14.352  0.00  0.00    -0.003 A 
ATOM      5  C   UNL d   1       8.690   4.129 -13.789  0.00  0.00    -0.003 A 
ATOM      6  C   UNL d   1       7.599   4.758 -13.156  0.00  0.00    -0.000 A 
ATOM      7  C   UNL d   1       6.358   4.103 -13.076  0.00  0.00    -0.000 A 
ATOM      8  C   UNL d   1       6.208   2.824 -13.640  0.00  0.00    -0.004 A 
ATOM      9  C   UNL d   1       7.294   2.198 -14.287  0.00  0.00    -0.020 A 
ATOM     10  C   UNL d   1       7.111   0.839 -14.930  0.00  0.00     0.054 C 
ATOM     11  C   UNL d   1       7.210   0.964 -16.437  0.00  0.00     0.003 A 
ATOM     12  C   UNL d   1       6.084   0.627 -17.217  0.00  0.00     0.018 A 
ATOM     13  C   UNL d   1       6.146   0.787 -18.609  0.00  0.00     0.099 A 
ATOM     14  N   UNL d   1       7.238   1.263 -19.242  0.00  0.00    -0.241 NA
ATOM     15  C   UNL d   1       8.325   1.557 -18.497  0.00  0.00     0.118 A 
ATOM     16  C   UNL d   1       8.381   1.442 -17.086  0.00  0.00     0.098 A 
ATOM     17  N   UNL d   1       9.588   1.759 -16.414  0.00  0.00    -0.236 N 
ATOM     18  O   UNL d   1      10.519   2.567 -17.150  0.00  0.00    -0.258 OA
ENDROOT
BRANCH   1  19
ATOM     19  C   UNL d   1      12.435   4.034 -16.729  0.00  0.00     0.282 C 
BRANCH  19  20
ATOM     20  N   UNL d   1      12.966   5.171 -15.967  0.00  0.00     0.144 N 
ATOM     21  C   UNL d   1      14.214   5.597 -16.588  0.00  0.00     0.286 C 
ATOM     22  C   UNL d   1      12.066   6.322 -15.944  0.00  0.00     0.286 C 
ENDBRANCH  19  20
ENDBRANCH   1  19
TORSDOF 2
