REMARK  6 active torsions:
REMARK  status: ('A' for Active; 'I' for Inactive)
REMARK    1  A    between atoms: N_4  and  C_5 
REMARK    2  A    between atoms: N_14  and  C_15 
REMARK    3  A    between atoms: C_15  and  C_16 
REMARK    4  A    between atoms: C_16  and  C_17 
REMARK    5  A    between atoms: C_17  and  C_18 
REMARK    6  A    between atoms: C_18  and  C_20 
ROOT
ATOM      1  C   UNL d   1      11.191   4.081 -17.892  0.00  0.00     0.130 C 
ATOM      2  N   UNL d   1      10.468   4.063 -16.624  0.00  0.00    -0.297 N 
ATOM      3  C   UNL d   1       9.107   3.615 -16.560  0.00  0.00     0.213 A 
ATOM      4  N   UNL d   1       8.722   3.684 -15.129  0.00  0.00    -0.324 N 
ATOM      5  C   UNL d   1       9.854   4.284 -14.384  0.00  0.00     0.141 A 
ATOM      6  C   UNL d   1      10.531   3.402 -13.347  0.00  0.00     0.065 C 
ATOM      7  C   UNL d   1       9.724   3.381 -12.072  0.00  0.00     0.253 C 
ATOM      8  N   UNL d   1       9.445   4.666 -11.447  0.00  0.00     0.137 N 
ATOM      9  C   UNL d   1       8.726   5.506 -12.351  0.00  0.00     0.253 C 
ATOM     10  C   UNL d   1       9.434   5.580 -13.675  0.00  0.00     0.065 C 
ATOM     11  C   UNL d   1      10.928   4.510 -15.455  0.00  0.00     0.253 A 
ATOM     12  O   UNL d   1      12.065   4.960 -15.235  0.00  0.00    -0.270 OA
ENDROOT
BRANCH   4  13
ATOM     13  C   UNL d   1       7.753   2.822 -14.586  0.00  0.00     0.058 A 
ATOM     14  C   UNL d   1       7.913   1.413 -14.719  0.00  0.00     0.017 A 
ATOM     15  C   UNL d   1       7.049   0.497 -14.129  0.00  0.00     0.002 A 
ATOM     16  C   UNL d   1       5.969   0.909 -13.304  0.00  0.00     0.000 A 
ATOM     17  C   UNL d   1       5.802   2.298 -13.110  0.00  0.00     0.002 A 
ATOM     18  C   UNL d   1       6.626   3.223 -13.752  0.00  0.00     0.017 A 
ENDBRANCH   4  13
BRANCH   8  19
ATOM     19  C   UNL d   1       8.571   4.484 -10.289  0.00  0.00     0.251 C 
BRANCH  19  20
ATOM     20  C   UNL d   1       9.440   4.061  -9.078  0.00  0.00     0.043 C 
BRANCH  20  21
ATOM     21  C   UNL d   1      10.251   5.272  -8.615  0.00  0.00     0.071 C 
BRANCH  21  22
ATOM     22  C   UNL d   1       9.500   6.283  -7.766  0.00  0.00     0.173 C 
ATOM     23  O   UNL d   1       8.359   6.029  -7.393  0.00  0.00    -0.291 OA
BRANCH  22  24
ATOM     24  C   UNL d   1      10.257   7.484  -7.337  0.00  0.00     0.035 A 
ATOM     25  C   UNL d   1      11.529   7.813  -7.857  0.00  0.00     0.005 A 
ATOM     26  C   UNL d   1      12.204   8.956  -7.404  0.00  0.00     0.030 A 
ATOM     27  C   UNL d   1      11.616   9.786  -6.436  0.00  0.00     0.140 A 
ATOM     28  C   UNL d   1      10.366   9.460  -5.901  0.00  0.00     0.030 A 
ATOM     29  F   UNL d   1      12.236  10.910  -6.038  0.00  0.00    -0.204 F 
ATOM     30  C   UNL d   1       9.681   8.325  -6.371  0.00  0.00     0.005 A 
ENDBRANCH  22  24
ENDBRANCH  21  22
ENDBRANCH  20  21
ENDBRANCH  19  20
ENDBRANCH   8  19
TORSDOF 6
