REMARK  4 active torsions:
REMARK  status: ('A' for Active; 'I' for Inactive)
REMARK    1  A    between atoms: C_11  and  C_12 
REMARK    2  A    between atoms: C_12  and  C_13 
REMARK    3  A    between atoms: C_13  and  N_14 
REMARK    4  A    between atoms: N_17  and  C_18 
ROOT
ATOM      1  N   UNL d   1       9.303   5.931 -10.622  0.00  0.00     0.141 N 
ATOM      2  C   UNL d   1       9.828   7.304 -10.587  0.00  0.00     0.274 C 
ATOM      3  C   UNL d   1      11.032   7.401  -9.642  0.00  0.00     0.137 C 
ATOM      4  N   UNL d   1      10.662   6.907  -8.319  0.00  0.00    -0.344 N 
ATOM      5  C   UNL d   1      10.037   5.593  -8.300  0.00  0.00     0.137 C 
ATOM      6  C   UNL d   1       8.858   5.558  -9.269  0.00  0.00     0.274 C 
ENDROOT
BRANCH   1   7
ATOM      7  C   UNL d   1       8.190   5.893 -11.563  0.00  0.00     0.251 C 
BRANCH   7   8
ATOM      8  C   UNL d   1       7.593   4.479 -11.691  0.00  0.00     0.043 C 
BRANCH   8   9
ATOM      9  C   UNL d   1       6.974   4.191 -13.067  0.00  0.00     0.068 A 
ATOM     10  C   UNL d   1       8.055   3.691 -14.043  0.00  0.00     0.173 A 
ATOM     11  O   UNL d   1       9.092   4.304 -14.305  0.00  0.00    -0.291 OA
ATOM     12  C   UNL d   1       7.632   2.399 -14.589  0.00  0.00     0.031 A 
ATOM     13  C   UNL d   1       6.407   2.038 -14.036  0.00  0.00    -0.017 A 
ATOM     14  C   UNL d   1       8.278   1.584 -15.528  0.00  0.00     0.005 A 
ATOM     15  C   UNL d   1       5.779   0.833 -14.394  0.00  0.00     0.025 A 
ATOM     16  C   UNL d   1       5.902   3.068 -13.055  0.00  0.00     0.034 A 
ATOM     17  C   UNL d   1       6.404   0.011 -15.352  0.00  0.00     0.140 A 
ATOM     18  C   UNL d   1       7.649   0.383 -15.912  0.00  0.00     0.030 A 
ATOM     19  F   UNL d   1       5.792  -1.130 -15.747  0.00  0.00    -0.204 F 
ENDBRANCH   8   9
ENDBRANCH   7   8
ENDBRANCH   1   7
BRANCH   4  20
ATOM     20  C   UNL d   1      10.918   7.609  -7.136  0.00  0.00     0.056 A 
ATOM     21  C   UNL d   1      11.237   6.905  -5.950  0.00  0.00     0.018 A 
ATOM     22  C   UNL d   1      11.472   7.591  -4.755  0.00  0.00     0.013 A 
ATOM     23  C   UNL d   1      11.404   8.988  -4.728  0.00  0.00     0.058 A 
ATOM     24  C   UNL d   1      11.100   9.712  -5.896  0.00  0.00     0.013 A 
ATOM     25 CL   UNL d   1      11.703   9.781  -3.241  0.00  0.00    -0.082 Cl
ATOM     26  C   UNL d   1      10.857   9.024  -7.099  0.00  0.00     0.018 A 
ENDBRANCH   4  20
TORSDOF 4
