REMARK  7 active torsions:
REMARK  status: ('A' for Active; 'I' for Inactive)
REMARK    1  A    between atoms: O_2  and  C_3 
REMARK    2  A    between atoms: C_3  and  C_5 
REMARK    3  A    between atoms: C_8  and  C_9 
REMARK    4  A    between atoms: C_9  and  S_10 
REMARK    5  A    between atoms: S_10  and  C_11 
REMARK    6  A    between atoms: N_19  and  C_20 
REMARK    7  A    between atoms: C_20  and  C_21 
ROOT
ATOM      1  C   UNL d   1      10.700   3.372 -15.369  0.00  0.00     0.172 A 
ATOM      2  N   UNL d   1      10.497   2.815 -16.559  0.00  0.00    -0.221 NA
ATOM      3  C   UNL d   1       9.310   2.132 -16.380  0.00  0.00     0.099 A 
ATOM      4  C   UNL d   1       8.575   1.347 -17.296  0.00  0.00     0.021 A 
ATOM      5  C   UNL d   1       7.359   0.737 -16.905  0.00  0.00     0.002 A 
ATOM      6  C   UNL d   1       6.897   0.880 -15.583  0.00  0.00     0.002 A 
ATOM      7  C   UNL d   1       7.651   1.601 -14.643  0.00  0.00     0.019 A 
ATOM      8  C   UNL d   1       8.834   2.268 -15.042  0.00  0.00     0.080 A 
ATOM      9  N   UNL d   1       9.742   3.121 -14.427  0.00  0.00    -0.303 N 
ENDROOT
BRANCH   1  10
ATOM     10  S   UNL d   1      12.108   4.379 -15.057  0.00  0.00    -0.072 SA
BRANCH  10  11
ATOM     11  C   UNL d   1      13.064   4.083 -16.595  0.00  0.00     0.091 C 
BRANCH  11  12
ATOM     12  C   UNL d   1      13.591   5.393 -17.118  0.00  0.00    -0.011 A 
ATOM     13  C   UNL d   1      14.978   5.613 -17.185  0.00  0.00    -0.003 A 
ATOM     14  C   UNL d   1      15.464   6.816 -17.720  0.00  0.00     0.005 A 
ATOM     15  C   UNL d   1      14.568   7.799 -18.203  0.00  0.00     0.063 A 
ATOM     16  C   UNL d   1      13.174   7.566 -18.143  0.00  0.00     0.005 A 
ATOM     17  C   UNL d   1      12.689   6.364 -17.599  0.00  0.00    -0.003 A 
BRANCH  15  18
ATOM     18  C   UNL d   1      15.118   9.057 -18.759  0.00  0.00     0.296 C 
ATOM     19  O   UNL d   1      16.226   9.501 -18.452  0.00  0.00    -0.259 OA
BRANCH  18  20
ATOM     20  O   UNL d   1      14.290   9.633 -19.645  0.00  0.00    -0.296 OA
ATOM     21  C   UNL d   1      14.709  10.797 -20.329  0.00  0.00     0.185 C 
ENDBRANCH  18  20
ENDBRANCH  15  18
ENDBRANCH  11  12
ENDBRANCH  10  11
ENDBRANCH   1  10
BRANCH   9  22
ATOM     22  C   UNL d   1       9.692   3.624 -13.056  0.00  0.00     0.135 C 
BRANCH  22  23
ATOM     23  C   UNL d   1       8.656   4.726 -12.862  0.00  0.00     0.001 A 
ATOM     24  C   UNL d   1       7.278   4.417 -12.891  0.00  0.00    -0.002 A 
ATOM     25  C   UNL d   1       6.330   5.433 -12.735  0.00  0.00     0.011 A 
ATOM     26  C   UNL d   1       6.745   6.763 -12.524  0.00  0.00     0.058 A 
ATOM     27  C   UNL d   1       8.111   7.084 -12.426  0.00  0.00     0.011 A 
ATOM     28 CL   UNL d   1       5.534   7.988 -12.553  0.00  0.00    -0.082 Cl
ATOM     29  C   UNL d   1       9.068   6.068 -12.613  0.00  0.00    -0.002 A 
ENDBRANCH  22  23
ENDBRANCH   9  22
TORSDOF 7
