REMARK  6 active torsions:
REMARK  status: ('A' for Active; 'I' for Inactive)
REMARK    1  A    between atoms: S_2  and  C_3 
REMARK    2  A    between atoms: C_6  and  C_7 
REMARK    3  A    between atoms: C_10  and  C_11 
REMARK       I    between atoms: C_11  and  N_13 
REMARK    4  A    between atoms: N_13  and  C_14 
REMARK    5  A    between atoms: N_17  and  C_18 
REMARK    6  A    between atoms: C_18  and  C_19 
ROOT
ATOM      1  C   UNL d   1       8.843   5.512 -12.171  0.00  0.00     0.275 C 
ATOM      2  O   UNL d   1       9.249   5.975 -13.229  0.00  0.00    -0.266 OA
ATOM      3  N   UNL d   1       7.904   4.555 -12.095  0.00  0.00    -0.234 NA
ENDROOT
BRANCH   1   4
ATOM      4  C   UNL d   1       9.284   6.049 -10.847  0.00  0.00     0.058 A 
ATOM      5  C   UNL d   1       9.151   5.289  -9.665  0.00  0.00     0.005 A 
ATOM      6  C   UNL d   1       9.566   5.818  -8.441  0.00  0.00     0.000 A 
ATOM      7  C   UNL d   1      10.146   7.109  -8.358  0.00  0.00     0.000 A 
ATOM      8  C   UNL d   1      10.284   7.853  -9.543  0.00  0.00     0.000 A 
ATOM      9  C   UNL d   1       9.839   7.330 -10.777  0.00  0.00     0.005 A 
BRANCH   7  10
ATOM     10  C   UNL d   1      10.592   7.656  -7.072  0.00  0.00     0.000 A 
ATOM     11  C   UNL d   1      10.579   9.045  -6.806  0.00  0.00     0.001 A 
ATOM     12  C   UNL d   1      11.018   9.566  -5.578  0.00  0.00     0.006 A 
ATOM     13  C   UNL d   1      11.459   8.681  -4.578  0.00  0.00     0.025 A 
ATOM     14  C   UNL d   1      11.459   7.294  -4.821  0.00  0.00     0.006 A 
ATOM     15  C   UNL d   1      11.053   6.798  -6.055  0.00  0.00     0.001 A 
BRANCH  13  16
ATOM     16  S   UNL d   1      11.976   9.316  -3.026  0.00  0.00    -0.113 SA
ATOM     17  C   UNL d   1      12.291   7.892  -1.960  0.00  0.00     0.074 C 
ENDBRANCH  13  16
ENDBRANCH   7  10
ENDBRANCH   1   4
BRANCH   3  18
ATOM     18  C   UNL d   1       7.190   4.054 -13.242  0.00  0.00     0.142 C 
ATOM     19  C   UNL d   1       6.016   3.150 -12.826  0.00  0.00     0.275 C 
ATOM     20  N   UNL d   1       5.956   2.167 -13.904  0.00  0.00     0.143 N 
ATOM     21  C   UNL d   1       7.353   1.855 -14.189  0.00  0.00     0.253 C 
ATOM     22  C   UNL d   1       8.087   3.161 -14.098  0.00  0.00     0.062 C 
BRANCH  20  23
ATOM     23  C   UNL d   1       5.139   0.989 -13.556  0.00  0.00     0.277 C 
BRANCH  23  24
ATOM     24  C   UNL d   1       4.926  -0.043 -14.661  0.00  0.00     0.011 C 
ATOM     25  C   UNL d   1       6.003  -0.475 -15.508  0.00  0.00    -0.002 C 
ATOM     26  C   UNL d   1       5.735  -1.307 -16.608  0.00  0.00    -0.000 C 
ATOM     27  C   UNL d   1       4.465  -1.887 -16.809  0.00  0.00    -0.000 C 
ATOM     28  C   UNL d   1       3.460  -1.540 -15.877  0.00  0.00    -0.000 C 
ATOM     29  C   UNL d   1       3.631  -0.606 -14.832  0.00  0.00    -0.002 C 
ENDBRANCH  23  24
ENDBRANCH  20  23
ENDBRANCH   3  18
TORSDOF 6
