REMARK  7 active torsions:
REMARK  status: ('A' for Active; 'I' for Inactive)
REMARK    1  A    between atoms: S_2  and  N_4 
REMARK    2  A    between atoms: S_2  and  C_19 
REMARK    3  A    between atoms: N_4  and  C_5 
REMARK    4  A    between atoms: N_8  and  C_9 
REMARK    5  A    between atoms: C_9  and  C_10 
REMARK    6  A    between atoms: C_10  and  O_11 
REMARK    7  A    between atoms: O_11  and  C_12 
ROOT
ATOM      1  C   UNL d   1       9.266   5.737 -10.009  0.00  0.00     0.151 C 
ATOM      2  C   UNL d   1       8.996   5.140  -8.635  0.00  0.00     0.063 C 
ATOM      3  C   UNL d   1       9.580   6.176  -7.710  0.00  0.00     0.253 C 
ATOM      4  N   UNL d   1      10.591   6.919  -8.476  0.00  0.00     0.142 N 
ATOM      5  C   UNL d   1       9.960   7.087  -9.770  0.00  0.00     0.275 C 
ENDROOT
BRANCH   1   6
ATOM      6  N   UNL d   1       8.021   5.998 -10.736  0.00  0.00    -0.185 NA
BRANCH   6   7
ATOM      7  S   UNL d   1       8.058   6.073 -12.440  0.00  0.00     0.281 S 
ATOM      8  O   UNL d   1       7.163   7.182 -12.837  0.00  0.00    -0.199 OA
ATOM      9  O   UNL d   1       9.464   6.053 -12.842  0.00  0.00    -0.199 OA
BRANCH   7  10
ATOM     10  C   UNL d   1       7.307   4.541 -12.938  0.00  0.00     0.105 A 
ATOM     11  C   UNL d   1       7.985   3.705 -13.849  0.00  0.00     0.015 A 
ATOM     12  C   UNL d   1       7.390   2.498 -14.260  0.00  0.00     0.030 A 
ATOM     13  C   UNL d   1       6.130   2.124 -13.742  0.00  0.00     0.140 A 
ATOM     14  C   UNL d   1       5.461   2.965 -12.833  0.00  0.00     0.030 A 
ATOM     15  F   UNL d   1       5.567   0.955 -14.119  0.00  0.00    -0.204 F 
ATOM     16  C   UNL d   1       6.047   4.178 -12.426  0.00  0.00     0.015 A 
ENDBRANCH   7  10
ENDBRANCH   6   7
ENDBRANCH   1   6
BRANCH   4  17
ATOM     17  C   UNL d   1      11.093   8.184  -7.916  0.00  0.00     0.283 C 
BRANCH  17  18
ATOM     18  C   UNL d   1      10.078   8.968  -7.008  0.00  0.00     0.184 C 
BRANCH  18  19
ATOM     19  O   UNL d   1      10.723   9.708  -5.969  0.00  0.00    -0.329 OA
BRANCH  19  20
ATOM     20  C   UNL d   1      11.209   8.947  -4.913  0.00  0.00     0.094 A 
ATOM     21  C   UNL d   1      11.581   9.593  -3.720  0.00  0.00     0.024 A 
ATOM     22  C   UNL d   1      12.121   8.842  -2.642  0.00  0.00     0.002 A 
ATOM     23  C   UNL d   1      12.264   7.443  -2.723  0.00  0.00     0.000 A 
ATOM     24  C   UNL d   1      11.865   6.793  -3.888  0.00  0.00     0.002 A 
ATOM     25  C   UNL d   1      11.348   7.533  -4.945  0.00  0.00     0.024 A 
ENDBRANCH  19  20
ENDBRANCH  18  19
ENDBRANCH  17  18
ENDBRANCH   4  17
TORSDOF 7
