REMARK  8 active torsions:
REMARK  status: ('A' for Active; 'I' for Inactive)
REMARK    1  A    between atoms: C_6  and  C_7 
REMARK    2  A    between atoms: C_10  and  S_11 
REMARK    3  A    between atoms: S_11  and  C_12 
REMARK    4  A    between atoms: C_12  and  C_13 
REMARK    5  A    between atoms: C_13  and  C_14 
REMARK    6  A    between atoms: C_14  and  N_15 
REMARK    7  A    between atoms: C_20  and  C_21 
REMARK    8  A    between atoms: C_27  and  C_28 
ROOT
ATOM      1  N   UNL d   1      10.493  -0.566 -19.610  0.00  0.00     0.137 N 
ATOM      2  C   UNL d   1      10.496  -0.801 -18.186  0.00  0.00     0.250 C 
ATOM      3  C   UNL d   1       9.005  -1.258 -17.925  0.00  0.00     0.038 C 
ATOM      4  C   UNL d   1       8.234  -0.538 -19.005  0.00  0.00     0.037 A 
ATOM      5  C   UNL d   1       6.982  -1.162 -19.609  0.00  0.00     0.007 A 
ATOM      6  C   UNL d   1       6.858   0.074 -18.755  0.00  0.00     0.024 A 
ATOM      7  C   UNL d   1       9.255   0.171 -19.860  0.00  0.00     0.251 C 
ENDROOT
BRANCH   1   8
ATOM      8  C   UNL d   1      11.656   0.214 -20.044  0.00  0.00     0.251 C 
BRANCH   8   9
ATOM      9  C   UNL d   1      12.963  -0.597 -19.914  0.00  0.00     0.047 C 
BRANCH   9  10
ATOM     10  C   UNL d   1      14.226   0.218 -20.224  0.00  0.00     0.067 C 
BRANCH  10  11
ATOM     11  S   UNL d   1      14.328   0.693 -21.973  0.00  0.00    -0.075 SA
BRANCH  11  12
ATOM     12  C   UNL d   1      15.819   1.644 -21.931  0.00  0.00     0.193 A 
ATOM     13  N   UNL d   1      16.980   1.174 -21.485  0.00  0.00    -0.122 NA
ATOM     14  N   UNL d   1      17.891   2.182 -21.699  0.00  0.00    -0.126 NA
ATOM     15  C   UNL d   1      17.206   3.212 -22.206  0.00  0.00     0.191 A 
ATOM     16  N   UNL d   1      15.895   2.916 -22.388  0.00  0.00    -0.287 N 
ATOM     17  C   UNL d   1      14.839   3.752 -22.935  0.00  0.00     0.134 C 
BRANCH  15  18
ATOM     18  C   UNL d   1      17.843   4.497 -22.484  0.00  0.00     0.151 A 
ATOM     19  C   UNL d   1      19.044   5.054 -22.086  0.00  0.00     0.087 A 
ATOM     20  C   UNL d   1      20.124   4.490 -21.217  0.00  0.00     0.054 C 
ATOM     21  N   UNL d   1      19.147   6.321 -22.637  0.00  0.00    -0.221 NA
ATOM     22  C   UNL d   1      18.035   6.472 -23.348  0.00  0.00     0.225 A 
ATOM     23  O   UNL d   1      17.191   5.412 -23.274  0.00  0.00    -0.282 OA
ENDBRANCH  15  18
ENDBRANCH  11  12
ENDBRANCH  10  11
ENDBRANCH   9  10
ENDBRANCH   8   9
ENDBRANCH   1   8
BRANCH   6  24
ATOM     24  C   UNL d   1       6.223   0.004 -17.390  0.00  0.00    -0.018 A 
ATOM     25  C   UNL d   1       6.729   0.721 -16.271  0.00  0.00     0.070 A 
ATOM     26  C   UNL d   1       6.123   0.528 -15.013  0.00  0.00     0.033 A 
ATOM     27  C   UNL d   1       4.995  -0.292 -14.863  0.00  0.00     0.140 A 
ATOM     28  C   UNL d   1       4.461  -0.965 -15.978  0.00  0.00     0.029 A 
ATOM     29  F   UNL d   1       4.404  -0.414 -13.652  0.00  0.00    -0.204 F 
ATOM     30  C   UNL d   1       5.078  -0.811 -17.232  0.00  0.00    -0.002 A 
BRANCH  25  31
ATOM     31  C   UNL d   1       7.893   1.707 -16.368  0.00  0.00     0.419 C 
ATOM     32  F   UNL d   1       7.925   2.524 -15.325  0.00  0.00    -0.166 F 
ATOM     33  F   UNL d   1       9.053   1.078 -16.390  0.00  0.00    -0.166 F 
ATOM     34  F   UNL d   1       7.828   2.476 -17.451  0.00  0.00    -0.166 F 
ENDBRANCH  25  31
ENDBRANCH   6  24
TORSDOF 8
