REMARK  3 active torsions:
REMARK  status: ('A' for Active; 'I' for Inactive)
REMARK    1  A    between atoms: C_8  and  C_9 
REMARK    2  A    between atoms: C_9  and  N_10 
REMARK    3  A    between atoms: N_13  and  C_14 
ROOT
ATOM      1  C   UNL d   1       5.269   0.092 -14.703  0.00  0.00    -0.008 C 
ATOM      2  C   UNL d   1       6.126   0.952 -14.581  0.00  0.00    -0.032 C 
ATOM      3  C   UNL d   1       7.150   1.984 -14.459  0.00  0.00     0.125 A 
ATOM      4  C   UNL d   1       8.342   1.855 -15.139  0.00  0.00     0.028 A 
ATOM      5  C   UNL d   1       9.357   2.837 -15.012  0.00  0.00     0.004 A 
ATOM      6  C   UNL d   1       9.170   3.934 -14.203  0.00  0.00     0.019 A 
ATOM      7  C   UNL d   1       7.947   4.075 -13.494  0.00  0.00     0.083 A 
ATOM      8  C   UNL d   1       7.436   5.000 -12.624  0.00  0.00     0.050 A 
ATOM      9  C   UNL d   1       6.152   4.497 -12.304  0.00  0.00     0.120 A 
ATOM     10  N   UNL d   1       5.841   3.372 -12.911  0.00  0.00    -0.163 NA
ATOM     11  N   UNL d   1       6.958   3.083 -13.661  0.00  0.00    -0.222 N 
ENDROOT
BRANCH   8  12
ATOM     12  C   UNL d   1       8.057   6.258 -12.105  0.00  0.00     0.280 C 
BRANCH  12  13
ATOM     13  N   UNL d   1       9.176   6.170 -11.172  0.00  0.00     0.146 N 
ATOM     14  C   UNL d   1       9.768   7.505 -10.983  0.00  0.00     0.275 C 
ATOM     15  C   UNL d   1      10.957   7.443 -10.015  0.00  0.00     0.137 C 
ATOM     16  N   UNL d   1      10.537   6.861  -8.752  0.00  0.00    -0.344 N 
ATOM     17  C   UNL d   1       9.838   5.580  -8.849  0.00  0.00     0.137 C 
ATOM     18  C   UNL d   1       8.690   5.686  -9.871  0.00  0.00     0.275 C 
BRANCH  16  19
ATOM     19  C   UNL d   1      10.764   7.516  -7.533  0.00  0.00     0.056 A 
ATOM     20  C   UNL d   1      10.717   8.925  -7.437  0.00  0.00     0.018 A 
ATOM     21  C   UNL d   1      10.960   9.566  -6.207  0.00  0.00     0.013 A 
ATOM     22  C   UNL d   1      11.240   8.805  -5.063  0.00  0.00     0.058 A 
ATOM     23  C   UNL d   1      11.281   7.405  -5.138  0.00  0.00     0.013 A 
ATOM     24 CL   UNL d   1      11.518   9.582  -3.559  0.00  0.00    -0.082 Cl
ATOM     25  C   UNL d   1      11.057   6.770  -6.370  0.00  0.00     0.018 A 
ENDBRANCH  16  19
ENDBRANCH  12  13
ENDBRANCH   8  12
TORSDOF 3
