REMARK  2 active torsions:
REMARK  status: ('A' for Active; 'I' for Inactive)
REMARK    1  A    between atoms: C_5  and  C_6 
REMARK    2  A    between atoms: C_12  and  N_13 
ROOT
ATOM      1  C   UNL d   1       8.876   5.527 -10.952  0.00  0.00     0.006 A 
ATOM      2  C   UNL d   1       7.480   5.578 -10.831  0.00  0.00     0.001 A 
ATOM      3  C   UNL d   1       6.615   5.118 -11.788  0.00  0.00     0.006 A 
ATOM      4  C   UNL d   1       7.093   4.464 -12.921  0.00  0.00     0.027 A 
ATOM      5  C   UNL d   1       8.500   4.318 -13.097  0.00  0.00     0.015 A 
ATOM      6  C   UNL d   1       9.359   4.851 -12.091  0.00  0.00    -0.001 A 
ATOM      7  C   UNL d   1       9.184   3.637 -14.323  0.00  0.00     0.246 C 
ATOM      8  C   UNL d   1       8.401   2.606 -15.133  0.00  0.00     0.065 C 
ATOM      9  C   UNL d   1       7.538   1.691 -14.389  0.00  0.00    -0.014 A 
ATOM     10  C   UNL d   1       7.902   0.340 -14.289  0.00  0.00    -0.004 A 
ATOM     11  C   UNL d   1       7.017  -0.541 -13.695  0.00  0.00    -0.000 A 
ATOM     12  C   UNL d   1       5.809  -0.050 -13.187  0.00  0.00     0.001 A 
ATOM     13  C   UNL d   1       5.431   1.290 -13.236  0.00  0.00     0.006 A 
ATOM     14  C   UNL d   1       6.311   2.160 -13.864  0.00  0.00     0.025 A 
ATOM     15  S   UNL d   1       5.873   3.840 -13.964  0.00  0.00    -0.087 SA
ENDROOT
BRANCH   7  16
ATOM     16  N   UNL d   1       9.863   4.651 -15.171  0.00  0.00     0.144 N 
ATOM     17  C   UNL d   1      11.282   4.887 -14.822  0.00  0.00     0.286 C 
ATOM     18  C   UNL d   1      12.163   3.685 -15.247  0.00  0.00     0.286 C 
ATOM     19  N   UNL d   1      12.073   3.437 -16.700  0.00  0.00     0.143 N 
ATOM     20  C   UNL d   1      10.695   3.234 -17.075  0.00  0.00     0.286 C 
ATOM     21  C   UNL d   1      12.830   2.261 -17.054  0.00  0.00     0.285 C 
ATOM     22  C   UNL d   1       9.822   4.434 -16.632  0.00  0.00     0.286 C 
ENDBRANCH   7  16
BRANCH   1  23
ATOM     23  C   UNL d   1       9.725   6.119  -9.942  0.00  0.00     0.029 A 
ATOM     24  C   UNL d   1      10.064   5.602  -8.724  0.00  0.00     0.007 A 
ATOM     25  C   UNL d   1      10.946   6.449  -7.987  0.00  0.00     0.003 A 
ATOM     26  C   UNL d   1      11.276   7.601  -8.659  0.00  0.00     0.008 A 
ATOM     27  C   UNL d   1      12.238   8.657  -8.242  0.00  0.00     0.038 C 
ATOM     28  S   UNL d   1      10.417   7.705 -10.174  0.00  0.00    -0.091 SA
ENDBRANCH   1  23
TORSDOF 2
