REMARK  7 active torsions:
REMARK  status: ('A' for Active; 'I' for Inactive)
REMARK    1  A    between atoms: C_2  and  C_3 
REMARK       I    between atoms: C_2  and  N_11 
REMARK    2  A    between atoms: C_14  and  C_16 
REMARK    3  A    between atoms: C_16  and  N_17 
REMARK    4  A    between atoms: N_17  and  C_18 
REMARK    5  A    between atoms: C_18  and  C_19 
REMARK    6  A    between atoms: C_19  and  S_20 
REMARK    7  A    between atoms: S_20  and  C_21 
ROOT
ATOM      1  O   UNL d   1       5.837   2.026 -13.822  0.00  0.00    -0.267 OA
ATOM      2  C   UNL d   1       6.979   2.432 -14.075  0.00  0.00     0.257 C 
ATOM      3  N   UNL d   1       7.474   3.597 -13.560  0.00  0.00    -0.317 N 
ATOM      4  C   UNL d   1       8.877   4.065 -13.727  0.00  0.00     0.107 C 
ATOM      5  C   UNL d   1       9.501   4.273 -12.327  0.00  0.00     0.059 C 
ATOM      6  C   UNL d   1       8.691   5.261 -11.491  0.00  0.00     0.172 C 
ATOM      7  F   UNL d   1       8.745   6.441 -12.151  0.00  0.00    -0.238 F 
ATOM      8  C   UNL d   1       7.228   4.815 -11.401  0.00  0.00     0.059 C 
ATOM      9  C   UNL d   1       6.622   4.517 -12.777  0.00  0.00     0.107 C 
ENDROOT
BRANCH   6  10
ATOM     10  C   UNL d   1       9.281   5.409 -10.068  0.00  0.00     0.322 C 
BRANCH  10  11
ATOM     11  N   UNL d   1       9.464   6.805  -9.701  0.00  0.00     0.343 N 
BRANCH  11  12
ATOM     12  C   UNL d   1       9.830   6.920  -8.300  0.00  0.00     0.302 C 
BRANCH  12  13
ATOM     13  C   UNL d   1      11.012   7.897  -8.171  0.00  0.00     0.102 C 
BRANCH  13  14
ATOM     14  S   UNL d   1      10.696   9.191  -6.946  0.00  0.00    -0.093 SA
BRANCH  14  15
ATOM     15  C   UNL d   1      11.221   8.604  -5.374  0.00  0.00     0.107 A 
ATOM     16  N   UNL d   1      11.445   9.571  -4.457  0.00  0.00    -0.238 NA
ATOM     17  C   UNL d   1      11.882   9.187  -3.240  0.00  0.00     0.100 A 
ATOM     18  C   UNL d   1      12.099   7.840  -2.888  0.00  0.00     0.021 A 
ATOM     19  C   UNL d   1      11.839   6.845  -3.848  0.00  0.00     0.004 A 
ATOM     20  C   UNL d   1      11.396   7.230  -5.123  0.00  0.00     0.025 A 
ENDBRANCH  14  15
ENDBRANCH  13  14
ENDBRANCH  12  13
ENDBRANCH  11  12
ENDBRANCH  10  11
ENDBRANCH   6  10
BRANCH   2  21
ATOM     21  C   UNL d   1       7.827   1.639 -15.029  0.00  0.00     0.057 A 
ATOM     22  C   UNL d   1       7.326   1.278 -16.302  0.00  0.00     0.018 A 
ATOM     23  C   UNL d   1       8.122   0.562 -17.221  0.00  0.00     0.085 A 
ATOM     24  C   UNL d   1       9.435   0.187 -16.868  0.00  0.00     0.151 A 
ATOM     25 CL   UNL d   1       7.488   0.152 -18.770  0.00  0.00    -0.080 Cl
ATOM     26  C   UNL d   1       9.932   0.523 -15.584  0.00  0.00     0.031 A 
ATOM     27  F   UNL d   1      10.222  -0.484 -17.750  0.00  0.00    -0.203 F 
ATOM     28  C   UNL d   1       9.131   1.223 -14.675  0.00  0.00     0.007 A 
ENDBRANCH   2  21
TORSDOF 7
