REMARK  8 active torsions:
REMARK  status: ('A' for Active; 'I' for Inactive)
REMARK    1  A    between atoms: C_3  and  S_4 
REMARK    2  A    between atoms: S_4  and  C_5 
REMARK    3  A    between atoms: C_5  and  C_6 
REMARK    4  A    between atoms: C_6  and  C_7 
REMARK    5  A    between atoms: C_7  and  N_8 
REMARK    6  A    between atoms: N_13  and  C_14 
REMARK    7  A    between atoms: C_17  and  C_18 
REMARK    8  A    between atoms: C_28  and  C_29 
ROOT
ATOM      1  N   UNL d   1      10.457   1.999 -15.972  0.00  0.00     0.139 N 
ATOM      2  C   UNL d   1      11.617   1.890 -16.852  0.00  0.00     0.252 C 
ATOM      3  C   UNL d   1      11.363   0.603 -17.649  0.00  0.00     0.058 C 
ATOM      4  C   UNL d   1      11.587   0.698 -19.163  0.00  0.00     0.028 C 
ATOM      5  C   UNL d   1      10.439  -0.124 -19.745  0.00  0.00     0.102 C 
ATOM      6  N   UNL d   1       9.334   0.057 -18.813  0.00  0.00    -0.348 N 
ATOM      7  C   UNL d   1       9.874   0.322 -17.483  0.00  0.00     0.117 C 
ATOM      8  C   UNL d   1       9.342   1.595 -16.821  0.00  0.00     0.272 C 
ENDROOT
BRANCH   1   9
ATOM      9  C   UNL d   1      10.312   3.352 -15.446  0.00  0.00     0.251 C 
BRANCH   9  10
ATOM     10  C   UNL d   1       9.283   3.418 -14.303  0.00  0.00     0.047 C 
BRANCH  10  11
ATOM     11  C   UNL d   1       9.185   4.816 -13.674  0.00  0.00     0.067 C 
BRANCH  11  12
ATOM     12  S   UNL d   1       8.213   4.787 -12.138  0.00  0.00    -0.075 SA
BRANCH  12  13
ATOM     13  C   UNL d   1       8.943   6.150 -11.274  0.00  0.00     0.193 A 
ATOM     14  N   UNL d   1       9.181   6.116  -9.945  0.00  0.00    -0.289 N 
ATOM     15  C   UNL d   1       8.893   5.029  -9.026  0.00  0.00     0.134 C 
ATOM     16  C   UNL d   1       9.751   7.327  -9.723  0.00  0.00     0.168 A 
ATOM     17  N   UNL d   1       9.855   8.050 -10.841  0.00  0.00    -0.128 NA
ATOM     18  N   UNL d   1       9.324   7.287 -11.851  0.00  0.00    -0.122 NA
BRANCH  16  19
ATOM     19  C   UNL d   1      10.223   7.849  -8.440  0.00  0.00     0.055 A 
ATOM     20  C   UNL d   1       9.460   7.683  -7.262  0.00  0.00     0.102 A 
ATOM     21  N   UNL d   1       9.874   8.107  -6.041  0.00  0.00    -0.242 NA
ATOM     22  C   UNL d   1      11.054   8.756  -5.958  0.00  0.00     0.099 A 
ATOM     23  C   UNL d   1      11.861   9.023  -7.079  0.00  0.00     0.021 A 
ATOM     24  C   UNL d   1      11.442   8.553  -8.341  0.00  0.00     0.006 A 
ENDBRANCH  16  19
ENDBRANCH  12  13
ENDBRANCH  11  12
ENDBRANCH  10  11
ENDBRANCH   9  10
ENDBRANCH   1   9
BRANCH   6  25
ATOM     25  C   UNL d   1       8.138  -0.677 -18.987  0.00  0.00     0.056 A 
ATOM     26  C   UNL d   1       7.195  -0.804 -17.937  0.00  0.00     0.017 A 
ATOM     27  C   UNL d   1       6.002  -1.531 -18.115  0.00  0.00     0.005 A 
ATOM     28  C   UNL d   1       5.715  -2.142 -19.350  0.00  0.00     0.072 A 
ATOM     29  C   UNL d   1       6.648  -2.029 -20.402  0.00  0.00     0.005 A 
ATOM     30  C   UNL d   1       7.840  -1.301 -20.224  0.00  0.00     0.017 A 
BRANCH  28  31
ATOM     31  C   UNL d   1       4.425  -2.923 -19.541  0.00  0.00     0.419 C 
ATOM     32  F   UNL d   1       4.603  -4.176 -19.124  0.00  0.00    -0.166 F 
ATOM     33  F   UNL d   1       3.435  -2.368 -18.839  0.00  0.00    -0.166 F 
ATOM     34  F   UNL d   1       4.068  -2.948 -20.825  0.00  0.00    -0.166 F 
ENDBRANCH  28  31
ENDBRANCH   6  25
TORSDOF 8
