REMARK  3 active torsions:
REMARK  status: ('A' for Active; 'I' for Inactive)
REMARK    1  A    between atoms: C_5  and  C_6 
REMARK    2  A    between atoms: C_9  and  C_10 
REMARK    3  A    between atoms: N_13  and  C_14 
ROOT
ATOM      1  C   UNL d   1       8.101   3.923 -13.949  0.00  0.00     0.070 C 
ATOM      2  C   UNL d   1       9.534   4.151 -13.413  0.00  0.00     0.032 C 
ATOM      3  C   UNL d   1       9.691   5.524 -12.745  0.00  0.00     0.102 C 
ATOM      4  N   UNL d   1       8.645   5.716 -11.769  0.00  0.00    -0.347 N 
ATOM      5  C   UNL d   1       7.258   5.609 -12.206  0.00  0.00     0.102 C 
ATOM      6  C   UNL d   1       7.025   4.242 -12.876  0.00  0.00     0.032 C 
ENDROOT
BRANCH   1   7
ATOM      7  C   UNL d   1       7.937   2.542 -14.528  0.00  0.00     0.185 A 
ATOM      8  O   UNL d   1       8.679   1.516 -14.043  0.00  0.00    -0.195 OA
ATOM      9  N   UNL d   1       8.233   0.353 -14.681  0.00  0.00    -0.105 NA
ATOM     10  C   UNL d   1       7.266   0.813 -15.455  0.00  0.00     0.192 A 
ATOM     11  N   UNL d   1       7.041   2.149 -15.436  0.00  0.00    -0.203 NA
BRANCH  10  12
ATOM     12  C   UNL d   1       6.472  -0.093 -16.292  0.00  0.00     0.049 A 
ATOM     13  C   UNL d   1       5.299  -0.688 -15.774  0.00  0.00     0.006 A 
ATOM     14  C   UNL d   1       4.535  -1.570 -16.563  0.00  0.00     0.030 A 
ATOM     15  C   UNL d   1       4.945  -1.868 -17.876  0.00  0.00     0.141 A 
ATOM     16  F   UNL d   1       4.213  -2.706 -18.645  0.00  0.00    -0.204 F 
ATOM     17  C   UNL d   1       6.117  -1.291 -18.396  0.00  0.00     0.041 A 
ATOM     18  C   UNL d   1       6.880  -0.407 -17.610  0.00  0.00     0.063 A 
ATOM     19 CL   UNL d   1       8.326   0.281 -18.266  0.00  0.00    -0.082 Cl
ENDBRANCH  10  12
ENDBRANCH   1   7
BRANCH   4  20
ATOM     20  C   UNL d   1       8.967   6.001 -10.438  0.00  0.00     0.076 A 
ATOM     21  C   UNL d   1       9.746   7.126 -10.085  0.00  0.00     0.020 A 
ATOM     22  C   UNL d   1       9.968   7.407  -8.718  0.00  0.00     0.020 A 
ATOM     23  C   UNL d   1       9.403   6.535  -7.749  0.00  0.00     0.082 A 
ATOM     24  C   UNL d   1      10.706   8.544  -8.312  0.00  0.00     0.013 A 
ATOM     25  N   UNL d   1       8.675   5.455  -8.094  0.00  0.00    -0.243 NA
ATOM     26  C   UNL d   1       9.635   6.810  -6.389  0.00  0.00     0.020 A 
ATOM     27  C   UNL d   1       8.471   5.196  -9.398  0.00  0.00     0.116 A 
ATOM     28  C   UNL d   1      10.408   7.910  -5.981  0.00  0.00     0.013 A 
ATOM     29  C   UNL d   1      10.930   8.787  -6.942  0.00  0.00     0.058 A 
ATOM     30 CL   UNL d   1      11.840  10.144  -6.401  0.00  0.00    -0.082 Cl
ENDBRANCH   4  20
TORSDOF 3
