REMARK  3 active torsions:
REMARK  status: ('A' for Active; 'I' for Inactive)
REMARK    1  A    between atoms: C_17  and  O_18 
REMARK    2  A    between atoms: O_18  and  S_19 
REMARK    3  A    between atoms: S_19  and  C_22 
ROOT
ATOM      1  C   UNL d   1       5.411   0.796 -14.344  0.00  0.00     0.286 C 
ATOM      2  N   UNL d   1       6.179   1.807 -13.620  0.00  0.00     0.142 N 
ATOM      3  C   UNL d   1       5.348   2.972 -13.353  0.00  0.00     0.255 C 
ATOM      4  C   UNL d   1       6.041   3.858 -12.331  0.00  0.00     0.061 C 
ATOM      5  C   UNL d   1       7.444   4.273 -12.723  0.00  0.00    -0.022 A 
ATOM      6  C   UNL d   1       8.136   5.350 -12.146  0.00  0.00    -0.004 A 
ATOM      7  C   UNL d   1       9.464   5.585 -12.516  0.00  0.00    -0.000 A 
ATOM      8  C   UNL d   1      10.097   4.758 -13.466  0.00  0.00    -0.000 A 
ATOM      9  C   UNL d   1       9.442   3.680 -14.117  0.00  0.00    -0.001 A 
ATOM     10  C   UNL d   1       8.109   3.458 -13.680  0.00  0.00     0.005 A 
ATOM     11  C   UNL d   1       7.382   2.255 -14.329  0.00  0.00     0.246 C 
ATOM     12  C   UNL d   1       8.356   1.066 -14.526  0.00  0.00     0.064 C 
ATOM     13  C   UNL d   1       9.604   1.484 -15.274  0.00  0.00    -0.018 A 
ATOM     14  C   UNL d   1      10.205   0.570 -16.159  0.00  0.00    -0.004 A 
ATOM     15  C   UNL d   1      11.318   0.961 -16.921  0.00  0.00     0.002 A 
ATOM     16  C   UNL d   1      11.819   2.264 -16.799  0.00  0.00     0.026 A 
ATOM     17  C   UNL d   1      11.210   3.195 -15.932  0.00  0.00     0.113 A 
ATOM     18  C   UNL d   1      10.109   2.799 -15.114  0.00  0.00     0.019 A 
ENDROOT
BRANCH  17  19
ATOM     19  O   UNL d   1      11.715   4.467 -15.919  0.00  0.00    -0.224 OA
BRANCH  19  20
ATOM     20  S   UNL d   1      11.436   5.421 -17.290  0.00  0.00     0.374 S 
ATOM     21  O   UNL d   1      12.034   4.746 -18.454  0.00  0.00    -0.189 OA
ATOM     22  O   UNL d   1      10.016   5.808 -17.287  0.00  0.00    -0.189 OA
BRANCH  20  23
ATOM     23  C   UNL d   1      12.487   6.866 -16.855  0.00  0.00     0.524 C 
ATOM     24  F   UNL d   1      12.260   7.836 -17.742  0.00  0.00    -0.155 F 
ATOM     25  F   UNL d   1      12.175   7.290 -15.634  0.00  0.00    -0.155 F 
ATOM     26  F   UNL d   1      13.765   6.496 -16.902  0.00  0.00    -0.155 F 
ENDBRANCH  20  23
ENDBRANCH  19  20
ENDBRANCH  17  19
TORSDOF 3
