REMARK  7 active torsions:
REMARK  status: ('A' for Active; 'I' for Inactive)
REMARK    1  A    between atoms: C_2  and  O_5 
REMARK    2  A    between atoms: O_5  and  C_6 
REMARK       I    between atoms: C_6  and  N_8 
REMARK    3  A    between atoms: N_8  and  C_9 
REMARK    4  A    between atoms: C_12  and  C_13 
REMARK    5  A    between atoms: C_13  and  C_14 
REMARK    6  A    between atoms: C_14  and  N_15 
REMARK    7  A    between atoms: N_18  and  C_19 
ROOT
ATOM      1  C   UNL d   1      10.382   6.768 -10.058  0.00  0.00     0.035 C 
ENDROOT
BRANCH   1   2
ATOM      2  C   UNL d   1      10.357   7.750  -8.887  0.00  0.00     0.002 C 
ATOM      3  C   UNL d   1       9.835   7.040  -7.620  0.00  0.00     0.002 C 
ATOM      4  C   UNL d   1       9.784   7.999  -6.443  0.00  0.00     0.025 C 
ATOM      5  C   UNL d   1      11.170   8.600  -6.216  0.00  0.00     0.109 C 
ATOM      6  C   UNL d   1      11.720   9.305  -7.440  0.00  0.00     0.025 C 
ATOM      7  C   UNL d   1      11.752   8.360  -8.638  0.00  0.00     0.002 C 
BRANCH   5   8
ATOM      8  N   UNL d   1      11.114   9.576  -5.130  0.00  0.00    -0.214 NA
ATOM      9  C   UNL d   1      11.466   9.335  -3.810  0.00  0.00     0.383 C 
ATOM     10  O   UNL d   1      11.479  10.173  -2.915  0.00  0.00    -0.236 OA
BRANCH   9  11
ATOM     11  O   UNL d   1      11.779   8.035  -3.657  0.00  0.00    -0.289 OA
BRANCH  11  12
ATOM     12  C   UNL d   1      11.985   7.376  -2.394  0.00  0.00     0.103 C 
ATOM     13  C   UNL d   1      10.717   6.593  -2.012  0.00  0.00     0.030 C 
ATOM     14  C   UNL d   1      12.639   8.256  -1.280  0.00  0.00     0.030 C 
ATOM     15  C   UNL d   1      12.985   6.297  -2.750  0.00  0.00     0.030 C 
ENDBRANCH  11  12
ENDBRANCH   9  11
ENDBRANCH   5   8
ENDBRANCH   1   2
BRANCH   1  16
ATOM     16  C   UNL d   1       9.022   6.590 -10.732  0.00  0.00     0.250 C 
BRANCH  16  17
ATOM     17  N   UNL d   1       9.098   5.752 -11.930  0.00  0.00     0.141 N 
ATOM     18  C   UNL d   1       9.322   4.344 -11.573  0.00  0.00     0.274 C 
ATOM     19  C   UNL d   1       9.417   3.462 -12.837  0.00  0.00     0.137 C 
ATOM     20  N   UNL d   1       8.211   3.613 -13.616  0.00  0.00    -0.344 N 
ATOM     21  C   UNL d   1       7.835   4.966 -13.913  0.00  0.00     0.137 C 
ATOM     22  C   UNL d   1       7.806   5.834 -12.626  0.00  0.00     0.274 C 
BRANCH  20  23
ATOM     23  C   UNL d   1       7.429   2.553 -14.072  0.00  0.00     0.068 A 
ATOM     24  C   UNL d   1       7.821   1.793 -15.200  0.00  0.00     0.084 A 
ATOM     25  C   UNL d   1       7.040   0.711 -15.628  0.00  0.00     0.070 A 
ATOM     26 CL   UNL d   1       9.259   2.221 -16.074  0.00  0.00    -0.080 Cl
ATOM     27  C   UNL d   1       5.884   0.323 -14.911  0.00  0.00     0.012 A 
ATOM     28 CL   UNL d   1       7.451  -0.145 -17.076  0.00  0.00    -0.081 Cl
ATOM     29  C   UNL d   1       5.485   1.090 -13.792  0.00  0.00     0.002 A 
ATOM     30  C   UNL d   1       6.222   2.218 -13.414  0.00  0.00     0.018 A 
ENDBRANCH  20  23
ENDBRANCH  16  17
ENDBRANCH   1  16
TORSDOF 7
