REMARK  7 active torsions:
REMARK  status: ('A' for Active; 'I' for Inactive)
REMARK    1  A    between atoms: C_4  and  C_5 
REMARK    2  A    between atoms: N_13  and  C_14 
REMARK    3  A    between atoms: C_14  and  C_15 
REMARK    4  A    between atoms: C_15  and  C_16 
REMARK    5  A    between atoms: C_16  and  S_17 
REMARK    6  A    between atoms: S_17  and  C_18 
REMARK    7  A    between atoms: C_21  and  C_22 
ROOT
ATOM      1  C   UNL d   1      14.241   6.505 -19.005  0.00  0.00     0.020 A 
ATOM      2  C   UNL d   1      14.707   5.197 -19.275  0.00  0.00     0.001 A 
ATOM      3  C   UNL d   1      14.272   4.112 -18.497  0.00  0.00    -0.004 A 
ATOM      4  C   UNL d   1      13.363   4.310 -17.441  0.00  0.00    -0.024 A 
ATOM      5  C   UNL d   1      12.896   5.611 -17.151  0.00  0.00    -0.024 A 
ATOM      6  C   UNL d   1      13.335   6.697 -17.939  0.00  0.00    -0.003 A 
ATOM      7  C   UNL d   1      11.935   5.854 -15.995  0.00  0.00     0.061 C 
ATOM      8  C   UNL d   1      10.612   5.068 -16.098  0.00  0.00     0.255 C 
ATOM      9  N   UNL d   1      10.717   3.673 -15.664  0.00  0.00     0.138 N 
ATOM     10  C   UNL d   1      11.426   2.834 -16.630  0.00  0.00     0.255 C 
ATOM     11  C   UNL d   1      12.930   3.114 -16.623  0.00  0.00     0.061 C 
ENDROOT
BRANCH   9  12
ATOM     12  C   UNL d   1       9.384   3.131 -15.410  0.00  0.00     0.251 C 
BRANCH  12  13
ATOM     13  C   UNL d   1       8.947   3.483 -13.971  0.00  0.00     0.047 C 
BRANCH  13  14
ATOM     14  C   UNL d   1       7.443   3.810 -13.860  0.00  0.00     0.067 C 
BRANCH  14  15
ATOM     15  S   UNL d   1       6.839   4.112 -12.159  0.00  0.00    -0.075 SA
BRANCH  15  16
ATOM     16  C   UNL d   1       8.012   5.313 -11.610  0.00  0.00     0.193 A 
ATOM     17  N   UNL d   1       8.544   5.331 -10.366  0.00  0.00    -0.287 N 
ATOM     18  C   UNL d   1       9.385   6.396 -10.434  0.00  0.00     0.185 A 
ATOM     19  C   UNL d   1       8.264   4.457  -9.230  0.00  0.00     0.134 C 
ATOM     20  N   UNL d   1       9.405   6.949 -11.656  0.00  0.00    -0.127 NA
ATOM     21  N   UNL d   1       8.486   6.267 -12.411  0.00  0.00    -0.122 NA
BRANCH  18  22
ATOM     22  C   UNL d   1      10.193   6.959  -9.339  0.00  0.00     0.117 A 
ATOM     23  N   UNL d   1       9.969   6.540  -8.071  0.00  0.00    -0.241 NA
ATOM     24  C   UNL d   1      10.675   7.084  -7.062  0.00  0.00     0.099 A 
ATOM     25  C   UNL d   1      11.673   8.052  -7.264  0.00  0.00     0.021 A 
ATOM     26  C   UNL d   1      11.946   8.464  -8.581  0.00  0.00     0.003 A 
ATOM     27  C   UNL d   1      11.188   7.921  -9.633  0.00  0.00     0.022 A 
ENDBRANCH  18  22
ENDBRANCH  15  16
ENDBRANCH  14  15
ENDBRANCH  13  14
ENDBRANCH  12  13
ENDBRANCH   9  12
BRANCH   1  28
ATOM     28  C   UNL d   1      14.692   7.649 -19.811  0.00  0.00     0.110 A 
ATOM     29  C   UNL d   1      14.441   9.038 -19.621  0.00  0.00     0.044 A 
ATOM     30  C   UNL d   1      15.101   9.639 -20.655  0.00  0.00     0.105 A 
ATOM     31  C   UNL d   1      15.261  11.054 -21.076  0.00  0.00     0.061 C 
ATOM     32  O   UNL d   1      15.713   8.708 -21.424  0.00  0.00    -0.215 OA
ATOM     33  N   UNL d   1      15.448   7.449 -20.882  0.00  0.00    -0.127 NA
ENDBRANCH   1  28
TORSDOF 7
