REMARK  4 active torsions:
REMARK  status: ('A' for Active; 'I' for Inactive)
REMARK    1  A    between atoms: C_2  and  C_3 
REMARK    2  A    between atoms: C_2  and  C_6 
REMARK    3  A    between atoms: C_9  and  C_10 
REMARK    4  A    between atoms: C_10  and  C_11 
ROOT
ATOM      1  C   UNL d   1       9.063   6.246 -11.113  0.00  0.00    -0.012 A 
ATOM      2  C   UNL d   1       9.854   7.383 -10.858  0.00  0.00    -0.004 A 
ATOM      3  C   UNL d   1      10.516   7.539  -9.632  0.00  0.00    -0.005 A 
ATOM      4  C   UNL d   1      10.327   6.578  -8.612  0.00  0.00    -0.022 A 
ATOM      5  C   UNL d   1       9.535   5.427  -8.863  0.00  0.00    -0.005 A 
ATOM      6  C   UNL d   1       8.921   5.250 -10.118  0.00  0.00    -0.004 A 
ENDROOT
BRANCH   4   7
ATOM      7  C   UNL d   1      11.021   6.739  -7.261  0.00  0.00     0.034 C 
BRANCH   7   8
ATOM      8  C   UNL d   1      10.555   7.962  -6.443  0.00  0.00     0.062 C 
ATOM      9  C   UNL d   1      11.317   8.108  -5.133  0.00  0.00     0.150 C 
ATOM     10  C   UNL d   1      11.836   9.526  -4.931  0.00  0.00     0.065 C 
ATOM     11  O   UNL d   1      11.492   7.192  -4.327  0.00  0.00    -0.296 OA
ATOM     12  C   UNL d   1      11.165  10.327  -6.043  0.00  0.00     0.008 C 
ATOM     13  C   UNL d   1      10.844   9.305  -7.120  0.00  0.00     0.008 C 
ENDBRANCH   7   8
ENDBRANCH   4   7
BRANCH   1  14
ATOM     14  C   UNL d   1       8.394   6.132 -12.478  0.00  0.00     0.110 C 
ATOM     15  C   UNL d   1       9.283   5.356 -13.465  0.00  0.00     0.016 C 
BRANCH  14  16
ATOM     16  C   UNL d   1       6.978   5.562 -12.360  0.00  0.00     0.189 C 
ATOM     17  O   UNL d   1       6.631   4.496 -12.884  0.00  0.00    -0.647 OA
ATOM     18  O   UNL d   1       6.159   6.381 -11.639  0.00  0.00    -0.647 OA
ENDBRANCH  14  16
ENDBRANCH   1  14
TORSDOF 4
