REMARK  5 active torsions:
REMARK  status: ('A' for Active; 'I' for Inactive)
REMARK    1  A    between atoms: N_3  and  C_4 
REMARK    2  A    between atoms: C_4  and  C_5 
REMARK    3  A    between atoms: C_8  and  C_9 
REMARK    4  A    between atoms: C_9  and  N_10 
REMARK    5  A    between atoms: N_13  and  C_14 
ROOT
ATOM      1  C   UNL d   1      15.833   6.599 -17.703  0.00  0.00     0.025 C 
ATOM      2  C   UNL d   1      14.945   6.330 -16.481  0.00  0.00     0.002 C 
ATOM      3  C   UNL d   1      13.536   6.910 -16.682  0.00  0.00     0.002 C 
ATOM      4  C   UNL d   1      12.863   6.302 -17.936  0.00  0.00     0.033 C 
ATOM      5  C   UNL d   1      13.749   6.548 -19.168  0.00  0.00     0.002 C 
ATOM      6  C   UNL d   1      15.179   6.020 -18.980  0.00  0.00     0.002 C 
ENDROOT
BRANCH   4   7
ATOM      7  C   UNL d   1      12.520   4.795 -17.782  0.00  0.00     0.250 C 
BRANCH   7   8
ATOM      8  N   UNL d   1      11.837   4.507 -16.526  0.00  0.00     0.141 N 
ATOM      9  C   UNL d   1      11.786   3.054 -16.318  0.00  0.00     0.274 C 
ATOM     10  C   UNL d   1      11.121   2.748 -14.963  0.00  0.00     0.137 C 
ATOM     11  N   UNL d   1       9.803   3.371 -14.898  0.00  0.00    -0.344 N 
ATOM     12  C   UNL d   1       9.774   4.793 -15.210  0.00  0.00     0.137 C 
ATOM     13  C   UNL d   1      10.475   5.053 -16.551  0.00  0.00     0.274 C 
BRANCH  11  14
ATOM     14  C   UNL d   1       8.623   2.641 -14.665  0.00  0.00     0.057 A 
ATOM     15  C   UNL d   1       7.529   3.241 -13.996  0.00  0.00     0.028 A 
ATOM     16  C   UNL d   1       6.362   2.499 -13.719  0.00  0.00     0.059 A 
ATOM     17  C   UNL d   1       6.278   1.150 -14.107  0.00  0.00     0.011 A 
ATOM     18 CL   UNL d   1       5.082   3.240 -12.840  0.00  0.00    -0.082 Cl
ATOM     19  C   UNL d   1       7.352   0.551 -14.788  0.00  0.00     0.002 A 
ATOM     20  C   UNL d   1       8.511   1.294 -15.078  0.00  0.00     0.017 A 
ENDBRANCH  11  14
ENDBRANCH   7   8
ENDBRANCH   4   7
BRANCH   1  21
ATOM     21  C   UNL d   1      17.229   6.003 -17.452  0.00  0.00     0.132 C 
BRANCH  21  22
ATOM     22  N   UNL d   1      18.232   6.522 -18.379  0.00  0.00    -0.201 N 
ATOM     23  C   UNL d   1      19.066   7.549 -18.151  0.00  0.00     0.352 A 
ATOM     24  O   UNL d   1      19.149   8.239 -17.136  0.00  0.00    -0.244 OA
ATOM     25  N   UNL d   1      19.772   7.644 -19.267  0.00  0.00    -0.241 N 
ATOM     26  C   UNL d   1      19.315   6.674 -20.149  0.00  0.00     0.171 A 
ATOM     27  C   UNL d   1      20.811   8.537 -19.561  0.00  0.00     0.086 A 
ATOM     28  N   UNL d   1      18.366   5.984 -19.620  0.00  0.00    -0.147 NA
ATOM     29  C   UNL d   1      19.967   6.621 -21.445  0.00  0.00     0.039 A 
ATOM     30  C   UNL d   1      20.968   7.485 -21.733  0.00  0.00     0.005 A 
ATOM     31  C   UNL d   1      21.415   8.478 -20.762  0.00  0.00     0.019 A 
ENDBRANCH  21  22
ENDBRANCH   1  21
TORSDOF 5
