REMARK  12 active torsions:
REMARK  status: ('A' for Active; 'I' for Inactive)
REMARK    1  A    between atoms: C_2  and  C_3 
REMARK    2  A    between atoms: C_3  and  N_4 
REMARK    3  A    between atoms: N_4  and  C_5 
REMARK    4  A    between atoms: N_4  and  C_22 
REMARK    5  A    between atoms: C_5  and  C_6 
REMARK    6  A    between atoms: C_6  and  C_7 
REMARK    7  A    between atoms: C_7  and  C_8 
REMARK    8  A    between atoms: C_8  and  N_9 
REMARK       I    between atoms: N_9  and  C_10 
REMARK    9  A    between atoms: C_10  and  C_12 
REMARK   10  A    between atoms: C_22  and  C_23 
REMARK   11  A    between atoms: C_25  and  C_26 
REMARK   12  A    between atoms: C_32  and  O_33 
ROOT
ATOM      1  N   UNL d   1       9.850   4.389 -14.132  0.00  0.00     0.137 N 
ENDROOT
BRANCH   1   2
ATOM      2  C   UNL d   1      10.509   3.162 -14.590  0.00  0.00     0.250 C 
BRANCH   2   3
ATOM      3  C   UNL d   1      11.951   3.418 -15.009  0.00  0.00     0.035 C 
ATOM      4  C   UNL d   1      12.403   2.396 -16.057  0.00  0.00     0.002 C 
ENDBRANCH   2   3
ENDBRANCH   1   2
BRANCH   1   5
ATOM      5  C   UNL d   1      10.012   4.599 -12.704  0.00  0.00     0.250 C 
BRANCH   5   6
ATOM      6  C   UNL d   1       9.653   6.049 -12.312  0.00  0.00     0.037 C 
BRANCH   6   7
ATOM      7  C   UNL d   1       9.845   6.308 -10.805  0.00  0.00     0.029 C 
BRANCH   7   8
ATOM      8  C   UNL d   1       9.636   7.771 -10.416  0.00  0.00     0.129 C 
BRANCH   8   9
ATOM      9  N   UNL d   1       9.739   7.902  -8.967  0.00  0.00    -0.234 NA
ATOM     10  C   UNL d   1      10.660   8.645  -8.339  0.00  0.00     0.275 C 
ATOM     11  O   UNL d   1      11.271   9.568  -8.879  0.00  0.00    -0.266 OA
BRANCH  10  12
ATOM     12  C   UNL d   1      10.932   8.273  -6.915  0.00  0.00     0.058 A 
ATOM     13  C   UNL d   1      11.210   9.240  -5.923  0.00  0.00     0.005 A 
ATOM     14  C   UNL d   1      11.510   8.841  -4.601  0.00  0.00     0.000 A 
ATOM     15  C   UNL d   1      11.563   7.475  -4.255  0.00  0.00     0.000 A 
ATOM     16  C   UNL d   1      11.736   9.775  -3.596  0.00  0.00     0.000 A 
ATOM     17  C   UNL d   1      11.287   6.540  -5.244  0.00  0.00     0.000 A 
ATOM     18  C   UNL d   1      11.857   7.051  -2.939  0.00  0.00     0.000 A 
ATOM     19  C   UNL d   1      10.978   6.911  -6.562  0.00  0.00     0.005 A 
ATOM     20  C   UNL d   1      12.139   8.022  -1.966  0.00  0.00     0.000 A 
ATOM     21  C   UNL d   1      12.075   9.379  -2.303  0.00  0.00     0.000 A 
ENDBRANCH  10  12
ENDBRANCH   8   9
ENDBRANCH   7   8
ENDBRANCH   6   7
ENDBRANCH   5   6
ENDBRANCH   1   5
BRANCH   1  22
ATOM     22  C   UNL d   1       8.437   4.308 -14.450  0.00  0.00     0.251 C 
BRANCH  22  23
ATOM     23  C   UNL d   1       7.727   3.100 -13.866  0.00  0.00     0.038 A 
ATOM     24  C   UNL d   1       6.306   2.820 -14.231  0.00  0.00     0.026 A 
ATOM     25  C   UNL d   1       6.621   3.333 -12.849  0.00  0.00     0.007 A 
BRANCH  24  26
ATOM     26  C   UNL d   1       5.903   1.378 -14.440  0.00  0.00     0.002 C 
ATOM     27  C   UNL d   1       6.485   0.590 -15.466  0.00  0.00     0.090 C 
ATOM     28  C   UNL d   1       6.022  -0.736 -15.666  0.00  0.00     0.026 C 
ATOM     29  C   UNL d   1       4.980  -1.257 -14.887  0.00  0.00     0.032 C 
ATOM     30  C   UNL d   1       4.354  -0.443 -13.927  0.00  0.00     0.140 C 
ATOM     31  C   UNL d   1       4.880   0.821 -13.639  0.00  0.00     0.027 C 
ATOM     32  F   UNL d   1       3.254  -0.867 -13.263  0.00  0.00    -0.204 F 
BRANCH  27  33
ATOM     33  O   UNL d   1       7.472   1.168 -16.234  0.00  0.00    -0.328 OA
ATOM     34  C   UNL d   1       8.137   0.350 -17.183  0.00  0.00     0.181 C 
ENDBRANCH  27  33
ENDBRANCH  24  26
ENDBRANCH  22  23
ENDBRANCH   1  22
TORSDOF 12
