REMARK  4 active torsions:
REMARK  status: ('A' for Active; 'I' for Inactive)
REMARK    1  A    between atoms: C_2  and  C_3 
REMARK    2  A    between atoms: C_2  and  N_14 
REMARK       I    between atoms: C_3  and  N_5 
REMARK    3  A    between atoms: N_17  and  C_18 
REMARK    4  A    between atoms: C_18  and  C_19 
ROOT
ATOM      1  N   UNL d   1       9.797   2.078 -17.473  0.00  0.00     0.148 N 
ATOM      2  C   UNL d   1       9.509   1.359 -18.720  0.00  0.00     0.286 C 
ATOM      3  C   UNL d   1       9.826   2.212 -19.971  0.00  0.00     0.286 C 
ATOM      4  N   UNL d   1       9.077   3.476 -19.983  0.00  0.00     0.146 N 
ATOM      5  C   UNL d   1       9.385   4.195 -18.748  0.00  0.00     0.286 C 
ATOM      6  C   UNL d   1       9.078   3.358 -17.516  0.00  0.00     0.286 C 
ENDROOT
BRANCH   1   7
ATOM      7  C   UNL d   1       9.491   1.264 -16.273  0.00  0.00     0.297 C 
ATOM      8  C   UNL d   1      10.402   0.027 -16.127  0.00  0.00     0.046 C 
BRANCH   7   9
ATOM      9  C   UNL d   1       9.602   2.083 -14.960  0.00  0.00     0.269 C 
ATOM     10  O   UNL d   1      10.722   2.208 -14.460  0.00  0.00    -0.270 OA
ATOM     11  N   UNL d   1       8.485   2.667 -14.434  0.00  0.00    -0.298 N 
ATOM     12  C   UNL d   1       8.488   3.694 -13.458  0.00  0.00     0.058 A 
ATOM     13  C   UNL d   1       7.090   2.344 -14.815  0.00  0.00     0.114 A 
ATOM     14  C   UNL d   1       7.189   3.996 -13.099  0.00  0.00    -0.004 A 
ATOM     15  C   UNL d   1       9.582   4.377 -12.907  0.00  0.00     0.017 A 
ATOM     16  C   UNL d   1       6.197   3.160 -13.860  0.00  0.00     0.052 A 
ATOM     17  C   UNL d   1       6.915   4.970 -12.130  0.00  0.00    -0.003 A 
ATOM     18  C   UNL d   1       8.003   5.647 -11.530  0.00  0.00    -0.000 A 
ATOM     19  C   UNL d   1       9.329   5.357 -11.932  0.00  0.00     0.002 A 
ENDBRANCH   7   9
ENDBRANCH   1   7
BRANCH   4  20
ATOM     20  C   UNL d   1       9.383   4.281 -21.167  0.00  0.00     0.277 C 
BRANCH  20  21
ATOM     21  C   UNL d   1       8.443   5.455 -21.408  0.00  0.00     0.011 A 
ATOM     22  C   UNL d   1       8.384   6.533 -20.495  0.00  0.00    -0.002 A 
ATOM     23  C   UNL d   1       7.463   7.582 -20.693  0.00  0.00     0.011 A 
ATOM     24  C   UNL d   1       6.642   7.599 -21.838  0.00  0.00     0.058 A 
ATOM     25  C   UNL d   1       6.730   6.554 -22.779  0.00  0.00     0.011 A 
ATOM     26 CL   UNL d   1       5.544   8.910 -22.084  0.00  0.00    -0.082 Cl
ATOM     27  C   UNL d   1       7.618   5.481 -22.556  0.00  0.00    -0.002 A 
ENDBRANCH  20  21
ENDBRANCH   4  20
TORSDOF 4
