REMARK  3 active torsions:
REMARK  status: ('A' for Active; 'I' for Inactive)
REMARK    1  A    between atoms: C_2  and  C_3 
REMARK    2  A    between atoms: C_5  and  C_6 
REMARK    3  A    between atoms: C_12  and  N_13 
ROOT
ATOM      1  C   UNL d   1      12.195   4.846 -15.854  0.00  0.00     0.079 A 
ATOM      2  C   UNL d   1      12.161   3.616 -16.537  0.00  0.00     0.035 A 
ATOM      3  C   UNL d   1      11.181   2.695 -16.109  0.00  0.00     0.103 A 
ATOM      4  N   UNL d   1      10.331   3.012 -15.109  0.00  0.00    -0.061 NA
ATOM      5  C   UNL d   1      10.441   4.212 -14.533  0.00  0.00     0.727 A 
ATOM      6  N   UNL d   1      11.344   5.137 -14.852  0.00  0.00    -0.066 NA
ENDROOT
BRANCH   5   7
ATOM      7  N   UNL d   1       9.528   4.546 -13.534  0.00  0.00    -0.179 N 
ATOM      8  C   UNL d   1       8.522   3.615 -13.037  0.00  0.00     0.155 C 
ATOM      9  C   UNL d   1       7.130   4.277 -13.019  0.00  0.00     0.275 C 
ATOM     10  N   UNL d   1       7.169   5.506 -12.225  0.00  0.00     0.143 N 
ATOM     11  C   UNL d   1       8.136   6.432 -12.808  0.00  0.00     0.275 C 
ATOM     12  C   UNL d   1       5.858   6.131 -12.216  0.00  0.00     0.286 C 
ATOM     13  C   UNL d   1       9.537   5.811 -12.793  0.00  0.00     0.155 C 
ENDBRANCH   5   7
BRANCH   3  14
ATOM     14  C   UNL d   1      11.009   1.365 -16.724  0.00  0.00     0.045 A 
ATOM     15  C   UNL d   1      10.142   0.386 -16.310  0.00  0.00     0.124 A 
ATOM     16  O   UNL d   1      10.257  -0.713 -17.109  0.00  0.00    -0.303 OA
ATOM     17  C   UNL d   1      11.207  -0.414 -18.043  0.00  0.00     0.123 A 
ATOM     18  C   UNL d   1      11.702   0.845 -17.852  0.00  0.00     0.030 A 
ENDBRANCH   3  14
BRANCH   1  19
ATOM     19  C   UNL d   1      13.176   5.935 -16.236  0.00  0.00     0.046 C 
ATOM     20  C   UNL d   1      12.745   6.704 -17.490  0.00  0.00     0.007 C 
ENDBRANCH   1  19
TORSDOF 3
