REMARK  9 active torsions:
REMARK  status: ('A' for Active; 'I' for Inactive)
REMARK    1  A    between atoms: O_2  and  C_3 
REMARK    2  A    between atoms: C_8  and  N_9 
REMARK    3  A    between atoms: N_12  and  C_13 
REMARK    4  A    between atoms: C_13  and  C_14 
REMARK    5  A    between atoms: C_14  and  C_15 
REMARK    6  A    between atoms: C_15  and  C_16 
REMARK    7  A    between atoms: C_16  and  N_17 
REMARK       I    between atoms: N_17  and  C_18 
REMARK    8  A    between atoms: C_18  and  C_20 
REMARK    9  A    between atoms: C_21  and  C_22 
ROOT
ATOM      1  C   UNL d   1       6.117   0.933 -16.187  0.00  0.00     0.029 C 
ENDROOT
BRANCH   1   2
ATOM      2  C   UNL d   1       6.858   1.338 -14.909  0.00  0.00     0.037 C 
BRANCH   2   3
ATOM      3  C   UNL d   1       6.383   2.713 -14.417  0.00  0.00     0.251 C 
BRANCH   3   4
ATOM      4  N   UNL d   1       7.160   3.247 -13.297  0.00  0.00     0.141 N 
ATOM      5  C   UNL d   1       6.436   4.322 -12.620  0.00  0.00     0.274 C 
ATOM      6  C   UNL d   1       7.174   4.674 -11.318  0.00  0.00     0.137 C 
ATOM      7  N   UNL d   1       8.561   4.963 -11.568  0.00  0.00    -0.343 N 
ATOM      8  C   UNL d   1       9.338   4.049 -12.366  0.00  0.00     0.137 C 
ATOM      9  C   UNL d   1       8.539   3.657 -13.630  0.00  0.00     0.274 C 
BRANCH   7  10
ATOM     10  C   UNL d   1       9.118   6.154 -11.120  0.00  0.00     0.079 A 
ATOM     11  C   UNL d   1       8.813   7.351 -11.781  0.00  0.00     0.110 A 
ATOM     12  C   UNL d   1       9.403   8.521 -11.345  0.00  0.00     0.026 A 
ATOM     13  C   UNL d   1      10.318   8.546 -10.258  0.00  0.00     0.002 A 
ATOM     14  C   UNL d   1      10.621   7.325  -9.595  0.00  0.00     0.002 A 
ATOM     15  C   UNL d   1       9.992   6.149 -10.021  0.00  0.00     0.019 A 
BRANCH  11  16
ATOM     16  O   UNL d   1       7.916   7.356 -12.823  0.00  0.00    -0.327 OA
ATOM     17  C   UNL d   1       6.621   7.859 -12.540  0.00  0.00     0.181 C 
ENDBRANCH  11  16
ENDBRANCH   7  10
ENDBRANCH   3   4
ENDBRANCH   2   3
ENDBRANCH   1   2
BRANCH   1  18
ATOM     18  C   UNL d   1       6.627  -0.336 -16.866  0.00  0.00     0.129 C 
BRANCH  18  19
ATOM     19  N   UNL d   1       8.013  -0.249 -17.301  0.00  0.00    -0.234 NA
ATOM     20  C   UNL d   1       8.536   0.591 -18.208  0.00  0.00     0.275 C 
ATOM     21  O   UNL d   1       7.893   1.474 -18.789  0.00  0.00    -0.266 OA
BRANCH  20  22
ATOM     22  C   UNL d   1       9.939   0.290 -18.420  0.00  0.00     0.062 C 
ATOM     23  C   UNL d   1      10.686   1.058 -19.238  0.00  0.00     0.005 C 
BRANCH  23  24
ATOM     24  C   UNL d   1      12.086   0.789 -19.591  0.00  0.00     0.000 A 
ATOM     25  C   UNL d   1      12.831   1.809 -20.220  0.00  0.00     0.000 A 
ATOM     26  C   UNL d   1      14.183   1.597 -20.559  0.00  0.00     0.000 A 
ATOM     27  C   UNL d   1      14.794   0.348 -20.268  0.00  0.00     0.000 A 
ATOM     28  C   UNL d   1      14.943   2.601 -21.192  0.00  0.00     0.000 A 
ATOM     29  C   UNL d   1      14.051  -0.666 -19.647  0.00  0.00     0.000 A 
ATOM     30  C   UNL d   1      16.139   0.118 -20.601  0.00  0.00     0.000 A 
ATOM     31  C   UNL d   1      12.707  -0.450 -19.311  0.00  0.00     0.000 A 
ATOM     32  C   UNL d   1      16.889   1.122 -21.237  0.00  0.00     0.000 A 
ATOM     33  C   UNL d   1      16.292   2.363 -21.534  0.00  0.00     0.000 A 
ENDBRANCH  23  24
ENDBRANCH  20  22
ENDBRANCH  18  19
ENDBRANCH   1  18
TORSDOF 9
