REMARK  8 active torsions:
REMARK  status: ('A' for Active; 'I' for Inactive)
REMARK    1  A    between atoms: O_2  and  C_3 
REMARK    2  A    between atoms: C_9  and  N_10 
REMARK    3  A    between atoms: N_13  and  C_14 
REMARK    4  A    between atoms: C_14  and  C_15 
REMARK    5  A    between atoms: C_15  and  C_17 
REMARK    6  A    between atoms: C_17  and  C_18 
REMARK    7  A    between atoms: C_18  and  N_19 
REMARK       I    between atoms: N_19  and  C_20 
REMARK    8  A    between atoms: C_20  and  C_22 
ROOT
ATOM      1  C   UNL d   1       8.620   7.471 -12.224  0.00  0.00     0.188 C 
ATOM      2  O   UNL d   1       8.253   8.809 -12.029  0.00  0.00    -0.221 OA
ENDROOT
BRANCH   1   3
ATOM      3  C   UNL d   1       7.324   6.686 -12.494  0.00  0.00     0.283 C 
BRANCH   3   4
ATOM      4  N   UNL d   1       7.505   5.259 -12.763  0.00  0.00     0.144 N 
ATOM      5  C   UNL d   1       6.227   4.634 -13.118  0.00  0.00     0.274 C 
ATOM      6  C   UNL d   1       6.334   3.136 -13.377  0.00  0.00     0.137 C 
ATOM      7  N   UNL d   1       7.435   2.824 -14.306  0.00  0.00    -0.343 N 
ATOM      8  C   UNL d   1       8.722   3.454 -13.999  0.00  0.00     0.137 C 
ATOM      9  C   UNL d   1       8.516   4.957 -13.786  0.00  0.00     0.274 C 
BRANCH   7  10
ATOM     10  C   UNL d   1       7.278   1.986 -15.431  0.00  0.00     0.080 A 
ATOM     11  C   UNL d   1       6.374   0.882 -15.452  0.00  0.00     0.120 A 
ATOM     12  C   UNL d   1       6.172   0.144 -16.635  0.00  0.00     0.081 A 
ATOM     13 CL   UNL d   1       5.040  -1.152 -16.648  0.00  0.00    -0.080 Cl
ATOM     14  C   UNL d   1       6.886   0.466 -17.799  0.00  0.00     0.013 A 
ATOM     15  C   UNL d   1       7.797   1.530 -17.798  0.00  0.00     0.003 A 
ATOM     16  C   UNL d   1       7.995   2.280 -16.627  0.00  0.00     0.019 A 
BRANCH  11  17
ATOM     17  O   UNL d   1       5.660   0.526 -14.340  0.00  0.00    -0.326 OA
ATOM     18  C   UNL d   1       6.396  -0.300 -13.470  0.00  0.00     0.181 C 
ENDBRANCH  11  17
ENDBRANCH   7  10
ENDBRANCH   3   4
ENDBRANCH   1   3
BRANCH   1  19
ATOM     19  C   UNL d   1       9.491   6.993 -11.037  0.00  0.00     0.061 C 
BRANCH  19  20
ATOM     20  C   UNL d   1       8.780   6.212  -9.909  0.00  0.00     0.132 C 
BRANCH  20  21
ATOM     21  N   UNL d   1       9.063   6.814  -8.630  0.00  0.00    -0.234 NA
ATOM     22  C   UNL d   1      10.063   6.409  -7.855  0.00  0.00     0.276 C 
ATOM     23  O   UNL d   1      10.643   5.372  -8.072  0.00  0.00    -0.266 OA
BRANCH  22  24
ATOM     24  C   UNL d   1      10.449   7.258  -6.692  0.00  0.00     0.077 A 
ATOM     25  C   UNL d   1      11.107   6.685  -5.581  0.00  0.00     0.008 A 
ATOM     26  C   UNL d   1      11.482   7.516  -4.519  0.00  0.00     0.018 A 
ATOM     27  C   UNL d   1      11.239   8.907  -4.637  0.00  0.00     0.081 A 
ATOM     28  C   UNL d   1      12.086   6.963  -3.367  0.00  0.00     0.002 A 
ATOM     29  N   UNL d   1      10.663   9.463  -5.723  0.00  0.00    -0.244 NA
ATOM     30  C   UNL d   1      11.569   9.716  -3.548  0.00  0.00     0.019 A 
ATOM     31  C   UNL d   1      10.261   8.646  -6.716  0.00  0.00     0.104 A 
ATOM     32  C   UNL d   1      12.170   9.186  -2.398  0.00  0.00     0.002 A 
ATOM     33  C   UNL d   1      12.429   7.806  -2.303  0.00  0.00     0.000 A 
ENDBRANCH  22  24
ENDBRANCH  20  21
ENDBRANCH  19  20
ENDBRANCH   1  19
TORSDOF 8
