REMARK  3 active torsions:
REMARK  status: ('A' for Active; 'I' for Inactive)
REMARK    1  A    between atoms: O_2  and  C_3 
REMARK    2  A    between atoms: C_10  and  C_11 
REMARK       I    between atoms: C_11  and  N_13 
REMARK    3  A    between atoms: N_13  and  C_14 
ROOT
ATOM      1  C   UNL d   1       9.020   6.393 -11.413  0.00  0.00     0.277 C 
ATOM      2  O   UNL d   1       9.455   7.381 -11.992  0.00  0.00    -0.266 OA
ATOM      3  N   UNL d   1       9.005   6.197 -10.081  0.00  0.00    -0.236 NA
ENDROOT
BRANCH   1   4
ATOM      4  C   UNL d   1       8.494   5.265 -12.249  0.00  0.00     0.081 A 
ATOM      5  C   UNL d   1       9.330   4.701 -13.259  0.00  0.00     0.100 A 
ATOM      6  C   UNL d   1       8.807   3.674 -14.081  0.00  0.00     0.039 A 
ATOM      7  C   UNL d   1       7.475   3.250 -13.908  0.00  0.00     0.083 A 
ATOM      8  N   UNL d   1       7.008   2.222 -14.714  0.00  0.00    -0.100 NA
ATOM      9  C   UNL d   1       6.655   3.825 -12.920  0.00  0.00     0.071 A 
ATOM     10 CL   UNL d   1       5.053   3.261 -12.736  0.00  0.00    -0.081 Cl
ATOM     11  C   UNL d   1       7.174   4.824 -12.073  0.00  0.00     0.019 A 
BRANCH   5  12
ATOM     12  O   UNL d   1      10.617   5.168 -13.401  0.00  0.00    -0.328 OA
ATOM     13  C   UNL d   1      11.483   4.568 -14.357  0.00  0.00     0.181 C 
ENDBRANCH   5  12
ENDBRANCH   1   4
BRANCH   3  14
ATOM     14  C   UNL d   1      10.148   6.434  -9.171  0.00  0.00     0.111 C 
ATOM     15  C   UNL d   1      10.938   7.753  -9.236  0.00  0.00     0.058 C 
ATOM     16  C   UNL d   1      11.641   7.864  -7.851  0.00  0.00     0.037 C 
ATOM     17  C   UNL d   1       9.936   8.909  -9.190  0.00  0.00     0.252 C 
ATOM     18  C   UNL d   1      11.199   6.618  -7.061  0.00  0.00     0.006 C 
ATOM     19  C   UNL d   1      10.927   9.055  -7.196  0.00  0.00     0.250 C 
ATOM     20  C   UNL d   1       9.813   6.434  -7.676  0.00  0.00     0.056 C 
ATOM     21  C   UNL d   1       8.945   7.682  -7.325  0.00  0.00     0.252 C 
ATOM     22  N   UNL d   1       9.592   8.959  -7.764  0.00  0.00     0.137 N 
ENDBRANCH   3  14
TORSDOF 3
