REMARK  6 active torsions:
REMARK  status: ('A' for Active; 'I' for Inactive)
REMARK    1  A    between atoms: C_2  and  C_3 
REMARK    2  A    between atoms: C_3  and  N_5 
REMARK    3  A    between atoms: N_5  and  C_6 
REMARK    4  A    between atoms: C_12  and  C_13 
REMARK    5  A    between atoms: C_17  and  O_18 
REMARK    6  A    between atoms: C_21  and  O_22 
ROOT
ATOM      1  C   UNL d   1       8.119   5.070 -12.082  0.00  0.00     0.749 A 
ATOM      2  N   UNL d   1       6.925   4.584 -12.063  0.00  0.00    -0.045 NA
ATOM      3  C   UNL d   1       6.588   3.638 -13.014  0.00  0.00     0.160 A 
ATOM      4  C   UNL d   1       5.253   2.945 -12.909  0.00  0.00     0.074 C 
ATOM      5  N   UNL d   1       7.401   3.236 -13.989  0.00  0.00    -0.211 NA
ATOM      6  C   UNL d   1       8.635   3.760 -14.011  0.00  0.00     0.184 A 
ATOM      7  C   UNL d   1       9.716   3.614 -14.834  0.00  0.00     0.053 A 
ATOM      8  C   UNL d   1      10.694   4.518 -14.351  0.00  0.00     0.083 A 
ATOM      9  C   UNL d   1      12.043   4.761 -14.906  0.00  0.00     0.054 C 
ATOM     10  N   UNL d   1      10.276   5.182 -13.280  0.00  0.00    -0.153 NA
ATOM     11  N   UNL d   1       9.017   4.703 -13.042  0.00  0.00    -0.040 N 
ENDROOT
BRANCH   7  12
ATOM     12  C   UNL d   1       9.840   2.760 -16.015  0.00  0.00     0.023 A 
ATOM     13  C   UNL d   1       9.706   3.323 -17.306  0.00  0.00     0.096 A 
ATOM     14  C   UNL d   1       9.836   2.482 -18.442  0.00  0.00     0.048 A 
ATOM     15  C   UNL d   1      10.098   1.096 -18.295  0.00  0.00     0.096 A 
ATOM     16  C   UNL d   1      10.239   0.561 -17.004  0.00  0.00     0.020 A 
ATOM     17  C   UNL d   1      10.117   1.383 -15.869  0.00  0.00    -0.018 A 
ATOM     18  C   UNL d   1      10.287   0.773 -14.496  0.00  0.00     0.031 C 
BRANCH  13  19
ATOM     19  O   UNL d   1       9.460   4.679 -17.385  0.00  0.00    -0.328 OA
ATOM     20  C   UNL d   1       9.331   5.282 -18.667  0.00  0.00     0.181 C 
ENDBRANCH  13  19
BRANCH  15  21
ATOM     21  O   UNL d   1      10.227   0.209 -19.346  0.00  0.00    -0.328 OA
ATOM     22  C   UNL d   1      10.059   0.708 -20.660  0.00  0.00     0.181 C 
ENDBRANCH  15  21
ENDBRANCH   7  12
BRANCH   1  23
ATOM     23  N   UNL d   1       8.459   6.067 -11.146  0.00  0.00    -0.088 NA
BRANCH  23  24
ATOM     24  C   UNL d   1       9.488   5.751 -10.169  0.00  0.00     0.122 C 
ATOM     25  C   UNL d   1       8.923   5.023  -8.909  0.00  0.00     0.027 C 
BRANCH  24  26
ATOM     26  C   UNL d   1      10.296   7.038  -9.841  0.00  0.00     0.025 C 
ATOM     27  C   UNL d   1       9.783   7.897  -8.664  0.00  0.00     0.002 C 
ENDBRANCH  24  26
ENDBRANCH  23  24
ENDBRANCH   1  23
TORSDOF 6
