REMARK  7 active torsions:
REMARK  status: ('A' for Active; 'I' for Inactive)
REMARK    1  A    between atoms: C_2  and  C_3 
REMARK       I    between atoms: C_2  and  N_11 
REMARK    2  A    between atoms: C_14  and  C_16 
REMARK    3  A    between atoms: C_16  and  N_17 
REMARK    4  A    between atoms: N_17  and  C_18 
REMARK    5  A    between atoms: C_18  and  C_19 
REMARK    6  A    between atoms: C_19  and  S_20 
REMARK    7  A    between atoms: S_20  and  C_21 
ROOT
ATOM      1  O   UNL d   1       5.862   2.379 -13.853  0.00  0.00    -0.267 OA
ATOM      2  C   UNL d   1       7.037   2.724 -14.056  0.00  0.00     0.257 C 
ATOM      3  N   UNL d   1       7.585   3.858 -13.515  0.00  0.00    -0.317 N 
ATOM      4  C   UNL d   1       6.756   4.783 -12.715  0.00  0.00     0.107 C 
ATOM      5  C   UNL d   1       7.374   5.016 -11.337  0.00  0.00     0.059 C 
ATOM      6  C   UNL d   1       8.845   5.463 -11.422  0.00  0.00     0.172 C 
ATOM      7  F   UNL d   1       8.921   6.652 -12.029  0.00  0.00    -0.238 F 
ATOM      8  C   UNL d   1       9.631   4.485 -12.313  0.00  0.00     0.059 C 
ATOM      9  C   UNL d   1       8.972   4.339 -13.704  0.00  0.00     0.107 C 
ENDROOT
BRANCH   6  10
ATOM     10  C   UNL d   1       9.454   5.554 -10.005  0.00  0.00     0.322 C 
BRANCH  10  11
ATOM     11  N   UNL d   1       9.067   6.779  -9.335  0.00  0.00     0.343 N 
BRANCH  11  12
ATOM     12  C   UNL d   1       9.074   6.600  -7.901  0.00  0.00     0.302 C 
BRANCH  12  13
ATOM     13  C   UNL d   1       8.944   7.968  -7.220  0.00  0.00     0.100 C 
BRANCH  13  14
ATOM     14  S   UNL d   1      10.533   8.835  -7.079  0.00  0.00    -0.112 SA
BRANCH  14  15
ATOM     15  C   UNL d   1      11.139   8.516  -5.454  0.00  0.00     0.025 A 
ATOM     16  C   UNL d   1      11.386   7.196  -5.021  0.00  0.00     0.006 A 
ATOM     17  C   UNL d   1      11.868   6.967  -3.716  0.00  0.00     0.001 A 
ATOM     18  C   UNL d   1      12.111   8.049  -2.848  0.00  0.00     0.000 A 
ATOM     19  C   UNL d   1      11.864   9.365  -3.283  0.00  0.00     0.001 A 
ATOM     20  C   UNL d   1      11.382   9.595  -4.585  0.00  0.00     0.006 A 
ENDBRANCH  14  15
ENDBRANCH  13  14
ENDBRANCH  12  13
ENDBRANCH  11  12
ENDBRANCH  10  11
ENDBRANCH   6  10
BRANCH   2  21
ATOM     21  C   UNL d   1       7.867   1.891 -14.996  0.00  0.00     0.057 A 
ATOM     22  C   UNL d   1       7.387   1.587 -16.289  0.00  0.00     0.018 A 
ATOM     23  C   UNL d   1       8.172   0.845 -17.196  0.00  0.00     0.085 A 
ATOM     24  C   UNL d   1       9.452   0.394 -16.808  0.00  0.00     0.151 A 
ATOM     25 CL   UNL d   1       7.563   0.508 -18.778  0.00  0.00    -0.080 Cl
ATOM     26  C   UNL d   1       9.936   0.678 -15.524  0.00  0.00     0.031 A 
ATOM     27  F   UNL d   1      10.235  -0.290 -17.688  0.00  0.00    -0.203 F 
ATOM     28  C   UNL d   1       9.136   1.412 -14.615  0.00  0.00     0.007 A 
ENDBRANCH   2  21
TORSDOF 7
