REMARK  6 active torsions:
REMARK  status: ('A' for Active; 'I' for Inactive)
REMARK    1  A    between atoms: C_5  and  O_6 
REMARK    2  A    between atoms: O_6  and  C_7 
REMARK    3  A    between atoms: C_7  and  C_8 
REMARK    4  A    between atoms: C_8  and  N_9 
REMARK    5  A    between atoms: N_9  and  C_10 
REMARK    6  A    between atoms: C_10  and  C_11 
ROOT
ATOM      1  O   UNL d   1       6.264   1.441 -14.524  0.00  0.00    -0.327 OA
ENDROOT
BRANCH   1   2
ATOM      2  C   UNL d   1       5.521   0.407 -15.053  0.00  0.00     0.113 A 
ATOM      3  C   UNL d   1       5.861  -0.051 -16.352  0.00  0.00     0.123 A 
ATOM      4  N   UNL d   1       6.901   0.344 -17.192  0.00  0.00    -0.217 NA
ATOM      5  C   UNL d   1       5.076  -1.076 -16.962  0.00  0.00     0.103 A 
ATOM      6  C   UNL d   1       6.732  -0.436 -18.256  0.00  0.00     0.201 A 
ATOM      7  S   UNL d   1       7.834  -0.438 -19.690  0.00  0.00    -0.009 SA
ATOM      8  N   UNL d   1       5.678  -1.276 -18.183  0.00  0.00    -0.219 NA
ATOM      9  C   UNL d   1       3.933  -1.614 -16.341  0.00  0.00     0.021 A 
ATOM     10  C   UNL d   1       3.591  -1.127 -15.065  0.00  0.00     0.004 A 
ATOM     11  C   UNL d   1       4.354  -0.120 -14.435  0.00  0.00     0.026 A 
ENDBRANCH   1   2
BRANCH   1  12
ATOM     12  C   UNL d   1       5.801   2.124 -13.364  0.00  0.00     0.187 C 
BRANCH  12  13
ATOM     13  C   UNL d   1       6.756   3.274 -13.138  0.00  0.00     0.323 C 
BRANCH  13  14
ATOM     14  N   UNL d   1       6.414   3.861 -11.848  0.00  0.00     0.347 N 
BRANCH  14  15
ATOM     15  C   UNL d   1       7.564   4.505 -11.257  0.00  0.00     0.317 C 
BRANCH  15  16
ATOM     16  C   UNL d   1       7.789   5.870 -11.802  0.00  0.00     0.014 A 
ATOM     17  C   UNL d   1       9.073   6.425 -11.646  0.00  0.00    -0.002 A 
ATOM     18  C   UNL d   1       9.291   7.759 -11.986  0.00  0.00    -0.000 A 
ATOM     19  C   UNL d   1       8.208   8.528 -12.437  0.00  0.00    -0.000 A 
ATOM     20  C   UNL d   1       6.926   7.963 -12.635  0.00  0.00    -0.000 A 
ATOM     21  C   UNL d   1       6.708   6.630 -12.303  0.00  0.00    -0.002 A 
ENDBRANCH  15  16
ENDBRANCH  14  15
ENDBRANCH  13  14
ENDBRANCH  12  13
ENDBRANCH   1  12
TORSDOF 6
