REMARK  3 active torsions:
REMARK  status: ('A' for Active; 'I' for Inactive)
REMARK    1  A    between atoms: N_3  and  C_4 
REMARK    2  A    between atoms: C_4  and  C_5 
REMARK    3  A    between atoms: N_13  and  C_14 
ROOT
ATOM      1  O   UNL d   1       8.854   5.084  -9.351  0.00  0.00    -0.247 OA
ATOM      2  C   UNL d   1       9.097   6.088 -10.030  0.00  0.00     0.328 A 
ATOM      3  N   UNL d   1       8.713   6.261 -11.302  0.00  0.00    -0.298 N 
ATOM      4  C   UNL d   1       9.072   7.566 -11.834  0.00  0.00     0.131 A 
ATOM      5  C   UNL d   1       9.818   8.206 -10.667  0.00  0.00     0.135 A 
ATOM      6  N   UNL d   1       9.803   7.172  -9.634  0.00  0.00    -0.280 N 
ENDROOT
BRANCH   3   7
ATOM      7  C   UNL d   1       7.939   5.294 -12.073  0.00  0.00     0.142 C 
BRANCH   7   8
ATOM      8  C   UNL d   1       8.751   4.731 -13.245  0.00  0.00     0.279 C 
ATOM      9  N   UNL d   1       8.006   3.612 -13.804  0.00  0.00     0.339 N 
ATOM     10  C   UNL d   1       8.652   3.135 -15.022  0.00  0.00     0.290 C 
ATOM     11  C   UNL d   1      10.067   2.609 -14.724  0.00  0.00     0.038 C 
ATOM     12  C   UNL d   1      10.921   3.702 -14.075  0.00  0.00     0.004 C 
ATOM     13  C   UNL d   1      10.166   4.261 -12.862  0.00  0.00     0.038 C 
ENDBRANCH   7   8
ENDBRANCH   3   7
BRANCH   6  14
ATOM     14  C   UNL d   1      10.342   7.383  -8.331  0.00  0.00     0.065 A 
ATOM     15  C   UNL d   1      10.420   8.674  -7.755  0.00  0.00     0.029 A 
ATOM     16  C   UNL d   1      10.968   8.839  -6.464  0.00  0.00     0.059 A 
ATOM     17  C   UNL d   1      11.458   7.748  -5.733  0.00  0.00     0.011 A 
ATOM     18 CL   UNL d   1      11.059  10.390  -5.725  0.00  0.00    -0.082 Cl
ATOM     19  C   UNL d   1      11.408   6.472  -6.306  0.00  0.00     0.002 A 
ATOM     20  C   UNL d   1      10.847   6.295  -7.582  0.00  0.00     0.017 A 
ENDBRANCH   6  14
TORSDOF 3
