REMARK  1 active torsions:
REMARK  status: ('A' for Active; 'I' for Inactive)
REMARK    1  A    between atoms: O_2  and  C_3 
ROOT
ATOM      1  C   UNL d   1      10.139   0.067 -17.481  0.00  0.00     0.094 A 
ATOM      2  C   UNL d   1      10.142  -0.322 -16.143  0.00  0.00     0.024 A 
ATOM      3  C   UNL d   1      10.046   0.622 -15.102  0.00  0.00    -0.000 A 
ATOM      4  C   UNL d   1       9.958   2.013 -15.392  0.00  0.00     0.009 A 
ATOM      5  C   UNL d   1       9.950   2.413 -16.747  0.00  0.00    -0.022 A 
ATOM      6  C   UNL d   1      10.040   1.447 -17.782  0.00  0.00     0.020 A 
ATOM      7  C   UNL d   1       9.859   3.849 -17.213  0.00  0.00     0.028 C 
ATOM      8  C   UNL d   1      10.926   4.708 -16.580  0.00  0.00     0.040 C 
ATOM      9  C   UNL d   1      10.466   5.180 -15.210  0.00  0.00     0.252 C 
ATOM     10  N   UNL d   1      10.655   4.208 -14.125  0.00  0.00     0.147 N 
ATOM     11  C   UNL d   1      10.046   4.840 -12.933  0.00  0.00     0.277 C 
ATOM     12  C   UNL d   1       8.582   4.527 -13.027  0.00  0.00     0.009 A 
ATOM     13  C   UNL d   1       7.491   5.162 -12.419  0.00  0.00    -0.003 A 
ATOM     14  C   UNL d   1       6.215   4.614 -12.664  0.00  0.00    -0.000 A 
ATOM     15  C   UNL d   1       6.061   3.471 -13.489  0.00  0.00    -0.000 A 
ATOM     16  C   UNL d   1       7.183   2.847 -14.088  0.00  0.00    -0.002 A 
ATOM     17  C   UNL d   1       8.443   3.411 -13.826  0.00  0.00     0.011 A 
ATOM     18  C   UNL d   1       9.832   2.975 -14.206  0.00  0.00     0.264 C 
ENDROOT
BRANCH   1  19
ATOM     19  O   UNL d   1      10.239  -0.916 -18.438  0.00  0.00    -0.328 OA
ATOM     20  C   UNL d   1      10.227  -0.524 -19.799  0.00  0.00     0.181 C 
ENDBRANCH   1  19
TORSDOF 1
