REMARK  1 active torsions:
REMARK  status: ('A' for Active; 'I' for Inactive)
REMARK    1  A    between atoms: O_2  and  C_3 
ROOT
ATOM      1  C   UNL d   1       8.929   4.821 -13.501  0.00  0.00     0.094 A 
ATOM      2  C   UNL d   1       9.656   4.090 -14.444  0.00  0.00     0.024 A 
ATOM      3  C   UNL d   1       9.157   2.896 -15.004  0.00  0.00    -0.001 A 
ATOM      4  C   UNL d   1       7.878   2.415 -14.615  0.00  0.00     0.005 A 
ATOM      5  C   UNL d   1       7.147   3.151 -13.655  0.00  0.00    -0.020 A 
ATOM      6  C   UNL d   1       7.650   4.348 -13.102  0.00  0.00     0.020 A 
ATOM      7  C   UNL d   1       5.813   2.670 -13.166  0.00  0.00     0.061 C 
ATOM      8  C   UNL d   1       5.607   1.178 -13.427  0.00  0.00     0.256 C 
ATOM      9  N   UNL d   1       5.871   0.910 -14.835  0.00  0.00     0.144 N 
ATOM     10  C   UNL d   1       5.454  -0.451 -15.153  0.00  0.00     0.277 C 
ATOM     11  C   UNL d   1       5.717  -0.832 -16.593  0.00  0.00     0.007 A 
ATOM     12  C   UNL d   1       5.031  -1.920 -17.163  0.00  0.00    -0.003 A 
ATOM     13  C   UNL d   1       5.316  -2.309 -18.485  0.00  0.00    -0.000 A 
ATOM     14  C   UNL d   1       6.288  -1.616 -19.233  0.00  0.00    -0.000 A 
ATOM     15  C   UNL d   1       6.974  -0.527 -18.663  0.00  0.00    -0.004 A 
ATOM     16  C   UNL d   1       6.692  -0.135 -17.339  0.00  0.00    -0.022 A 
ATOM     17  C   UNL d   1       7.417   1.047 -16.714  0.00  0.00     0.064 C 
ATOM     18  C   UNL d   1       7.295   1.104 -15.168  0.00  0.00     0.246 C 
ENDROOT
BRANCH   1  19
ATOM     19  O   UNL d   1       9.503   5.962 -12.981  0.00  0.00    -0.328 OA
ATOM     20  C   UNL d   1       8.751   6.701 -12.024  0.00  0.00     0.181 C 
ENDBRANCH   1  19
TORSDOF 1
