REMARK  10 active torsions:
REMARK  status: ('A' for Active; 'I' for Inactive)
REMARK    1  A    between atoms: O_2  and  C_3 
REMARK    2  A    between atoms: C_8  and  N_9 
REMARK    3  A    between atoms: N_12  and  C_13 
REMARK    4  A    between atoms: C_13  and  C_14 
REMARK    5  A    between atoms: C_14  and  C_15 
REMARK    6  A    between atoms: C_15  and  N_16 
REMARK       I    between atoms: N_16  and  C_17 
REMARK       I    between atoms: C_17  and  N_19 
REMARK    7  A    between atoms: N_19  and  N_20 
REMARK    8  A    between atoms: N_20  and  C_21 
REMARK    9  A    between atoms: N_20  and  C_28 
REMARK   10  A    between atoms: C_21  and  C_22 
ROOT
ATOM      1  N   UNL d   1       8.059   4.338 -12.120  0.00  0.00    -0.216 NA
ATOM      2  C   UNL d   1       8.283   4.230 -13.436  0.00  0.00     0.381 C 
ATOM      3  O   UNL d   1       8.328   5.187 -14.204  0.00  0.00    -0.241 OA
ATOM      4  N   UNL d   1       8.416   2.952 -13.829  0.00  0.00    -0.110 NA
ENDROOT
BRANCH   1   5
ATOM      5  C   UNL d   1       8.101   5.555 -11.329  0.00  0.00     0.133 C 
BRANCH   5   6
ATOM      6  C   UNL d   1       9.551   6.068 -11.264  0.00  0.00     0.062 C 
BRANCH   6   7
ATOM      7  C   UNL d   1       9.737   7.311 -10.373  0.00  0.00     0.253 C 
BRANCH   7   8
ATOM      8  N   UNL d   1       9.572   7.019  -8.960  0.00  0.00     0.141 N 
ATOM      9  C   UNL d   1      10.803   6.428  -8.465  0.00  0.00     0.274 C 
ATOM     10  C   UNL d   1      10.687   6.055  -7.000  0.00  0.00     0.137 C 
ATOM     11  N   UNL d   1      10.296   7.181  -6.195  0.00  0.00    -0.343 N 
ATOM     12  C   UNL d   1       9.125   7.892  -6.702  0.00  0.00     0.137 C 
ATOM     13  C   UNL d   1       9.378   8.254  -8.182  0.00  0.00     0.274 C 
BRANCH  11  14
ATOM     14  C   UNL d   1      11.071   7.588  -5.100  0.00  0.00     0.079 A 
ATOM     15  C   UNL d   1      11.461   8.934  -4.955  0.00  0.00     0.110 A 
ATOM     16  C   UNL d   1      12.136   9.349  -3.769  0.00  0.00     0.026 A 
ATOM     17  C   UNL d   1      12.509   8.415  -2.792  0.00  0.00     0.002 A 
ATOM     18  C   UNL d   1      12.191   7.062  -2.968  0.00  0.00     0.002 A 
ATOM     19  C   UNL d   1      11.476   6.657  -4.120  0.00  0.00     0.019 A 
BRANCH  15  20
ATOM     20  O   UNL d   1      11.146   9.750  -6.017  0.00  0.00    -0.327 OA
ATOM     21  C   UNL d   1      11.749  11.011  -6.063  0.00  0.00     0.181 C 
ENDBRANCH  15  20
ENDBRANCH  11  14
ENDBRANCH   7   8
ENDBRANCH   6   7
ENDBRANCH   5   6
ENDBRANCH   1   5
BRANCH   4  22
ATOM     22  N   UNL d   1       8.151   2.541 -15.133  0.00  0.00    -0.243 N 
BRANCH  22  23
ATOM     23  C   UNL d   1       6.729   2.324 -15.370  0.00  0.00     0.154 C 
BRANCH  23  24
ATOM     24  C   UNL d   1       6.261   0.884 -15.324  0.00  0.00     0.002 A 
ATOM     25  C   UNL d   1       6.428   0.125 -14.149  0.00  0.00    -0.002 A 
ATOM     26  C   UNL d   1       5.993  -1.208 -14.114  0.00  0.00    -0.000 A 
ATOM     27  C   UNL d   1       5.355  -1.774 -15.237  0.00  0.00    -0.000 A 
ATOM     28  C   UNL d   1       5.168  -1.014 -16.400  0.00  0.00    -0.000 A 
ATOM     29  C   UNL d   1       5.612   0.316 -16.443  0.00  0.00    -0.002 A 
ENDBRANCH  23  24
ENDBRANCH  22  23
BRANCH  22  30
ATOM     30  C   UNL d   1       9.131   2.000 -15.992  0.00  0.00     0.079 A 
ATOM     31  C   UNL d   1      10.499   2.070 -15.646  0.00  0.00     0.019 A 
ATOM     32  C   UNL d   1      11.483   1.514 -16.489  0.00  0.00     0.008 A 
ATOM     33  C   UNL d   1      11.112   0.865 -17.686  0.00  0.00     0.035 A 
ATOM     34  C   UNL d   1       9.757   0.801 -18.048  0.00  0.00     0.008 A 
ATOM     35 BR   UNL d   1      12.408   0.091 -18.844  0.00  0.00    -0.049 Br
ATOM     36  C   UNL d   1       8.780   1.387 -17.224  0.00  0.00     0.019 A 
ENDBRANCH  22  30
ENDBRANCH   4  22
TORSDOF 10
