REMARK  3 active torsions:
REMARK  status: ('A' for Active; 'I' for Inactive)
REMARK    1  A    between atoms: N_7  and  C_8 
REMARK    2  A    between atoms: C_8  and  C_9 
REMARK    3  A    between atoms: C_19  and  C_20 
ROOT
ATOM      1  O   UNL d   1      10.888   4.420 -13.236  0.00  0.00    -0.291 OA
ATOM      2  C   UNL d   1      10.878   3.968 -14.377  0.00  0.00     0.177 C 
ATOM      3  C   UNL d   1      12.200   3.819 -15.089  0.00  0.00     0.097 C 
ATOM      4  C   UNL d   1      12.043   4.192 -16.567  0.00  0.00     0.110 C 
ATOM      5  C   UNL d   1      11.724   5.695 -16.730  0.00  0.00     0.064 C 
ATOM      6  C   UNL d   1      11.758   6.119 -18.202  0.00  0.00     0.253 C 
ATOM      7  N   UNL d   1      13.078   5.854 -18.774  0.00  0.00     0.141 N 
ATOM      8  C   UNL d   1      13.369   4.425 -18.749  0.00  0.00     0.253 C 
ATOM      9  C   UNL d   1      13.372   3.911 -17.300  0.00  0.00     0.064 C 
ATOM     10  O   UNL d   1      11.003   3.404 -17.147  0.00  0.00    -0.333 OA
ATOM     11  C   UNL d   1       9.822   3.298 -16.432  0.00  0.00     0.119 C 
ATOM     12  C   UNL d   1       9.661   3.606 -15.119  0.00  0.00     0.059 C 
ENDROOT
BRANCH  12  13
ATOM     13  C   UNL d   1       8.352   3.507 -14.428  0.00  0.00     0.005 A 
ATOM     14  C   UNL d   1       7.928   4.553 -13.572  0.00  0.00     0.000 A 
ATOM     15  C   UNL d   1       6.689   4.488 -12.904  0.00  0.00     0.000 A 
ATOM     16  C   UNL d   1       5.854   3.373 -13.102  0.00  0.00     0.000 A 
ATOM     17  C   UNL d   1       6.259   2.337 -13.965  0.00  0.00     0.000 A 
ATOM     18  C   UNL d   1       7.495   2.395 -14.629  0.00  0.00     0.000 A 
ENDBRANCH  12  13
BRANCH   7  19
ATOM     19  C   UNL d   1      13.116   6.359 -20.146  0.00  0.00     0.277 C 
BRANCH  19  20
ATOM     20  C   UNL d   1      13.644   7.781 -20.275  0.00  0.00     0.011 A 
ATOM     21  C   UNL d   1      13.547   8.438 -21.521  0.00  0.00    -0.002 A 
ATOM     22  C   UNL d   1      14.059   9.741 -21.679  0.00  0.00    -0.000 A 
ATOM     23  C   UNL d   1      14.670  10.395 -20.593  0.00  0.00    -0.000 A 
ATOM     24  C   UNL d   1      14.775   9.748 -19.349  0.00  0.00    -0.000 A 
ATOM     25  C   UNL d   1      14.270   8.445 -19.191  0.00  0.00    -0.002 A 
ENDBRANCH  19  20
ENDBRANCH   7  19
TORSDOF 3
