REMARK  8 active torsions:
REMARK  status: ('A' for Active; 'I' for Inactive)
REMARK    1  A    between atoms: O_2  and  C_3 
REMARK    2  A    between atoms: C_6  and  N_7 
REMARK       I    between atoms: N_7  and  C_8 
REMARK       I    between atoms: C_8  and  N_10 
REMARK    3  A    between atoms: N_10  and  C_11 
REMARK    4  A    between atoms: C_14  and  N_15 
REMARK    5  A    between atoms: N_18  and  C_19 
REMARK    6  A    between atoms: C_24  and  O_25 
REMARK    7  A    between atoms: O_25  and  C_26 
REMARK    8  A    between atoms: C_33  and  O_34 
ROOT
ATOM      1  C   UNL d   1       8.576   4.561 -12.713  0.00  0.00     0.108 C 
ATOM      2  C   UNL d   1       9.321   3.229 -12.813  0.00  0.00     0.026 C 
ATOM      3  C   UNL d   1      10.621   3.314 -13.608  0.00  0.00     0.035 C 
ATOM      4  C   UNL d   1      10.346   3.790 -15.042  0.00  0.00     0.220 C 
ATOM      5  C   UNL d   1       9.666   5.156 -14.929  0.00  0.00     0.035 C 
ATOM      6  C   UNL d   1       8.355   5.119 -14.104  0.00  0.00     0.026 C 
ENDROOT
BRANCH   4   7
ATOM      7  N   UNL d   1       9.550   2.831 -15.827  0.00  0.00     0.139 N 
ATOM      8  C   UNL d   1       9.334   3.287 -17.215  0.00  0.00     0.274 C 
ATOM      9  C   UNL d   1       8.366   2.343 -17.948  0.00  0.00     0.137 C 
ATOM     10  N   UNL d   1       8.843   0.984 -17.869  0.00  0.00    -0.343 N 
ATOM     11  C   UNL d   1       9.257   0.484 -16.578  0.00  0.00     0.137 C 
ATOM     12  C   UNL d   1      10.175   1.493 -15.883  0.00  0.00     0.274 C 
BRANCH  10  13
ATOM     13  C   UNL d   1       9.083   0.251 -19.040  0.00  0.00     0.079 A 
ATOM     14  C   UNL d   1      10.328   0.317 -19.714  0.00  0.00     0.109 A 
ATOM     15  C   UNL d   1      10.483  -0.442 -20.902  0.00  0.00     0.026 A 
ATOM     16  C   UNL d   1       9.451  -1.287 -21.355  0.00  0.00     0.002 A 
ATOM     17  C   UNL d   1       8.225  -1.350 -20.670  0.00  0.00     0.002 A 
ATOM     18  C   UNL d   1       8.042  -0.569 -19.516  0.00  0.00     0.019 A 
BRANCH  14  19
ATOM     19  O   UNL d   1      11.324   1.113 -19.173  0.00  0.00    -0.332 OA
BRANCH  19  20
ATOM     20  C   UNL d   1      12.634   1.085 -19.735  0.00  0.00     0.122 C 
ATOM     21  C   UNL d   1      13.329  -0.269 -19.483  0.00  0.00     0.033 C 
ATOM     22  C   UNL d   1      13.449   2.218 -19.081  0.00  0.00     0.033 C 
ENDBRANCH  19  20
ENDBRANCH  14  19
ENDBRANCH  10  13
ENDBRANCH   4   7
BRANCH   1  23
ATOM     23  N   UNL d   1       9.330   5.541 -11.950  0.00  0.00    -0.219 NA
ATOM     24  C   UNL d   1       9.364   5.620 -10.624  0.00  0.00     0.364 C 
ATOM     25  N   UNL d   1      10.113   6.658 -10.230  0.00  0.00    -0.189 NA
ATOM     26  O   UNL d   1       8.816   4.801  -9.887  0.00  0.00    -0.243 OA
BRANCH  25  27
ATOM     27  C   UNL d   1      10.414   7.084  -8.921  0.00  0.00     0.108 A 
ATOM     28  C   UNL d   1       9.673   6.691  -7.792  0.00  0.00     0.023 A 
ATOM     29  C   UNL d   1      10.030   7.154  -6.514  0.00  0.00     0.026 A 
ATOM     30  C   UNL d   1      11.139   8.016  -6.354  0.00  0.00     0.096 A 
ATOM     31  C   UNL d   1      11.857   8.441  -7.494  0.00  0.00     0.050 A 
ATOM     32  C   UNL d   1      11.511   7.964  -8.777  0.00  0.00     0.114 A 
BRANCH  30  33
ATOM     33  O   UNL d   1      11.521   8.496  -5.126  0.00  0.00    -0.328 OA
ATOM     34  C   UNL d   1      11.707   7.498  -4.122  0.00  0.00     0.181 C 
ENDBRANCH  30  33
BRANCH  32  35
ATOM     35  O   UNL d   1      12.176   8.371  -9.912  0.00  0.00    -0.327 OA
ATOM     36  C   UNL d   1      13.545   7.998 -10.016  0.00  0.00     0.181 C 
ENDBRANCH  32  35
ENDBRANCH  25  27
ENDBRANCH   1  23
TORSDOF 8
