REMARK  6 active torsions:
REMARK  status: ('A' for Active; 'I' for Inactive)
REMARK    1  A    between atoms: C_2  and  C_3 
REMARK       I    between atoms: C_3  and  N_5 
REMARK    2  A    between atoms: N_5  and  C_6 
REMARK    3  A    between atoms: C_9  and  C_10 
REMARK    4  A    between atoms: C_10  and  C_11 
REMARK    5  A    between atoms: C_11  and  N_12 
REMARK    6  A    between atoms: N_15  and  C_16 
ROOT
ATOM      1  N   UNL d   1       9.459   6.622 -12.538  0.00  0.00     0.141 N 
ATOM      2  C   UNL d   1       9.937   5.479 -13.345  0.00  0.00     0.274 C 
ATOM      3  C   UNL d   1       9.396   4.171 -12.767  0.00  0.00     0.137 C 
ATOM      4  N   UNL d   1       7.938   4.274 -12.782  0.00  0.00    -0.343 N 
ATOM      5  C   UNL d   1       7.330   5.420 -12.093  0.00  0.00     0.137 C 
ATOM      6  C   UNL d   1       8.007   6.710 -12.626  0.00  0.00     0.274 C 
ENDROOT
BRANCH   1   7
ATOM      7  C   UNL d   1       9.964   6.618 -11.155  0.00  0.00     0.250 C 
BRANCH   7   8
ATOM      8  C   UNL d   1       9.757   7.979 -10.522  0.00  0.00     0.035 C 
BRANCH   8   9
ATOM      9  C   UNL d   1      10.238   7.929  -9.053  0.00  0.00     0.002 C 
ATOM     10  C   UNL d   1      11.624   8.586  -8.954  0.00  0.00     0.002 C 
ATOM     11  C   UNL d   1      12.109   8.626  -7.511  0.00  0.00     0.024 C 
ATOM     12  C   UNL d   1      11.104   9.300  -6.557  0.00  0.00     0.106 C 
ATOM     13  C   UNL d   1       9.712   8.649  -6.673  0.00  0.00     0.024 C 
ATOM     14  C   UNL d   1       9.230   8.599  -8.107  0.00  0.00     0.002 C 
BRANCH  12  15
ATOM     15  N   UNL d   1      11.592   9.301  -5.175  0.00  0.00    -0.240 NA
ATOM     16  C   UNL d   1      11.782   8.220  -4.401  0.00  0.00     0.251 C 
ATOM     17  O   UNL d   1      11.601   7.062  -4.785  0.00  0.00    -0.271 OA
BRANCH  16  18
ATOM     18  C   UNL d   1      12.220   8.489  -2.972  0.00  0.00     0.090 C 
ATOM     19  C   UNL d   1      12.371   7.179  -2.185  0.00  0.00     0.010 C 
ENDBRANCH  16  18
ENDBRANCH  12  15
ENDBRANCH   8   9
ENDBRANCH   7   8
ENDBRANCH   1   7
BRANCH   4  20
ATOM     20  C   UNL d   1       7.137   3.252 -13.343  0.00  0.00     0.081 A 
ATOM     21  C   UNL d   1       7.602   2.382 -14.359  0.00  0.00     0.135 A 
ATOM     22  C   UNL d   1       6.863   1.296 -14.782  0.00  0.00     0.121 A 
ATOM     23  O   UNL d   1       8.773   2.400 -15.050  0.00  0.00    -0.298 OA
ATOM     24  C   UNL d   1       5.601   1.020 -14.224  0.00  0.00     0.026 A 
ATOM     25  O   UNL d   1       7.517   0.639 -15.770  0.00  0.00    -0.299 OA
ATOM     26  C   UNL d   1       5.114   1.890 -13.235  0.00  0.00     0.004 A 
ATOM     27  C   UNL d   1       5.858   2.991 -12.787  0.00  0.00     0.019 A 
ATOM     28  C   UNL d   1       8.747   1.286 -15.902  0.00  0.00     0.304 A 
ENDBRANCH   4  20
TORSDOF 6
