REMARK  5 active torsions:
REMARK  status: ('A' for Active; 'I' for Inactive)
REMARK    1  A    between atoms: O_2  and  C_3 
REMARK    2  A    between atoms: C_10  and  C_11 
REMARK       I    between atoms: C_11  and  N_13 
REMARK    3  A    between atoms: N_13  and  C_14 
REMARK    4  A    between atoms: N_22  and  C_23 
REMARK    5  A    between atoms: C_23  and  C_24 
ROOT
ATOM      1  C   UNL d   1       9.563   2.948 -14.858  0.00  0.00     0.111 C 
ATOM      2  C   UNL d   1       8.623   3.025 -16.037  0.00  0.00     0.058 C 
ATOM      3  C   UNL d   1       8.698   1.882 -17.055  0.00  0.00     0.222 C 
ATOM      4  C   UNL d   1       9.959   1.875 -17.918  0.00  0.00     0.033 C 
ATOM      5  C   UNL d   1      11.234   1.471 -17.178  0.00  0.00     0.004 C 
ATOM      6  C   UNL d   1      10.950   0.302 -16.220  0.00  0.00     0.033 C 
ATOM      7  C   UNL d   1       9.631   0.410 -15.417  0.00  0.00     0.222 C 
ATOM      8  C   UNL d   1       9.632   1.509 -14.322  0.00  0.00     0.058 C 
ATOM      9  N   UNL d   1       8.540   0.576 -16.387  0.00  0.00     0.138 N 
ENDROOT
BRANCH   1  10
ATOM     10  N   UNL d   1       9.097   3.854 -13.801  0.00  0.00    -0.236 NA
ATOM     11  C   UNL d   1       9.783   4.930 -13.400  0.00  0.00     0.277 C 
ATOM     12  O   UNL d   1      10.698   5.435 -14.049  0.00  0.00    -0.266 OA
BRANCH  11  13
ATOM     13  C   UNL d   1       9.486   5.391 -12.006  0.00  0.00     0.081 A 
ATOM     14  C   UNL d   1       9.386   6.754 -11.666  0.00  0.00     0.100 A 
ATOM     15  C   UNL d   1       9.280   7.105 -10.299  0.00  0.00     0.039 A 
ATOM     16  C   UNL d   1       9.151   6.143  -9.285  0.00  0.00     0.083 A 
ATOM     17  N   UNL d   1       8.982   6.527  -7.939  0.00  0.00    -0.100 NA
ATOM     18  C   UNL d   1       9.187   4.787  -9.641  0.00  0.00     0.071 A 
ATOM     19 CL   UNL d   1       8.960   3.573  -8.441  0.00  0.00    -0.081 Cl
ATOM     20  C   UNL d   1       9.419   4.427 -10.993  0.00  0.00     0.019 A 
BRANCH  14  21
ATOM     21  O   UNL d   1       9.390   7.660 -12.700  0.00  0.00    -0.328 OA
ATOM     22  C   UNL d   1       8.977   8.973 -12.391  0.00  0.00     0.181 C 
ENDBRANCH  14  21
ENDBRANCH  11  13
ENDBRANCH   1  10
BRANCH   9  23
ATOM     23  C   UNL d   1       7.193   0.305 -15.853  0.00  0.00     0.277 C 
BRANCH  23  24
ATOM     24  C   UNL d   1       6.164  -0.113 -16.909  0.00  0.00     0.011 A 
ATOM     25  C   UNL d   1       5.581  -1.405 -16.841  0.00  0.00    -0.002 A 
ATOM     26  C   UNL d   1       4.635  -1.816 -17.808  0.00  0.00    -0.000 A 
ATOM     27  C   UNL d   1       4.294  -0.962 -18.881  0.00  0.00    -0.000 A 
ATOM     28  C   UNL d   1       4.880   0.321 -18.949  0.00  0.00    -0.000 A 
ATOM     29  C   UNL d   1       5.764   0.765 -17.949  0.00  0.00    -0.002 A 
ENDBRANCH  23  24
ENDBRANCH   9  23
TORSDOF 5
