REMARK  7 active torsions:
REMARK  status: ('A' for Active; 'I' for Inactive)
REMARK    1  A    between atoms: C_6  and  C_7 
REMARK    2  A    between atoms: C_10  and  S_11 
REMARK    3  A    between atoms: S_11  and  C_12 
REMARK    4  A    between atoms: C_12  and  C_13 
REMARK    5  A    between atoms: C_13  and  C_14 
REMARK    6  A    between atoms: C_14  and  N_15 
REMARK    7  A    between atoms: C_19  and  C_20 
ROOT
ATOM      1  C   UNL d   1       9.655   7.306  -8.685  0.00  0.00    -0.021 A 
ATOM      2  C   UNL d   1      10.458   6.273  -8.172  0.00  0.00    -0.004 A 
ATOM      3  C   UNL d   1      11.080   6.396  -6.917  0.00  0.00     0.010 A 
ATOM      4  C   UNL d   1      10.865   7.551  -6.135  0.00  0.00     0.068 A 
ATOM      5  C   UNL d   1      11.465   7.662  -4.817  0.00  0.00     0.101 C 
ATOM      6  N   UNL d   1      11.953   7.746  -3.769  0.00  0.00    -0.191 NA
ATOM      7  C   UNL d   1      10.045   8.585  -6.633  0.00  0.00     0.010 A 
ATOM      8  C   UNL d   1       9.452   8.465  -7.899  0.00  0.00    -0.004 A 
ENDROOT
BRANCH   1   9
ATOM      9  C   UNL d   1       9.061   7.209 -10.065  0.00  0.00     0.052 A 
ATOM     10  C   UNL d   1       9.986   7.294 -11.207  0.00  0.00     0.039 A 
ATOM     11  C   UNL d   1       9.601   6.157 -12.140  0.00  0.00     0.251 C 
ATOM     12  C   UNL d   1       9.061   8.438 -10.971  0.00  0.00     0.008 A 
ATOM     13  N   UNL d   1       8.956   5.178 -11.271  0.00  0.00     0.137 N 
ATOM     14  C   UNL d   1       8.211   5.987 -10.315  0.00  0.00     0.254 C 
BRANCH  13  15
ATOM     15  C   UNL d   1       8.048   4.300 -12.028  0.00  0.00     0.251 C 
BRANCH  15  16
ATOM     16  C   UNL d   1       8.835   3.451 -13.052  0.00  0.00     0.047 C 
BRANCH  16  17
ATOM     17  C   UNL d   1       7.944   2.670 -14.024  0.00  0.00     0.067 C 
BRANCH  17  18
ATOM     18  S   UNL d   1       8.903   1.398 -14.905  0.00  0.00    -0.075 SA
BRANCH  18  19
ATOM     19  C   UNL d   1       9.859   2.432 -15.970  0.00  0.00     0.193 A 
ATOM     20  N   UNL d   1       9.643   3.741 -16.135  0.00  0.00    -0.122 NA
ATOM     21  N   UNL d   1      10.565   4.154 -17.068  0.00  0.00    -0.128 NA
ATOM     22  C   UNL d   1      11.261   3.062 -17.396  0.00  0.00     0.167 A 
ATOM     23  N   UNL d   1      10.858   1.955 -16.739  0.00  0.00    -0.289 N 
ATOM     24  C   UNL d   1      11.347   0.594 -16.866  0.00  0.00     0.134 C 
BRANCH  22  25
ATOM     25  C   UNL d   1      12.302   3.108 -18.404  0.00  0.00     0.037 A 
ATOM     26  C   UNL d   1      13.415   3.986 -18.310  0.00  0.00     0.021 A 
ATOM     27  C   UNL d   1      13.602   4.854 -17.203  0.00  0.00     0.003 A 
ATOM     28  C   UNL d   1      14.387   4.010 -19.349  0.00  0.00     0.081 A 
ATOM     29  C   UNL d   1      14.716   5.705 -17.177  0.00  0.00     0.015 A 
ATOM     30  C   UNL d   1      15.618   5.653 -18.251  0.00  0.00     0.059 A 
ATOM     31  C   UNL d   1      16.844   6.538 -18.274  0.00  0.00     0.052 C 
ATOM     32  N   UNL d   1      15.461   4.829 -19.307  0.00  0.00    -0.250 NA
ATOM     33  C   UNL d   1      14.224   3.146 -20.450  0.00  0.00     0.019 A 
ATOM     34  C   UNL d   1      13.125   2.275 -20.542  0.00  0.00     0.002 A 
ATOM     35  C   UNL d   1      12.164   2.263 -19.523  0.00  0.00     0.003 A 
ENDBRANCH  22  25
ENDBRANCH  18  19
ENDBRANCH  17  18
ENDBRANCH  16  17
ENDBRANCH  15  16
ENDBRANCH  13  15
ENDBRANCH   1   9
TORSDOF 7
