REMARK  1 active torsions:
REMARK  status: ('A' for Active; 'I' for Inactive)
REMARK    1  A    between atoms: C_4  and  C_5 
ROOT
ATOM      1  O   UNL d   1      10.658   7.121  -9.977  0.00  0.00    -0.264 OA
ATOM      2  C   UNL d   1      10.368   7.402  -8.817  0.00  0.00     0.272 C 
ATOM      3  C   UNL d   1      11.328   8.071  -7.847  0.00  0.00     0.103 C 
ATOM      4  C   UNL d   1      10.398   8.479  -6.711  0.00  0.00     0.062 C 
ATOM      5  C   UNL d   1       9.184   7.549  -6.848  0.00  0.00     0.157 C 
ATOM      6  O   UNL d   1       9.208   7.161  -8.207  0.00  0.00    -0.301 OA
ENDROOT
BRANCH   4   7
ATOM      7  C   UNL d   1      11.059   8.416  -5.342  0.00  0.00    -0.019 A 
ATOM      8  C   UNL d   1      11.264   9.588  -4.583  0.00  0.00    -0.004 A 
ATOM      9  C   UNL d   1      11.859   9.509  -3.308  0.00  0.00    -0.000 A 
ATOM     10  C   UNL d   1      12.258   8.264  -2.786  0.00  0.00    -0.000 A 
ATOM     11  C   UNL d   1      12.058   7.093  -3.538  0.00  0.00    -0.000 A 
ATOM     12  C   UNL d   1      11.462   7.170  -4.811  0.00  0.00    -0.004 A 
ENDBRANCH   4   7
TORSDOF 1
