REMARK  1 active torsions:
REMARK  status: ('A' for Active; 'I' for Inactive)
REMARK    1  A    between atoms: O_2  and  C_3 
ROOT
ATOM      1  C   UNL d   1      11.908   5.504 -17.358  0.00  0.00     0.237 C 
ATOM      2  O   UNL d   1      10.986   5.630 -16.309  0.00  0.00    -0.304 OA
ATOM      3  C   UNL d   1      10.208   4.486 -16.071  0.00  0.00     0.268 C 
ATOM      4  O   UNL d   1       9.225   4.777 -15.120  0.00  0.00    -0.306 OA
ATOM      5  C   UNL d   1       9.639   4.593 -13.768  0.00  0.00     0.221 C 
ATOM      6  C   UNL d   1       8.959   5.663 -12.900  0.00  0.00     0.064 C 
ATOM      7  C   UNL d   1       9.208   3.188 -13.300  0.00  0.00     0.059 C 
ATOM      8  C   UNL d   1       9.079   2.170 -14.438  0.00  0.00     0.008 C 
ATOM      9  C   UNL d   1      10.336   1.980 -15.310  0.00  0.00     0.033 C 
ATOM     10  C   UNL d   1      10.004   1.151 -16.583  0.00  0.00     0.003 C 
ATOM     11  C   UNL d   1       9.366  -0.215 -16.269  0.00  0.00     0.000 C 
ATOM     12  C   UNL d   1      11.253   0.916 -17.431  0.00  0.00     0.000 C 
ATOM     13  C   UNL d   1      11.886   2.232 -17.843  0.00  0.00     0.003 C 
ATOM     14  C   UNL d   1      12.273   3.103 -16.626  0.00  0.00     0.038 C 
ATOM     15  C   UNL d   1      12.957   4.446 -16.986  0.00  0.00     0.059 C 
ATOM     16  C   UNL d   1      14.076   4.356 -18.055  0.00  0.00     0.005 C 
ATOM     17  C   UNL d   1      11.129   3.305 -15.598  0.00  0.00     0.178 C 
ATOM     18  O   UNL d   1      11.756   3.634 -14.346  0.00  0.00    -0.219 OA
ATOM     19  O   UNL d   1      11.040   4.773 -13.646  0.00  0.00    -0.198 OA
ENDROOT
BRANCH   1  20
ATOM     20  O   UNL d   1      11.314   5.165 -18.575  0.00  0.00    -0.328 OA
ATOM     21  C   UNL d   1      10.452   6.152 -19.113  0.00  0.00     0.177 C 
ENDBRANCH   1  20
TORSDOF 1
