REMARK  5 active torsions:
REMARK  status: ('A' for Active; 'I' for Inactive)
REMARK    1  A    between atoms: C_2  and  C_3 
REMARK    2  A    between atoms: C_3  and  N_4 
REMARK    3  A    between atoms: N_4  and  C_5 
REMARK    4  A    between atoms: N_4  and  C_8 
REMARK    5  A    between atoms: C_5  and  C_6 
ROOT
ATOM      1  C   UNL d   1      11.306   7.589  -7.098  0.00  0.00     0.224 C 
ATOM      2  C   UNL d   1      10.536   8.827  -6.606  0.00  0.00     0.038 C 
ATOM      3  C   UNL d   1      11.211   9.521  -5.446  0.00  0.00     0.030 C 
ATOM      4  C   UNL d   1      11.662   8.577  -4.362  0.00  0.00    -0.001 A 
ATOM      5  C   UNL d   1      11.974   9.078  -3.084  0.00  0.00     0.127 A 
ATOM      6  O   UNL d   1      11.818  10.389  -2.838  0.00  0.00    -0.191 OA
ATOM      7  C   UNL d   1      12.432   8.227  -2.062  0.00  0.00     0.027 A 
ATOM      8  C   UNL d   1      12.524   6.849  -2.310  0.00  0.00     0.002 A 
ATOM      9  C   UNL d   1      12.164   6.368  -3.567  0.00  0.00    -0.004 A 
ATOM     10  C   UNL d   1      11.764   7.188  -4.615  0.00  0.00    -0.022 A 
ATOM     11  C   UNL d   1      11.458   6.556  -5.967  0.00  0.00     0.059 C 
ENDROOT
BRANCH   1  12
ATOM     12  N   UNL d   1      10.686   6.974  -8.281  0.00  0.00     0.135 N 
BRANCH  12  13
ATOM     13  C   UNL d   1       9.239   6.731  -8.144  0.00  0.00     0.250 C 
BRANCH  13  14
ATOM     14  C   UNL d   1       8.661   5.889  -9.278  0.00  0.00     0.035 C 
ATOM     15  C   UNL d   1       9.175   4.469  -9.243  0.00  0.00     0.002 C 
ENDBRANCH  13  14
ENDBRANCH  12  13
BRANCH  12  16
ATOM     16  C   UNL d   1      11.108   7.585  -9.562  0.00  0.00     0.250 C 
BRANCH  16  17
ATOM     17  C   UNL d   1      10.312   8.859  -9.980  0.00  0.00     0.035 C 
ATOM     18  C   UNL d   1       9.467   8.703 -11.252  0.00  0.00     0.002 C 
ENDBRANCH  16  17
ENDBRANCH  12  16
ENDBRANCH   1  12
TORSDOF 5
