REMARK  1 active torsions:
REMARK  status: ('A' for Active; 'I' for Inactive)
REMARK    1  A    between atoms: N_5  and  C_6 
ROOT
ATOM      1  C   UNL d   1      10.502   8.040  -7.536  0.00  0.00     0.080 A 
ATOM      2  C   UNL d   1      11.169   9.081  -8.222  0.00  0.00     0.021 A 
ATOM      3  C   UNL d   1      11.081   9.194  -9.609  0.00  0.00     0.031 A 
ATOM      4  C   UNL d   1      10.324   8.259 -10.293  0.00  0.00     0.151 A 
ATOM      5  O   UNL d   1      10.091   8.386 -11.636  0.00  0.00    -0.189 OA
ATOM      6  C   UNL d   1       9.731   7.188  -9.670  0.00  0.00     0.133 A 
ATOM      7  C   UNL d   1       9.753   7.079  -8.270  0.00  0.00     0.130 A 
ATOM      8  O   UNL d   1       8.999   6.086  -7.676  0.00  0.00    -0.318 OA
ATOM      9  C   UNL d   1       8.835   4.898  -8.477  0.00  0.00     0.238 C 
ATOM     10  C   UNL d   1       8.538   5.154  -9.977  0.00  0.00     0.287 C 
ATOM     11  O   UNL d   1       7.886   4.389 -10.682  0.00  0.00    -0.267 OA
ATOM     12  N   UNL d   1       9.021   6.280 -10.470  0.00  0.00    -0.205 NA
ENDROOT
BRANCH   1  13
ATOM     13  N   UNL d   1      10.631   7.972  -6.155  0.00  0.00    -0.343 N 
ATOM     14  C   UNL d   1      10.554   6.705  -5.451  0.00  0.00     0.137 C 
ATOM     15  C   UNL d   1      11.743   6.535  -4.513  0.00  0.00     0.274 C 
ATOM     16  N   UNL d   1      11.805   7.674  -3.594  0.00  0.00     0.143 N 
ATOM     17  C   UNL d   1      12.916   7.439  -2.690  0.00  0.00     0.286 C 
ATOM     18  C   UNL d   1      11.999   8.919  -4.349  0.00  0.00     0.274 C 
ATOM     19  C   UNL d   1      10.830   9.156  -5.332  0.00  0.00     0.137 C 
ENDBRANCH   1  13
TORSDOF 1
