REMARK  5 active torsions:
REMARK  status: ('A' for Active; 'I' for Inactive)
REMARK    1  A    between atoms: C_2  and  C_4 
REMARK    2  A    between atoms: C_7  and  S_8 
REMARK    3  A    between atoms: S_8  and  C_11 
REMARK    4  A    between atoms: C_11  and  C_12 
REMARK    5  A    between atoms: C_15  and  C_16 
ROOT
ATOM      1  C   UNL d   1       8.363   4.472 -11.083  0.00  0.00     0.153 C 
ENDROOT
BRANCH   1   2
ATOM      2  S   UNL d   1       7.825   5.417 -12.567  0.00  0.00     0.194 S 
ATOM      3  O   UNL d   1       8.594   6.663 -12.711  0.00  0.00    -0.221 OA
ATOM      4  O   UNL d   1       6.354   5.460 -12.570  0.00  0.00    -0.221 OA
BRANCH   2   5
ATOM      5  C   UNL d   1       8.331   4.350 -13.900  0.00  0.00     0.084 A 
ATOM      6  C   UNL d   1       9.465   4.674 -14.675  0.00  0.00     0.011 A 
ATOM      7  C   UNL d   1       9.839   3.843 -15.749  0.00  0.00    -0.004 A 
ATOM      8  C   UNL d   1       9.098   2.677 -16.035  0.00  0.00    -0.022 A 
ATOM      9  C   UNL d   1       7.979   2.347 -15.232  0.00  0.00    -0.004 A 
ATOM     10  C   UNL d   1       7.597   3.182 -14.160  0.00  0.00     0.011 A 
BRANCH   8  11
ATOM     11  C   UNL d   1       9.509   1.786 -17.200  0.00  0.00     0.022 C 
ATOM     12  C   UNL d   1       8.461   1.791 -18.324  0.00  0.00     0.005 C 
ATOM     13  C   UNL d   1       9.830   0.362 -16.722  0.00  0.00     0.005 C 
ENDBRANCH   8  11
ENDBRANCH   2   5
ENDBRANCH   1   2
BRANCH   1  14
ATOM     14  C   UNL d   1       8.884   5.327  -9.941  0.00  0.00    -0.006 A 
ATOM     15  C   UNL d   1       8.327   5.219  -8.653  0.00  0.00    -0.004 A 
ATOM     16  C   UNL d   1       8.764   6.066  -7.615  0.00  0.00    -0.004 A 
ATOM     17  C   UNL d   1       9.826   6.950  -7.833  0.00  0.00    -0.021 A 
ATOM     18  C   UNL d   1      10.419   7.031  -9.096  0.00  0.00    -0.004 A 
ATOM     19  C   UNL d   1       9.962   6.210 -10.148  0.00  0.00    -0.004 A 
BRANCH  17  20
ATOM     20  C   UNL d   1      10.377   7.743  -6.688  0.00  0.00     0.055 A 
ATOM     21  C   UNL d   1      11.847   7.818  -6.506  0.00  0.00     0.042 A 
ATOM     22  C   UNL d   1      12.190   9.276  -6.345  0.00  0.00     0.290 C 
ATOM     23  C   UNL d   1      11.005   7.069  -5.497  0.00  0.00     0.009 A 
ATOM     24  N   UNL d   1      11.052   9.967  -6.917  0.00  0.00     0.339 N 
ATOM     25  C   UNL d   1       9.867   9.146  -6.643  0.00  0.00     0.294 C 
ENDBRANCH  17  20
ENDBRANCH   1  14
TORSDOF 5
