REMARK  5 active torsions:
REMARK  status: ('A' for Active; 'I' for Inactive)
REMARK    1  A    between atoms: O_2  and  C_3 
REMARK    2  A    between atoms: C_11  and  C_12 
REMARK    3  A    between atoms: N_15  and  C_16 
REMARK    4  A    between atoms: C_16  and  C_17 
REMARK    5  A    between atoms: C_17  and  C_18 
ROOT
ATOM      1  C   UNL d   1       8.642   5.852 -11.118  0.00  0.00     0.011 C 
ATOM      2  C   UNL d   1       9.737   6.913 -10.922  0.00  0.00     0.036 C 
ATOM      3  C   UNL d   1       9.748   7.490  -9.506  0.00  0.00     0.250 C 
ATOM      4  N   UNL d   1       9.903   6.415  -8.526  0.00  0.00     0.137 N 
ATOM      5  C   UNL d   1       8.767   5.497  -8.619  0.00  0.00     0.250 C 
ATOM      6  C   UNL d   1       8.738   4.818  -9.974  0.00  0.00     0.036 C 
ENDROOT
BRANCH   1   7
ATOM      7  C   UNL d   1       8.686   5.204 -12.541  0.00  0.00     0.062 C 
ATOM      8  C   UNL d   1      10.013   4.474 -12.848  0.00  0.00     0.012 C 
ATOM      9  C   UNL d   1      10.056   3.878 -14.230  0.00  0.00     0.027 C 
ATOM     10  C   UNL d   1       8.828   3.054 -14.513  0.00  0.00    -0.018 A 
ATOM     11  C   UNL d   1       7.612   3.253 -13.841  0.00  0.00     0.031 A 
ATOM     12  C   UNL d   1       8.941   2.046 -15.477  0.00  0.00     0.020 A 
ATOM     13  C   UNL d   1       6.509   2.421 -14.116  0.00  0.00     0.004 A 
ATOM     14  C   UNL d   1       7.452   4.316 -12.780  0.00  0.00     0.172 C 
ATOM     15  C   UNL d   1       6.632   1.410 -15.091  0.00  0.00     0.024 A 
ATOM     16  C   UNL d   1       7.837   1.222 -15.786  0.00  0.00     0.094 A 
ATOM     17  O   UNL d   1       6.410   4.468 -12.166  0.00  0.00    -0.291 OA
BRANCH  16  18
ATOM     18  O   UNL d   1       7.857   0.240 -16.753  0.00  0.00    -0.328 OA
ATOM     19  C   UNL d   1       9.101  -0.021 -17.381  0.00  0.00     0.181 C 
ENDBRANCH  16  18
ENDBRANCH   1   7
BRANCH   4  20
ATOM     20  C   UNL d   1       9.919   6.970  -7.184  0.00  0.00     0.255 C 
BRANCH  20  21
ATOM     21  C   UNL d   1      11.238   7.712  -6.916  0.00  0.00     0.062 C 
BRANCH  21  22
ATOM     22  C   UNL d   1      11.434   8.008  -5.445  0.00  0.00    -0.020 A 
ATOM     23  C   UNL d   1      11.451   9.335  -4.975  0.00  0.00    -0.004 A 
ATOM     24  C   UNL d   1      11.662   9.586  -3.606  0.00  0.00    -0.000 A 
ATOM     25  C   UNL d   1      11.876   8.518  -2.714  0.00  0.00    -0.000 A 
ATOM     26  C   UNL d   1      11.872   7.192  -3.184  0.00  0.00    -0.000 A 
ATOM     27  C   UNL d   1      11.648   6.940  -4.548  0.00  0.00    -0.004 A 
ENDBRANCH  21  22
ENDBRANCH  20  21
ENDBRANCH   4  20
TORSDOF 5
