REMARK  12 active torsions:
REMARK  status: ('A' for Active; 'I' for Inactive)
REMARK    1  A    between atoms: C_2  and  C_3 
REMARK    2  A    between atoms: C_3  and  N_4 
REMARK    3  A    between atoms: N_4  and  C_5 
REMARK    4  A    between atoms: N_4  and  C_21 
REMARK    5  A    between atoms: C_5  and  C_6 
REMARK    6  A    between atoms: C_6  and  C_7 
REMARK    7  A    between atoms: C_7  and  C_8 
REMARK    8  A    between atoms: C_8  and  N_9 
REMARK       I    between atoms: N_9  and  C_10 
REMARK    9  A    between atoms: C_10  and  C_12 
REMARK   10  A    between atoms: C_21  and  C_22 
REMARK   11  A    between atoms: C_24  and  C_25 
REMARK   12  A    between atoms: C_28  and  C_29 
ROOT
ATOM      1  N   UNL d   1       7.163   0.663 -14.352  0.00  0.00     0.137 N 
ENDROOT
BRANCH   1   2
ATOM      2  C   UNL d   1       5.906   0.008 -14.691  0.00  0.00     0.250 C 
BRANCH   2   3
ATOM      3  C   UNL d   1       4.861   0.208 -13.601  0.00  0.00     0.035 C 
ATOM      4  C   UNL d   1       3.601  -0.555 -13.986  0.00  0.00     0.002 C 
ENDBRANCH   2   3
ENDBRANCH   1   2
BRANCH   1   5
ATOM      5  C   UNL d   1       7.003   2.130 -14.463  0.00  0.00     0.250 C 
BRANCH   5   6
ATOM      6  C   UNL d   1       8.274   2.930 -14.019  0.00  0.00     0.037 C 
BRANCH   6   7
ATOM      7  C   UNL d   1       7.989   4.388 -13.691  0.00  0.00     0.029 C 
BRANCH   7   8
ATOM      8  C   UNL d   1       7.197   4.550 -12.363  0.00  0.00     0.129 C 
BRANCH   8   9
ATOM      9  N   UNL d   1       7.842   5.170 -11.257  0.00  0.00    -0.233 NA
ATOM     10  C   UNL d   1       9.078   5.686 -11.190  0.00  0.00     0.293 C 
ATOM     11  O   UNL d   1       9.856   5.668 -12.146  0.00  0.00    -0.264 OA
BRANCH  10  12
ATOM     12  C   UNL d   1       9.484   6.296  -9.941  0.00  0.00     0.139 A 
ATOM     13  N   UNL d   1      10.585   7.178  -9.987  0.00  0.00    -0.241 NA
ATOM     14  C   UNL d   1      10.861   7.670  -8.728  0.00  0.00     0.082 A 
ATOM     15  C   UNL d   1       9.903   7.074  -7.854  0.00  0.00     0.019 A 
ATOM     16  C   UNL d   1      11.842   8.566  -8.294  0.00  0.00     0.019 A 
ATOM     17  C   UNL d   1       9.066   6.205  -8.646  0.00  0.00     0.025 A 
ATOM     18  C   UNL d   1       9.953   7.426  -6.502  0.00  0.00     0.002 A 
ATOM     19  C   UNL d   1      10.919   8.337  -6.047  0.00  0.00     0.000 A 
ATOM     20  C   UNL d   1      11.855   8.904  -6.933  0.00  0.00     0.002 A 
ENDBRANCH  10  12
ENDBRANCH   8   9
ENDBRANCH   7   8
ENDBRANCH   6   7
ENDBRANCH   5   6
ENDBRANCH   1   5
BRANCH   1  21
ATOM     21  C   UNL d   1       8.262   0.207 -15.211  0.00  0.00     0.251 C 
BRANCH  21  22
ATOM     22  C   UNL d   1       7.911   0.242 -16.739  0.00  0.00     0.038 A 
ATOM     23  C   UNL d   1       8.599   1.217 -17.708  0.00  0.00     0.024 A 
ATOM     24  C   UNL d   1       8.925  -0.238 -17.781  0.00  0.00     0.007 A 
BRANCH  23  25
ATOM     25  C   UNL d   1       9.604   2.230 -17.226  0.00  0.00    -0.022 A 
ATOM     26  C   UNL d   1      10.672   1.825 -16.381  0.00  0.00    -0.004 A 
ATOM     27  C   UNL d   1      11.550   2.757 -15.848  0.00  0.00     0.004 A 
ATOM     28  C   UNL d   1      11.400   4.112 -16.136  0.00  0.00     0.071 A 
ATOM     29  C   UNL d   1      10.351   4.544 -16.974  0.00  0.00     0.004 A 
ATOM     30  C   UNL d   1       9.451   3.600 -17.521  0.00  0.00    -0.004 A 
BRANCH  28  31
ATOM     31  C   UNL d   1      12.396   5.094 -15.553  0.00  0.00     0.419 C 
ATOM     32  F   UNL d   1      11.953   6.353 -15.636  0.00  0.00    -0.166 F 
ATOM     33  F   UNL d   1      12.656   4.785 -14.276  0.00  0.00    -0.166 F 
ATOM     34  F   UNL d   1      13.524   4.990 -16.257  0.00  0.00    -0.166 F 
ENDBRANCH  28  31
ENDBRANCH  23  25
ENDBRANCH  21  22
ENDBRANCH   1  21
TORSDOF 12
