REMARK  8 active torsions:
REMARK  status: ('A' for Active; 'I' for Inactive)
REMARK    1  A    between atoms: C_2  and  C_3 
REMARK    2  A    between atoms: C_7  and  N_8 
REMARK    3  A    between atoms: N_11  and  C_12 
REMARK    4  A    between atoms: C_12  and  C_13 
REMARK    5  A    between atoms: C_13  and  C_14 
REMARK    6  A    between atoms: C_14  and  C_15 
REMARK    7  A    between atoms: C_15  and  N_16 
REMARK       I    between atoms: N_16  and  C_17 
REMARK    8  A    between atoms: C_17  and  C_19 
ROOT
ATOM      1  N   UNL d   1       9.387   6.669 -10.307  0.00  0.00    -0.344 N 
ATOM      2  C   UNL d   1       9.027   7.370 -11.549  0.00  0.00     0.137 C 
ATOM      3  C   UNL d   1       9.203   6.455 -12.758  0.00  0.00     0.274 C 
ATOM      4  N   UNL d   1       8.449   5.226 -12.582  0.00  0.00     0.141 N 
ATOM      5  C   UNL d   1       8.942   4.529 -11.406  0.00  0.00     0.274 C 
ATOM      6  C   UNL d   1       8.735   5.385 -10.142  0.00  0.00     0.137 C 
ENDROOT
BRANCH   4   7
ATOM      7  C   UNL d   1       8.671   4.394 -13.765  0.00  0.00     0.251 C 
BRANCH   7   8
ATOM      8  C   UNL d   1       7.510   3.412 -13.949  0.00  0.00     0.037 C 
BRANCH   8   9
ATOM      9  C   UNL d   1       7.920   2.310 -14.931  0.00  0.00     0.029 C 
BRANCH   9  10
ATOM     10  C   UNL d   1       6.863   1.201 -15.076  0.00  0.00     0.129 C 
BRANCH  10  11
ATOM     11  N   UNL d   1       7.130   0.294 -16.180  0.00  0.00    -0.232 NA
ATOM     12  C   UNL d   1       7.176   0.648 -17.479  0.00  0.00     0.311 C 
ATOM     13  O   UNL d   1       7.089   1.808 -17.871  0.00  0.00    -0.262 OA
BRANCH  12  14
ATOM     14  C   UNL d   1       7.355  -0.471 -18.454  0.00  0.00     0.221 A 
ATOM     15  N   UNL d   1       7.239  -1.760 -18.102  0.00  0.00    -0.220 NA
ATOM     16  C   UNL d   1       7.432  -2.537 -19.232  0.00  0.00     0.116 A 
ATOM     17  C   UNL d   1       7.661  -1.642 -20.253  0.00  0.00     0.080 A 
ATOM     18  N   UNL d   1       7.619  -0.341 -19.756  0.00  0.00    -0.226 NA
ATOM     19  C   UNL d   1       7.923  -1.904 -21.701  0.00  0.00     0.054 C 
ENDBRANCH  12  14
ENDBRANCH  10  11
ENDBRANCH   9  10
ENDBRANCH   8   9
ENDBRANCH   7   8
ENDBRANCH   4   7
BRANCH   1  20
ATOM     20  C   UNL d   1      10.211   7.250  -9.322  0.00  0.00     0.067 A 
ATOM     21  C   UNL d   1      11.339   7.939  -9.761  0.00  0.00     0.018 A 
ATOM     22  C   UNL d   1      12.262   8.478  -8.836  0.00  0.00     0.001 A 
ATOM     23  C   UNL d   1      11.997   8.419  -7.465  0.00  0.00    -0.003 A 
ATOM     24  C   UNL d   1      10.874   7.749  -6.981  0.00  0.00    -0.010 A 
ATOM     25  C   UNL d   1       9.974   7.156  -7.923  0.00  0.00     0.069 A 
ATOM     26 CL   UNL d   1       8.579   6.392  -7.272  0.00  0.00    -0.081 Cl
BRANCH  24  27
ATOM     27  C   UNL d   1      10.646   7.668  -5.478  0.00  0.00     0.027 C 
ATOM     28  C   UNL d   1      11.501   6.588  -4.807  0.00  0.00     0.005 C 
ENDBRANCH  24  27
ENDBRANCH   1  20
TORSDOF 8
