REMARK  7 active torsions:
REMARK  status: ('A' for Active; 'I' for Inactive)
REMARK    1  A    between atoms: C_6  and  C_7 
REMARK    2  A    between atoms: C_10  and  S_11 
REMARK    3  A    between atoms: S_11  and  C_12 
REMARK    4  A    between atoms: C_12  and  C_13 
REMARK    5  A    between atoms: C_13  and  C_14 
REMARK    6  A    between atoms: C_14  and  N_15 
REMARK    7  A    between atoms: C_19  and  C_20 
ROOT
ATOM      1  C   UNL d   1      11.679   1.678 -18.707  0.00  0.00     0.167 A 
ATOM      2  N   UNL d   1      11.441   1.169 -17.494  0.00  0.00    -0.128 NA
ATOM      3  N   UNL d   1      11.140   2.247 -16.690  0.00  0.00    -0.122 NA
ATOM      4  C   UNL d   1      11.204   3.314 -17.489  0.00  0.00     0.193 A 
ATOM      5  N   UNL d   1      11.550   3.019 -18.758  0.00  0.00    -0.289 N 
ATOM      6  C   UNL d   1      11.732   3.919 -19.888  0.00  0.00     0.134 C 
ENDROOT
BRANCH   4   7
ATOM      7  S   UNL d   1      10.890   4.972 -16.975  0.00  0.00    -0.075 SA
BRANCH   7   8
ATOM      8  C   UNL d   1       9.620   4.721 -15.687  0.00  0.00     0.067 C 
BRANCH   8   9
ATOM      9  C   UNL d   1      10.143   5.106 -14.302  0.00  0.00     0.047 C 
BRANCH   9  10
ATOM     10  C   UNL d   1       9.007   5.503 -13.336  0.00  0.00     0.251 C 
BRANCH  10  11
ATOM     11  N   UNL d   1       9.484   5.555 -11.958  0.00  0.00     0.137 N 
ATOM     12  C   UNL d   1       8.569   6.264 -11.056  0.00  0.00     0.254 C 
ATOM     13  C   UNL d   1       8.936   5.736  -9.680  0.00  0.00     0.052 A 
ATOM     14  C   UNL d   1       9.603   4.423  -9.914  0.00  0.00     0.039 A 
ATOM     15  C   UNL d   1       8.325   4.454  -9.132  0.00  0.00     0.008 A 
ATOM     16  C   UNL d   1       9.606   4.205 -11.412  0.00  0.00     0.251 C 
BRANCH  13  17
ATOM     17  C   UNL d   1       9.613   6.735  -8.774  0.00  0.00    -0.021 A 
ATOM     18  C   UNL d   1       9.143   6.900  -7.454  0.00  0.00    -0.004 A 
ATOM     19  C   UNL d   1       9.777   7.790  -6.580  0.00  0.00     0.006 A 
ATOM     20  C   UNL d   1      10.880   8.549  -7.016  0.00  0.00     0.035 A 
ATOM     21  C   UNL d   1      11.363   8.396  -8.327  0.00  0.00     0.006 A 
ATOM     22 BR   UNL d   1      11.699   9.776  -5.810  0.00  0.00    -0.049 Br
ATOM     23  C   UNL d   1      10.733   7.486  -9.204  0.00  0.00    -0.004 A 
ENDBRANCH  13  17
ENDBRANCH  10  11
ENDBRANCH   9  10
ENDBRANCH   8   9
ENDBRANCH   7   8
ENDBRANCH   4   7
BRANCH   1  24
ATOM     24  C   UNL d   1      12.051   0.842 -19.839  0.00  0.00     0.037 A 
ATOM     25  C   UNL d   1      11.086   0.117 -20.589  0.00  0.00     0.021 A 
ATOM     26  C   UNL d   1       9.706   0.186 -20.291  0.00  0.00     0.003 A 
ATOM     27  C   UNL d   1      11.498  -0.708 -21.675  0.00  0.00     0.081 A 
ATOM     28  C   UNL d   1       8.798  -0.561 -21.062  0.00  0.00     0.015 A 
ATOM     29  C   UNL d   1       9.304  -1.354 -22.109  0.00  0.00     0.059 A 
ATOM     30  C   UNL d   1       8.381  -2.193 -22.965  0.00  0.00     0.052 C 
ATOM     31  N   UNL d   1      10.616  -1.421 -22.414  0.00  0.00    -0.250 NA
ATOM     32  C   UNL d   1      12.872  -0.790 -21.976  0.00  0.00     0.019 A 
ATOM     33  C   UNL d   1      13.828  -0.068 -21.238  0.00  0.00     0.002 A 
ATOM     34  C   UNL d   1      13.413   0.748 -20.171  0.00  0.00     0.003 A 
ENDBRANCH   1  24
TORSDOF 7
