REMARK  7 active torsions:
REMARK  status: ('A' for Active; 'I' for Inactive)
REMARK    1  A    between atoms: S_2  and  C_4 
REMARK    2  A    between atoms: S_2  and  C_23 
REMARK    3  A    between atoms: C_4  and  C_5 
REMARK    4  A    between atoms: N_8  and  C_9 
REMARK    5  A    between atoms: C_9  and  C_10 
REMARK    6  A    between atoms: C_10  and  C_11 
REMARK    7  A    between atoms: C_11  and  C_12 
ROOT
ATOM      1  C   UNL d   1       8.210   2.716 -14.768  0.00  0.00     0.052 C 
ATOM      2  C   UNL d   1       6.751   2.240 -14.717  0.00  0.00     0.038 C 
ATOM      3  C   UNL d   1       6.122   2.978 -13.557  0.00  0.00     0.250 C 
ATOM      4  N   UNL d   1       6.938   4.181 -13.415  0.00  0.00     0.137 N 
ATOM      5  C   UNL d   1       8.306   3.696 -13.588  0.00  0.00     0.251 C 
ENDROOT
BRANCH   4   6
ATOM      6  C   UNL d   1       6.699   4.782 -12.112  0.00  0.00     0.251 C 
BRANCH   6   7
ATOM      7  C   UNL d   1       7.670   5.946 -11.915  0.00  0.00     0.042 C 
BRANCH   7   8
ATOM      8  C   UNL d   1       8.833   5.579 -10.980  0.00  0.00     0.050 C 
BRANCH   8   9
ATOM      9  C   UNL d   1       9.460   6.796 -10.368  0.00  0.00     0.088 A 
ATOM     10  C   UNL d   1       9.772   7.090  -9.027  0.00  0.00     0.041 A 
ATOM     11  C   UNL d   1      10.368   8.351  -8.966  0.00  0.00     0.129 A 
ATOM     12  C   UNL d   1       9.556   6.369  -7.835  0.00  0.00     0.006 A 
ATOM     13  O   UNL d   1      10.416   8.791 -10.277  0.00  0.00    -0.211 OA
ATOM     14  C   UNL d   1      10.785   8.941  -7.765  0.00  0.00     0.057 A 
ATOM     15  N   UNL d   1       9.815   7.820 -11.133  0.00  0.00    -0.131 NA
ATOM     16  C   UNL d   1      10.574   8.217  -6.571  0.00  0.00     0.142 A 
ATOM     17  F   UNL d   1      10.962   8.746  -5.387  0.00  0.00    -0.204 F 
ATOM     18  C   UNL d   1       9.962   6.942  -6.611  0.00  0.00     0.030 A 
ENDBRANCH   8   9
ENDBRANCH   7   8
ENDBRANCH   6   7
ENDBRANCH   4   6
BRANCH   1  19
ATOM     19  C   UNL d   1       9.243   1.578 -14.646  0.00  0.00     0.129 C 
BRANCH  19  20
ATOM     20  S   UNL d   1       9.609   0.740 -16.267  0.00  0.00     0.190 S 
ATOM     21  O   UNL d   1      10.302   1.710 -17.111  0.00  0.00    -0.222 OA
ATOM     22  O   UNL d   1      10.232  -0.557 -15.958  0.00  0.00    -0.222 OA
BRANCH  20  23
ATOM     23  C   UNL d   1       8.036   0.351 -17.026  0.00  0.00     0.085 A 
ATOM     24  C   UNL d   1       7.009  -0.180 -16.242  0.00  0.00     0.023 A 
ATOM     25  C   UNL d   1       5.733  -0.386 -16.773  0.00  0.00     0.069 A 
ATOM     26  C   UNL d   1       5.499  -0.119 -18.148  0.00  0.00     0.068 A 
ATOM     27 CL   UNL d   1       4.452  -0.836 -15.708  0.00  0.00    -0.082 Cl
ATOM     28  C   UNL d   1       6.560   0.351 -18.959  0.00  0.00     0.013 A 
ATOM     29 CL   UNL d   1       3.954  -0.412 -18.861  0.00  0.00    -0.082 Cl
ATOM     30  C   UNL d   1       7.833   0.607 -18.403  0.00  0.00     0.012 A 
ENDBRANCH  20  23
ENDBRANCH  19  20
ENDBRANCH   1  19
TORSDOF 7
