REMARK  5 active torsions:
REMARK  status: ('A' for Active; 'I' for Inactive)
REMARK    1  A    between atoms: O_2  and  C_3 
REMARK    2  A    between atoms: C_6  and  C_7 
REMARK    3  A    between atoms: C_7  and  N_8 
REMARK    4  A    between atoms: C_11  and  C_12 
REMARK    5  A    between atoms: C_12  and  C_13 
REMARK       I    between atoms: C_13  and  N_15 
ROOT
ATOM      1  N   UNL d   1       8.934   5.882  -8.853  0.00  0.00     0.141 N 
ATOM      2  C   UNL d   1       8.368   4.648  -9.402  0.00  0.00     0.251 C 
ATOM      3  C   UNL d   1       8.089   4.833 -10.918  0.00  0.00     0.036 C 
ATOM      4  C   UNL d   1       9.412   5.080 -11.644  0.00  0.00     0.013 C 
ATOM      5  C   UNL d   1      10.066   6.272 -10.897  0.00  0.00     0.036 C 
ATOM      6  C   UNL d   1      10.247   6.036  -9.417  0.00  0.00     0.251 C 
ENDROOT
BRANCH   4   7
ATOM      7  C   UNL d   1       9.238   5.436 -13.139  0.00  0.00     0.088 C 
BRANCH   7   8
ATOM      8  C   UNL d   1      10.115   4.571 -14.069  0.00  0.00     0.237 C 
ATOM      9  O   UNL d   1      11.237   5.011 -14.328  0.00  0.00    -0.272 OA
ATOM     10  N   UNL d   1       9.669   3.389 -14.583  0.00  0.00    -0.301 N 
ATOM     11  C   UNL d   1      10.568   2.528 -15.396  0.00  0.00     0.093 C 
ATOM     12  C   UNL d   1       8.427   2.703 -14.372  0.00  0.00     0.058 A 
ATOM     13  C   UNL d   1       9.873   1.144 -15.480  0.00  0.00     0.051 C 
ATOM     14  C   UNL d   1      10.807   3.124 -16.797  0.00  0.00     0.025 C 
ATOM     15  C   UNL d   1       8.529   1.405 -14.852  0.00  0.00    -0.004 A 
ATOM     16  C   UNL d   1       7.451   0.488 -14.757  0.00  0.00    -0.003 A 
ATOM     17  C   UNL d   1       6.249   0.918 -14.147  0.00  0.00    -0.000 A 
ATOM     18  C   UNL d   1       6.133   2.230 -13.673  0.00  0.00     0.002 A 
ATOM     19  C   UNL d   1       7.195   3.138 -13.804  0.00  0.00     0.017 A 
ENDBRANCH   7   8
ENDBRANCH   4   7
BRANCH   1  20
ATOM     20  C   UNL d   1       9.059   5.738  -7.422  0.00  0.00     0.277 C 
BRANCH  20  21
ATOM     21  C   UNL d   1       9.689   6.898  -6.693  0.00  0.00     0.011 A 
ATOM     22  C   UNL d   1       9.482   8.173  -7.192  0.00  0.00    -0.000 A 
ATOM     23  C   UNL d   1      10.126   9.229  -6.556  0.00  0.00     0.024 A 
ATOM     24  C   UNL d   1      10.857   9.102  -5.367  0.00  0.00     0.094 A 
ATOM     25  C   UNL d   1      11.079   7.814  -4.868  0.00  0.00     0.024 A 
ATOM     26  C   UNL d   1      10.497   6.732  -5.540  0.00  0.00    -0.000 A 
BRANCH  24  27
ATOM     27  O   UNL d   1      11.254  10.266  -4.748  0.00  0.00    -0.328 OA
ATOM     28  C   UNL d   1      11.551  10.176  -3.358  0.00  0.00     0.181 C 
ENDBRANCH  24  27
ENDBRANCH  20  21
ENDBRANCH   1  20
TORSDOF 5
