REMARK  8 active torsions:
REMARK  status: ('A' for Active; 'I' for Inactive)
REMARK    1  A    between atoms: C_2  and  C_4 
REMARK    2  A    between atoms: C_4  and  S_5 
REMARK    3  A    between atoms: S_5  and  N_8 
REMARK    4  A    between atoms: C_12  and  C_13 
REMARK    5  A    between atoms: C_16  and  O_17 
REMARK    6  A    between atoms: O_17  and  C_18 
REMARK    7  A    between atoms: C_18  and  C_19 
REMARK    8  A    between atoms: C_28  and  N_29 
ROOT
ATOM      1  N   UNL d   1      10.748   1.190 -17.681  0.00  0.00    -0.218 N 
ATOM      2  C   UNL d   1      11.600   1.937 -16.866  0.00  0.00     0.093 A 
ATOM      3  C   UNL d   1      10.898   2.541 -15.885  0.00  0.00     0.023 A 
ATOM      4  C   UNL d   1       9.546   2.057 -15.994  0.00  0.00     0.037 A 
ATOM      5  C   UNL d   1       8.351   2.231 -15.266  0.00  0.00     0.006 A 
ATOM      6  C   UNL d   1       7.195   1.555 -15.721  0.00  0.00     0.037 A 
ATOM      7  C   UNL d   1       7.256   0.744 -16.867  0.00  0.00     0.142 A 
ATOM      8  N   UNL d   1       8.372   0.553 -17.586  0.00  0.00    -0.211 NA
ATOM      9  C   UNL d   1       9.476   1.215 -17.133  0.00  0.00     0.158 A 
ENDROOT
BRANCH   5  10
ATOM     10  C   UNL d   1       8.315   3.111 -14.083  0.00  0.00     0.000 A 
ATOM     11  C   UNL d   1       9.431   3.217 -13.217  0.00  0.00     0.002 A 
ATOM     12  C   UNL d   1       9.392   4.043 -12.091  0.00  0.00     0.024 A 
ATOM     13  C   UNL d   1       8.231   4.777 -11.774  0.00  0.00     0.095 A 
ATOM     14  C   UNL d   1       7.117   4.686 -12.636  0.00  0.00     0.024 A 
ATOM     15  C   UNL d   1       7.162   3.862 -13.774  0.00  0.00     0.002 A 
BRANCH  13  16
ATOM     16  O   UNL d   1       8.113   5.590 -10.674  0.00  0.00    -0.326 OA
BRANCH  16  17
ATOM     17  C   UNL d   1       8.842   5.284  -9.485  0.00  0.00     0.175 C 
BRANCH  17  18
ATOM     18  C   UNL d   1       9.461   6.530  -8.888  0.00  0.00     0.008 A 
ATOM     19  C   UNL d   1       9.114   6.945  -7.587  0.00  0.00    -0.002 A 
ATOM     20  C   UNL d   1       9.716   8.088  -7.030  0.00  0.00    -0.000 A 
ATOM     21  C   UNL d   1      10.669   8.815  -7.770  0.00  0.00    -0.000 A 
ATOM     22  C   UNL d   1      11.020   8.403  -9.071  0.00  0.00    -0.000 A 
ATOM     23  C   UNL d   1      10.412   7.262  -9.630  0.00  0.00    -0.002 A 
ENDBRANCH  17  18
ENDBRANCH  16  17
ENDBRANCH  13  16
ENDBRANCH   5  10
BRANCH   7  24
ATOM     24  N   UNL d   1       6.089   0.110 -17.329  0.00  0.00    -0.330 N 
ATOM     25  C   UNL d   1       5.778   0.021 -18.742  0.00  0.00     0.138 C 
ATOM     26  C   UNL d   1       5.523  -1.443 -19.138  0.00  0.00     0.274 C 
ATOM     27  N   UNL d   1       4.489  -2.029 -18.277  0.00  0.00     0.143 N 
ATOM     28  C   UNL d   1       4.953  -2.008 -16.881  0.00  0.00     0.274 C 
ATOM     29  C   UNL d   1       4.247  -3.402 -18.674  0.00  0.00     0.286 C 
ATOM     30  C   UNL d   1       5.192  -0.562 -16.410  0.00  0.00     0.138 C 
ENDBRANCH   7  24
BRANCH   1  31
ATOM     31  S   UNL d   1      11.218   0.276 -19.059  0.00  0.00     0.252 S 
ATOM     32  O   UNL d   1      10.028   0.032 -19.872  0.00  0.00    -0.204 OA
ATOM     33  O   UNL d   1      11.992  -0.831 -18.475  0.00  0.00    -0.204 OA
BRANCH  31  34
ATOM     34  C   UNL d   1      12.285   1.502 -19.968  0.00  0.00     0.145 C 
BRANCH  34  35
ATOM     35  C   UNL d   1      13.773   1.619 -19.520  0.00  0.00     0.018 C 
ATOM     36  C   UNL d   1      14.455   2.842 -20.157  0.00  0.00     0.001 C 
ATOM     37  C   UNL d   1      14.595   0.335 -19.741  0.00  0.00     0.001 C 
ENDBRANCH  34  35
ENDBRANCH  31  34
ENDBRANCH   1  31
TORSDOF 8
