REMARK  3 active torsions:
REMARK  status: ('A' for Active; 'I' for Inactive)
REMARK    1  A    between atoms: C_2  and  C_3 
REMARK    2  A    between atoms: N_12  and  C_13 
REMARK    3  A    between atoms: C_13  and  C_14 
ROOT
ATOM      1  O   UNL d   1       9.064   9.047 -10.310  0.00  0.00    -0.221 OA
ATOM      2  C   UNL d   1       9.669   7.800  -9.928  0.00  0.00     0.149 C 
ATOM      3  C   UNL d   1      11.182   7.938 -10.033  0.00  0.00     0.070 C 
ATOM      4  C   UNL d   1      11.793   8.881  -9.022  0.00  0.00     0.254 C 
ATOM      5  N   UNL d   1      11.441   8.508  -7.660  0.00  0.00     0.142 N 
ATOM      6  C   UNL d   1       9.999   8.596  -7.519  0.00  0.00     0.254 C 
ATOM      7  C   UNL d   1       9.388   7.558  -8.427  0.00  0.00     0.070 C 
ENDROOT
BRANCH   5   8
ATOM      8  C   UNL d   1      12.034   9.472  -6.773  0.00  0.00     0.278 C 
BRANCH   8   9
ATOM      9  C   UNL d   1      11.698   9.384  -5.350  0.00  0.00     0.033 C 
ATOM     10  C   UNL d   1      11.858   8.275  -4.476  0.00  0.00     0.035 A 
ATOM     11  C   UNL d   1      11.521   8.682  -3.162  0.00  0.00     0.162 A 
ATOM     12  C   UNL d   1      12.241   6.915  -4.585  0.00  0.00     0.004 A 
ATOM     13  N   UNL d   1      11.144   9.980  -3.283  0.00  0.00    -0.226 NA
ATOM     14  N   UNL d   1      11.510   7.942  -2.049  0.00  0.00    -0.225 NA
ATOM     15  C   UNL d   1      11.145  10.379  -4.599  0.00  0.00     0.098 C 
ATOM     16  C   UNL d   1      11.849   6.657  -2.205  0.00  0.00     0.101 A 
ATOM     17  C   UNL d   1      12.248   6.181  -3.430  0.00  0.00     0.021 A 
ENDBRANCH   8   9
ENDBRANCH   5   8
BRANCH   2  18
ATOM     18  C   UNL d   1       9.153   6.658 -10.831  0.00  0.00     0.005 A 
ATOM     19  C   UNL d   1       9.374   6.699 -12.225  0.00  0.00    -0.001 A 
ATOM     20  C   UNL d   1       8.904   5.669 -13.071  0.00  0.00     0.006 A 
ATOM     21  C   UNL d   1       8.123   4.632 -12.550  0.00  0.00     0.035 A 
ATOM     22  C   UNL d   1       7.856   4.599 -11.174  0.00  0.00     0.006 A 
ATOM     23 BR   UNL d   1       7.404   3.322 -13.728  0.00  0.00    -0.049 Br
ATOM     24  C   UNL d   1       8.382   5.582 -10.323  0.00  0.00    -0.001 A 
ENDBRANCH   2  18
TORSDOF 3
