REMARK  11 active torsions:
REMARK  status: ('A' for Active; 'I' for Inactive)
REMARK    1  A    between atoms: C_2  and  C_3 
REMARK    2  A    between atoms: C_3  and  N_4 
REMARK    3  A    between atoms: N_4  and  C_5 
REMARK    4  A    between atoms: N_4  and  C_24 
REMARK    5  A    between atoms: C_5  and  C_6 
REMARK    6  A    between atoms: C_6  and  C_7 
REMARK    7  A    between atoms: C_7  and  C_8 
REMARK    8  A    between atoms: C_8  and  N_9 
REMARK       I    between atoms: N_9  and  C_10 
REMARK    9  A    between atoms: C_10  and  C_12 
REMARK   10  A    between atoms: C_15  and  C_16 
REMARK   11  A    between atoms: C_29  and  N_30 
ROOT
ATOM      1  C   UNL d   1       7.822   1.467 -14.300  0.00  0.00     0.250 C 
ENDROOT
BRANCH   1   2
ATOM      2  N   UNL d   1       7.860   0.736 -15.573  0.00  0.00     0.135 N 
BRANCH   2   3
ATOM      3  C   UNL d   1       6.501   0.787 -16.137  0.00  0.00     0.250 C 
BRANCH   3   4
ATOM      4  C   UNL d   1       6.312  -0.192 -17.299  0.00  0.00     0.035 C 
ATOM      5  C   UNL d   1       4.896  -0.256 -17.855  0.00  0.00     0.002 C 
ENDBRANCH   3   4
ENDBRANCH   2   3
BRANCH   2   6
ATOM      6  C   UNL d   1       8.991   1.088 -16.465  0.00  0.00     0.224 C 
ATOM      7  C   UNL d   1       9.383  -0.147 -17.314  0.00  0.00     0.062 C 
ATOM      8  C   UNL d   1      10.695   0.033 -18.041  0.00  0.00     0.014 A 
ATOM      9  C   UNL d   1      11.607   1.066 -17.759  0.00  0.00     0.075 A 
ATOM     10  C   UNL d   1      11.039  -0.813 -19.108  0.00  0.00     0.115 A 
ATOM     11  C   UNL d   1      11.352   2.078 -16.650  0.00  0.00     0.048 C 
ATOM     12  N   UNL d   1      12.732   1.222 -18.491  0.00  0.00    -0.066 NA
ATOM     13  C   UNL d   1      10.234   1.655 -15.701  0.00  0.00     0.040 C 
ATOM     14  C   UNL d   1      12.983   0.335 -19.448  0.00  0.00     0.727 A 
ATOM     15  N   UNL d   1      12.172  -0.691 -19.793  0.00  0.00    -0.060 NA
BRANCH  14  16
ATOM     16  N   UNL d   1      14.180   0.446 -20.139  0.00  0.00    -0.179 N 
ATOM     17  C   UNL d   1      14.587  -0.577 -21.083  0.00  0.00     0.144 C 
ATOM     18  C   UNL d   1      15.021   1.620 -19.930  0.00  0.00     0.144 C 
ENDBRANCH  14  16
ENDBRANCH   2   6
ENDBRANCH   1   2
BRANCH   1  19
ATOM     19  C   UNL d   1       7.701   2.995 -14.482  0.00  0.00     0.037 C 
BRANCH  19  20
ATOM     20  C   UNL d   1       8.344   3.767 -13.335  0.00  0.00     0.029 C 
BRANCH  20  21
ATOM     21  C   UNL d   1       7.283   4.314 -12.370  0.00  0.00     0.129 C 
BRANCH  21  22
ATOM     22  N   UNL d   1       7.849   5.058 -11.259  0.00  0.00    -0.234 NA
ATOM     23  C   UNL d   1       8.882   5.896 -11.324  0.00  0.00     0.275 C 
ATOM     24  O   UNL d   1       9.406   6.218 -12.396  0.00  0.00    -0.266 OA
BRANCH  23  25
ATOM     25  C   UNL d   1       9.394   6.427 -10.009  0.00  0.00     0.058 A 
ATOM     26  C   UNL d   1       8.981   5.868  -8.766  0.00  0.00     0.005 A 
ATOM     27  C   UNL d   1       9.445   6.411  -7.545  0.00  0.00     0.000 A 
ATOM     28  C   UNL d   1      10.351   7.497  -7.539  0.00  0.00     0.000 A 
ATOM     29  C   UNL d   1      10.777   8.044  -8.767  0.00  0.00     0.000 A 
ATOM     30  C   UNL d   1      10.299   7.508  -9.981  0.00  0.00     0.005 A 
BRANCH  28  31
ATOM     31  C   UNL d   1      10.826   8.057  -6.271  0.00  0.00     0.000 A 
ATOM     32  C   UNL d   1      10.740   9.439  -6.038  0.00  0.00     0.000 A 
ATOM     33  C   UNL d   1      11.162   9.983  -4.816  0.00  0.00     0.000 A 
ATOM     34  C   UNL d   1      11.755   9.155  -3.847  0.00  0.00     0.000 A 
ATOM     35  C   UNL d   1      11.883   7.772  -4.086  0.00  0.00     0.000 A 
ATOM     36  C   UNL d   1      11.406   7.224  -5.296  0.00  0.00     0.000 A 
ENDBRANCH  28  31
ENDBRANCH  23  25
ENDBRANCH  21  22
ENDBRANCH  20  21
ENDBRANCH  19  20
ENDBRANCH   1  19
TORSDOF 11
