REMARK  11 active torsions:
REMARK  status: ('A' for Active; 'I' for Inactive)
REMARK    1  A    between atoms: O_2  and  C_3 
REMARK    2  A    between atoms: C_7  and  C_8 
REMARK    3  A    between atoms: C_8  and  C_9 
REMARK    4  A    between atoms: C_9  and  C_10 
REMARK    5  A    between atoms: C_15  and  O_16 
REMARK    6  A    between atoms: O_16  and  C_17 
REMARK    7  A    between atoms: C_17  and  C_18 
REMARK    8  A    between atoms: C_18  and  C_19 
REMARK    9  A    between atoms: C_19  and  C_20 
REMARK   10  A    between atoms: C_20  and  N_21 
REMARK   11  A    between atoms: N_24  and  C_25 
ROOT
ATOM      1  O   UNL d   1       8.620   2.944 -14.843  0.00  0.00    -0.331 OA
ENDROOT
BRANCH   1   2
ATOM      2  C   UNL d   1       7.514   2.150 -14.647  0.00  0.00     0.090 A 
ATOM      3  C   UNL d   1       7.407   1.001 -15.470  0.00  0.00     0.001 A 
ATOM      4  C   UNL d   1       6.355   0.091 -15.223  0.00  0.00    -0.002 A 
ATOM      5  C   UNL d   1       5.358   0.363 -14.266  0.00  0.00    -0.000 A 
ATOM      6  C   UNL d   1       5.454   1.510 -13.470  0.00  0.00     0.002 A 
ATOM      7  C   UNL d   1       6.527   2.403 -13.656  0.00  0.00     0.024 A 
BRANCH   3   8
ATOM      8  C   UNL d   1       8.483   0.720 -16.529  0.00  0.00     0.033 C 
BRANCH   8   9
ATOM      9  C   UNL d   1       8.117  -0.366 -17.560  0.00  0.00     0.031 C 
BRANCH   9  10
ATOM     10  C   UNL d   1       7.090   0.078 -18.580  0.00  0.00    -0.020 A 
ATOM     11  C   UNL d   1       5.713  -0.218 -18.439  0.00  0.00    -0.004 A 
ATOM     12  C   UNL d   1       4.794   0.229 -19.406  0.00  0.00     0.002 A 
ATOM     13  C   UNL d   1       5.250   0.942 -20.528  0.00  0.00     0.024 A 
ATOM     14  C   UNL d   1       6.620   1.232 -20.692  0.00  0.00     0.094 A 
ATOM     15  C   UNL d   1       7.535   0.798 -19.700  0.00  0.00     0.020 A 
BRANCH  14  16
ATOM     16  O   UNL d   1       6.985   1.947 -21.813  0.00  0.00    -0.328 OA
ATOM     17  C   UNL d   1       8.361   2.264 -21.968  0.00  0.00     0.181 C 
ENDBRANCH  14  16
ENDBRANCH   9  10
ENDBRANCH   8   9
ENDBRANCH   3   8
ENDBRANCH   1   2
BRANCH   1  18
ATOM     18  C   UNL d   1       8.993   3.863 -13.829  0.00  0.00     0.149 C 
BRANCH  18  19
ATOM     19  C   UNL d   1       8.180   5.176 -13.930  0.00  0.00     0.035 C 
BRANCH  19  20
ATOM     20  C   UNL d   1       8.632   6.190 -12.888  0.00  0.00     0.038 C 
BRANCH  20  21
ATOM     21  C   UNL d   1       8.262   5.795 -11.443  0.00  0.00     0.251 C 
BRANCH  21  22
ATOM     22  N   UNL d   1       9.405   5.963 -10.541  0.00  0.00     0.141 N 
ATOM     23  C   UNL d   1       8.978   5.577  -9.195  0.00  0.00     0.274 C 
ATOM     24  C   UNL d   1      10.159   5.679  -8.221  0.00  0.00     0.137 C 
ATOM     25  N   UNL d   1      10.749   7.023  -8.249  0.00  0.00    -0.344 N 
ATOM     26  C   UNL d   1      11.074   7.499  -9.603  0.00  0.00     0.137 C 
ATOM     27  C   UNL d   1       9.855   7.361 -10.510  0.00  0.00     0.274 C 
BRANCH  25  28
ATOM     28  C   UNL d   1      10.974   7.754  -7.113  0.00  0.00     0.056 A 
ATOM     29  C   UNL d   1      10.928   9.178  -7.120  0.00  0.00     0.019 A 
ATOM     30  C   UNL d   1      11.135   9.925  -5.953  0.00  0.00     0.031 A 
ATOM     31  C   UNL d   1      11.397   9.271  -4.732  0.00  0.00     0.140 A 
ATOM     32  C   UNL d   1      11.468   7.865  -4.699  0.00  0.00     0.031 A 
ATOM     33  F   UNL d   1      11.562   9.985  -3.598  0.00  0.00    -0.204 F 
ATOM     34  C   UNL d   1      11.252   7.118  -5.866  0.00  0.00     0.019 A 
ENDBRANCH  25  28
ENDBRANCH  21  22
ENDBRANCH  20  21
ENDBRANCH  19  20
ENDBRANCH  18  19
ENDBRANCH   1  18
TORSDOF 11
