REMARK  4 active torsions:
REMARK  status: ('A' for Active; 'I' for Inactive)
REMARK    1  A    between atoms: N_3  and  C_4 
REMARK    2  A    between atoms: C_4  and  C_5 
REMARK    3  A    between atoms: C_5  and  N_6 
REMARK    4  A    between atoms: N_15  and  C_16 
ROOT
ATOM      1  O   UNL d   1      10.258   5.320 -13.455  0.00  0.00    -0.247 OA
ATOM      2  C   UNL d   1       9.077   5.234 -13.104  0.00  0.00     0.328 A 
ATOM      3  N   UNL d   1       8.399   6.156 -12.418  0.00  0.00    -0.298 N 
ATOM      4  C   UNL d   1       7.022   5.764 -12.139  0.00  0.00     0.131 A 
ATOM      5  C   UNL d   1       6.911   4.412 -12.836  0.00  0.00     0.135 A 
ATOM      6  N   UNL d   1       8.259   4.199 -13.363  0.00  0.00    -0.278 N 
ENDROOT
BRANCH   3   7
ATOM      7  C   UNL d   1       8.951   7.412 -11.925  0.00  0.00     0.141 C 
BRANCH   7   8
ATOM      8  C   UNL d   1       9.424   7.205 -10.491  0.00  0.00     0.274 C 
BRANCH   8   9
ATOM      9  N   UNL d   1       9.804   8.443  -9.807  0.00  0.00     0.139 N 
ATOM     10  C   UNL d   1       9.537   8.386  -8.371  0.00  0.00     0.250 C 
ATOM     11  C   UNL d   1      10.129   7.128  -7.704  0.00  0.00     0.035 C 
ATOM     12  C   UNL d   1      11.579   7.315  -7.249  0.00  0.00     0.002 C 
ATOM     13  C   UNL d   1      12.497   8.117  -8.201  0.00  0.00     0.002 C 
ATOM     14  C   UNL d   1      12.251   8.000  -9.711  0.00  0.00     0.035 C 
ATOM     15  C   UNL d   1      11.128   8.936 -10.161  0.00  0.00     0.250 C 
ENDBRANCH   8   9
ENDBRANCH   7   8
ENDBRANCH   3   7
BRANCH   6  16
ATOM     16  C   UNL d   1       8.628   3.054 -14.119  0.00  0.00     0.083 A 
ATOM     17  C   UNL d   1       7.708   2.362 -14.937  0.00  0.00     0.116 A 
ATOM     18  N   UNL d   1       8.033   1.289 -15.688  0.00  0.00    -0.241 NA
ATOM     19  C   UNL d   1       9.305   0.834 -15.645  0.00  0.00     0.099 A 
ATOM     20  C   UNL d   1      10.295   1.433 -14.850  0.00  0.00     0.022 A 
ATOM     21  C   UNL d   1       9.955   2.554 -14.075  0.00  0.00     0.021 A 
ENDBRANCH   6  16
TORSDOF 4
