REMARK  7 active torsions:
REMARK  status: ('A' for Active; 'I' for Inactive)
REMARK    1  A    between atoms: C_2  and  C_3 
REMARK       I    between atoms: C_2  and  N_10 
REMARK    2  A    between atoms: C_3  and  C_4 
REMARK    3  A    between atoms: N_10  and  C_11 
REMARK    4  A    between atoms: C_17  and  C_18 
REMARK    5  A    between atoms: C_18  and  C_19 
REMARK    6  A    between atoms: C_19  and  N_20 
REMARK    7  A    between atoms: N_23  and  C_24 
ROOT
ATOM      1  C   UNL d   1       6.491  -0.144 -19.639  0.00  0.00     0.129 C 
ATOM      2  C   UNL d   1       6.957  -1.071 -20.788  0.00  0.00     0.034 C 
ATOM      3  C   UNL d   1       8.502  -1.131 -20.733  0.00  0.00     0.028 C 
ATOM      4  C   UNL d   1       8.879  -0.028 -19.785  0.00  0.00    -0.024 A 
ATOM      5  C   UNL d   1      10.174   0.430 -19.489  0.00  0.00    -0.005 A 
ATOM      6  C   UNL d   1      10.320   1.478 -18.553  0.00  0.00    -0.005 A 
ATOM      7  C   UNL d   1       9.185   2.049 -17.922  0.00  0.00    -0.020 A 
ATOM      8  C   UNL d   1       7.887   1.563 -18.231  0.00  0.00    -0.007 A 
ATOM      9  C   UNL d   1       7.762   0.525 -19.175  0.00  0.00    -0.004 A 
ENDROOT
BRANCH   7  10
ATOM     10  C   UNL d   1       9.359   3.195 -16.938  0.00  0.00     0.062 C 
BRANCH  10  11
ATOM     11  C   UNL d   1       8.734   2.894 -15.563  0.00  0.00     0.255 C 
BRANCH  11  12
ATOM     12  N   UNL d   1       8.773   4.082 -14.713  0.00  0.00     0.141 N 
ATOM     13  C   UNL d   1      10.000   4.112 -13.920  0.00  0.00     0.274 C 
ATOM     14  C   UNL d   1      10.040   5.391 -13.072  0.00  0.00     0.138 C 
ATOM     15  N   UNL d   1       8.865   5.515 -12.236  0.00  0.00    -0.329 N 
ATOM     16  C   UNL d   1       7.609   5.368 -12.936  0.00  0.00     0.138 C 
ATOM     17  C   UNL d   1       7.617   4.092 -13.804  0.00  0.00     0.274 C 
BRANCH  15  18
ATOM     18  C   UNL d   1       8.939   5.690 -10.841  0.00  0.00     0.148 A 
ATOM     19  C   UNL d   1       9.604   6.818 -10.214  0.00  0.00     0.042 A 
ATOM     20  C   UNL d   1       9.538   6.690  -8.800  0.00  0.00     0.050 A 
ATOM     21  C   UNL d   1      10.234   7.980 -10.714  0.00  0.00     0.004 A 
ATOM     22  S   UNL d   1       8.661   5.215  -8.456  0.00  0.00     0.015 SA
ATOM     23  C   UNL d   1      10.096   7.644  -7.930  0.00  0.00     0.008 A 
ATOM     24  N   UNL d   1       8.409   4.792 -10.051  0.00  0.00    -0.192 NA
ATOM     25  C   UNL d   1      10.755   8.771  -8.463  0.00  0.00     0.001 A 
ATOM     26  C   UNL d   1      10.837   8.923  -9.860  0.00  0.00     0.000 A 
ENDBRANCH  15  18
ENDBRANCH  11  12
ENDBRANCH  10  11
ENDBRANCH   7  10
BRANCH   1  27
ATOM     27  N   UNL d   1       5.906  -0.929 -18.570  0.00  0.00    -0.235 NA
ATOM     28  C   UNL d   1       4.615  -1.251 -18.428  0.00  0.00     0.256 C 
ATOM     29  O   UNL d   1       3.755  -0.960 -19.254  0.00  0.00    -0.270 OA
BRANCH  28  30
ATOM     30  C   UNL d   1       4.247  -2.014 -17.152  0.00  0.00     0.116 C 
BRANCH  30  31
ATOM     31  C   UNL d   1       4.534  -1.194 -15.892  0.00  0.00    -0.013 A 
ATOM     32  C   UNL d   1       3.474  -0.812 -15.052  0.00  0.00    -0.004 A 
ATOM     33  C   UNL d   1       3.737  -0.040 -13.901  0.00  0.00    -0.000 A 
ATOM     34  C   UNL d   1       5.050   0.363 -13.583  0.00  0.00    -0.000 A 
ATOM     35  C   UNL d   1       6.114  -0.027 -14.409  0.00  0.00    -0.000 A 
ATOM     36  C   UNL d   1       5.851  -0.812 -15.542  0.00  0.00    -0.004 A 
ENDBRANCH  30  31
ENDBRANCH  28  30
ENDBRANCH   1  27
TORSDOF 7
