REMARK  7 active torsions:
REMARK  status: ('A' for Active; 'I' for Inactive)
REMARK    1  A    between atoms: C_3  and  S_4 
REMARK    2  A    between atoms: S_4  and  C_5 
REMARK    3  A    between atoms: C_5  and  C_6 
REMARK    4  A    between atoms: C_6  and  C_7 
REMARK    5  A    between atoms: C_7  and  N_8 
REMARK    6  A    between atoms: N_13  and  C_14 
REMARK    7  A    between atoms: C_25  and  C_26 
ROOT
ATOM      1  C   UNL d   1       8.822   3.550 -13.140  0.00  0.00     0.251 C 
ENDROOT
BRANCH   1   2
ATOM      2  C   UNL d   1       9.982   3.844 -14.099  0.00  0.00     0.047 C 
BRANCH   2   3
ATOM      3  C   UNL d   1      10.524   2.576 -14.779  0.00  0.00     0.067 C 
BRANCH   3   4
ATOM      4  S   UNL d   1      11.916   3.048 -15.852  0.00  0.00    -0.075 SA
BRANCH   4   5
ATOM      5  C   UNL d   1      11.021   3.878 -17.144  0.00  0.00     0.193 A 
ATOM      6  N   UNL d   1      11.580   4.703 -18.065  0.00  0.00    -0.292 N 
ATOM      7  C   UNL d   1      12.973   5.083 -18.244  0.00  0.00     0.134 C 
ATOM      8  C   UNL d   1      10.496   5.053 -18.785  0.00  0.00     0.143 A 
ATOM      9  N   UNL d   1       9.361   4.519 -18.385  0.00  0.00    -0.133 NA
ATOM     10  N   UNL d   1       9.722   3.711 -17.304  0.00  0.00    -0.122 NA
BRANCH   8  11
ATOM     11  C   UNL d   1      10.535   6.003 -20.005  0.00  0.00     0.059 C 
ATOM     12  C   UNL d   1      10.073   5.306 -21.299  0.00  0.00     0.007 C 
ATOM     13  C   UNL d   1       8.553   5.031 -21.333  0.00  0.00     0.000 C 
ATOM     14  C   UNL d   1       7.755   6.321 -21.015  0.00  0.00     0.000 C 
ATOM     15  C   UNL d   1       8.212   7.075 -19.742  0.00  0.00     0.000 C 
ATOM     16  C   UNL d   1       9.741   7.297 -19.752  0.00  0.00     0.007 C 
ENDBRANCH   8  11
ENDBRANCH   4   5
ENDBRANCH   3   4
ENDBRANCH   2   3
ENDBRANCH   1   2
BRANCH   1  17
ATOM     17  N   UNL d   1       8.374   4.708 -12.355  0.00  0.00     0.138 N 
ATOM     18  C   UNL d   1       9.228   5.061 -11.252  0.00  0.00     0.266 C 
ATOM     19  C   UNL d   1       8.704   6.436 -10.870  0.00  0.00     0.097 C 
ATOM     20  C   UNL d   1       8.148   7.067 -12.148  0.00  0.00     0.052 C 
ATOM     21  N   UNL d   1       9.787   7.294 -10.395  0.00  0.00    -0.252 NA
ATOM     22  C   UNL d   1       8.311   5.924 -13.131  0.00  0.00     0.252 C 
ATOM     23  C   UNL d   1       9.035   8.306 -12.395  0.00  0.00     0.021 C 
ATOM     24  C   UNL d   1       9.625   8.591 -11.016  0.00  0.00     0.077 C 
BRANCH  21  25
ATOM     25  C   UNL d   1      10.093   7.301  -9.015  0.00  0.00     0.037 A 
ATOM     26  C   UNL d   1      11.170   8.098  -8.536  0.00  0.00     0.013 A 
ATOM     27  C   UNL d   1      11.465   8.136  -7.152  0.00  0.00     0.031 A 
ATOM     28  C   UNL d   1      10.701   7.386  -6.247  0.00  0.00     0.140 A 
ATOM     29  C   UNL d   1       9.617   6.625  -6.718  0.00  0.00     0.031 A 
ATOM     30  F   UNL d   1      11.020   7.369  -4.925  0.00  0.00    -0.204 F 
ATOM     31  C   UNL d   1       9.333   6.557  -8.104  0.00  0.00     0.013 A 
ENDBRANCH  21  25
ENDBRANCH   1  17
TORSDOF 7
