REMARK  6 active torsions:
REMARK  status: ('A' for Active; 'I' for Inactive)
REMARK    1  A    between atoms: C_2  and  C_3 
REMARK    2  A    between atoms: C_2  and  C_20 
REMARK    3  A    between atoms: C_3  and  C_4 
REMARK    4  A    between atoms: C_4  and  C_5 
REMARK    5  A    between atoms: C_5  and  N_6 
REMARK    6  A    between atoms: N_12  and  C_13 
ROOT
ATOM      1  N   UNL d   1      10.310   8.045 -10.159  0.00  0.00     0.138 N 
ATOM      2  C   UNL d   1       9.678   9.005  -9.247  0.00  0.00     0.266 C 
ATOM      3  C   UNL d   1      10.728   9.103  -8.130  0.00  0.00     0.097 C 
ATOM      4  C   UNL d   1      12.016   8.831  -8.873  0.00  0.00     0.053 C 
ATOM      5  C   UNL d   1      11.450   7.535  -9.398  0.00  0.00     0.237 C 
ATOM      6  C   UNL d   1      10.990   6.851  -8.082  0.00  0.00     0.110 C 
ATOM      7  N   UNL d   1      10.574   7.966  -7.227  0.00  0.00    -0.250 NA
ENDROOT
BRANCH   1   8
ATOM      8  C   UNL d   1       9.415   7.006 -10.646  0.00  0.00     0.251 C 
BRANCH   8   9
ATOM      9  C   UNL d   1       8.730   7.473 -11.941  0.00  0.00     0.043 C 
BRANCH   9  10
ATOM     10  C   UNL d   1       7.708   6.439 -12.451  0.00  0.00     0.071 C 
BRANCH  10  11
ATOM     11  C   UNL d   1       8.343   5.168 -13.047  0.00  0.00     0.173 C 
ATOM     12  O   UNL d   1       9.536   5.164 -13.358  0.00  0.00    -0.291 OA
BRANCH  11  13
ATOM     13  C   UNL d   1       7.455   3.994 -13.302  0.00  0.00     0.035 A 
ATOM     14  C   UNL d   1       6.229   3.812 -12.619  0.00  0.00     0.005 A 
ATOM     15  C   UNL d   1       5.460   2.652 -12.839  0.00  0.00     0.030 A 
ATOM     16  C   UNL d   1       5.893   1.669 -13.745  0.00  0.00     0.140 A 
ATOM     17  C   UNL d   1       7.105   1.843 -14.439  0.00  0.00     0.030 A 
ATOM     18  F   UNL d   1       5.152   0.553 -13.944  0.00  0.00    -0.204 F 
ATOM     19  C   UNL d   1       7.891   2.992 -14.204  0.00  0.00     0.005 A 
ENDBRANCH  11  13
ENDBRANCH  10  11
ENDBRANCH   9  10
ENDBRANCH   8   9
ENDBRANCH   1   8
BRANCH   7  20
ATOM     20  C   UNL d   1      11.062   8.067  -5.904  0.00  0.00     0.037 A 
ATOM     21  C   UNL d   1      11.354   6.883  -5.172  0.00  0.00     0.012 A 
ATOM     22  C   UNL d   1      11.859   6.942  -3.857  0.00  0.00     0.012 A 
ATOM     23  C   UNL d   1      12.067   8.192  -3.243  0.00  0.00     0.058 A 
ATOM     24  C   UNL d   1      11.758   9.367  -3.940  0.00  0.00     0.012 A 
ATOM     25 CL   UNL d   1      12.657   8.325  -1.645  0.00  0.00    -0.082 Cl
ATOM     26  C   UNL d   1      11.260   9.311  -5.250  0.00  0.00     0.012 A 
ENDBRANCH   7  20
TORSDOF 6
