REMARK  3 active torsions:
REMARK  status: ('A' for Active; 'I' for Inactive)
REMARK    1  A    between atoms: C_5  and  C_6 
REMARK    2  A    between atoms: C_6  and  N_7 
REMARK    3  A    between atoms: N_10  and  C_11 
ROOT
ATOM      1  N   UNL d   1       7.852   5.367 -12.008  0.00  0.00     0.146 N 
ATOM      2  C   UNL d   1       7.882   5.064 -10.581  0.00  0.00     0.286 C 
ATOM      3  C   UNL d   1       9.211   5.444  -9.927  0.00  0.00     0.286 C 
ATOM      4  N   UNL d   1       9.482   6.882 -10.058  0.00  0.00     0.153 N 
ATOM      5  C   UNL d   1       9.408   7.223 -11.490  0.00  0.00     0.286 C 
ATOM      6  C   UNL d   1       8.082   6.794 -12.136  0.00  0.00     0.286 C 
ENDROOT
BRANCH   4   7
ATOM      7  C   UNL d   1      10.744   7.268  -9.404  0.00  0.00     0.323 A 
ATOM      8  C   UNL d   1      10.691   7.394  -7.918  0.00  0.00     0.036 A 
ATOM      9  C   UNL d   1      11.073   8.658  -7.466  0.00  0.00     0.083 A 
ATOM     10  C   UNL d   1      10.343   6.445  -6.934  0.00  0.00    -0.000 A 
ATOM     11  N   UNL d   1      11.386   9.405  -8.550  0.00  0.00    -0.210 NA
ATOM     12  C   UNL d   1      11.147   9.067  -6.134  0.00  0.00     0.019 A 
ATOM     13  C   UNL d   1      11.296   8.704  -9.650  0.00  0.00     0.291 A 
ATOM     14  O   UNL d   1      11.726   9.114 -10.707  0.00  0.00    -0.268 OA
ATOM     15  C   UNL d   1      10.786   8.115  -5.183  0.00  0.00     0.002 A 
ATOM     16  C   UNL d   1      10.370   6.825  -5.576  0.00  0.00    -0.000 A 
ENDBRANCH   4   7
BRANCH   1  17
ATOM     17  C   UNL d   1       6.551   4.998 -12.536  0.00  0.00     0.277 C 
BRANCH  17  18
ATOM     18  C   UNL d   1       6.526   3.587 -13.082  0.00  0.00     0.011 A 
ATOM     19  C   UNL d   1       7.547   3.164 -13.960  0.00  0.00    -0.003 A 
ATOM     20  C   UNL d   1       7.541   1.845 -14.459  0.00  0.00    -0.004 A 
ATOM     21  C   UNL d   1       6.500   0.961 -14.100  0.00  0.00    -0.022 A 
ATOM     22  C   UNL d   1       6.493  -0.456 -14.623  0.00  0.00     0.031 C 
ATOM     23  C   UNL d   1       5.470   1.396 -13.241  0.00  0.00    -0.004 A 
ATOM     24  C   UNL d   1       5.478   2.714 -12.742  0.00  0.00    -0.003 A 
ENDBRANCH  17  18
ENDBRANCH   1  17
TORSDOF 3
