REMARK  12 active torsions:
REMARK  status: ('A' for Active; 'I' for Inactive)
REMARK    1  A    between atoms: N_2  and  C_3 
REMARK    2  A    between atoms: N_14  and  C_15 
REMARK    3  A    between atoms: C_15  and  C_16 
REMARK    4  A    between atoms: C_16  and  O_17 
REMARK    5  A    between atoms: O_17  and  C_18 
REMARK    6  A    between atoms: C_18  and  C_19 
REMARK    7  A    between atoms: C_19  and  O_20 
REMARK    8  A    between atoms: O_20  and  C_21 
REMARK    9  A    between atoms: C_21  and  C_22 
REMARK   10  A    between atoms: C_22  and  C_23 
REMARK   11  A    between atoms: C_23  and  C_24 
REMARK   12  A    between atoms: C_24  and  C_25 
ROOT
ATOM      1  C   UNL d   1       8.470   0.880 -14.513  0.00  0.00     0.143 C 
ENDROOT
BRANCH   1   2
ATOM      2  N   UNL d   1       7.486   0.353 -15.454  0.00  0.00    -0.278 N 
ATOM      3  C   UNL d   1       6.170   0.001 -15.133  0.00  0.00     0.080 A 
ATOM      4  C   UNL d   1       5.394   0.036 -13.961  0.00  0.00     0.019 A 
ATOM      5  C   UNL d   1       5.573  -0.466 -16.283  0.00  0.00     0.076 A 
ATOM      6  C   UNL d   1       4.045  -0.412 -14.039  0.00  0.00     0.001 A 
ATOM      7  C   UNL d   1       3.487  -0.888 -15.253  0.00  0.00    -0.003 A 
ATOM      8  C   UNL d   1       4.264  -0.931 -16.422  0.00  0.00    -0.003 A 
ATOM      9  C   UNL d   1       3.885  -1.336 -17.837  0.00  0.00     0.066 C 
ATOM     10  C   UNL d   1       5.087  -1.837 -18.669  0.00  0.00     0.283 C 
ATOM     11  C   UNL d   1       6.267  -0.829 -18.642  0.00  0.00     0.147 C 
ATOM     12  N   UNL d   1       6.540  -0.391 -17.281  0.00  0.00    -0.278 N 
ATOM     13  C   UNL d   1       7.688   0.101 -16.756  0.00  0.00     0.332 A 
ATOM     14  O   UNL d   1       8.750   0.287 -17.369  0.00  0.00    -0.246 OA
BRANCH  10  15
ATOM     15  N   UNL d   1       4.653  -2.106 -20.036  0.00  0.00     0.342 N 
ATOM     16  C   UNL d   1       5.623  -2.897 -20.778  0.00  0.00     0.328 C 
ENDBRANCH  10  15
ENDBRANCH   1   2
BRANCH   1  17
ATOM     17  C   UNL d   1       8.480   2.403 -14.499  0.00  0.00     0.167 C 
BRANCH  17  18
ATOM     18  O   UNL d   1       7.409   2.903 -13.707  0.00  0.00    -0.349 OA
BRANCH  18  19
ATOM     19  C   UNL d   1       7.440   4.305 -13.475  0.00  0.00     0.174 C 
BRANCH  19  20
ATOM     20  C   UNL d   1       8.607   4.765 -12.578  0.00  0.00     0.174 C 
BRANCH  20  21
ATOM     21  O   UNL d   1       8.225   4.692 -11.223  0.00  0.00    -0.352 OA
BRANCH  21  22
ATOM     22  C   UNL d   1       9.302   4.992 -10.358  0.00  0.00     0.142 C 
BRANCH  22  23
ATOM     23  C   UNL d   1       8.718   5.592  -9.085  0.00  0.00     0.033 C 
BRANCH  23  24
ATOM     24  C   UNL d   1       9.777   6.301  -8.232  0.00  0.00     0.007 C 
BRANCH  24  25
ATOM     25  C   UNL d   1       9.166   7.064  -7.050  0.00  0.00     0.026 C 
BRANCH  25  26
ATOM     26  C   UNL d   1      10.221   7.798  -6.242  0.00  0.00    -0.022 A 
ATOM     27  C   UNL d   1      10.505   9.153  -6.512  0.00  0.00    -0.004 A 
ATOM     28  C   UNL d   1      11.460   9.846  -5.745  0.00  0.00    -0.000 A 
ATOM     29  C   UNL d   1      12.140   9.190  -4.702  0.00  0.00    -0.000 A 
ATOM     30  C   UNL d   1      11.860   7.832  -4.431  0.00  0.00    -0.000 A 
ATOM     31  C   UNL d   1      10.915   7.140  -5.207  0.00  0.00    -0.004 A 
ENDBRANCH  25  26
ENDBRANCH  24  25
ENDBRANCH  23  24
ENDBRANCH  22  23
ENDBRANCH  21  22
ENDBRANCH  20  21
ENDBRANCH  19  20
ENDBRANCH  18  19
ENDBRANCH  17  18
ENDBRANCH   1  17
TORSDOF 12
