REMARK  5 active torsions:
REMARK  status: ('A' for Active; 'I' for Inactive)
REMARK    1  A    between atoms: O_2  and  C_3 
REMARK    2  A    between atoms: C_10  and  C_11 
REMARK       I    between atoms: C_11  and  N_13 
REMARK    3  A    between atoms: N_13  and  C_14 
REMARK    4  A    between atoms: N_22  and  C_23 
REMARK    5  A    between atoms: C_23  and  C_24 
ROOT
ATOM      1  C   UNL d   1      10.038   3.486 -13.530  0.00  0.00     0.111 C 
ATOM      2  C   UNL d   1      11.232   4.020 -14.348  0.00  0.00     0.058 C 
ATOM      3  C   UNL d   1      11.276   3.532 -15.816  0.00  0.00     0.222 C 
ATOM      4  C   UNL d   1      11.711   2.087 -16.024  0.00  0.00     0.033 C 
ATOM      5  C   UNL d   1      10.675   1.042 -15.588  0.00  0.00     0.004 C 
ATOM      6  C   UNL d   1       9.266   1.456 -16.044  0.00  0.00     0.033 C 
ATOM      7  C   UNL d   1       8.966   2.949 -15.842  0.00  0.00     0.222 C 
ATOM      8  C   UNL d   1       8.739   3.377 -14.367  0.00  0.00     0.058 C 
ATOM      9  N   UNL d   1      10.007   3.730 -16.523  0.00  0.00     0.138 N 
ENDROOT
BRANCH   1  10
ATOM     10  N   UNL d   1       9.848   4.259 -12.297  0.00  0.00    -0.236 NA
ATOM     11  C   UNL d   1       9.540   5.552 -12.197  0.00  0.00     0.278 C 
ATOM     12  O   UNL d   1       9.378   6.318 -13.147  0.00  0.00    -0.265 OA
BRANCH  11  13
ATOM     13  C   UNL d   1       9.458   6.119 -10.822  0.00  0.00     0.099 C 
ATOM     14  C   UNL d   1       8.656   5.491  -9.831  0.00  0.00     0.184 C 
ATOM     15  N   UNL d   1       8.663   5.881  -8.537  0.00  0.00    -0.207 NA
ATOM     16  C   UNL d   1       9.342   7.008  -8.223  0.00  0.00     0.163 C 
ATOM     17  N   UNL d   1       9.245   7.439  -6.907  0.00  0.00    -0.079 NA
ATOM     18  C   UNL d   1      10.120   7.737  -9.146  0.00  0.00     0.089 C 
ATOM     19 CL   UNL d   1      11.021   9.157  -8.682  0.00  0.00    -0.080 Cl
ATOM     20  C   UNL d   1      10.164   7.286 -10.470  0.00  0.00     0.022 C 
BRANCH  14  21
ATOM     21  O   UNL d   1       7.861   4.382 -10.160  0.00  0.00    -0.312 OA
ATOM     22  C   UNL d   1       6.910   4.459 -11.250  0.00  0.00     0.183 C 
ENDBRANCH  14  21
ENDBRANCH  11  13
ENDBRANCH   1  10
BRANCH   9  23
ATOM     23  C   UNL d   1       9.636   5.139 -16.736  0.00  0.00     0.277 C 
BRANCH  23  24
ATOM     24  C   UNL d   1      10.674   5.964 -17.503  0.00  0.00     0.011 A 
ATOM     25  C   UNL d   1      11.840   6.447 -16.870  0.00  0.00    -0.002 A 
ATOM     26  C   UNL d   1      12.831   7.144 -17.605  0.00  0.00    -0.000 A 
ATOM     27  C   UNL d   1      12.639   7.405 -18.971  0.00  0.00    -0.000 A 
ATOM     28  C   UNL d   1      11.460   6.962 -19.605  0.00  0.00    -0.000 A 
ATOM     29  C   UNL d   1      10.481   6.245 -18.879  0.00  0.00    -0.002 A 
ENDBRANCH  23  24
ENDBRANCH   9  23
TORSDOF 5
