REMARK  6 active torsions:
REMARK  status: ('A' for Active; 'I' for Inactive)
REMARK    1  A    between atoms: C_2  and  C_3 
REMARK    2  A    between atoms: C_3  and  N_4 
REMARK    3  A    between atoms: N_4  and  C_5 
REMARK    4  A    between atoms: N_4  and  C_12 
REMARK    5  A    between atoms: C_5  and  C_6 
REMARK    6  A    between atoms: C_20  and  O_21 
ROOT
ATOM      1  C   UNL d   1       7.950   3.777 -13.427  0.00  0.00     0.224 C 
ATOM      2  C   UNL d   1       6.645   2.942 -13.592  0.00  0.00     0.038 C 
ATOM      3  C   UNL d   1       6.550   2.327 -14.978  0.00  0.00     0.030 C 
ATOM      4  C   UNL d   1       7.833   1.734 -15.527  0.00  0.00    -0.004 A 
ATOM      5  C   UNL d   1       9.086   2.021 -14.942  0.00  0.00    -0.022 A 
ATOM      6  C   UNL d   1      10.267   1.486 -15.495  0.00  0.00    -0.004 A 
ATOM      7  C   UNL d   1      10.199   0.653 -16.624  0.00  0.00     0.002 A 
ATOM      8  C   UNL d   1       8.950   0.362 -17.221  0.00  0.00     0.024 A 
ATOM      9  C   UNL d   1       7.753   0.910 -16.669  0.00  0.00     0.090 A 
ATOM     10  C   UNL d   1       9.216   2.938 -13.727  0.00  0.00     0.059 C 
ENDROOT
BRANCH   1  11
ATOM     11  N   UNL d   1       8.035   4.442 -12.098  0.00  0.00     0.140 N 
BRANCH  11  12
ATOM     12  C   UNL d   1       6.930   5.391 -11.888  0.00  0.00     0.251 C 
BRANCH  12  13
ATOM     13  C   UNL d   1       7.127   6.703 -12.671  0.00  0.00     0.035 C 
ATOM     14  C   UNL d   1       5.785   7.397 -12.887  0.00  0.00     0.002 C 
ENDBRANCH  12  13
ENDBRANCH  11  12
BRANCH  11  15
ATOM     15  C   UNL d   1       9.336   5.080 -11.825  0.00  0.00     0.277 C 
BRANCH  15  16
ATOM     16  C   UNL d   1       9.455   5.784 -10.470  0.00  0.00     0.011 A 
ATOM     17  C   UNL d   1       8.818   5.252  -9.330  0.00  0.00    -0.002 A 
ATOM     18  C   UNL d   1       8.853   5.953  -8.105  0.00  0.00    -0.000 A 
ATOM     19  C   UNL d   1       9.584   7.151  -7.995  0.00  0.00    -0.000 A 
ATOM     20  C   UNL d   1      10.245   7.673  -9.121  0.00  0.00    -0.000 A 
ATOM     21  C   UNL d   1      10.165   7.003 -10.356  0.00  0.00    -0.002 A 
ENDBRANCH  15  16
ENDBRANCH  11  15
ENDBRANCH   1  11
BRANCH   9  22
ATOM     22  O   UNL d   1       6.518   0.689 -17.235  0.00  0.00    -0.328 OA
ATOM     23  C   UNL d   1       6.418  -0.196 -18.340  0.00  0.00     0.181 C 
ENDBRANCH   9  22
TORSDOF 6
