REMARK  5 active torsions:
REMARK  status: ('A' for Active; 'I' for Inactive)
REMARK    1  A    between atoms: O_2  and  C_3 
REMARK    2  A    between atoms: C_5  and  C_6 
REMARK    3  A    between atoms: C_13  and  O_14 
REMARK    4  A    between atoms: O_14  and  C_15 
REMARK    5  A    between atoms: C_38  and  O_39 
ROOT
ATOM      1  C   UNL d   1      14.889   3.937 -18.471  0.00  0.00     0.054 C 
ATOM      2  C   UNL d   1      14.187   2.679 -18.975  0.00  0.00    -0.018 A 
ATOM      3  C   UNL d   1      14.936   1.770 -19.760  0.00  0.00     0.022 A 
ATOM      4  C   UNL d   1      14.272   0.678 -20.313  0.00  0.00     0.119 A 
ATOM      5  C   UNL d   1      12.933   0.489 -20.122  0.00  0.00     0.119 A 
ATOM      6  C   UNL d   1      12.147   1.336 -19.366  0.00  0.00     0.024 A 
ATOM      7  C   UNL d   1      12.765   2.466 -18.759  0.00  0.00     0.003 A 
ATOM      8  C   UNL d   1      11.912   3.504 -17.927  0.00  0.00     0.143 C 
ATOM      9  C   UNL d   1      12.657   4.844 -17.742  0.00  0.00     0.072 C 
ATOM     10  C   UNL d   1      12.221   5.902 -16.745  0.00  0.00     0.155 C 
ATOM     11  O   UNL d   1      13.403   6.658 -16.549  0.00  0.00    -0.302 OA
ATOM     12  C   UNL d   1      14.515   5.963 -16.820  0.00  0.00     0.272 C 
ATOM     13  O   UNL d   1      15.675   6.335 -16.645  0.00  0.00    -0.264 OA
ATOM     14  C   UNL d   1      14.086   4.591 -17.338  0.00  0.00     0.100 C 
ATOM     15  O   UNL d   1      12.559  -0.652 -20.785  0.00  0.00    -0.300 OA
ATOM     16  C   UNL d   1      13.727  -1.132 -21.375  0.00  0.00     0.304 A 
ATOM     17  O   UNL d   1      14.796  -0.274 -21.090  0.00  0.00    -0.300 OA
ENDROOT
BRANCH   8  18
ATOM     18  O   UNL d   1      11.583   2.932 -16.662  0.00  0.00    -0.327 OA
BRANCH  18  19
ATOM     19  C   UNL d   1      10.337   3.252 -16.124  0.00  0.00     0.270 C 
ATOM     20  C   UNL d   1       9.694   1.924 -15.739  0.00  0.00     0.241 C 
ATOM     21  C   UNL d   1       8.337   2.209 -15.067  0.00  0.00     0.217 C 
ATOM     22  O   UNL d   1       9.393   1.169 -16.904  0.00  0.00    -0.215 OA
ATOM     23  C   UNL d   1       8.535   3.185 -13.902  0.00  0.00     0.180 C 
ATOM     24  O   UNL d   1       7.883   0.977 -14.539  0.00  0.00    -0.218 OA
ATOM     25  C   UNL d   1       9.231   4.443 -14.424  0.00  0.00     0.177 C 
ATOM     26  O   UNL d   1       7.298   3.606 -13.342  0.00  0.00    -0.328 OA
ATOM     27  O   UNL d   1      10.479   4.022 -14.965  0.00  0.00    -0.326 OA
ATOM     28  C   UNL d   1       9.400   5.430 -13.264  0.00  0.00     0.177 C 
ATOM     29  O   UNL d   1       8.118   5.669 -12.706  0.00  0.00    -0.328 OA
ATOM     30  C   UNL d   1       7.504   4.492 -12.281  0.00  0.00     0.236 C 
ATOM     31  C   UNL d   1       6.143   4.861 -11.706  0.00  0.00     0.067 C 
ENDBRANCH  18  19
ENDBRANCH   8  18
BRANCH   1  32
ATOM     32  C   UNL d   1      15.197   4.886 -19.630  0.00  0.00    -0.014 A 
ATOM     33  C   UNL d   1      16.360   5.680 -19.611  0.00  0.00     0.022 A 
ATOM     34  C   UNL d   1      16.603   6.631 -20.617  0.00  0.00     0.121 A 
ATOM     35  C   UNL d   1      15.693   6.761 -21.701  0.00  0.00     0.175 A 
ATOM     36  C   UNL d   1      14.527   5.967 -21.740  0.00  0.00     0.121 A 
ATOM     37  O   UNL d   1      15.910   7.620 -22.739  0.00  0.00    -0.186 OA
ATOM     38  C   UNL d   1      14.301   5.034 -20.706  0.00  0.00     0.022 A 
BRANCH  34  39
ATOM     39  O   UNL d   1      17.759   7.366 -20.512  0.00  0.00    -0.326 OA
ATOM     40  C   UNL d   1      17.570   8.762 -20.334  0.00  0.00     0.181 C 
ENDBRANCH  34  39
BRANCH  36  41
ATOM     41  O   UNL d   1      13.657   6.130 -22.799  0.00  0.00    -0.326 OA
ATOM     42  C   UNL d   1      12.467   5.339 -22.812  0.00  0.00     0.181 C 
ENDBRANCH  36  41
ENDBRANCH   1  32
TORSDOF 5
