REMARK  8 active torsions:
REMARK  status: ('A' for Active; 'I' for Inactive)
REMARK    1  A    between atoms: C_3  and  C_4 
REMARK    2  A    between atoms: C_8  and  O_9 
REMARK    3  A    between atoms: O_9  and  C_10 
REMARK    4  A    between atoms: C_10  and  C_11 
REMARK    5  A    between atoms: C_11  and  C_12 
REMARK    6  A    between atoms: C_12  and  C_13 
REMARK    7  A    between atoms: C_13  and  N_14 
REMARK    8  A    between atoms: N_17  and  C_18 
ROOT
ATOM      1  C   UNL d   1       8.025   5.757 -11.054  0.00  0.00     0.038 C 
ENDROOT
BRANCH   1   2
ATOM      2  C   UNL d   1       7.186   4.696 -11.759  0.00  0.00     0.035 C 
BRANCH   2   3
ATOM      3  C   UNL d   1       6.895   5.126 -13.199  0.00  0.00     0.149 C 
BRANCH   3   4
ATOM      4  O   UNL d   1       8.121   5.185 -13.927  0.00  0.00    -0.331 OA
BRANCH   4   5
ATOM      5  C   UNL d   1       8.613   4.019 -14.466  0.00  0.00     0.097 A 
ATOM      6  C   UNL d   1       9.647   4.151 -15.364  0.00  0.00     0.043 A 
ATOM      7  C   UNL d   1      10.165   3.001 -16.012  0.00  0.00     0.086 A 
ATOM      8  C   UNL d   1      11.131   2.760 -16.945  0.00  0.00     0.042 A 
ATOM      9  N   UNL d   1       9.589   1.751 -15.713  0.00  0.00    -0.228 N 
ATOM     10  C   UNL d   1      11.100   1.353 -17.136  0.00  0.00     0.124 A 
ATOM     11  N   UNL d   1      10.188   0.741 -16.410  0.00  0.00    -0.164 NA
ATOM     12  C   UNL d   1       8.563   1.603 -14.839  0.00  0.00     0.102 A 
ATOM     13  C   UNL d   1       8.061   2.724 -14.223  0.00  0.00     0.045 A 
BRANCH  10  14
ATOM     14  C   UNL d   1      12.044   0.711 -18.062  0.00  0.00     0.151 C 
ATOM     15  N   UNL d   1      11.974  -0.494 -18.438  0.00  0.00    -0.093 NA
ATOM     16  O   UNL d   1      13.076  -0.772 -19.311  0.00  0.00    -0.061 OA
ENDBRANCH  10  14
ENDBRANCH   4   5
ENDBRANCH   3   4
ENDBRANCH   2   3
ENDBRANCH   1   2
BRANCH   1  17
ATOM     17  C   UNL d   1       8.412   5.319  -9.632  0.00  0.00     0.251 C 
BRANCH  17  18
ATOM     18  N   UNL d   1       9.356   6.260  -9.026  0.00  0.00     0.141 N 
ATOM     19  C   UNL d   1       8.710   6.984  -7.935  0.00  0.00     0.274 C 
ATOM     20  C   UNL d   1       9.642   8.018  -7.319  0.00  0.00     0.137 C 
ATOM     21  N   UNL d   1      10.760   7.322  -6.742  0.00  0.00    -0.344 N 
ATOM     22  C   UNL d   1      11.396   6.400  -7.679  0.00  0.00     0.137 C 
ATOM     23  C   UNL d   1      10.342   5.467  -8.344  0.00  0.00     0.274 C 
BRANCH  21  24
ATOM     24  C   UNL d   1      11.253   7.530  -5.443  0.00  0.00     0.068 A 
ATOM     25  C   UNL d   1      11.382   8.796  -4.846  0.00  0.00     0.084 A 
ATOM     26  C   UNL d   1      11.819   8.817  -3.530  0.00  0.00     0.070 A 
ATOM     27 CL   UNL d   1      11.124  10.307  -5.692  0.00  0.00    -0.080 Cl
ATOM     28  C   UNL d   1      12.194   7.710  -2.770  0.00  0.00     0.012 A 
ATOM     29 CL   UNL d   1      11.857  10.288  -2.822  0.00  0.00    -0.081 Cl
ATOM     30  C   UNL d   1      12.141   6.469  -3.386  0.00  0.00     0.002 A 
ATOM     31  C   UNL d   1      11.677   6.412  -4.713  0.00  0.00     0.018 A 
ENDBRANCH  21  24
ENDBRANCH  17  18
ENDBRANCH   1  17
TORSDOF 8
