REMARK  0 active torsions:
REMARK  status: ('A' for Active; 'I' for Inactive)
ROOT
ATOM      1  C   UNL d   1       3.176  -1.079 -15.359  0.00  0.00     0.285 C 
ATOM      2  N   UNL d   1       4.553  -0.751 -15.689  0.00  0.00     0.139 N 
ATOM      3  C   UNL d   1       4.793  -1.087 -17.097  0.00  0.00     0.251 C 
ATOM      4  C   UNL d   1       6.164  -0.637 -17.646  0.00  0.00     0.040 C 
ATOM      5  C   UNL d   1       6.421   0.873 -17.487  0.00  0.00     0.029 C 
ATOM      6  C   UNL d   1       7.846   1.197 -17.075  0.00  0.00    -0.020 A 
ATOM      7  C   UNL d   1       8.847   1.058 -18.064  0.00  0.00     0.022 A 
ATOM      8  C   UNL d   1      10.172   1.320 -17.708  0.00  0.00     0.119 A 
ATOM      9  C   UNL d   1      10.515   1.701 -16.430  0.00  0.00     0.119 A 
ATOM     10  C   UNL d   1       9.541   1.853 -15.424  0.00  0.00     0.026 A 
ATOM     11  C   UNL d   1       8.179   1.607 -15.742  0.00  0.00    -0.002 A 
ATOM     12  C   UNL d   1       7.174   1.818 -14.670  0.00  0.00    -0.004 A 
ATOM     13  C   UNL d   1       6.956   3.139 -14.219  0.00  0.00    -0.000 A 
ATOM     14  C   UNL d   1       6.006   3.436 -13.223  0.00  0.00    -0.000 A 
ATOM     15  C   UNL d   1       5.324   2.387 -12.591  0.00  0.00    -0.000 A 
ATOM     16  C   UNL d   1       5.535   1.062 -13.000  0.00  0.00    -0.004 A 
ATOM     17  C   UNL d   1       6.450   0.768 -14.037  0.00  0.00    -0.020 A 
ATOM     18  C   UNL d   1       6.685  -0.688 -14.386  0.00  0.00     0.062 C 
ATOM     19  C   UNL d   1       5.419  -1.472 -14.759  0.00  0.00     0.255 C 
ATOM     20  O   UNL d   1      11.860   1.886 -16.359  0.00  0.00    -0.300 OA
ATOM     21  C   UNL d   1      12.354   1.615 -17.647  0.00  0.00     0.304 A 
ATOM     22  O   UNL d   1      11.285   1.259 -18.481  0.00  0.00    -0.300 OA
ENDROOT
TORSDOF 0
