REMARK  7 active torsions:
REMARK  status: ('A' for Active; 'I' for Inactive)
REMARK    1  A    between atoms: N_2  and  C_3 
REMARK    2  A    between atoms: N_2  and  C_19 
REMARK    3  A    between atoms: C_3  and  C_4 
REMARK    4  A    between atoms: C_4  and  C_5 
REMARK    5  A    between atoms: C_5  and  C_6 
REMARK    6  A    between atoms: C_6  and  N_7 
REMARK       I    between atoms: N_7  and  C_8 
REMARK    7  A    between atoms: C_8  and  C_10 
ROOT
ATOM      1  C   UNL d   1       8.978   4.036 -12.261  0.00  0.00     0.250 C 
ENDROOT
BRANCH   1   2
ATOM      2  N   UNL d   1       7.993   3.628 -13.276  0.00  0.00     0.139 N 
ATOM      3  C   UNL d   1       6.925   4.602 -13.468  0.00  0.00     0.285 C 
BRANCH   2   4
ATOM      4  C   UNL d   1       8.590   3.237 -14.572  0.00  0.00     0.246 C 
ATOM      5  C   UNL d   1       9.364   4.392 -15.300  0.00  0.00     0.144 C 
ATOM      6  N   UNL d   1      10.014   3.906 -16.457  0.00  0.00    -0.277 N 
ATOM      7  C   UNL d   1      10.461   4.606 -17.518  0.00  0.00     0.350 A 
ATOM      8  C   UNL d   1      10.362   2.559 -16.627  0.00  0.00     0.078 A 
ATOM      9  N   UNL d   1      11.067   3.742 -18.380  0.00  0.00    -0.191 NA
ATOM     10  O   UNL d   1      10.365   5.837 -17.714  0.00  0.00    -0.244 OA
ATOM     11  C   UNL d   1      11.008   2.462 -17.840  0.00  0.00     0.102 A 
ATOM     12  C   UNL d   1      11.428   1.219 -18.268  0.00  0.00     0.021 A 
ATOM     13  C   UNL d   1      11.171   0.106 -17.434  0.00  0.00     0.001 A 
ATOM     14  C   UNL d   1      10.515   0.244 -16.170  0.00  0.00    -0.003 A 
ATOM     15  C   UNL d   1      10.087   1.522 -15.742  0.00  0.00    -0.003 A 
ATOM     16  C   UNL d   1       9.421   1.937 -14.441  0.00  0.00     0.063 C 
ENDBRANCH   2   4
ENDBRANCH   1   2
BRANCH   1  17
ATOM     17  C   UNL d   1       8.339   4.701 -11.033  0.00  0.00     0.037 C 
BRANCH  17  18
ATOM     18  C   UNL d   1       9.352   5.093  -9.953  0.00  0.00     0.029 C 
BRANCH  18  19
ATOM     19  C   UNL d   1       8.841   6.279  -9.139  0.00  0.00     0.129 C 
BRANCH  19  20
ATOM     20  N   UNL d   1       9.759   6.608  -8.062  0.00  0.00    -0.233 NA
ATOM     21  C   UNL d   1      10.183   7.848  -7.763  0.00  0.00     0.293 C 
ATOM     22  O   UNL d   1      10.068   8.809  -8.521  0.00  0.00    -0.264 OA
BRANCH  21  23
ATOM     23  C   UNL d   1      10.731   8.047  -6.407  0.00  0.00     0.139 A 
ATOM     24  N   UNL d   1      11.065   6.963  -5.603  0.00  0.00    -0.241 NA
ATOM     25  C   UNL d   1      11.524   7.389  -4.380  0.00  0.00     0.082 A 
ATOM     26  C   UNL d   1      11.456   8.811  -4.409  0.00  0.00     0.019 A 
ATOM     27  C   UNL d   1      11.974   6.690  -3.248  0.00  0.00     0.019 A 
ATOM     28  C   UNL d   1      10.961   9.201  -5.700  0.00  0.00     0.025 A 
ATOM     29  C   UNL d   1      11.874   9.497  -3.247  0.00  0.00     0.002 A 
ATOM     30  C   UNL d   1      12.338   8.801  -2.112  0.00  0.00     0.000 A 
ATOM     31  C   UNL d   1      12.381   7.397  -2.107  0.00  0.00     0.002 A 
ENDBRANCH  21  23
ENDBRANCH  19  20
ENDBRANCH  18  19
ENDBRANCH  17  18
ENDBRANCH   1  17
TORSDOF 7
