REMARK  7 active torsions:
REMARK  status: ('A' for Active; 'I' for Inactive)
REMARK    1  A    between atoms: O_2  and  C_3 
REMARK    2  A    between atoms: C_12  and  C_13 
REMARK    3  A    between atoms: C_13  and  O_14 
REMARK    4  A    between atoms: O_14  and  C_15 
REMARK    5  A    between atoms: C_15  and  C_16 
REMARK    6  A    between atoms: N_19  and  C_20 
REMARK    7  A    between atoms: C_20  and  C_21 
ROOT
ATOM      1  O   UNL d   1       9.412   6.525 -12.324  0.00  0.00    -0.349 OA
ENDROOT
BRANCH   1   2
ATOM      2  C   UNL d   1       8.063   6.190 -12.588  0.00  0.00     0.171 C 
BRANCH   2   3
ATOM      3  C   UNL d   1       7.925   4.830 -13.253  0.00  0.00     0.030 A 
ATOM      4  C   UNL d   1       8.904   4.339 -14.160  0.00  0.00     0.092 A 
ATOM      5  C   UNL d   1       8.711   3.066 -14.750  0.00  0.00     0.024 A 
ATOM      6  C   UNL d   1       7.565   2.301 -14.462  0.00  0.00     0.002 A 
ATOM      7  C   UNL d   1       6.582   2.807 -13.577  0.00  0.00    -0.000 A 
ATOM      8  C   UNL d   1       7.393   1.030 -15.041  0.00  0.00     0.000 A 
ATOM      9  C   UNL d   1       5.456   2.020 -13.238  0.00  0.00    -0.000 A 
ATOM     10  C   UNL d   1       6.771   4.064 -12.976  0.00  0.00     0.000 A 
ATOM     11  C   UNL d   1       5.304   0.743 -13.816  0.00  0.00    -0.000 A 
ATOM     12  C   UNL d   1       6.262   0.253 -14.724  0.00  0.00     0.000 A 
BRANCH   4  13
ATOM     13  O   UNL d   1      10.007   5.125 -14.420  0.00  0.00    -0.328 OA
ATOM     14  C   UNL d   1      10.988   4.666 -15.326  0.00  0.00     0.181 C 
ENDBRANCH   4  13
ENDBRANCH   2   3
ENDBRANCH   1   2
BRANCH   1  15
ATOM     15  C   UNL d   1       9.583   7.646 -11.479  0.00  0.00     0.143 C 
BRANCH  15  16
ATOM     16  C   UNL d   1      10.244   7.128 -10.196  0.00  0.00     0.034 C 
ATOM     17  C   UNL d   1      10.735   8.287  -9.331  0.00  0.00     0.038 C 
ATOM     18  C   UNL d   1      11.342   7.769  -8.033  0.00  0.00     0.251 C 
ATOM     19  N   UNL d   1      10.316   7.020  -7.290  0.00  0.00     0.141 N 
ATOM     20  C   UNL d   1       9.916   5.831  -8.047  0.00  0.00     0.251 C 
ATOM     21  C   UNL d   1       9.297   6.232  -9.384  0.00  0.00     0.038 C 
BRANCH  19  22
ATOM     22  C   UNL d   1      10.776   6.625  -5.967  0.00  0.00     0.277 C 
BRANCH  22  23
ATOM     23  C   UNL d   1      11.127   7.759  -5.028  0.00  0.00     0.011 A 
ATOM     24  C   UNL d   1      11.871   7.488  -3.859  0.00  0.00    -0.002 A 
ATOM     25  C   UNL d   1      12.212   8.530  -2.974  0.00  0.00    -0.000 A 
ATOM     26  C   UNL d   1      11.806   9.844  -3.269  0.00  0.00    -0.000 A 
ATOM     27  C   UNL d   1      11.060  10.111  -4.429  0.00  0.00    -0.000 A 
ATOM     28  C   UNL d   1      10.679   9.073  -5.280  0.00  0.00    -0.002 A 
ENDBRANCH  22  23
ENDBRANCH  19  22
ENDBRANCH  15  16
ENDBRANCH   1  15
TORSDOF 7
