REMARK  9 active torsions:
REMARK  status: ('A' for Active; 'I' for Inactive)
REMARK    1  A    between atoms: C_2  and  C_3 
REMARK    2  A    between atoms: C_3  and  N_4 
REMARK    3  A    between atoms: C_5  and  C_6 
REMARK    4  A    between atoms: C_13  and  C_14 
REMARK       I    between atoms: C_14  and  N_16 
REMARK    5  A    between atoms: N_16  and  C_17 
REMARK    6  A    between atoms: C_17  and  C_18 
REMARK    7  A    between atoms: C_18  and  C_19 
REMARK    8  A    between atoms: C_19  and  N_20 
REMARK    9  A    between atoms: N_23  and  C_24 
ROOT
ATOM      1  C   UNL d   1       9.670   4.377 -14.322  0.00  0.00     0.276 C 
ATOM      2  O   UNL d   1      10.567   5.126 -13.942  0.00  0.00    -0.266 OA
ATOM      3  N   UNL d   1       8.542   4.213 -13.626  0.00  0.00    -0.234 NA
ENDROOT
BRANCH   3   4
ATOM      4  C   UNL d   1       8.090   5.006 -12.487  0.00  0.00     0.131 C 
BRANCH   4   5
ATOM      5  C   UNL d   1       9.218   5.385 -11.499  0.00  0.00     0.062 C 
BRANCH   5   6
ATOM      6  C   UNL d   1       8.774   6.365 -10.424  0.00  0.00     0.253 C 
BRANCH   6   7
ATOM      7  N   UNL d   1       9.848   6.459  -9.435  0.00  0.00     0.141 N 
ATOM      8  C   UNL d   1       9.256   6.204  -8.126  0.00  0.00     0.274 C 
ATOM      9  C   UNL d   1      10.336   6.276  -7.053  0.00  0.00     0.137 C 
ATOM     10  N   UNL d   1      11.020   7.553  -7.090  0.00  0.00    -0.344 N 
ATOM     11  C   UNL d   1      11.546   7.940  -8.387  0.00  0.00     0.137 C 
ATOM     12  C   UNL d   1      10.441   7.806  -9.451  0.00  0.00     0.274 C 
BRANCH  10  13
ATOM     13  C   UNL d   1      11.172   8.361  -5.941  0.00  0.00     0.068 A 
ATOM     14  C   UNL d   1      11.542   7.857  -4.677  0.00  0.00     0.084 A 
ATOM     15  C   UNL d   1      11.736   8.657  -3.540  0.00  0.00     0.070 A 
ATOM     16 CL   UNL d   1      11.741   6.231  -4.400  0.00  0.00    -0.080 Cl
ATOM     17  C   UNL d   1      11.440   9.986  -3.643  0.00  0.00     0.012 A 
ATOM     18 CL   UNL d   1      12.269   7.973  -2.038  0.00  0.00    -0.081 Cl
ATOM     19  C   UNL d   1      11.013  10.520  -4.867  0.00  0.00     0.002 A 
ATOM     20  C   UNL d   1      10.925   9.730  -6.031  0.00  0.00     0.018 A 
ENDBRANCH  10  13
ENDBRANCH   6   7
ENDBRANCH   5   6
ENDBRANCH   4   5
ENDBRANCH   3   4
BRANCH   1  21
ATOM     21  C   UNL d   1       9.751   3.642 -15.605  0.00  0.00     0.071 A 
ATOM     22  C   UNL d   1       9.174   2.381 -15.964  0.00  0.00     0.023 A 
ATOM     23  C   UNL d   1       9.558   2.091 -17.245  0.00  0.00     0.060 A 
ATOM     24  N   UNL d   1      10.386   3.140 -17.685  0.00  0.00    -0.331 N 
ATOM     25  C   UNL d   1      10.475   4.122 -16.685  0.00  0.00     0.042 A 
ATOM     26  C   UNL d   1      11.272   5.425 -16.851  0.00  0.00     0.050 C 
BRANCH  23  27
ATOM     27  C   UNL d   1       9.223   0.923 -18.060  0.00  0.00     0.016 A 
ATOM     28  C   UNL d   1       7.892   0.415 -18.049  0.00  0.00     0.001 A 
ATOM     29  C   UNL d   1       7.585  -0.718 -18.848  0.00  0.00     0.000 A 
ATOM     30  C   UNL d   1       8.571  -1.333 -19.664  0.00  0.00     0.000 A 
ATOM     31  C   UNL d   1       9.882  -0.816 -19.644  0.00  0.00     0.000 A 
ATOM     32  C   UNL d   1      10.216   0.269 -18.827  0.00  0.00     0.001 A 
ENDBRANCH  23  27
BRANCH  24  33
ATOM     33  C   UNL d   1      11.044   3.255 -18.996  0.00  0.00     0.106 C 
BRANCH  33  34
ATOM     34  C   UNL d   1      12.522   2.710 -19.046  0.00  0.00     0.025 C 
ATOM     35  C   UNL d   1      13.494   3.330 -18.047  0.00  0.00     0.002 C 
ENDBRANCH  33  34
ENDBRANCH  24  33
ENDBRANCH   1  21
TORSDOF 9
