REMARK  12 active torsions:
REMARK  status: ('A' for Active; 'I' for Inactive)
REMARK    1  A    between atoms: C_2  and  C_3 
REMARK    2  A    between atoms: C_3  and  N_4 
REMARK    3  A    between atoms: N_4  and  C_5 
REMARK    4  A    between atoms: N_4  and  C_22 
REMARK    5  A    between atoms: C_5  and  C_6 
REMARK    6  A    between atoms: C_6  and  C_7 
REMARK    7  A    between atoms: C_7  and  C_8 
REMARK    8  A    between atoms: C_8  and  N_9 
REMARK       I    between atoms: N_9  and  C_10 
REMARK    9  A    between atoms: C_10  and  C_12 
REMARK   10  A    between atoms: C_22  and  C_23 
REMARK   11  A    between atoms: C_25  and  C_26 
REMARK   12  A    between atoms: C_32  and  O_33 
ROOT
ATOM      1  N   UNL d   1       9.192   4.020 -13.671  0.00  0.00     0.137 N 
ENDROOT
BRANCH   1   2
ATOM      2  C   UNL d   1       7.811   4.457 -13.792  0.00  0.00     0.250 C 
BRANCH   2   3
ATOM      3  C   UNL d   1       6.974   4.251 -12.507  0.00  0.00     0.035 C 
ATOM      4  C   UNL d   1       5.588   4.863 -12.595  0.00  0.00     0.002 C 
ENDBRANCH   2   3
ENDBRANCH   1   2
BRANCH   1   5
ATOM      5  C   UNL d   1       9.830   4.579 -12.482  0.00  0.00     0.250 C 
BRANCH   5   6
ATOM      6  C   UNL d   1       9.500   6.083 -12.240  0.00  0.00     0.037 C 
BRANCH   6   7
ATOM      7  C   UNL d   1       9.967   6.631 -10.932  0.00  0.00     0.029 C 
BRANCH   7   8
ATOM      8  C   UNL d   1       9.268   6.061  -9.693  0.00  0.00     0.129 C 
BRANCH   8   9
ATOM      9  N   UNL d   1       9.725   6.661  -8.445  0.00  0.00    -0.234 NA
ATOM     10  C   UNL d   1      10.281   7.862  -8.273  0.00  0.00     0.275 C 
ATOM     11  O   UNL d   1      10.485   8.700  -9.158  0.00  0.00    -0.266 OA
BRANCH  10  12
ATOM     12  C   UNL d   1      10.645   8.208  -6.872  0.00  0.00     0.058 A 
ATOM     13  C   UNL d   1      11.071   7.225  -5.944  0.00  0.00     0.005 A 
ATOM     14  C   UNL d   1      11.480   7.611  -4.665  0.00  0.00     0.000 A 
ATOM     15  C   UNL d   1      11.489   8.991  -4.277  0.00  0.00     0.000 A 
ATOM     16  C   UNL d   1      11.903   6.648  -3.754  0.00  0.00     0.000 A 
ATOM     17  C   UNL d   1      11.056   9.964  -5.191  0.00  0.00     0.000 A 
ATOM     18  C   UNL d   1      11.877   9.356  -2.980  0.00  0.00     0.000 A 
ATOM     19  C   UNL d   1      10.674   9.569  -6.478  0.00  0.00     0.005 A 
ATOM     20  C   UNL d   1      12.284   8.369  -2.073  0.00  0.00     0.000 A 
ATOM     21  C   UNL d   1      12.296   7.012  -2.440  0.00  0.00     0.000 A 
ENDBRANCH  10  12
ENDBRANCH   8   9
ENDBRANCH   7   8
ENDBRANCH   6   7
ENDBRANCH   5   6
ENDBRANCH   1   5
BRANCH   1  22
ATOM     22  C   UNL d   1       9.933   4.464 -14.834  0.00  0.00     0.251 C 
BRANCH  22  23
ATOM     23  C   UNL d   1       9.459   3.911 -16.175  0.00  0.00     0.038 A 
ATOM     24  C   UNL d   1      10.378   3.983 -17.384  0.00  0.00     0.026 A 
ATOM     25  C   UNL d   1       9.144   4.842 -17.344  0.00  0.00     0.007 A 
BRANCH  24  26
ATOM     26  C   UNL d   1      11.767   4.566 -17.284  0.00  0.00     0.002 A 
ATOM     27  C   UNL d   1      12.902   3.858 -17.785  0.00  0.00     0.090 A 
ATOM     28  C   UNL d   1      14.208   4.421 -17.623  0.00  0.00     0.026 A 
ATOM     29  C   UNL d   1      14.372   5.648 -16.960  0.00  0.00     0.032 A 
ATOM     30  C   UNL d   1      13.248   6.341 -16.471  0.00  0.00     0.140 A 
ATOM     31  C   UNL d   1      11.954   5.819 -16.665  0.00  0.00     0.027 A 
ATOM     32  F   UNL d   1      13.412   7.490 -15.790  0.00  0.00    -0.204 F 
BRANCH  27  33
ATOM     33  O   UNL d   1      12.693   2.635 -18.383  0.00  0.00    -0.328 OA
ATOM     34  C   UNL d   1      13.766   2.027 -19.098  0.00  0.00     0.181 C 
ENDBRANCH  27  33
ENDBRANCH  24  26
ENDBRANCH  22  23
ENDBRANCH   1  22
TORSDOF 12
