REMARK  7 active torsions:
REMARK  status: ('A' for Active; 'I' for Inactive)
REMARK    1  A    between atoms: C_8  and  O_9 
REMARK    2  A    between atoms: O_9  and  C_10 
REMARK    3  A    between atoms: C_10  and  C_11 
REMARK    4  A    between atoms: C_11  and  C_12 
REMARK    5  A    between atoms: C_12  and  C_13 
REMARK    6  A    between atoms: C_13  and  N_14 
REMARK    7  A    between atoms: N_18  and  C_19 
ROOT
ATOM      1  N   UNL d   1       9.071   3.432 -13.841  0.00  0.00     0.139 N 
ATOM      2  C   UNL d   1       8.864   4.675 -14.575  0.00  0.00     0.252 C 
ATOM      3  C   UNL d   1       9.646   4.848 -15.897  0.00  0.00     0.053 C 
ATOM      4  C   UNL d   1       9.932   3.579 -16.733  0.00  0.00     0.079 C 
ATOM      5  N   UNL d   1      11.119   2.837 -16.229  0.00  0.00    -0.249 NA
ATOM      6  C   UNL d   1      10.935   2.167 -14.913  0.00  0.00     0.112 C 
ATOM      7  C   UNL d   1      10.480   3.071 -13.752  0.00  0.00     0.268 C 
ENDROOT
BRANCH   1   8
ATOM      8  C   UNL d   1       8.194   2.314 -14.231  0.00  0.00     0.250 C 
BRANCH   8   9
ATOM      9  C   UNL d   1       6.709   2.505 -13.865  0.00  0.00     0.038 C 
BRANCH   9  10
ATOM     10  C   UNL d   1       5.929   1.204 -14.115  0.00  0.00     0.035 C 
BRANCH  10  11
ATOM     11  C   UNL d   1       6.079   0.676 -15.561  0.00  0.00     0.149 C 
BRANCH  11  12
ATOM     12  O   UNL d   1       5.106  -0.325 -15.835  0.00  0.00    -0.331 OA
BRANCH  12  13
ATOM     13  C   UNL d   1       5.130  -0.905 -17.087  0.00  0.00     0.096 A 
ATOM     14  C   UNL d   1       5.964  -0.468 -18.144  0.00  0.00     0.024 A 
ATOM     15  C   UNL d   1       5.961  -1.119 -19.378  0.00  0.00    -0.001 A 
ATOM     16  C   UNL d   1       5.108  -2.223 -19.595  0.00  0.00    -0.004 A 
ATOM     17  C   UNL d   1       5.129  -2.974 -20.899  0.00  0.00     0.038 C 
ATOM     18  C   UNL d   1       4.254  -2.656 -18.555  0.00  0.00     0.082 A 
ATOM     19  C   UNL d   1       3.762  -3.614 -21.205  0.00  0.00     0.095 C 
ATOM     20  C   UNL d   1       3.161  -4.309 -19.968  0.00  0.00     0.256 C 
ATOM     21  O   UNL d   1       2.450  -5.312 -20.123  0.00  0.00    -0.270 OA
ATOM     22  N   UNL d   1       3.409  -3.775 -18.782  0.00  0.00    -0.212 NA
ATOM     23  C   UNL d   1       4.269  -2.006 -17.309  0.00  0.00     0.043 A 
ENDBRANCH  12  13
ENDBRANCH  11  12
ENDBRANCH  10  11
ENDBRANCH   9  10
ENDBRANCH   8   9
ENDBRANCH   1   8
BRANCH   5  24
ATOM     24  C   UNL d   1      11.633   1.880 -17.267  0.00  0.00     0.061 A 
ATOM     25  C   UNL d   1      12.683   2.292 -18.103  0.00  0.00     0.125 A 
ATOM     26  C   UNL d   1      13.145   1.410 -19.099  0.00  0.00     0.133 A 
ATOM     27  O   UNL d   1      13.216   3.564 -17.984  0.00  0.00    -0.318 OA
ATOM     28  C   UNL d   1      12.589   0.116 -19.236  0.00  0.00     0.151 A 
ATOM     29  N   UNL d   1      14.137   1.843 -19.986  0.00  0.00    -0.205 NA
ATOM     30  C   UNL d   1      11.549  -0.283 -18.379  0.00  0.00     0.030 A 
ATOM     31  O   UNL d   1      13.048  -0.743 -20.188  0.00  0.00    -0.189 OA
ATOM     32  C   UNL d   1      11.055   0.588 -17.411  0.00  0.00     0.015 A 
ATOM     33  C   UNL d   1      14.803   2.989 -19.813  0.00  0.00     0.287 C 
ATOM     34  C   UNL d   1      14.540   3.758 -18.500  0.00  0.00     0.238 C 
ATOM     35  O   UNL d   1      15.627   3.400 -20.624  0.00  0.00    -0.267 OA
ENDBRANCH   5  24
TORSDOF 7
