REMARK  4 active torsions:
REMARK  status: ('A' for Active; 'I' for Inactive)
REMARK    1  A    between atoms: C_2  and  O_3 
REMARK    2  A    between atoms: C_2  and  C_12 
REMARK    3  A    between atoms: O_3  and  C_4 
REMARK    4  A    between atoms: C_17  and  N_18 
ROOT
ATOM      1  C   UNL d   1       9.812   6.593  -9.400  0.00  0.00     0.203 A 
ATOM      2  N   UNL d   1      10.610   7.237 -10.220  0.00  0.00    -0.039 NA
ATOM      3  C   UNL d   1      11.395   8.122  -9.612  0.00  0.00     0.785 A 
ATOM      4  N   UNL d   1      12.228   8.790 -10.420  0.00  0.00     0.063 N 
ATOM      5  N   UNL d   1      11.461   8.415  -8.326  0.00  0.00     0.134 NA
ATOM      6  C   UNL d   1      10.593   7.701  -7.626  0.00  0.00     0.744 A 
ATOM      7  N   UNL d   1       9.741   6.782  -8.073  0.00  0.00    -0.043 NA
ENDROOT
BRANCH   1   8
ATOM      8  C   UNL d   1       8.834   5.602 -10.038  0.00  0.00     0.181 C 
ATOM      9  C   UNL d   1       8.462   4.479  -9.042  0.00  0.00     0.041 C 
BRANCH   8  10
ATOM     10  O   UNL d   1       9.408   5.029 -11.240  0.00  0.00    -0.325 OA
BRANCH  10  11
ATOM     11  C   UNL d   1       8.591   4.447 -12.197  0.00  0.00     0.106 A 
ATOM     12  C   UNL d   1       9.178   3.910 -13.380  0.00  0.00     0.080 A 
ATOM     13  C   UNL d   1       8.392   3.273 -14.360  0.00  0.00     0.014 A 
ATOM     14 CL   UNL d   1      10.864   4.055 -13.720  0.00  0.00    -0.080 Cl
ATOM     15  C   UNL d   1       7.005   3.158 -14.192  0.00  0.00     0.012 A 
ATOM     16  C   UNL d   1       6.413   3.707 -13.050  0.00  0.00     0.060 A 
ATOM     17  C   UNL d   1       7.182   4.342 -12.068  0.00  0.00     0.036 A 
ATOM     18 CL   UNL d   1       4.727   3.601 -12.861  0.00  0.00    -0.082 Cl
ENDBRANCH  10  11
ENDBRANCH   8  10
ENDBRANCH   1   8
BRANCH   6  19
ATOM     19  N   UNL d   1      10.617   7.899  -6.261  0.00  0.00    -0.178 N 
ATOM     20  C   UNL d   1      10.819   9.198  -5.654  0.00  0.00     0.155 C 
ATOM     21  C   UNL d   1      11.918   9.100  -4.577  0.00  0.00     0.275 C 
ATOM     22  N   UNL d   1      11.589   8.075  -3.588  0.00  0.00     0.143 N 
ATOM     23  C   UNL d   1      11.484   6.776  -4.258  0.00  0.00     0.275 C 
ATOM     24  C   UNL d   1      12.601   8.010  -2.561  0.00  0.00     0.286 C 
ATOM     25  C   UNL d   1      10.391   6.823  -5.327  0.00  0.00     0.155 C 
ENDBRANCH   6  19
TORSDOF 4
