REMARK  6 active torsions:
REMARK  status: ('A' for Active; 'I' for Inactive)
REMARK    1  A    between atoms: C_2  and  C_3 
REMARK    2  A    between atoms: C_3  and  N_4 
REMARK    3  A    between atoms: N_4  and  C_5 
REMARK    4  A    between atoms: N_4  and  C_8 
REMARK    5  A    between atoms: C_5  and  C_6 
REMARK    6  A    between atoms: C_14  and  C_15 
ROOT
ATOM      1  C   UNL d   1       7.120   2.905 -13.456  0.00  0.00     0.227 C 
ATOM      2  C   UNL d   1       5.937   2.382 -12.611  0.00  0.00     0.060 C 
ATOM      3  C   UNL d   1       5.675   0.866 -12.862  0.00  0.00     0.129 C 
ATOM      4  N   UNL d   1       5.736   0.550 -14.261  0.00  0.00    -0.255 N 
ATOM      5  N   UNL d   1       5.175  -0.577 -14.747  0.00  0.00    -0.168 NA
ATOM      6  C   UNL d   1       5.409  -0.542 -16.054  0.00  0.00     0.125 A 
ATOM      7  C   UNL d   1       6.133   0.623 -16.404  0.00  0.00     0.076 A 
ATOM      8  C   UNL d   1       6.304   1.310 -15.262  0.00  0.00     0.062 A 
ATOM      9  C   UNL d   1       6.881   2.651 -14.939  0.00  0.00     0.079 C 
ENDROOT
BRANCH   1  10
ATOM     10  N   UNL d   1       7.576   4.266 -13.110  0.00  0.00     0.135 N 
BRANCH  10  11
ATOM     11  C   UNL d   1       6.453   5.204 -13.058  0.00  0.00     0.250 C 
BRANCH  11  12
ATOM     12  C   UNL d   1       6.880   6.649 -12.741  0.00  0.00     0.035 C 
ATOM     13  C   UNL d   1       5.688   7.579 -12.571  0.00  0.00     0.002 C 
ENDBRANCH  11  12
ENDBRANCH  10  11
BRANCH  10  14
ATOM     14  C   UNL d   1       8.684   4.729 -13.948  0.00  0.00     0.250 C 
BRANCH  14  15
ATOM     15  C   UNL d   1       9.929   3.824 -13.890  0.00  0.00     0.035 C 
ATOM     16  C   UNL d   1      11.042   4.308 -14.800  0.00  0.00     0.002 C 
ENDBRANCH  14  15
ENDBRANCH  10  14
ENDBRANCH   1  10
BRANCH   7  17
ATOM     17  C   UNL d   1       6.484   1.036 -17.787  0.00  0.00     0.237 C 
ATOM     18  O   UNL d   1       7.279   1.928 -18.048  0.00  0.00    -0.283 OA
ENDBRANCH   7  17
TORSDOF 6
