REMARK  3 active torsions:
REMARK  status: ('A' for Active; 'I' for Inactive)
REMARK    1  A    between atoms: N_5  and  C_6 
REMARK    2  A    between atoms: N_15  and  N_16 
REMARK       I    between atoms: N_16  and  C_17 
REMARK    3  A    between atoms: C_17  and  C_19 
ROOT
ATOM      1  C   UNL d   1       8.333   1.573 -19.992  0.00  0.00     0.142 C 
ATOM      2  N   UNL d   1       7.090   1.248 -19.831  0.00  0.00    -0.227 NA
ATOM      3  C   UNL d   1       6.588   0.359 -18.867  0.00  0.00     0.101 A 
ATOM      4  C   UNL d   1       5.458  -0.399 -19.251  0.00  0.00     0.032 A 
ATOM      5  C   UNL d   1       4.808  -1.254 -18.341  0.00  0.00     0.059 A 
ATOM      6 CL   UNL d   1       3.459  -2.201 -18.837  0.00  0.00    -0.082 Cl
ATOM      7  C   UNL d   1       5.269  -1.339 -17.019  0.00  0.00     0.013 A 
ATOM      8  C   UNL d   1       6.380  -0.575 -16.613  0.00  0.00     0.022 A 
ATOM      9  C   UNL d   1       7.060   0.262 -17.529  0.00  0.00     0.101 A 
ATOM     10  N   UNL d   1       8.232   0.915 -17.121  0.00  0.00    -0.225 N 
ATOM     11  C   UNL d   1       9.427   0.737 -17.824  0.00  0.00     0.086 A 
ATOM     12  C   UNL d   1      10.578   0.319 -17.125  0.00  0.00     0.020 A 
ATOM     13  C   UNL d   1      11.783   0.128 -17.811  0.00  0.00     0.013 A 
ATOM     14  C   UNL d   1      11.853   0.323 -19.197  0.00  0.00     0.058 A 
ATOM     15 CL   UNL d   1      13.336   0.044 -20.032  0.00  0.00    -0.082 Cl
ATOM     16  C   UNL d   1      10.710   0.749 -19.896  0.00  0.00     0.016 A 
ATOM     17  C   UNL d   1       9.490   0.988 -19.218  0.00  0.00     0.052 A 
ENDROOT
BRANCH  10  18
ATOM     18  N   UNL d   1       8.242   1.587 -15.888  0.00  0.00    -0.123 NA
ATOM     19  C   UNL d   1       8.816   2.790 -15.690  0.00  0.00     0.295 C 
ATOM     20  O   UNL d   1       9.571   3.349 -16.487  0.00  0.00    -0.264 OA
BRANCH  19  21
ATOM     21  C   UNL d   1       8.481   3.446 -14.390  0.00  0.00     0.061 A 
ATOM     22  C   UNL d   1       9.456   4.246 -13.747  0.00  0.00     0.031 A 
ATOM     23  C   UNL d   1       9.094   4.887 -12.555  0.00  0.00     0.119 A 
ATOM     24  C   UNL d   1       7.829   4.766 -12.023  0.00  0.00     0.119 A 
ATOM     25  O   UNL d   1       9.847   5.678 -11.752  0.00  0.00    -0.300 OA
ATOM     26  C   UNL d   1       6.832   4.001 -12.645  0.00  0.00     0.026 A 
ATOM     27  O   UNL d   1       7.766   5.450 -10.857  0.00  0.00    -0.300 OA
ATOM     28  C   UNL d   1       7.168   3.343 -13.848  0.00  0.00     0.007 A 
ATOM     29  C   UNL d   1       9.023   6.035 -10.677  0.00  0.00     0.304 A 
ENDBRANCH  19  21
ENDBRANCH  10  18
BRANCH   1  30
ATOM     30  N   UNL d   1       8.690   2.556 -20.912  0.00  0.00    -0.330 N 
ATOM     31  C   UNL d   1       8.187   2.566 -22.281  0.00  0.00     0.138 C 
ATOM     32  C   UNL d   1       7.559   3.926 -22.633  0.00  0.00     0.274 C 
ATOM     33  N   UNL d   1       8.524   5.002 -22.405  0.00  0.00     0.143 N 
ATOM     34  C   UNL d   1       7.916   6.275 -22.760  0.00  0.00     0.286 C 
ATOM     35  C   UNL d   1       8.895   5.018 -20.988  0.00  0.00     0.274 C 
ATOM     36  C   UNL d   1       9.567   3.684 -20.610  0.00  0.00     0.138 C 
ENDBRANCH   1  30
TORSDOF 3
