REMARK  8 active torsions:
REMARK  status: ('A' for Active; 'I' for Inactive)
REMARK    1  A    between atoms: C_2  and  C_5 
REMARK    2  A    between atoms: C_9  and  N_10 
REMARK    3  A    between atoms: N_13  and  C_14 
REMARK    4  A    between atoms: C_14  and  C_15 
REMARK    5  A    between atoms: C_15  and  C_16 
REMARK    6  A    between atoms: C_16  and  C_17 
REMARK    7  A    between atoms: C_17  and  N_18 
REMARK    8  A    between atoms: N_18  and  C_19 
ROOT
ATOM      1  N   UNL d   1      10.356   2.855 -17.361  0.00  0.00    -0.344 N 
ATOM      2  C   UNL d   1      11.431   3.784 -17.019  0.00  0.00     0.137 C 
ATOM      3  C   UNL d   1      11.613   3.836 -15.489  0.00  0.00     0.274 C 
ATOM      4  N   UNL d   1      10.349   4.202 -14.835  0.00  0.00     0.141 N 
ATOM      5  C   UNL d   1       9.343   3.180 -15.151  0.00  0.00     0.274 C 
ATOM      6  C   UNL d   1       9.101   3.116 -16.667  0.00  0.00     0.137 C 
ENDROOT
BRANCH   4   7
ATOM      7  C   UNL d   1      10.551   4.270 -13.397  0.00  0.00     0.251 C 
BRANCH   7   8
ATOM      8  C   UNL d   1       9.403   5.026 -12.701  0.00  0.00     0.037 C 
BRANCH   8   9
ATOM      9  C   UNL d   1       9.680   5.242 -11.211  0.00  0.00     0.028 C 
BRANCH   9  10
ATOM     10  C   UNL d   1       8.458   5.716 -10.425  0.00  0.00     0.127 C 
BRANCH  10  11
ATOM     11  N   UNL d   1       8.726   5.686  -8.987  0.00  0.00    -0.253 NA
BRANCH  11  12
ATOM     12  C   UNL d   1       9.502   6.672  -8.366  0.00  0.00     0.158 A 
ATOM     13  N   UNL d   1       9.867   6.418  -7.088  0.00  0.00    -0.227 NA
ATOM     14  C   UNL d   1      10.636   7.311  -6.421  0.00  0.00     0.083 A 
ATOM     15  C   UNL d   1      11.062   8.521  -7.033  0.00  0.00     0.018 A 
ATOM     16  C   UNL d   1      11.055   7.063  -5.096  0.00  0.00     0.019 A 
ATOM     17  C   UNL d   1      10.682   8.784  -8.361  0.00  0.00     0.005 A 
ATOM     18  C   UNL d   1      11.856   9.450  -6.336  0.00  0.00     0.002 A 
ATOM     19  C   UNL d   1       9.892   7.851  -9.038  0.00  0.00     0.038 A 
ATOM     20  C   UNL d   1      12.249   9.191  -5.013  0.00  0.00     0.000 A 
ATOM     21  C   UNL d   1      11.855   7.990  -4.393  0.00  0.00     0.002 A 
ENDBRANCH  11  12
ENDBRANCH  10  11
ENDBRANCH   9  10
ENDBRANCH   8   9
ENDBRANCH   7   8
ENDBRANCH   4   7
BRANCH   1  22
ATOM     22  C   UNL d   1      10.491   1.813 -18.302  0.00  0.00     0.056 A 
ATOM     23  C   UNL d   1       9.357   1.324 -18.996  0.00  0.00     0.017 A 
ATOM     24  C   UNL d   1       9.478   0.259 -19.907  0.00  0.00     0.001 A 
ATOM     25  C   UNL d   1      10.733  -0.313 -20.165  0.00  0.00     0.004 A 
ATOM     26  C   UNL d   1      11.880   0.178 -19.509  0.00  0.00     0.073 A 
ATOM     27  C   UNL d   1      11.752   1.227 -18.571  0.00  0.00     0.021 A 
BRANCH  26  28
ATOM     28  C   UNL d   1      13.248  -0.431 -19.776  0.00  0.00     0.419 C 
ATOM     29  F   UNL d   1      13.302  -0.935 -21.008  0.00  0.00    -0.166 F 
ATOM     30  F   UNL d   1      13.460  -1.407 -18.902  0.00  0.00    -0.166 F 
ATOM     31  F   UNL d   1      14.213   0.478 -19.647  0.00  0.00    -0.166 F 
ENDBRANCH  26  28
ENDBRANCH   1  22
TORSDOF 8
