REMARK  9 active torsions:
REMARK  status: ('A' for Active; 'I' for Inactive)
REMARK    1  A    between atoms: O_2  and  C_3 
REMARK    2  A    between atoms: C_8  and  N_9 
REMARK    3  A    between atoms: N_12  and  C_13 
REMARK    4  A    between atoms: C_13  and  C_14 
REMARK    5  A    between atoms: C_14  and  C_15 
REMARK    6  A    between atoms: C_15  and  C_16 
REMARK    7  A    between atoms: C_16  and  N_17 
REMARK       I    between atoms: N_17  and  C_18 
REMARK    8  A    between atoms: C_18  and  C_20 
REMARK    9  A    between atoms: C_26  and  O_27 
ROOT
ATOM      1  C   UNL d   1       7.739   3.365 -13.637  0.00  0.00     0.037 C 
ENDROOT
BRANCH   1   2
ATOM      2  C   UNL d   1       7.703   2.029 -14.394  0.00  0.00     0.251 C 
BRANCH   2   3
ATOM      3  N   UNL d   1       9.035   1.641 -14.853  0.00  0.00     0.141 N 
ATOM      4  C   UNL d   1       9.569   2.612 -15.819  0.00  0.00     0.274 C 
ATOM      5  C   UNL d   1      10.965   2.195 -16.308  0.00  0.00     0.137 C 
ATOM      6  N   UNL d   1      10.912   0.855 -16.854  0.00  0.00    -0.343 N 
ATOM      7  C   UNL d   1      10.320  -0.148 -15.988  0.00  0.00     0.137 C 
ATOM      8  C   UNL d   1       8.937   0.323 -15.491  0.00  0.00     0.274 C 
BRANCH   6   9
ATOM      9  C   UNL d   1      11.409   0.583 -18.147  0.00  0.00     0.079 A 
ATOM     10  C   UNL d   1      10.673  -0.189 -19.078  0.00  0.00     0.110 A 
ATOM     11  C   UNL d   1      11.231  -0.409 -20.366  0.00  0.00     0.026 A 
ATOM     12  C   UNL d   1      12.486   0.124 -20.709  0.00  0.00     0.002 A 
ATOM     13  C   UNL d   1      13.199   0.899 -19.781  0.00  0.00     0.002 A 
ATOM     14  C   UNL d   1      12.652   1.131 -18.505  0.00  0.00     0.019 A 
BRANCH  10  15
ATOM     15  O   UNL d   1       9.434  -0.675 -18.709  0.00  0.00    -0.327 OA
ATOM     16  C   UNL d   1       8.573  -1.195 -19.711  0.00  0.00     0.181 C 
ENDBRANCH  10  15
ENDBRANCH   6   9
ENDBRANCH   2   3
ENDBRANCH   1   2
BRANCH   1  17
ATOM     17  C   UNL d   1       6.380   3.799 -13.081  0.00  0.00     0.029 C 
BRANCH  17  18
ATOM     18  C   UNL d   1       6.450   5.213 -12.490  0.00  0.00     0.129 C 
BRANCH  18  19
ATOM     19  N   UNL d   1       7.253   5.278 -11.274  0.00  0.00    -0.233 NA
ATOM     20  C   UNL d   1       8.556   5.549 -11.245  0.00  0.00     0.298 C 
ATOM     21  O   UNL d   1       9.277   5.500 -12.245  0.00  0.00    -0.263 OA
BRANCH  20  22
ATOM     22  C   UNL d   1       9.073   6.028  -9.953  0.00  0.00     0.157 A 
ATOM     23  O   UNL d   1      10.149   6.877 -10.011  0.00  0.00    -0.300 OA
ATOM     24  C   UNL d   1      10.438   7.267  -8.727  0.00  0.00     0.122 A 
ATOM     25  C   UNL d   1       9.546   6.615  -7.835  0.00  0.00     0.027 A 
ATOM     26  C   UNL d   1      11.441   8.158  -8.320  0.00  0.00     0.117 A 
ATOM     27  C   UNL d   1       8.684   5.806  -8.645  0.00  0.00     0.032 A 
ATOM     28  C   UNL d   1       9.716   6.902  -6.464  0.00  0.00     0.002 A 
ATOM     29  C   UNL d   1      10.720   7.792  -6.026  0.00  0.00     0.002 A 
ATOM     30  C   UNL d   1      11.566   8.438  -6.950  0.00  0.00     0.026 A 
BRANCH  26  31
ATOM     31  O   UNL d   1      12.263   8.788  -9.221  0.00  0.00    -0.326 OA
ATOM     32  C   UNL d   1      13.178   7.949  -9.915  0.00  0.00     0.181 C 
ENDBRANCH  26  31
ENDBRANCH  20  22
ENDBRANCH  18  19
ENDBRANCH  17  18
ENDBRANCH   1  17
TORSDOF 9
