REMARK  9 active torsions:
REMARK  status: ('A' for Active; 'I' for Inactive)
REMARK    1  A    between atoms: C_8  and  O_9 
REMARK    2  A    between atoms: O_9  and  C_10 
REMARK    3  A    between atoms: C_10  and  C_11 
REMARK    4  A    between atoms: C_11  and  C_12 
REMARK    5  A    between atoms: C_12  and  C_13 
REMARK    6  A    between atoms: C_13  and  N_14 
REMARK    7  A    between atoms: N_17  and  C_18 
REMARK    8  A    between atoms: N_26  and  C_27 
REMARK    9  A    between atoms: C_27  and  C_28 
ROOT
ATOM      1  N   UNL d   1       7.253   5.129 -12.196  0.00  0.00     0.141 N 
ATOM      2  C   UNL d   1       5.993   4.390 -12.044  0.00  0.00     0.274 C 
ATOM      3  C   UNL d   1       5.517   3.864 -13.399  0.00  0.00     0.137 C 
ATOM      4  N   UNL d   1       6.581   3.088 -14.011  0.00  0.00    -0.344 N 
ATOM      5  C   UNL d   1       7.875   3.750 -14.127  0.00  0.00     0.137 C 
ATOM      6  C   UNL d   1       8.297   4.280 -12.778  0.00  0.00     0.274 C 
ENDROOT
BRANCH   4   7
ATOM      7  C   UNL d   1       6.373   1.763 -14.492  0.00  0.00     0.058 A 
ATOM      8  C   UNL d   1       7.023   1.326 -15.666  0.00  0.00     0.033 A 
ATOM      9  C   UNL d   1       6.741   0.011 -16.152  0.00  0.00     0.062 A 
ATOM     10  C   UNL d   1       7.951   1.923 -16.592  0.00  0.00     0.021 C 
ATOM     11  C   UNL d   1       5.832  -0.834 -15.477  0.00  0.00     0.017 A 
ATOM     12  N   UNL d   1       7.513  -0.163 -17.294  0.00  0.00    -0.322 N 
ATOM     13  C   UNL d   1       5.210  -0.396 -14.303  0.00  0.00     0.003 A 
ATOM     14  C   UNL d   1       5.484   0.899 -13.803  0.00  0.00     0.017 A 
ATOM     15  C   UNL d   1       8.313   0.963 -17.476  0.00  0.00     0.076 C 
BRANCH  12  16
ATOM     16  C   UNL d   1       7.538  -1.344 -18.147  0.00  0.00     0.133 C 
BRANCH  16  17
ATOM     17  C   UNL d   1       6.960  -1.087 -19.540  0.00  0.00     0.001 A 
ATOM     18  C   UNL d   1       7.433  -0.014 -20.342  0.00  0.00     0.009 A 
ATOM     19  C   UNL d   1       6.861   0.244 -21.600  0.00  0.00     0.058 A 
ATOM     20  C   UNL d   1       5.852  -0.595 -22.110  0.00  0.00     0.011 A 
ATOM     21 CL   UNL d   1       7.414   1.602 -22.497  0.00  0.00    -0.082 Cl
ATOM     22  C   UNL d   1       5.405  -1.693 -21.339  0.00  0.00     0.001 A 
ATOM     23  C   UNL d   1       5.946  -1.934 -20.053  0.00  0.00    -0.002 A 
ENDBRANCH  16  17
ENDBRANCH  12  16
ENDBRANCH   4   7
BRANCH   1  24
ATOM     24  C   UNL d   1       7.675   5.668 -10.904  0.00  0.00     0.251 C 
BRANCH  24  25
ATOM     25  C   UNL d   1       8.265   4.608  -9.936  0.00  0.00     0.038 C 
BRANCH  25  26
ATOM     26  C   UNL d   1       8.821   5.135  -8.630  0.00  0.00     0.035 C 
BRANCH  26  27
ATOM     27  C   UNL d   1       9.969   6.113  -8.892  0.00  0.00     0.149 C 
BRANCH  27  28
ATOM     28  O   UNL d   1      10.862   5.996  -7.790  0.00  0.00    -0.331 OA
BRANCH  28  29
ATOM     29  C   UNL d   1      10.953   7.019  -6.891  0.00  0.00     0.096 A 
ATOM     30  C   UNL d   1      10.630   8.362  -7.202  0.00  0.00     0.024 A 
ATOM     31  C   UNL d   1      10.701   9.339  -6.210  0.00  0.00    -0.001 A 
ATOM     32  C   UNL d   1      11.135   8.995  -4.926  0.00  0.00    -0.004 A 
ATOM     33  C   UNL d   1      11.176  10.033  -3.858  0.00  0.00     0.038 C 
ATOM     34  C   UNL d   1      11.513   7.673  -4.613  0.00  0.00     0.082 A 
ATOM     35  C   UNL d   1      12.269   9.736  -2.840  0.00  0.00     0.095 C 
ATOM     36  C   UNL d   1      12.287   8.273  -2.393  0.00  0.00     0.256 C 
ATOM     37  O   UNL d   1      12.659   7.986  -1.259  0.00  0.00    -0.270 OA
ATOM     38  N   UNL d   1      11.971   7.340  -3.309  0.00  0.00    -0.212 NA
ATOM     39  C   UNL d   1      11.432   6.689  -5.605  0.00  0.00     0.043 A 
ENDBRANCH  28  29
ENDBRANCH  27  28
ENDBRANCH  26  27
ENDBRANCH  25  26
ENDBRANCH  24  25
ENDBRANCH   1  24
TORSDOF 9
