REMARK  9 active torsions:
REMARK  status: ('A' for Active; 'I' for Inactive)
REMARK    1  A    between atoms: O_2  and  C_3 
REMARK    2  A    between atoms: C_8  and  N_9 
REMARK    3  A    between atoms: N_12  and  C_13 
REMARK    4  A    between atoms: C_13  and  C_14 
REMARK    5  A    between atoms: C_14  and  C_15 
REMARK    6  A    between atoms: C_15  and  C_16 
REMARK    7  A    between atoms: C_16  and  N_17 
REMARK       I    between atoms: N_17  and  C_18 
REMARK    8  A    between atoms: C_18  and  C_20 
REMARK    9  A    between atoms: C_23  and  C_24 
ROOT
ATOM      1  C   UNL d   1       7.103   3.622 -12.615  0.00  0.00     0.029 C 
ENDROOT
BRANCH   1   2
ATOM      2  C   UNL d   1       6.392   2.948 -13.789  0.00  0.00     0.037 C 
BRANCH   2   3
ATOM      3  C   UNL d   1       6.593   1.416 -13.809  0.00  0.00     0.251 C 
BRANCH   3   4
ATOM      4  N   UNL d   1       5.861   0.788 -14.903  0.00  0.00     0.141 N 
ATOM      5  C   UNL d   1       6.553   0.999 -16.184  0.00  0.00     0.274 C 
ATOM      6  C   UNL d   1       5.749   0.387 -17.346  0.00  0.00     0.137 C 
ATOM      7  N   UNL d   1       5.496  -1.019 -17.078  0.00  0.00    -0.343 N 
ATOM      8  C   UNL d   1       4.890  -1.309 -15.785  0.00  0.00     0.137 C 
ATOM      9  C   UNL d   1       5.717  -0.652 -14.660  0.00  0.00     0.274 C 
BRANCH   7  10
ATOM     10  C   UNL d   1       5.811  -2.050 -17.982  0.00  0.00     0.079 A 
ATOM     11  C   UNL d   1       7.043  -2.081 -18.696  0.00  0.00     0.110 A 
ATOM     12  C   UNL d   1       7.287  -3.159 -19.585  0.00  0.00     0.026 A 
ATOM     13  C   UNL d   1       6.349  -4.193 -19.749  0.00  0.00     0.002 A 
ATOM     14  C   UNL d   1       5.142  -4.162 -19.036  0.00  0.00     0.002 A 
ATOM     15  C   UNL d   1       4.876  -3.095 -18.164  0.00  0.00     0.019 A 
BRANCH  11  16
ATOM     16  O   UNL d   1       7.967  -1.075 -18.472  0.00  0.00    -0.327 OA
ATOM     17  C   UNL d   1       9.239  -1.154 -19.094  0.00  0.00     0.181 C 
ENDBRANCH  11  16
ENDBRANCH   7  10
ENDBRANCH   3   4
ENDBRANCH   2   3
ENDBRANCH   1   2
BRANCH   1  18
ATOM     18  C   UNL d   1       7.022   5.153 -12.619  0.00  0.00     0.129 C 
BRANCH  18  19
ATOM     19  N   UNL d   1       7.696   5.715 -11.453  0.00  0.00    -0.234 NA
ATOM     20  C   UNL d   1       9.023   5.851 -11.312  0.00  0.00     0.275 C 
ATOM     21  O   UNL d   1       9.829   5.585 -12.207  0.00  0.00    -0.266 OA
BRANCH  20  22
ATOM     22  C   UNL d   1       9.485   6.388  -9.987  0.00  0.00     0.058 A 
ATOM     23  C   UNL d   1       8.937   5.902  -8.779  0.00  0.00     0.005 A 
ATOM     24  C   UNL d   1       9.396   6.394  -7.540  0.00  0.00     0.002 A 
ATOM     25  C   UNL d   1      10.422   7.360  -7.475  0.00  0.00     0.018 A 
ATOM     26  C   UNL d   1      10.964   7.846  -8.687  0.00  0.00     0.002 A 
ATOM     27  C   UNL d   1      10.505   7.361  -9.927  0.00  0.00     0.005 A 
BRANCH  25  28
ATOM     28  C   UNL d   1      10.908   7.862  -6.177  0.00  0.00     0.084 A 
ATOM     29  N   UNL d   1      11.343   6.929  -5.296  0.00  0.00    -0.218 NA
ATOM     30  C   UNL d   1      11.828   7.329  -4.102  0.00  0.00     0.222 A 
ATOM     31  C   UNL d   1      11.884   8.683  -3.722  0.00  0.00     0.050 A 
ATOM     32  F   UNL d   1      12.258   6.391  -3.226  0.00  0.00    -0.183 F 
ATOM     33  C   UNL d   1      11.424   9.652  -4.629  0.00  0.00     0.005 A 
ATOM     34  C   UNL d   1      10.936   9.239  -5.881  0.00  0.00     0.019 A 
ENDBRANCH  25  28
ENDBRANCH  20  22
ENDBRANCH  18  19
ENDBRANCH   1  18
TORSDOF 9
