REMARK  8 active torsions:
REMARK  status: ('A' for Active; 'I' for Inactive)
REMARK    1  A    between atoms: O_2  and  C_3 
REMARK    2  A    between atoms: C_8  and  C_9 
REMARK    3  A    between atoms: C_12  and  S_13 
REMARK    4  A    between atoms: S_13  and  C_14 
REMARK    5  A    between atoms: C_14  and  C_15 
REMARK    6  A    between atoms: C_15  and  C_16 
REMARK    7  A    between atoms: C_16  and  N_17 
REMARK    8  A    between atoms: C_23  and  C_24 
ROOT
ATOM      1  C   UNL d   1       9.011   4.222 -12.466  0.00  0.00     0.251 C 
ENDROOT
BRANCH   1   2
ATOM      2  C   UNL d   1       8.680   4.505 -13.956  0.00  0.00     0.047 C 
BRANCH   2   3
ATOM      3  C   UNL d   1       9.082   3.343 -14.873  0.00  0.00     0.067 C 
BRANCH   3   4
ATOM      4  S   UNL d   1      10.891   3.122 -14.869  0.00  0.00    -0.075 SA
BRANCH   4   5
ATOM      5  C   UNL d   1      10.977   1.844 -16.068  0.00  0.00     0.193 A 
ATOM      6  N   UNL d   1      10.333   0.681 -15.962  0.00  0.00    -0.122 NA
ATOM      7  N   UNL d   1      10.662  -0.016 -17.097  0.00  0.00    -0.128 NA
ATOM      8  C   UNL d   1      11.485   0.777 -17.794  0.00  0.00     0.169 A 
ATOM      9  N   UNL d   1      11.719   1.962 -17.184  0.00  0.00    -0.289 N 
ATOM     10  C   UNL d   1      12.563   3.081 -17.587  0.00  0.00     0.134 C 
BRANCH   8  11
ATOM     11  C   UNL d   1      12.075   0.354 -19.057  0.00  0.00     0.058 A 
ATOM     12  C   UNL d   1      11.823   1.062 -20.256  0.00  0.00     0.097 A 
ATOM     13  C   UNL d   1      12.452   0.630 -21.451  0.00  0.00     0.024 A 
ATOM     14  C   UNL d   1      13.290  -0.502 -21.451  0.00  0.00     0.002 A 
ATOM     15  C   UNL d   1      13.522  -1.208 -20.259  0.00  0.00     0.000 A 
ATOM     16  C   UNL d   1      12.909  -0.783 -19.068  0.00  0.00     0.005 A 
BRANCH  12  17
ATOM     17  O   UNL d   1      10.963   2.142 -20.195  0.00  0.00    -0.328 OA
ATOM     18  C   UNL d   1      10.797   2.939 -21.354  0.00  0.00     0.181 C 
ENDBRANCH  12  17
ENDBRANCH   8  11
ENDBRANCH   4   5
ENDBRANCH   3   4
ENDBRANCH   2   3
ENDBRANCH   1   2
BRANCH   1  19
ATOM     19  N   UNL d   1       8.778   5.349 -11.568  0.00  0.00     0.138 N 
ATOM     20  C   UNL d   1       8.879   4.836 -10.189  0.00  0.00     0.255 C 
ATOM     21  C   UNL d   1       8.433   5.843  -9.126  0.00  0.00     0.061 C 
ATOM     22  C   UNL d   1       9.474   6.887  -8.746  0.00  0.00    -0.024 A 
ATOM     23  C   UNL d   1      10.005   7.770  -9.710  0.00  0.00    -0.024 A 
ATOM     24  C   UNL d   1       9.877   6.998  -7.398  0.00  0.00    -0.003 A 
ATOM     25  C   UNL d   1       9.543   7.720 -11.159  0.00  0.00     0.061 C 
ATOM     26  C   UNL d   1      10.971   8.726  -9.325  0.00  0.00    -0.004 A 
ATOM     27  C   UNL d   1       9.773   6.383 -11.832  0.00  0.00     0.255 C 
ATOM     28  C   UNL d   1      11.381   8.819  -7.983  0.00  0.00     0.001 A 
ATOM     29  C   UNL d   1      10.827   7.965  -7.010  0.00  0.00     0.020 A 
BRANCH  29  30
ATOM     30  C   UNL d   1      11.275   8.045  -5.621  0.00  0.00     0.110 A 
ATOM     31  N   UNL d   1      11.727   9.188  -5.118  0.00  0.00    -0.127 NA
ATOM     32  O   UNL d   1      12.077   8.919  -3.791  0.00  0.00    -0.215 OA
ATOM     33  C   UNL d   1      11.813   7.614  -3.542  0.00  0.00     0.105 A 
ATOM     34  C   UNL d   1      11.297   7.009  -4.649  0.00  0.00     0.044 A 
ATOM     35  C   UNL d   1      12.009   7.147  -2.144  0.00  0.00     0.061 C 
ENDBRANCH  29  30
ENDBRANCH   1  19
TORSDOF 8
