REMARK  5 active torsions:
REMARK  status: ('A' for Active; 'I' for Inactive)
REMARK    1  A    between atoms: O_2  and  C_3 
REMARK    2  A    between atoms: C_8  and  N_9 
REMARK    3  A    between atoms: N_12  and  C_13 
REMARK    4  A    between atoms: C_13  and  C_14 
REMARK    5  A    between atoms: C_14  and  C_15 
ROOT
ATOM      1  N   UNL d   1       8.890   5.675 -11.706  0.00  0.00    -0.343 N 
ATOM      2  C   UNL d   1       9.341   7.034 -11.938  0.00  0.00     0.137 C 
ATOM      3  C   UNL d   1      10.268   7.472 -10.787  0.00  0.00     0.274 C 
ATOM      4  N   UNL d   1       9.631   7.318  -9.478  0.00  0.00     0.141 N 
ATOM      5  C   UNL d   1       9.237   5.909  -9.299  0.00  0.00     0.274 C 
ATOM      6  C   UNL d   1       8.274   5.449 -10.410  0.00  0.00     0.137 C 
ENDROOT
BRANCH   4   7
ATOM      7  C   UNL d   1      10.550   7.700  -8.413  0.00  0.00     0.255 C 
BRANCH   7   8
ATOM      8  C   UNL d   1       9.765   8.173  -7.170  0.00  0.00     0.062 C 
BRANCH   8   9
ATOM      9  C   UNL d   1      10.596   8.086  -5.905  0.00  0.00    -0.018 A 
ATOM     10  C   UNL d   1      10.860   9.230  -5.111  0.00  0.00     0.018 A 
ATOM     11  C   UNL d   1      11.567   9.035  -3.916  0.00  0.00     0.124 A 
ATOM     12  C   UNL d   1      12.019   7.796  -3.520  0.00  0.00     0.124 A 
ATOM     13  N   UNL d   1      11.855   9.950  -3.005  0.00  0.00    -0.127 NA
ATOM     14  C   UNL d   1      11.798   6.657  -4.302  0.00  0.00     0.022 A 
ATOM     15  N   UNL d   1      12.631   7.851  -2.346  0.00  0.00    -0.127 NA
ATOM     16  C   UNL d   1      11.072   6.816  -5.499  0.00  0.00    -0.003 A 
ATOM     17  N   UNL d   1      12.496   9.182  -2.066  0.00  0.00    -0.042 NA
ENDBRANCH   8   9
ENDBRANCH   7   8
ENDBRANCH   4   7
BRANCH   1  18
ATOM     18  C   UNL d   1       8.941   4.677 -12.695  0.00  0.00     0.079 A 
ATOM     19  C   UNL d   1       7.770   3.998 -13.112  0.00  0.00     0.110 A 
ATOM     20  C   UNL d   1       7.880   2.971 -14.086  0.00  0.00     0.026 A 
ATOM     21  C   UNL d   1       9.129   2.627 -14.631  0.00  0.00     0.002 A 
ATOM     22  C   UNL d   1      10.284   3.308 -14.220  0.00  0.00     0.002 A 
ATOM     23  C   UNL d   1      10.186   4.330 -13.258  0.00  0.00     0.019 A 
BRANCH  19  24
ATOM     24  O   UNL d   1       6.572   4.368 -12.542  0.00  0.00    -0.327 OA
ATOM     25  C   UNL d   1       5.392   3.744 -13.009  0.00  0.00     0.181 C 
ENDBRANCH  19  24
ENDBRANCH   1  18
TORSDOF 5
