REMARK  9 active torsions:
REMARK  status: ('A' for Active; 'I' for Inactive)
REMARK    1  A    between atoms: C_8  and  O_9 
REMARK    2  A    between atoms: O_9  and  C_10 
REMARK    3  A    between atoms: C_10  and  C_11 
REMARK    4  A    between atoms: C_11  and  C_12 
REMARK    5  A    between atoms: C_12  and  C_13 
REMARK    6  A    between atoms: C_13  and  N_14 
REMARK    7  A    between atoms: N_14  and  C_15 
REMARK    8  A    between atoms: C_15  and  C_16 
REMARK    9  A    between atoms: C_18  and  C_19 
ROOT
ATOM      1  C   UNL d   1       9.571   7.790 -10.928  0.00  0.00     0.041 C 
ENDROOT
BRANCH   1   2
ATOM      2  C   UNL d   1      10.199   8.487  -9.727  0.00  0.00     0.035 C 
BRANCH   2   3
ATOM      3  C   UNL d   1       9.117   8.905  -8.731  0.00  0.00     0.149 C 
BRANCH   3   4
ATOM      4  O   UNL d   1       9.664   9.580  -7.625  0.00  0.00    -0.331 OA
BRANCH   4   5
ATOM      5  C   UNL d   1      10.224   8.809  -6.645  0.00  0.00     0.096 A 
ATOM      6  C   UNL d   1      10.275   7.392  -6.699  0.00  0.00     0.024 A 
ATOM      7  C   UNL d   1      10.907   6.706  -5.658  0.00  0.00    -0.001 A 
ATOM      8  C   UNL d   1      11.419   7.388  -4.572  0.00  0.00    -0.004 A 
ATOM      9  C   UNL d   1      11.967   6.595  -3.421  0.00  0.00     0.038 C 
ATOM     10  C   UNL d   1      11.377   8.790  -4.514  0.00  0.00     0.082 A 
ATOM     11  C   UNL d   1      11.819   7.300  -2.090  0.00  0.00     0.095 C 
ATOM     12  C   UNL d   1      12.172   8.746  -2.245  0.00  0.00     0.256 C 
ATOM     13  O   UNL d   1      12.675   9.233  -1.264  0.00  0.00    -0.270 OA
ATOM     14  N   UNL d   1      11.877   9.427  -3.358  0.00  0.00    -0.212 NA
ATOM     15  C   UNL d   1      10.766   9.513  -5.555  0.00  0.00     0.043 A 
ENDBRANCH   4   5
ENDBRANCH   3   4
ENDBRANCH   2   3
ENDBRANCH   1   2
BRANCH   1  16
ATOM     16  C   UNL d   1       9.055   6.379 -10.600  0.00  0.00     0.290 C 
BRANCH  16  17
ATOM     17  N   UNL d   1       8.463   5.828 -11.798  0.00  0.00     0.339 N 
BRANCH  17  18
ATOM     18  C   UNL d   1       8.290   4.398 -11.616  0.00  0.00     0.290 C 
BRANCH  18  19
ATOM     19  C   UNL d   1       7.323   3.883 -12.611  0.00  0.00     0.041 A 
ATOM     20  C   UNL d   1       7.697   2.840 -13.671  0.00  0.00     0.025 A 
ATOM     21  C   UNL d   1       7.386   4.251 -14.047  0.00  0.00     0.007 A 
BRANCH  20  22
ATOM     22  C   UNL d   1       6.798   1.741 -14.129  0.00  0.00    -0.011 A 
ATOM     23  C   UNL d   1       6.910   1.172 -15.424  0.00  0.00     0.064 A 
ATOM     24  C   UNL d   1       6.013   0.143 -15.823  0.00  0.00     0.068 A 
ATOM     25 CL   UNL d   1       8.109   1.745 -16.533  0.00  0.00    -0.082 Cl
ATOM     26  C   UNL d   1       5.019  -0.305 -14.932  0.00  0.00     0.012 A 
ATOM     27 CL   UNL d   1       6.077  -0.531 -17.407  0.00  0.00    -0.082 Cl
ATOM     28  C   UNL d   1       4.913   0.264 -13.651  0.00  0.00     0.001 A 
ATOM     29  C   UNL d   1       5.802   1.267 -13.254  0.00  0.00    -0.003 A 
ENDBRANCH  20  22
ENDBRANCH  18  19
ENDBRANCH  17  18
ENDBRANCH  16  17
ENDBRANCH   1  16
TORSDOF 9
