REMARK  4 active torsions:
REMARK  status: ('A' for Active; 'I' for Inactive)
REMARK    1  A    between atoms: C_5  and  C_6 
REMARK    2  A    between atoms: C_6  and  N_7 
REMARK    3  A    between atoms: N_7  and  C_8 
REMARK    4  A    between atoms: C_15  and  C_16 
ROOT
ATOM      1  C   UNL d   1       9.181   5.901  -9.446  0.00  0.00     0.101 C 
ATOM      2  C   UNL d   1       9.618   6.547 -10.609  0.00  0.00     0.016 C 
ATOM      3  C   UNL d   1       9.203   6.062 -11.875  0.00  0.00    -0.022 C 
ATOM      4  C   UNL d   1       8.332   4.978 -12.058  0.00  0.00    -0.018 C 
ATOM      5  C   UNL d   1       7.874   4.403 -10.877  0.00  0.00     0.025 C 
ATOM      6  C   UNL d   1       8.360   4.791  -9.600  0.00  0.00     0.148 C 
ATOM      7  O   UNL d   1       8.105   4.000  -8.523  0.00  0.00    -0.189 OA
ATOM      8  C   UNL d   1       7.937   4.431 -13.467  0.00  0.00     0.078 C 
ATOM      9  C   UNL d   1       9.151   4.031 -14.336  0.00  0.00     0.259 C 
ATOM     10  N   UNL d   1       9.828   5.143 -14.979  0.00  0.00     0.140 N 
ATOM     11  C   UNL d   1      10.758   4.635 -15.976  0.00  0.00     0.285 C 
ATOM     12  C   UNL d   1      10.591   5.914 -14.033  0.00  0.00     0.255 C 
ATOM     13  C   UNL d   1       9.682   6.771 -13.065  0.00  0.00     0.061 C 
ENDROOT
BRANCH   1  14
ATOM     14  N   UNL d   1       9.650   6.233  -8.182  0.00  0.00    -0.264 NA
BRANCH  14  15
ATOM     15  C   UNL d   1       9.529   7.606  -7.756  0.00  0.00     0.152 C 
BRANCH  15  16
ATOM     16  C   UNL d   1      10.295   7.884  -6.474  0.00  0.00     0.002 A 
ATOM     17  C   UNL d   1      10.590   9.210  -6.115  0.00  0.00    -0.003 A 
ATOM     18  C   UNL d   1      11.286   9.474  -4.920  0.00  0.00    -0.004 A 
ATOM     19  C   UNL d   1      11.724   8.415  -4.097  0.00  0.00    -0.022 A 
ATOM     20  C   UNL d   1      12.462   8.684  -2.808  0.00  0.00     0.031 C 
ATOM     21  C   UNL d   1      11.450   7.087  -4.466  0.00  0.00    -0.004 A 
ATOM     22  C   UNL d   1      10.729   6.832  -5.640  0.00  0.00    -0.003 A 
ENDBRANCH  15  16
ENDBRANCH  14  15
ENDBRANCH   1  14
BRANCH   8  23
ATOM     23  C   UNL d   1       6.893   3.293 -13.497  0.00  0.00    -0.017 A 
ATOM     24  C   UNL d   1       5.616   3.541 -12.955  0.00  0.00    -0.004 A 
ATOM     25  C   UNL d   1       4.706   2.500 -12.815  0.00  0.00    -0.000 A 
ATOM     26  C   UNL d   1       5.017   1.200 -13.302  0.00  0.00    -0.000 A 
ATOM     27  C   UNL d   1       6.242   0.955 -13.910  0.00  0.00    -0.000 A 
ATOM     28  C   UNL d   1       7.173   2.003 -14.044  0.00  0.00    -0.004 A 
ENDBRANCH   8  23
TORSDOF 4
