REMARK  7 active torsions:
REMARK  status: ('A' for Active; 'I' for Inactive)
REMARK    1  A    between atoms: S_2  and  C_5 
REMARK    2  A    between atoms: N_13  and  C_14 
REMARK    3  A    between atoms: C_14  and  C_15 
REMARK    4  A    between atoms: C_15  and  C_16 
REMARK    5  A    between atoms: C_19  and  N_20 
REMARK       I    between atoms: N_20  and  C_21 
REMARK    6  A    between atoms: C_21  and  C_23 
REMARK    7  A    between atoms: C_24  and  C_25 
ROOT
ATOM      1  C   UNL d   1       9.557   5.952 -10.283  0.00  0.00     0.001 A 
ATOM      2  C   UNL d   1       8.663   5.211  -9.491  0.00  0.00     0.000 A 
ATOM      3  C   UNL d   1       8.430   5.589  -8.160  0.00  0.00     0.001 A 
ATOM      4  C   UNL d   1       9.094   6.690  -7.592  0.00  0.00     0.010 A 
ATOM      5  C   UNL d   1      10.011   7.418  -8.370  0.00  0.00     0.068 A 
ATOM      6  C   UNL d   1      10.707   8.541  -7.772  0.00  0.00     0.101 C 
ATOM      7  N   UNL d   1      11.260   9.434  -7.285  0.00  0.00    -0.191 NA
ATOM      8  C   UNL d   1      10.240   7.048  -9.712  0.00  0.00     0.010 A 
ENDROOT
BRANCH   1   9
ATOM      9  C   UNL d   1       9.854   5.589 -11.678  0.00  0.00     0.005 C 
ATOM     10  C   UNL d   1       9.736   4.358 -12.217  0.00  0.00     0.062 C 
BRANCH  10  11
ATOM     11  C   UNL d   1      10.082   4.128 -13.606  0.00  0.00     0.275 C 
ATOM     12  N   UNL d   1       9.840   2.860 -13.970  0.00  0.00    -0.236 NA
ATOM     13  O   UNL d   1      10.569   4.968 -14.365  0.00  0.00    -0.266 OA
BRANCH  12  14
ATOM     14  C   UNL d   1      10.110   2.294 -15.286  0.00  0.00     0.107 C 
ATOM     15  C   UNL d   1      10.183   0.763 -15.186  0.00  0.00     0.024 C 
ATOM     16  C   UNL d   1      10.390   0.127 -16.563  0.00  0.00     0.002 C 
ATOM     17  C   UNL d   1       9.300   0.551 -17.573  0.00  0.00     0.002 C 
ATOM     18  C   UNL d   1       9.221   2.084 -17.654  0.00  0.00     0.002 C 
ATOM     19  C   UNL d   1       9.016   2.720 -16.279  0.00  0.00     0.024 C 
BRANCH  17  20
ATOM     20  C   UNL d   1       9.556  -0.037 -18.976  0.00  0.00     0.035 C 
BRANCH  20  21
ATOM     21  C   UNL d   1       9.329  -1.559 -19.051  0.00  0.00     0.250 C 
BRANCH  21  22
ATOM     22  N   UNL d   1       7.907  -1.866 -19.156  0.00  0.00     0.138 N 
ATOM     23  C   UNL d   1       7.656  -3.205 -18.623  0.00  0.00     0.255 C 
ATOM     24  C   UNL d   1       6.190  -3.408 -18.241  0.00  0.00     0.061 C 
ATOM     25  C   UNL d   1       5.261  -3.713 -19.404  0.00  0.00    -0.023 A 
ATOM     26  C   UNL d   1       5.171  -2.877 -20.549  0.00  0.00    -0.024 A 
ATOM     27  C   UNL d   1       4.457  -4.865 -19.324  0.00  0.00     0.006 A 
ATOM     28  C   UNL d   1       4.276  -3.225 -21.590  0.00  0.00    -0.004 A 
ATOM     29  C   UNL d   1       5.975  -1.599 -20.719  0.00  0.00     0.061 C 
ATOM     30  C   UNL d   1       3.462  -4.370 -21.508  0.00  0.00     0.011 A 
ATOM     31  C   UNL d   1       3.582  -5.187 -20.368  0.00  0.00     0.084 A 
ATOM     32  C   UNL d   1       7.493  -1.768 -20.557  0.00  0.00     0.255 C 
BRANCH  31  33
ATOM     33  S   UNL d   1       2.566  -6.641 -20.230  0.00  0.00     0.191 S 
ATOM     34  C   UNL d   1       1.041  -6.024 -19.423  0.00  0.00     0.145 C 
ATOM     35  O   UNL d   1       3.243  -7.576 -19.303  0.00  0.00    -0.222 OA
ATOM     36  O   UNL d   1       2.226  -7.083 -21.586  0.00  0.00    -0.222 OA
ENDBRANCH  31  33
ENDBRANCH  21  22
ENDBRANCH  20  21
ENDBRANCH  17  20
ENDBRANCH  12  14
ENDBRANCH  10  11
ENDBRANCH   1   9
TORSDOF 7
