REMARK  8 active torsions:
REMARK  status: ('A' for Active; 'I' for Inactive)
REMARK    1  A    between atoms: N_3  and  C_4 
REMARK    2  A    between atoms: C_4  and  C_5 
REMARK    3  A    between atoms: C_5  and  C_6 
REMARK    4  A    between atoms: C_6  and  C_7 
REMARK    5  A    between atoms: C_7  and  C_8 
REMARK    6  A    between atoms: C_8  and  C_9 
REMARK    7  A    between atoms: C_9  and  N_10 
REMARK    8  A    between atoms: N_13  and  C_14 
ROOT
ATOM      1  N   UNL d   1       8.166   4.821 -12.580  0.00  0.00     0.141 N 
ATOM      2  C   UNL d   1       7.706   4.407 -11.261  0.00  0.00     0.274 C 
ATOM      3  C   UNL d   1       8.913   4.405 -10.313  0.00  0.00     0.137 C 
ATOM      4  N   UNL d   1       9.454   5.747 -10.252  0.00  0.00    -0.343 N 
ATOM      5  C   UNL d   1       9.753   6.345 -11.552  0.00  0.00     0.137 C 
ATOM      6  C   UNL d   1       8.550   6.232 -12.482  0.00  0.00     0.274 C 
ENDROOT
BRANCH   1   7
ATOM      7  C   UNL d   1       7.099   4.721 -13.544  0.00  0.00     0.250 C 
BRANCH   7   8
ATOM      8  C   UNL d   1       6.674   3.277 -13.872  0.00  0.00     0.035 C 
BRANCH   8   9
ATOM      9  C   UNL d   1       7.852   2.442 -14.420  0.00  0.00     0.002 C 
BRANCH   9  10
ATOM     10  C   UNL d   1       7.442   1.628 -15.636  0.00  0.00     0.002 C 
BRANCH  10  11
ATOM     11  C   UNL d   1       8.593   0.822 -16.260  0.00  0.00     0.027 C 
BRANCH  11  12
ATOM     12  C   UNL d   1       8.408   0.545 -17.767  0.00  0.00     0.132 C 
BRANCH  12  13
ATOM     13  N   UNL d   1       7.328  -0.398 -18.058  0.00  0.00    -0.201 N 
ATOM     14  C   UNL d   1       6.012  -0.144 -18.031  0.00  0.00     0.352 A 
ATOM     15  O   UNL d   1       5.456   0.922 -17.807  0.00  0.00    -0.244 OA
ATOM     16  N   UNL d   1       5.453  -1.307 -18.325  0.00  0.00    -0.241 N 
ATOM     17  C   UNL d   1       6.468  -2.208 -18.596  0.00  0.00     0.171 A 
ATOM     18  C   UNL d   1       4.089  -1.598 -18.398  0.00  0.00     0.086 A 
ATOM     19  N   UNL d   1       7.630  -1.669 -18.447  0.00  0.00    -0.147 NA
ATOM     20  C   UNL d   1       6.044  -3.538 -18.994  0.00  0.00     0.039 A 
ATOM     21  C   UNL d   1       4.722  -3.825 -19.072  0.00  0.00     0.005 A 
ATOM     22  C   UNL d   1       3.699  -2.832 -18.766  0.00  0.00     0.019 A 
ENDBRANCH  12  13
ENDBRANCH  11  12
ENDBRANCH  10  11
ENDBRANCH   9  10
ENDBRANCH   8   9
ENDBRANCH   7   8
ENDBRANCH   1   7
BRANCH   4  23
ATOM     23  C   UNL d   1       9.633   6.425  -9.039  0.00  0.00     0.074 A 
ATOM     24  C   UNL d   1      10.713   7.307  -8.779  0.00  0.00     0.097 A 
ATOM     25  C   UNL d   1      10.810   7.940  -7.505  0.00  0.00     0.019 A 
ATOM     26  N   UNL d   1      11.654   7.506  -9.717  0.00  0.00    -0.243 NA
ATOM     27  C   UNL d   1       9.817   7.766  -6.529  0.00  0.00     0.002 A 
ATOM     28  C   UNL d   1      11.923   8.732  -7.205  0.00  0.00     0.003 A 
ATOM     29  C   UNL d   1       8.740   6.932  -6.825  0.00  0.00     0.002 A 
ATOM     30  C   UNL d   1       8.666   6.237  -8.036  0.00  0.00     0.018 A 
ATOM     31  C   UNL d   1      12.940   8.777  -8.161  0.00  0.00     0.021 A 
ATOM     32  C   UNL d   1      12.754   8.172  -9.400  0.00  0.00     0.099 A 
ENDBRANCH   4  23
TORSDOF 8
