REMARK  3 active torsions:
REMARK  status: ('A' for Active; 'I' for Inactive)
REMARK    1  A    between atoms: N_5  and  C_6 
REMARK    2  A    between atoms: C_12  and  S_13 
REMARK    3  A    between atoms: S_13  and  C_16 
ROOT
ATOM      1  C   UNL d   1       8.733   2.040 -14.760  0.00  0.00     0.056 A 
ATOM      2  C   UNL d   1       7.448   1.453 -14.886  0.00  0.00     0.018 A 
ATOM      3  C   UNL d   1       6.327   2.052 -14.305  0.00  0.00     0.022 A 
ATOM      4  C   UNL d   1       6.465   3.272 -13.631  0.00  0.00     0.105 A 
ATOM      5  N   UNL d   1       5.571   4.108 -12.986  0.00  0.00    -0.147 NA
ATOM      6  N   UNL d   1       6.153   5.204 -12.433  0.00  0.00    -0.136 NA
ATOM      7  C   UNL d   1       7.425   5.103 -12.735  0.00  0.00     0.192 A 
ATOM      8  C   UNL d   1       7.725   3.916 -13.488  0.00  0.00     0.051 A 
ATOM      9  C   UNL d   1       8.851   3.273 -14.062  0.00  0.00     0.021 A 
ENDROOT
BRANCH   7  10
ATOM     10  S   UNL d   1       8.634   6.311 -12.273  0.00  0.00     0.228 S 
ATOM     11  O   UNL d   1       9.853   5.978 -13.018  0.00  0.00    -0.216 OA
ATOM     12  O   UNL d   1       7.996   7.626 -12.441  0.00  0.00    -0.216 OA
BRANCH  10  13
ATOM     13  C   UNL d   1       9.007   6.102 -10.544  0.00  0.00     0.089 A 
ATOM     14  C   UNL d   1       9.803   7.045  -9.840  0.00  0.00     0.011 A 
ATOM     15  C   UNL d   1      10.044   6.858  -8.459  0.00  0.00     0.001 A 
ATOM     16  C   UNL d   1      10.357   8.183 -10.457  0.00  0.00     0.001 A 
ATOM     17  C   UNL d   1       9.492   5.753  -7.807  0.00  0.00     0.000 A 
ATOM     18  C   UNL d   1      10.839   7.760  -7.721  0.00  0.00     0.000 A 
ATOM     19  C   UNL d   1       8.719   4.810  -8.513  0.00  0.00     0.001 A 
ATOM     20  C   UNL d   1       8.480   4.984  -9.878  0.00  0.00     0.011 A 
ATOM     21  C   UNL d   1      11.401   8.874  -8.360  0.00  0.00     0.000 A 
ATOM     22  C   UNL d   1      11.155   9.084  -9.728  0.00  0.00     0.000 A 
ENDBRANCH  10  13
ENDBRANCH   7  10
BRANCH   1  23
ATOM     23  N   UNL d   1       9.863   1.412 -15.319  0.00  0.00    -0.344 N 
ATOM     24  C   UNL d   1       9.949  -0.036 -15.482  0.00  0.00     0.137 C 
ATOM     25  C   UNL d   1      10.233  -0.386 -16.953  0.00  0.00     0.274 C 
ATOM     26  N   UNL d   1      11.457   0.286 -17.399  0.00  0.00     0.143 N 
ATOM     27  C   UNL d   1      11.758  -0.097 -18.767  0.00  0.00     0.286 C 
ATOM     28  C   UNL d   1      11.284   1.739 -17.303  0.00  0.00     0.274 C 
ATOM     29  C   UNL d   1      11.003   2.159 -15.843  0.00  0.00     0.137 C 
ENDBRANCH   1  23
TORSDOF 3
