REMARK  5 active torsions:
REMARK  status: ('A' for Active; 'I' for Inactive)
REMARK    1  A    between atoms: N_4  and  C_5 
REMARK    2  A    between atoms: N_18  and  C_19 
REMARK    3  A    between atoms: C_19  and  C_20 
REMARK    4  A    between atoms: C_20  and  C_21 
REMARK    5  A    between atoms: C_28  and  C_29 
ROOT
ATOM      1  C   UNL d   1       5.703   1.840 -13.282  0.00  0.00     0.037 C 
ATOM      2  C   UNL d   1       6.742   2.417 -14.291  0.00  0.00     0.241 C 
ATOM      3  C   UNL d   1       7.309   1.221 -15.098  0.00  0.00     0.135 C 
ATOM      4  N   UNL d   1       8.366   1.652 -15.999  0.00  0.00    -0.344 N 
ATOM      5  C   UNL d   1       9.428   2.442 -15.402  0.00  0.00     0.137 C 
ATOM      6  C   UNL d   1       8.865   3.607 -14.602  0.00  0.00     0.274 C 
ATOM      7  N   UNL d   1       7.853   3.152 -13.636  0.00  0.00     0.139 N 
ENDROOT
BRANCH   7   8
ATOM      8  C   UNL d   1       7.449   4.313 -12.858  0.00  0.00     0.253 C 
BRANCH   8   9
ATOM      9  C   UNL d   1       8.477   4.615 -11.760  0.00  0.00     0.070 C 
BRANCH   9  10
ATOM     10  C   UNL d   1       8.375   6.073 -11.367  0.00  0.00     0.145 C 
ATOM     11  C   UNL d   1       9.167   6.402 -10.149  0.00  0.00     0.031 A 
ATOM     12  C   UNL d   1       9.898   7.543 -10.037  0.00  0.00    -0.004 A 
ATOM     13  S   UNL d   1       9.149   5.524  -8.642  0.00  0.00    -0.084 SA
ATOM     14  C   UNL d   1      10.020   8.500 -11.131  0.00  0.00     0.060 C 
ATOM     15  C   UNL d   1      10.534   7.696  -8.799  0.00  0.00     0.065 A 
ATOM     16  C   UNL d   1       9.000   8.228 -12.251  0.00  0.00     0.147 C 
ATOM     17  O   UNL d   1       8.907   6.826 -12.468  0.00  0.00    -0.351 OA
ATOM     18  C   UNL d   1      10.248   6.689  -7.951  0.00  0.00     0.099 A 
ATOM     19 CL   UNL d   1      11.507   9.043  -8.470  0.00  0.00    -0.082 Cl
BRANCH  18  20
ATOM     20  C   UNL d   1      10.729   6.508  -6.607  0.00  0.00     0.303 C 
ATOM     21  N   UNL d   1       9.877   6.808  -5.643  0.00  0.00    -0.102 N 
ATOM     22  O   UNL d   1      11.858   6.099  -6.390  0.00  0.00    -0.263 OA
ENDBRANCH  18  20
ENDBRANCH   9  10
ENDBRANCH   8   9
ENDBRANCH   7   8
BRANCH   4  23
ATOM     23  C   UNL d   1       8.355   1.309 -17.372  0.00  0.00     0.056 A 
ATOM     24  C   UNL d   1       9.487   0.775 -18.041  0.00  0.00     0.016 A 
ATOM     25  C   UNL d   1       9.428   0.514 -19.447  0.00  0.00     0.004 A 
ATOM     26  C   UNL d   1      10.694   0.456 -17.370  0.00  0.00     0.004 A 
ATOM     27  C   UNL d   1       8.239   0.770 -20.151  0.00  0.00     0.000 A 
ATOM     28  C   UNL d   1      10.544  -0.011 -20.127  0.00  0.00     0.030 A 
ATOM     29  C   UNL d   1       7.110   1.268 -19.487  0.00  0.00     0.002 A 
ATOM     30  C   UNL d   1       7.167   1.538 -18.100  0.00  0.00     0.017 A 
ATOM     31  C   UNL d   1      11.740  -0.282 -19.438  0.00  0.00     0.140 A 
ATOM     32  F   UNL d   1      12.815  -0.800 -20.073  0.00  0.00    -0.204 F 
ATOM     33  C   UNL d   1      11.802  -0.031 -18.061  0.00  0.00     0.030 A 
ENDBRANCH   4  23
TORSDOF 5
