REMARK  2 active torsions:
REMARK  status: ('A' for Active; 'I' for Inactive)
REMARK    1  A    between atoms: N_5  and  C_6 
REMARK    2  A    between atoms: C_18  and  C_19 
ROOT
ATOM      1  C   UNL d   1      10.972   2.170 -17.739  0.00  0.00     0.246 C 
ATOM      2  C   UNL d   1      12.005   2.684 -18.782  0.00  0.00     0.065 C 
ATOM      3  C   UNL d   1      11.903   4.140 -19.153  0.00  0.00    -0.014 A 
ATOM      4  C   UNL d   1      11.388   4.530 -20.407  0.00  0.00    -0.004 A 
ATOM      5  C   UNL d   1      11.365   5.890 -20.759  0.00  0.00    -0.000 A 
ATOM      6  C   UNL d   1      11.851   6.860 -19.851  0.00  0.00     0.001 A 
ATOM      7  C   UNL d   1      12.369   6.464 -18.596  0.00  0.00     0.006 A 
ATOM      8  C   UNL d   1      12.398   5.103 -18.258  0.00  0.00     0.025 A 
ATOM      9  S   UNL d   1      13.022   4.566 -16.703  0.00  0.00    -0.087 SA
ATOM     10  C   UNL d   1      11.488   4.091 -15.978  0.00  0.00     0.027 A 
ATOM     11  C   UNL d   1      11.089   4.795 -14.828  0.00  0.00     0.006 A 
ATOM     12  C   UNL d   1       9.875   4.516 -14.191  0.00  0.00     0.001 A 
ATOM     13  C   UNL d   1       8.996   3.538 -14.730  0.00  0.00     0.003 A 
ATOM     14  C   UNL d   1       9.375   2.880 -15.920  0.00  0.00    -0.002 A 
ATOM     15  C   UNL d   1      10.634   3.087 -16.535  0.00  0.00     0.015 A 
ENDROOT
BRANCH   1  16
ATOM     16  N   UNL d   1      11.264   0.782 -17.289  0.00  0.00     0.144 N 
ATOM     17  C   UNL d   1      10.092   0.041 -16.772  0.00  0.00     0.286 C 
ATOM     18  C   UNL d   1       9.101  -0.291 -17.922  0.00  0.00     0.286 C 
ATOM     19  N   UNL d   1       9.743  -1.084 -18.985  0.00  0.00     0.143 N 
ATOM     20  C   UNL d   1       8.820  -1.371 -20.079  0.00  0.00     0.285 C 
ATOM     21  C   UNL d   1      10.930  -0.385 -19.477  0.00  0.00     0.286 C 
ATOM     22  C   UNL d   1      11.903  -0.071 -18.323  0.00  0.00     0.286 C 
ENDBRANCH   1  16
BRANCH  13  23
ATOM     23  C   UNL d   1       7.718   3.208 -14.051  0.00  0.00     0.038 A 
ATOM     24  C   UNL d   1       7.057   1.970 -14.236  0.00  0.00     0.102 A 
ATOM     25  N   UNL d   1       5.882   1.679 -13.621  0.00  0.00    -0.223 NA
ATOM     26  C   UNL d   1       5.369   2.610 -12.837  0.00  0.00     0.199 A 
ATOM     27  N   UNL d   1       5.896   3.809 -12.573  0.00  0.00    -0.223 NA
ATOM     28  C   UNL d   1       7.070   4.096 -13.170  0.00  0.00     0.102 A 
ENDBRANCH  13  23
TORSDOF 2
