REMARK  8 active torsions:
REMARK  status: ('A' for Active; 'I' for Inactive)
REMARK    1  A    between atoms: C_2  and  C_4 
REMARK    2  A    between atoms: C_9  and  N_10 
REMARK    3  A    between atoms: N_13  and  C_14 
REMARK    4  A    between atoms: C_14  and  C_15 
REMARK    5  A    between atoms: C_15  and  C_16 
REMARK    6  A    between atoms: C_16  and  C_17 
REMARK    7  A    between atoms: C_17  and  C_18 
REMARK    8  A    between atoms: C_18  and  C_19 
REMARK       I    between atoms: C_19  and  N_21 
ROOT
ATOM      1  C   UNL d   1      10.540   2.765 -14.567  0.00  0.00     0.250 C 
ENDROOT
BRANCH   1   2
ATOM      2  N   UNL d   1      10.151   1.933 -15.705  0.00  0.00     0.141 N 
ATOM      3  C   UNL d   1      11.330   1.353 -16.354  0.00  0.00     0.274 C 
ATOM      4  C   UNL d   1      12.238   2.447 -16.959  0.00  0.00     0.137 C 
ATOM      5  N   UNL d   1      11.454   3.314 -17.835  0.00  0.00    -0.344 N 
ATOM      6  C   UNL d   1      10.164   3.778 -17.357  0.00  0.00     0.137 C 
ATOM      7  C   UNL d   1       9.362   2.617 -16.740  0.00  0.00     0.274 C 
BRANCH   5   8
ATOM      8  C   UNL d   1      11.918   3.621 -19.146  0.00  0.00     0.052 A 
ATOM      9  C   UNL d   1      11.852   4.932 -19.664  0.00  0.00    -0.007 A 
ATOM     10  C   UNL d   1      12.303   5.162 -20.998  0.00  0.00    -0.003 A 
ATOM     11  C   UNL d   1      12.820   4.109 -21.779  0.00  0.00    -0.000 A 
ATOM     12  C   UNL d   1      12.891   2.811 -21.252  0.00  0.00     0.002 A 
ATOM     13  C   UNL d   1      12.436   2.576 -19.926  0.00  0.00     0.017 A 
BRANCH   9  14
ATOM     14  C   UNL d   1      11.332   6.152 -18.887  0.00  0.00     0.024 C 
ATOM     15  C   UNL d   1      10.013   6.685 -19.490  0.00  0.00     0.005 C 
ATOM     16  C   UNL d   1      12.395   7.245 -18.722  0.00  0.00     0.005 C 
ENDBRANCH   9  14
ENDBRANCH   5   8
ENDBRANCH   1   2
BRANCH   1  17
ATOM     17  C   UNL d   1       9.342   3.283 -13.765  0.00  0.00     0.035 C 
BRANCH  17  18
ATOM     18  C   UNL d   1       9.830   4.154 -12.606  0.00  0.00     0.003 C 
BRANCH  18  19
ATOM     19  C   UNL d   1       8.725   5.033 -12.018  0.00  0.00     0.010 C 
BRANCH  19  20
ATOM     20  C   UNL d   1       9.258   6.189 -11.158  0.00  0.00     0.088 C 
BRANCH  20  21
ATOM     21  C   UNL d   1       9.396   5.879  -9.660  0.00  0.00     0.234 C 
ATOM     22  O   UNL d   1       9.433   4.679  -9.309  0.00  0.00    -0.272 OA
ATOM     23  N   UNL d   1       9.484   6.885  -8.776  0.00  0.00    -0.316 N 
ATOM     24  C   UNL d   1       9.451   6.640  -7.329  0.00  0.00     0.131 C 
ATOM     25  C   UNL d   1       9.578   8.319  -9.121  0.00  0.00     0.109 C 
ATOM     26  C   UNL d   1      10.442   7.489  -6.552  0.00  0.00    -0.004 A 
ATOM     27  C   UNL d   1      11.120   8.581  -7.143  0.00  0.00    -0.022 A 
ATOM     28  C   UNL d   1      10.681   7.179  -5.201  0.00  0.00    -0.003 A 
ATOM     29  C   UNL d   1      10.898   8.899  -8.607  0.00  0.00     0.050 C 
ATOM     30  C   UNL d   1      12.005   9.360  -6.373  0.00  0.00    -0.004 A 
ATOM     31  C   UNL d   1      12.225   9.058  -5.016  0.00  0.00    -0.000 A 
ATOM     32  C   UNL d   1      11.572   7.958  -4.432  0.00  0.00    -0.000 A 
ENDBRANCH  20  21
ENDBRANCH  19  20
ENDBRANCH  18  19
ENDBRANCH  17  18
ENDBRANCH   1  17
TORSDOF 8
