REMARK  2 active torsions:
REMARK  status: ('A' for Active; 'I' for Inactive)
REMARK    1  A    between atoms: C_8  and  N_9 
REMARK       I    between atoms: N_9  and  C_10 
REMARK    2  A    between atoms: C_10  and  C_12 
ROOT
ATOM      1  N   UNL d   1       9.794   7.228  -7.618  0.00  0.00    -0.211 NA
ATOM      2  C   UNL d   1      10.983   7.417  -7.048  0.00  0.00     0.287 C 
ATOM      3  O   UNL d   1      12.033   7.357  -7.687  0.00  0.00    -0.268 OA
ENDROOT
BRANCH   1   4
ATOM      4  C   UNL d   1       9.595   6.994  -8.997  0.00  0.00     0.076 A 
ATOM      5  C   UNL d   1       8.936   5.806  -9.390  0.00  0.00    -0.004 A 
ATOM      6  C   UNL d   1       8.479   4.779  -8.373  0.00  0.00     0.033 C 
ATOM      7  C   UNL d   1       8.675   5.551 -10.748  0.00  0.00    -0.003 A 
ATOM      8  C   UNL d   1       9.060   6.494 -11.716  0.00  0.00    -0.001 A 
ATOM      9  C   UNL d   1       9.705   7.681 -11.316  0.00  0.00    -0.003 A 
ATOM     10  C   UNL d   1      10.006   7.937  -9.971  0.00  0.00    -0.004 A 
ATOM     11  C   UNL d   1      10.734   9.217  -9.620  0.00  0.00     0.033 C 
ENDBRANCH   1   4
BRANCH   2  12
ATOM     12  C   UNL d   1      11.024   7.698  -5.545  0.00  0.00     0.299 C 
ATOM     13  N   UNL d   1      11.820   8.904  -5.203  0.00  0.00     0.146 N 
ATOM     14  C   UNL d   1      11.802   9.142  -3.753  0.00  0.00     0.251 C 
ATOM     15  C   UNL d   1      11.324  10.097  -5.909  0.00  0.00     0.286 C 
ATOM     16  C   UNL d   1      12.414   7.947  -3.005  0.00  0.00     0.035 C 
ATOM     17  C   UNL d   1      11.669   6.649  -3.309  0.00  0.00     0.005 C 
ATOM     18  C   UNL d   1      11.596   6.459  -4.825  0.00  0.00     0.043 C 
ENDBRANCH   2  12
TORSDOF 2
