REMARK  4 active torsions:
REMARK  status: ('A' for Active; 'I' for Inactive)
REMARK    1  A    between atoms: C_2  and  S_3 
REMARK    2  A    between atoms: C_2  and  C_11 
REMARK    3  A    between atoms: S_3  and  C_4 
REMARK    4  A    between atoms: C_16  and  N_17 
ROOT
ATOM      1  C   UNL d   1       8.335   4.879 -11.557  0.00  0.00     0.186 A 
ATOM      2  N   UNL d   1       7.050   4.615 -11.783  0.00  0.00    -0.041 NA
ATOM      3  C   UNL d   1       6.849   3.988 -12.935  0.00  0.00     0.785 A 
ATOM      4  N   UNL d   1       5.556   3.667 -13.213  0.00  0.00     0.063 N 
ATOM      5  N   UNL d   1       7.751   3.638 -13.842  0.00  0.00     0.134 NA
ATOM      6  C   UNL d   1       9.000   3.967 -13.488  0.00  0.00     0.744 A 
ATOM      7  N   UNL d   1       9.365   4.573 -12.354  0.00  0.00    -0.044 NA
ENDROOT
BRANCH   1   8
ATOM      8  C   UNL d   1       8.647   5.513 -10.209  0.00  0.00     0.112 C 
ATOM      9  C   UNL d   1       9.050   4.463  -9.157  0.00  0.00     0.020 C 
BRANCH   8  10
ATOM     10  S   UNL d   1       9.905   6.823 -10.409  0.00  0.00    -0.106 SA
BRANCH  10  11
ATOM     11  C   UNL d   1      10.239   7.484  -8.801  0.00  0.00     0.036 A 
ATOM     12  C   UNL d   1      11.515   8.014  -8.483  0.00  0.00     0.063 A 
ATOM     13  C   UNL d   1      11.752   8.528  -7.189  0.00  0.00     0.012 A 
ATOM     14 CL   UNL d   1      12.803   8.011  -9.636  0.00  0.00    -0.082 Cl
ATOM     15  C   UNL d   1      10.744   8.479  -6.202  0.00  0.00     0.001 A 
ATOM     16  C   UNL d   1       9.484   7.940  -6.528  0.00  0.00     0.001 A 
ATOM     17  C   UNL d   1       9.225   7.473  -7.821  0.00  0.00     0.007 A 
ENDBRANCH  10  11
ENDBRANCH   8  10
ENDBRANCH   1   8
BRANCH   6  18
ATOM     18  N   UNL d   1      10.013   3.658 -14.394  0.00  0.00    -0.178 N 
ATOM     19  C   UNL d   1      11.440   3.696 -14.070  0.00  0.00     0.155 C 
ATOM     20  C   UNL d   1      12.210   4.564 -15.081  0.00  0.00     0.275 C 
ATOM     21  N   UNL d   1      11.993   4.058 -16.437  0.00  0.00     0.143 N 
ATOM     22  C   UNL d   1      10.563   4.140 -16.747  0.00  0.00     0.275 C 
ATOM     23  C   UNL d   1      12.738   4.876 -17.383  0.00  0.00     0.286 C 
ATOM     24  C   UNL d   1       9.763   3.254 -15.777  0.00  0.00     0.155 C 
ENDBRANCH   6  18
TORSDOF 4
