REMARK  7 active torsions:
REMARK  status: ('A' for Active; 'I' for Inactive)
REMARK    1  A    between atoms: S_2  and  N_4 
REMARK    2  A    between atoms: S_2  and  C_23 
REMARK    3  A    between atoms: N_4  and  C_5 
REMARK    4  A    between atoms: C_5  and  C_6 
REMARK    5  A    between atoms: C_6  and  C_7 
REMARK    6  A    between atoms: C_7  and  N_8 
REMARK    7  A    between atoms: N_11  and  C_12 
ROOT
ATOM      1  C   UNL d   1       8.370   2.475 -14.322  0.00  0.00     0.062 C 
ENDROOT
BRANCH   1   2
ATOM      2  C   UNL d   1       8.820   1.644 -15.520  0.00  0.00     0.141 C 
BRANCH   2   3
ATOM      3  N   UNL d   1       7.872   0.561 -15.823  0.00  0.00    -0.184 NA
BRANCH   3   4
ATOM      4  S   UNL d   1       7.353   0.338 -17.457  0.00  0.00     0.287 S 
ATOM      5  O   UNL d   1       6.627  -0.937 -17.542  0.00  0.00    -0.198 OA
ATOM      6  O   UNL d   1       6.748   1.594 -17.922  0.00  0.00    -0.198 OA
BRANCH   4   7
ATOM      7  C   UNL d   1       8.863   0.132 -18.376  0.00  0.00     0.134 A 
ATOM      8  S   UNL d   1      10.279  -0.534 -17.618  0.00  0.00    -0.074 SA
ATOM      9  C   UNL d   1      11.212  -0.300 -19.083  0.00  0.00     0.031 A 
ATOM     10  C   UNL d   1      10.398   0.250 -20.126  0.00  0.00     0.007 A 
ATOM     11  C   UNL d   1      12.570  -0.606 -19.286  0.00  0.00     0.018 A 
ATOM     12  C   UNL d   1       9.045   0.509 -19.683  0.00  0.00     0.020 A 
ATOM     13  C   UNL d   1      11.020   0.452 -21.381  0.00  0.00     0.001 A 
ATOM     14  C   UNL d   1      12.374   0.123 -21.597  0.00  0.00     0.011 A 
ATOM     15  C   UNL d   1      13.152  -0.403 -20.548  0.00  0.00     0.058 A 
ATOM     16 CL   UNL d   1      14.810  -0.805 -20.815  0.00  0.00    -0.082 Cl
ENDBRANCH   4   7
ENDBRANCH   3   4
ENDBRANCH   2   3
ENDBRANCH   1   2
BRANCH   1  17
ATOM     17  C   UNL d   1       9.016   3.867 -14.285  0.00  0.00     0.253 C 
BRANCH  17  18
ATOM     18  N   UNL d   1       8.653   4.548 -13.044  0.00  0.00     0.141 N 
ATOM     19  C   UNL d   1       8.625   5.999 -13.248  0.00  0.00     0.274 C 
ATOM     20  C   UNL d   1       8.252   6.744 -11.957  0.00  0.00     0.138 C 
ATOM     21  N   UNL d   1       9.164   6.367 -10.896  0.00  0.00    -0.328 N 
ATOM     22  C   UNL d   1       9.329   4.941 -10.683  0.00  0.00     0.138 C 
ATOM     23  C   UNL d   1       9.668   4.252 -12.026  0.00  0.00     0.274 C 
BRANCH  21  24
ATOM     24  C   UNL d   1       9.831   7.333 -10.140  0.00  0.00     0.169 A 
ATOM     25  C   UNL d   1      10.015   7.343  -8.736  0.00  0.00     0.061 A 
ATOM     26  C   UNL d   1      10.732   8.494  -8.394  0.00  0.00     0.128 A 
ATOM     27  C   UNL d   1       9.557   6.479  -7.724  0.00  0.00     0.005 A 
ATOM     28  O   UNL d   1      10.966   9.151  -9.591  0.00  0.00    -0.210 OA
ATOM     29  C   UNL d   1      11.062   8.823  -7.067  0.00  0.00     0.027 A 
ATOM     30  N   UNL d   1      10.362   8.432 -10.662  0.00  0.00    -0.109 NA
ATOM     31  C   UNL d   1      10.614   7.953  -6.052  0.00  0.00     0.002 A 
ATOM     32  C   UNL d   1       9.863   6.800  -6.380  0.00  0.00     0.000 A 
ENDBRANCH  21  24
ENDBRANCH  17  18
ENDBRANCH   1  17
TORSDOF 7
