REMARK  9 active torsions:
REMARK  status: ('A' for Active; 'I' for Inactive)
REMARK    1  A    between atoms: C_2  and  C_5 
REMARK    2  A    between atoms: C_7  and  N_8 
REMARK    3  A    between atoms: N_11  and  C_12 
REMARK    4  A    between atoms: C_12  and  C_13 
REMARK    5  A    between atoms: C_13  and  C_14 
REMARK    6  A    between atoms: C_14  and  C_15 
REMARK    7  A    between atoms: C_15  and  N_16 
REMARK       I    between atoms: N_16  and  C_17 
REMARK    8  A    between atoms: C_17  and  C_19 
REMARK    9  A    between atoms: C_31  and  C_32 
ROOT
ATOM      1  N   UNL d   1       8.702   0.366 -16.546  0.00  0.00    -0.330 N 
ATOM      2  C   UNL d   1       7.921   1.173 -15.624  0.00  0.00     0.138 C 
ATOM      3  C   UNL d   1       8.643   2.516 -15.387  0.00  0.00     0.274 C 
ATOM      4  N   UNL d   1      10.040   2.315 -14.972  0.00  0.00     0.141 N 
ATOM      5  C   UNL d   1      10.774   1.478 -15.930  0.00  0.00     0.274 C 
ATOM      6  C   UNL d   1      10.084   0.129 -16.156  0.00  0.00     0.138 C 
ENDROOT
BRANCH   4   7
ATOM      7  C   UNL d   1      10.734   3.584 -14.708  0.00  0.00     0.251 C 
BRANCH   7   8
ATOM      8  C   UNL d   1      11.397   4.267 -15.931  0.00  0.00     0.037 C 
BRANCH   8   9
ATOM      9  C   UNL d   1      10.376   4.892 -16.899  0.00  0.00     0.029 C 
BRANCH   9  10
ATOM     10  C   UNL d   1      11.019   5.543 -18.126  0.00  0.00     0.129 C 
BRANCH  10  11
ATOM     11  N   UNL d   1      10.016   6.272 -18.886  0.00  0.00    -0.233 NA
ATOM     12  C   UNL d   1      10.110   6.559 -20.194  0.00  0.00     0.294 C 
ATOM     13  O   UNL d   1      11.038   6.174 -20.899  0.00  0.00    -0.264 OA
BRANCH  12  14
ATOM     14  C   UNL d   1       9.024   7.458 -20.701  0.00  0.00     0.160 A 
ATOM     15  N   UNL d   1       9.154   8.231 -21.763  0.00  0.00    -0.160 NA
ATOM     16  N   UNL d   1       7.951   8.875 -21.879  0.00  0.00    -0.228 N 
ATOM     17  C   UNL d   1       7.063   8.486 -20.862  0.00  0.00     0.085 A 
ATOM     18  C   UNL d   1       7.618   9.780 -22.842  0.00  0.00     0.101 A 
ATOM     19  C   UNL d   1       7.737   7.566 -20.101  0.00  0.00     0.045 A 
ATOM     20  C   UNL d   1       5.775   9.071 -20.838  0.00  0.00     0.019 A 
ATOM     21  C   UNL d   1       5.432   9.983 -21.809  0.00  0.00     0.003 A 
ATOM     22  C   UNL d   1       6.360  10.342 -22.821  0.00  0.00     0.021 A 
ENDBRANCH  12  14
ENDBRANCH  10  11
ENDBRANCH   9  10
ENDBRANCH   8   9
ENDBRANCH   7   8
ENDBRANCH   4   7
BRANCH   1  23
ATOM     23  C   UNL d   1       8.169  -0.146 -17.748  0.00  0.00     0.143 A 
ATOM     24  N   UNL d   1       6.860  -0.464 -17.771  0.00  0.00    -0.214 NA
ATOM     25  C   UNL d   1       6.365  -1.054 -18.864  0.00  0.00     0.140 A 
ATOM     26  N   UNL d   1       7.044  -1.252 -20.002  0.00  0.00    -0.227 NA
ATOM     27  C   UNL d   1       8.349  -0.906 -20.023  0.00  0.00     0.157 A 
ATOM     28  C   UNL d   1       8.973  -0.342 -18.890  0.00  0.00     0.060 A 
BRANCH  25  29
ATOM     29  C   UNL d   1       4.851  -1.328 -18.902  0.00  0.00     0.052 C 
ATOM     30  C   UNL d   1       4.301  -1.628 -17.486  0.00  0.00     0.008 C 
ATOM     31  C   UNL d   1       4.529  -2.574 -19.759  0.00  0.00     0.008 C 
ATOM     32  C   UNL d   1       4.137  -0.097 -19.483  0.00  0.00     0.008 C 
ENDBRANCH  25  29
BRANCH  27  33
ATOM     33  C   UNL d   1       9.106  -1.129 -21.330  0.00  0.00     0.435 C 
ATOM     34  F   UNL d   1       8.579  -0.376 -22.293  0.00  0.00    -0.165 F 
ATOM     35  F   UNL d   1      10.395  -0.810 -21.207  0.00  0.00    -0.165 F 
ATOM     36  F   UNL d   1       9.026  -2.409 -21.688  0.00  0.00    -0.165 F 
ENDBRANCH  27  33
ENDBRANCH   1  23
TORSDOF 9
