REMARK  8 active torsions:
REMARK  status: ('A' for Active; 'I' for Inactive)
REMARK    1  A    between atoms: O_2  and  C_3 
REMARK    2  A    between atoms: C_8  and  N_9 
REMARK       I    between atoms: N_9  and  C_10 
REMARK    3  A    between atoms: C_10  and  C_12 
REMARK    4  A    between atoms: C_12  and  C_13 
REMARK    5  A    between atoms: C_13  and  C_14 
REMARK    6  A    between atoms: C_14  and  C_15 
REMARK    7  A    between atoms: C_15  and  N_16 
REMARK    8  A    between atoms: N_19  and  C_20 
ROOT
ATOM      1  C   UNL d   1       9.167   3.594 -15.131  0.00  0.00     0.012 C 
ENDROOT
BRANCH   1   2
ATOM      2  C   UNL d   1       8.459   3.733 -13.783  0.00  0.00     0.090 C 
BRANCH   2   3
ATOM      3  C   UNL d   1       9.210   4.602 -12.786  0.00  0.00     0.257 C 
ATOM      4  N   UNL d   1       8.631   4.708 -11.569  0.00  0.00    -0.186 NA
ATOM      5  O   UNL d   1      10.286   5.099 -13.102  0.00  0.00    -0.270 OA
BRANCH   4   6
ATOM      6  C   UNL d   1       9.070   5.503 -10.487  0.00  0.00     0.197 A 
ATOM      7  N   UNL d   1       9.847   6.575 -10.680  0.00  0.00    -0.221 NA
ATOM      8  C   UNL d   1      10.083   7.192  -9.468  0.00  0.00     0.090 A 
ATOM      9  C   UNL d   1      10.825   8.372  -9.270  0.00  0.00     0.022 A 
ATOM     10  C   UNL d   1       9.528   6.552  -8.325  0.00  0.00     0.052 A 
ATOM     11  C   UNL d   1      10.997   8.888  -7.979  0.00  0.00     0.026 A 
ATOM     12  C   UNL d   1      10.449   8.254  -6.845  0.00  0.00     0.095 A 
ATOM     13  C   UNL d   1       9.700   7.070  -7.028  0.00  0.00     0.032 A 
ATOM     14  S   UNL d   1       8.658   5.101  -8.818  0.00  0.00    -0.047 SA
BRANCH  12  15
ATOM     15  O   UNL d   1      10.612   8.744  -5.564  0.00  0.00    -0.328 OA
ATOM     16  C   UNL d   1      11.359   9.950  -5.418  0.00  0.00     0.181 C 
ENDBRANCH  12  15
ENDBRANCH   4   6
ENDBRANCH   2   3
ENDBRANCH   1   2
BRANCH   1  17
ATOM     17  C   UNL d   1       9.557   4.897 -15.862  0.00  0.00     0.036 C 
BRANCH  17  18
ATOM     18  C   UNL d   1      10.007   4.724 -17.320  0.00  0.00     0.250 C 
BRANCH  18  19
ATOM     19  N   UNL d   1      11.188   3.866 -17.418  0.00  0.00     0.141 N 
ATOM     20  C   UNL d   1      10.807   2.448 -17.441  0.00  0.00     0.274 C 
ATOM     21  C   UNL d   1      12.064   1.577 -17.500  0.00  0.00     0.137 C 
ATOM     22  N   UNL d   1      12.861   1.912 -18.673  0.00  0.00    -0.344 N 
ATOM     23  C   UNL d   1      13.185   3.328 -18.797  0.00  0.00     0.137 C 
ATOM     24  C   UNL d   1      11.905   4.186 -18.666  0.00  0.00     0.274 C 
BRANCH  22  25
ATOM     25  C   UNL d   1      13.211   0.932 -19.634  0.00  0.00     0.056 A 
ATOM     26  C   UNL d   1      13.289  -0.426 -19.264  0.00  0.00     0.018 A 
ATOM     27  C   UNL d   1      13.672  -1.405 -20.204  0.00  0.00     0.013 A 
ATOM     28  C   UNL d   1      13.957  -1.034 -21.527  0.00  0.00     0.058 A 
ATOM     29  C   UNL d   1      13.864   0.312 -21.914  0.00  0.00     0.013 A 
ATOM     30 CL   UNL d   1      14.406  -2.238 -22.676  0.00  0.00    -0.082 Cl
ATOM     31  C   UNL d   1      13.487   1.293 -20.971  0.00  0.00     0.018 A 
ENDBRANCH  22  25
ENDBRANCH  18  19
ENDBRANCH  17  18
ENDBRANCH   1  17
TORSDOF 8
