REMARK  2 active torsions:
REMARK  status: ('A' for Active; 'I' for Inactive)
REMARK    1  A    between atoms: O_2  and  C_3 
REMARK    2  A    between atoms: C_12  and  N_13 
ROOT
ATOM      1  C   UNL d   1      10.795   3.441 -14.623  0.00  0.00     0.119 A 
ATOM      2  C   UNL d   1      10.582   4.688 -14.012  0.00  0.00     0.022 A 
ATOM      3  C   UNL d   1       9.339   5.028 -13.468  0.00  0.00    -0.020 A 
ATOM      4  C   UNL d   1       8.276   4.109 -13.636  0.00  0.00     0.007 A 
ATOM      5  C   UNL d   1       8.406   2.856 -14.315  0.00  0.00     0.025 A 
ATOM      6  C   UNL d   1       9.730   2.534 -14.721  0.00  0.00     0.153 A 
ATOM      7  O   UNL d   1      10.068   1.312 -15.234  0.00  0.00    -0.188 OA
ATOM      8  C   UNL d   1       7.258   1.949 -14.485  0.00  0.00    -0.001 C 
ATOM      9  C   UNL d   1       7.176   0.975 -15.514  0.00  0.00     0.023 C 
ATOM     10  C   UNL d   1       6.083   0.077 -15.603  0.00  0.00     0.127 C 
ATOM     11  C   UNL d   1       5.073   0.142 -14.626  0.00  0.00     0.023 C 
ATOM     12  C   UNL d   1       5.159   1.112 -13.622  0.00  0.00    -0.003 C 
ATOM     13  C   UNL d   1       6.186   2.058 -13.588  0.00  0.00    -0.020 C 
ATOM     14  C   UNL d   1       6.145   3.213 -12.592  0.00  0.00     0.064 C 
ATOM     15  C   UNL d   1       6.881   4.468 -13.105  0.00  0.00     0.246 C 
ATOM     16  N   UNL d   1       6.870   5.537 -12.091  0.00  0.00     0.142 N 
ATOM     17  C   UNL d   1       5.487   5.966 -11.807  0.00  0.00     0.286 C 
ATOM     18  C   UNL d   1       7.587   6.692 -12.609  0.00  0.00     0.255 C 
ATOM     19  C   UNL d   1       9.049   6.306 -12.669  0.00  0.00     0.061 C 
ENDROOT
BRANCH  10  20
ATOM     20  N   UNL d   1       5.971  -0.877 -16.719  0.00  0.00    -0.114 N 
ATOM     21  O   UNL d   1       5.093  -1.733 -16.655  0.00  0.00    -0.532 OA
ATOM     22  O   UNL d   1       6.737  -0.751 -17.663  0.00  0.00    -0.532 OA
ENDBRANCH  10  20
BRANCH   1  23
ATOM     23  O   UNL d   1      12.030   3.060 -15.108  0.00  0.00    -0.326 OA
ATOM     24  C   UNL d   1      12.843   4.079 -15.675  0.00  0.00     0.181 C 
ENDBRANCH   1  23
TORSDOF 2
