REMARK  3 active torsions:
REMARK  status: ('A' for Active; 'I' for Inactive)
REMARK    1  A    between atoms: C_2  and  C_3 
REMARK    2  A    between atoms: C_3  and  N_4 
REMARK    3  A    between atoms: C_13  and  O_14 
ROOT
ATOM      1  N   UNL d   1      10.386   2.207 -15.990  0.00  0.00     0.140 N 
ATOM      2  C   UNL d   1      11.273   3.366 -15.853  0.00  0.00     0.251 C 
ATOM      3  C   UNL d   1      10.460   4.264 -14.938  0.00  0.00     0.042 C 
ATOM      4  C   UNL d   1       9.864   3.299 -13.919  0.00  0.00     0.057 C 
ATOM      5  C   UNL d   1       8.508   3.781 -13.409  0.00  0.00    -0.002 A 
ATOM      6  C   UNL d   1       7.308   3.191 -13.879  0.00  0.00    -0.024 A 
ATOM      7  C   UNL d   1       6.065   3.651 -13.399  0.00  0.00    -0.004 A 
ATOM      8  C   UNL d   1       6.015   4.693 -12.460  0.00  0.00     0.002 A 
ATOM      9  C   UNL d   1       7.200   5.289 -11.997  0.00  0.00     0.024 A 
ATOM     10  C   UNL d   1       8.459   4.839 -12.464  0.00  0.00     0.090 A 
ATOM     11  C   UNL d   1       7.356   2.048 -14.876  0.00  0.00     0.028 C 
ATOM     12  C   UNL d   1       8.563   1.140 -14.621  0.00  0.00     0.038 C 
ATOM     13  C   UNL d   1       9.899   1.924 -14.630  0.00  0.00     0.224 C 
ENDROOT
BRANCH   1  14
ATOM     14  C   UNL d   1      11.025   1.055 -16.621  0.00  0.00     0.276 C 
BRANCH  14  15
ATOM     15  C   UNL d   1      11.573   1.307 -18.019  0.00  0.00     0.009 C 
ATOM     16  C   UNL d   1      11.412   2.421 -18.752  0.00  0.00    -0.003 C 
ENDBRANCH  14  15
ENDBRANCH   1  14
BRANCH  10  17
ATOM     17  O   UNL d   1       9.659   5.383 -12.051  0.00  0.00    -0.328 OA
ATOM     18  C   UNL d   1       9.634   6.389 -11.047  0.00  0.00     0.181 C 
ENDBRANCH  10  17
TORSDOF 3
