REMARK  4 active torsions:
REMARK  status: ('A' for Active; 'I' for Inactive)
REMARK    1  A    between atoms: C_7  and  N_8 
REMARK    2  A    between atoms: N_11  and  C_12 
REMARK    3  A    between atoms: C_12  and  C_13 
REMARK    4  A    between atoms: C_15  and  C_16 
ROOT
ATOM      1  N   UNL d   1       9.216   3.775 -14.249  0.00  0.00    -0.344 N 
ATOM      2  C   UNL d   1       9.993   3.449 -13.068  0.00  0.00     0.137 C 
ATOM      3  C   UNL d   1       9.453   4.224 -11.848  0.00  0.00     0.274 C 
ATOM      4  N   UNL d   1       9.438   5.662 -12.120  0.00  0.00     0.141 N 
ATOM      5  C   UNL d   1       8.547   5.899 -13.257  0.00  0.00     0.274 C 
ATOM      6  C   UNL d   1       9.092   5.190 -14.519  0.00  0.00     0.137 C 
ENDROOT
BRANCH   4   7
ATOM      7  C   UNL d   1       8.935   6.398 -10.961  0.00  0.00     0.251 C 
BRANCH   7   8
ATOM      8  C   UNL d   1      10.075   6.785 -10.041  0.00  0.00     0.038 A 
ATOM      9  C   UNL d   1       9.968   8.033  -9.178  0.00  0.00     0.024 A 
ATOM     10  C   UNL d   1      10.938   7.999 -10.332  0.00  0.00     0.007 A 
BRANCH   9  11
ATOM     11  C   UNL d   1      10.457   8.024  -7.768  0.00  0.00    -0.022 A 
ATOM     12  C   UNL d   1      10.198   6.916  -6.937  0.00  0.00    -0.004 A 
ATOM     13  C   UNL d   1      10.694   6.885  -5.621  0.00  0.00    -0.000 A 
ATOM     14  C   UNL d   1      11.443   7.968  -5.121  0.00  0.00    -0.000 A 
ATOM     15  C   UNL d   1      11.681   9.093  -5.935  0.00  0.00    -0.000 A 
ATOM     16  C   UNL d   1      11.194   9.114  -7.257  0.00  0.00    -0.004 A 
ENDBRANCH   9  11
ENDBRANCH   7   8
ENDBRANCH   4   7
BRANCH   1  17
ATOM     17  C   UNL d   1       8.669   2.788 -15.081  0.00  0.00     0.058 A 
ATOM     18  C   UNL d   1       7.619   1.966 -14.623  0.00  0.00     0.028 A 
ATOM     19  C   UNL d   1       7.057   0.983 -15.457  0.00  0.00     0.060 A 
ATOM     20  C   UNL d   1       7.532   0.826 -16.774  0.00  0.00     0.023 A 
ATOM     21 CL   UNL d   1       5.767  -0.005 -14.873  0.00  0.00    -0.082 Cl
ATOM     22  C   UNL d   1       8.579   1.646 -17.239  0.00  0.00     0.060 A 
ATOM     23 CL   UNL d   1       9.156   1.458 -18.852  0.00  0.00    -0.082 Cl
ATOM     24  C   UNL d   1       9.148   2.624 -16.399  0.00  0.00     0.028 A 
ENDBRANCH   1  17
TORSDOF 4
