REMARK  5 active torsions:
REMARK  status: ('A' for Active; 'I' for Inactive)
REMARK    1  A    between atoms: C_2  and  C_3 
REMARK    2  A    between atoms: C_3  and  N_4 
REMARK    3  A    between atoms: C_7  and  C_8 
REMARK    4  A    between atoms: C_8  and  O_9 
REMARK    5  A    between atoms: O_9  and  C_10 
ROOT
ATOM      1  C   UNL d   1       9.982   4.120 -13.707  0.00  0.00     0.175 A 
ATOM      2  N   UNL d   1      10.768   5.176 -14.031  0.00  0.00    -0.223 NA
ATOM      3  C   UNL d   1      11.162   5.328 -15.309  0.00  0.00     0.085 A 
ATOM      4  C   UNL d   1      11.988   6.425 -15.646  0.00  0.00     0.019 A 
ATOM      5  C   UNL d   1      12.403   6.651 -16.966  0.00  0.00     0.002 A 
ATOM      6  C   UNL d   1      11.999   5.765 -17.983  0.00  0.00     0.000 A 
ATOM      7  C   UNL d   1      11.187   4.665 -17.668  0.00  0.00     0.003 A 
ATOM      8  C   UNL d   1      10.761   4.435 -16.336  0.00  0.00     0.035 A 
ATOM      9  C   UNL d   1       9.938   3.340 -15.994  0.00  0.00     0.077 A 
ATOM     10  C   UNL d   1       9.556   3.171 -14.648  0.00  0.00     0.036 A 
ATOM     11  C   UNL d   1       8.676   2.025 -14.201  0.00  0.00     0.034 C 
ATOM     12  C   UNL d   1       8.606   0.908 -15.242  0.00  0.00     0.031 C 
ATOM     13  C   UNL d   1       8.425   1.507 -16.641  0.00  0.00     0.126 C 
ATOM     14  N   UNL d   1       9.505   2.425 -16.971  0.00  0.00    -0.271 NA
ENDROOT
BRANCH   1  15
ATOM     15  O   UNL d   1       9.588   3.983 -12.397  0.00  0.00    -0.315 OA
BRANCH  15  16
ATOM     16  C   UNL d   1       9.389   5.165 -11.643  0.00  0.00     0.151 C 
BRANCH  16  17
ATOM     17  C   UNL d   1       8.727   4.771 -10.305  0.00  0.00     0.034 C 
ATOM     18  C   UNL d   1       8.050   5.966  -9.671  0.00  0.00     0.038 C 
ATOM     19  C   UNL d   1       9.055   7.028  -9.188  0.00  0.00     0.250 C 
ATOM     20  N   UNL d   1       9.861   6.479  -8.113  0.00  0.00     0.137 N 
ATOM     21  C   UNL d   1      10.589   5.394  -8.714  0.00  0.00     0.250 C 
ATOM     22  C   UNL d   1       9.695   4.247  -9.238  0.00  0.00     0.038 C 
BRANCH  20  23
ATOM     23  C   UNL d   1      10.784   7.527  -7.688  0.00  0.00     0.250 C 
BRANCH  23  24
ATOM     24  C   UNL d   1      10.087   8.460  -6.688  0.00  0.00     0.035 C 
ATOM     25  C   UNL d   1      11.036   9.536  -6.166  0.00  0.00     0.002 C 
ENDBRANCH  23  24
ENDBRANCH  20  23
ENDBRANCH  16  17
ENDBRANCH  15  16
ENDBRANCH   1  15
TORSDOF 5
