REMARK  7 active torsions:
REMARK  status: ('A' for Active; 'I' for Inactive)
REMARK    1  A    between atoms: C_2  and  N_3 
REMARK    2  A    between atoms: N_3  and  C_4 
REMARK    3  A    between atoms: N_3  and  C_6 
REMARK    4  A    between atoms: C_6  and  C_7 
REMARK    5  A    between atoms: C_7  and  C_8 
REMARK    6  A    between atoms: C_8  and  C_9 
REMARK    7  A    between atoms: C_14  and  C_15 
ROOT
ATOM      1  C   UNL d   1       7.217   5.162 -12.374  0.00  0.00     0.106 C 
ATOM      2  C   UNL d   1       5.966   5.918 -11.910  0.00  0.00     0.031 C 
ATOM      3  C   UNL d   1       8.327   6.071 -12.940  0.00  0.00     0.097 C 
ATOM      4  C   UNL d   1       8.921   6.974 -11.873  0.00  0.00     0.177 C 
ATOM      5  O   UNL d   1       9.136   8.158 -12.134  0.00  0.00    -0.291 OA
ATOM      6  C   UNL d   1       9.149   6.337 -10.539  0.00  0.00     0.059 C 
ATOM      7  C   UNL d   1       8.552   5.103 -10.351  0.00  0.00     0.119 C 
ATOM      8  O   UNL d   1       7.744   4.400 -11.262  0.00  0.00    -0.333 OA
ENDROOT
BRANCH   1   9
ATOM      9  C   UNL d   1       6.718   4.141 -13.391  0.00  0.00     0.030 C 
BRANCH   9  10
ATOM     10  C   UNL d   1       7.800   3.249 -14.034  0.00  0.00     0.038 C 
BRANCH  10  11
ATOM     11  C   UNL d   1       7.174   2.097 -14.845  0.00  0.00     0.250 C 
BRANCH  11  12
ATOM     12  N   UNL d   1       7.766   0.815 -14.479  0.00  0.00     0.137 N 
BRANCH  12  13
ATOM     13  C   UNL d   1       9.005   0.494 -15.203  0.00  0.00     0.250 C 
ATOM     14  C   UNL d   1      10.123   1.553 -15.104  0.00  0.00     0.037 C 
ENDBRANCH  12  13
BRANCH  12  15
ATOM     15  C   UNL d   1       6.759  -0.252 -14.596  0.00  0.00     0.250 C 
ATOM     16  C   UNL d   1       6.230  -0.474 -16.038  0.00  0.00     0.037 C 
ENDBRANCH  12  15
ENDBRANCH  11  12
ENDBRANCH  10  11
ENDBRANCH   9  10
ENDBRANCH   1   9
BRANCH   6  17
ATOM     17  C   UNL d   1       9.863   7.012  -9.442  0.00  0.00     0.005 A 
ATOM     18  C   UNL d   1       9.459   6.940  -8.078  0.00  0.00     0.000 A 
ATOM     19  C   UNL d   1      10.170   7.641  -7.068  0.00  0.00     0.000 A 
ATOM     20  C   UNL d   1      11.301   8.415  -7.414  0.00  0.00     0.000 A 
ATOM     21  C   UNL d   1      11.722   8.488  -8.746  0.00  0.00     0.000 A 
ATOM     22  C   UNL d   1      11.008   7.796  -9.751  0.00  0.00     0.000 A 
ENDBRANCH   6  17
TORSDOF 7
