REMARK  2 active torsions:
REMARK  status: ('A' for Active; 'I' for Inactive)
REMARK    1  A    between atoms: O_2  and  C_3 
REMARK    2  A    between atoms: C_6  and  O_7 
ROOT
ATOM      1  C   UNL d   1       7.035   4.242 -13.236  0.00  0.00     0.090 A 
ATOM      2  C   UNL d   1       5.872   3.645 -12.696  0.00  0.00     0.026 A 
ATOM      3  C   UNL d   1       5.497   2.345 -13.072  0.00  0.00     0.026 A 
ATOM      4  C   UNL d   1       6.260   1.607 -14.011  0.00  0.00     0.092 A 
ATOM      5  C   UNL d   1       7.428   2.196 -14.537  0.00  0.00     0.031 A 
ATOM      6  C   UNL d   1       7.814   3.501 -14.153  0.00  0.00     0.002 A 
ATOM      7  C   UNL d   1       9.063   4.119 -14.774  0.00  0.00     0.066 C 
ATOM      8  C   UNL d   1       9.572   3.386 -16.044  0.00  0.00     0.246 C 
ATOM      9  C   UNL d   1      10.909   3.961 -16.532  0.00  0.00     0.007 A 
ATOM     10  C   UNL d   1      11.077   5.361 -16.678  0.00  0.00     0.024 A 
ATOM     11  C   UNL d   1      12.307   5.842 -17.152  0.00  0.00     0.119 A 
ATOM     12  C   UNL d   1      13.336   4.989 -17.489  0.00  0.00     0.119 A 
ATOM     13  C   UNL d   1      13.198   3.597 -17.382  0.00  0.00     0.022 A 
ATOM     14  C   UNL d   1      11.969   3.087 -16.904  0.00  0.00    -0.020 A 
ATOM     15  C   UNL d   1      11.773   1.589 -16.793  0.00  0.00     0.061 C 
ATOM     16  C   UNL d   1      10.291   1.201 -16.777  0.00  0.00     0.256 C 
ATOM     17  N   UNL d   1       9.624   1.954 -15.720  0.00  0.00     0.144 N 
ATOM     18  C   UNL d   1       8.262   1.442 -15.565  0.00  0.00     0.279 C 
ATOM     19  O   UNL d   1      14.403   5.708 -17.919  0.00  0.00    -0.300 OA
ATOM     20  C   UNL d   1      14.010   7.055 -17.847  0.00  0.00     0.304 A 
ATOM     21  O   UNL d   1      12.694   7.126 -17.363  0.00  0.00    -0.300 OA
ENDROOT
BRANCH   1  22
ATOM     22  O   UNL d   1       7.468   5.510 -12.906  0.00  0.00    -0.328 OA
ATOM     23  C   UNL d   1       6.570   6.368 -12.219  0.00  0.00     0.181 C 
ENDBRANCH   1  22
BRANCH   4  24
ATOM     24  O   UNL d   1       5.942   0.329 -14.422  0.00  0.00    -0.328 OA
ATOM     25  C   UNL d   1       4.684  -0.207 -14.045  0.00  0.00     0.181 C 
ENDBRANCH   4  24
TORSDOF 2
