REMARK  11 active torsions:
REMARK  status: ('A' for Active; 'I' for Inactive)
REMARK    1  A    between atoms: N_2  and  C_4 
REMARK    2  A    between atoms: C_4  and  C_5 
REMARK    3  A    between atoms: C_5  and  C_6 
REMARK    4  A    between atoms: C_6  and  O_8 
REMARK    5  A    between atoms: O_8  and  C_9 
REMARK    6  A    between atoms: C_9  and  C_10 
REMARK    7  A    between atoms: N_19  and  C_20 
REMARK    8  A    between atoms: C_20  and  C_21 
REMARK    9  A    between atoms: C_21  and  C_22 
REMARK   10  A    between atoms: C_22  and  C_23 
REMARK   11  A    between atoms: C_23  and  C_25 
ROOT
ATOM      1  C   UNL d   1       8.748   1.211 -16.701  0.00  0.00     0.124 C 
ATOM      2  C   UNL d   1       9.969   0.805 -15.845  0.00  0.00     0.068 C 
ATOM      3  C   UNL d   1      11.284   1.447 -16.331  0.00  0.00     0.253 C 
ATOM      4  N   UNL d   1      11.175   2.909 -16.336  0.00  0.00     0.137 N 
ATOM      5  C   UNL d   1      10.109   3.300 -17.260  0.00  0.00     0.253 C 
ATOM      6  C   UNL d   1       8.759   2.769 -16.756  0.00  0.00     0.068 C 
ENDROOT
BRANCH   1   7
ATOM      7  O   UNL d   1       8.956   0.648 -18.008  0.00  0.00    -0.302 OA
BRANCH   7   8
ATOM      8  C   UNL d   1       8.189   0.922 -19.080  0.00  0.00     0.274 C 
ATOM      9  O   UNL d   1       7.197   1.727 -19.036  0.00  0.00    -0.264 OA
BRANCH   8  10
ATOM     10  C   UNL d   1       8.366  -0.037 -20.239  0.00  0.00     0.131 C 
BRANCH  10  11
ATOM     11  C   UNL d   1       7.145  -0.201 -21.200  0.00  0.00     0.261 C 
BRANCH  11  12
ATOM     12  N   UNL d   1       6.640   1.069 -21.736  0.00  0.00     0.142 N 
ATOM     13  C   UNL d   1       7.645   1.741 -22.540  0.00  0.00     0.285 C 
ATOM     14  C   UNL d   1       5.437   0.846 -22.520  0.00  0.00     0.285 C 
ENDBRANCH  11  12
ENDBRANCH  10  11
ENDBRANCH   8  10
ENDBRANCH   7   8
ENDBRANCH   1   7
BRANCH   1  15
ATOM     15  C   UNL d   1       7.439   0.664 -16.061  0.00  0.00     0.003 A 
ATOM     16  C   UNL d   1       7.131   0.892 -14.689  0.00  0.00    -0.001 A 
ATOM     17  C   UNL d   1       5.919   0.433 -14.087  0.00  0.00     0.011 A 
ATOM     18  C   UNL d   1       4.960  -0.240 -14.883  0.00  0.00     0.058 A 
ATOM     19  C   UNL d   1       5.258  -0.480 -16.250  0.00  0.00     0.011 A 
ATOM     20 CL   UNL d   1       3.446  -0.779 -14.218  0.00  0.00    -0.082 Cl
ATOM     21  C   UNL d   1       6.483  -0.080 -16.809  0.00  0.00    -0.001 A 
ENDBRANCH   1  15
BRANCH   4  22
ATOM     22  C   UNL d   1      12.451   3.478 -16.761  0.00  0.00     0.251 C 
BRANCH  22  23
ATOM     23  C   UNL d   1      12.520   5.002 -16.515  0.00  0.00     0.043 C 
BRANCH  23  24
ATOM     24  C   UNL d   1      13.793   5.612 -17.116  0.00  0.00     0.071 C 
BRANCH  24  25
ATOM     25  C   UNL d   1      13.831   7.149 -17.080  0.00  0.00     0.173 C 
ATOM     26  O   UNL d   1      13.152   7.759 -16.250  0.00  0.00    -0.291 OA
BRANCH  25  27
ATOM     27  C   UNL d   1      14.701   7.826 -18.080  0.00  0.00     0.035 A 
ATOM     28  C   UNL d   1      14.638   9.233 -18.243  0.00  0.00     0.005 A 
ATOM     29  C   UNL d   1      15.477   9.880 -19.174  0.00  0.00     0.030 A 
ATOM     30  C   UNL d   1      16.383   9.133 -19.957  0.00  0.00     0.140 A 
ATOM     31  C   UNL d   1      16.445   7.737 -19.802  0.00  0.00     0.030 A 
ATOM     32  F   UNL d   1      17.180   9.755 -20.854  0.00  0.00    -0.204 F 
ATOM     33  C   UNL d   1      15.623   7.088 -18.868  0.00  0.00     0.005 A 
ENDBRANCH  25  27
ENDBRANCH  24  25
ENDBRANCH  23  24
ENDBRANCH  22  23
ENDBRANCH   4  22
TORSDOF 11
