REMARK  3 active torsions:
REMARK  status: ('A' for Active; 'I' for Inactive)
REMARK    1  A    between atoms: O_2  and  C_3 
REMARK    2  A    between atoms: C_18  and  O_19 
REMARK    3  A    between atoms: C_21  and  O_22 
ROOT
ATOM      1  C   UNL d   1       6.097  -1.132 -18.441  0.00  0.00     0.119 A 
ATOM      2  C   UNL d   1       6.406   0.074 -17.764  0.00  0.00     0.024 A 
ATOM      3  C   UNL d   1       6.219   0.182 -16.370  0.00  0.00     0.007 A 
ATOM      4  C   UNL d   1       5.696  -0.907 -15.640  0.00  0.00    -0.020 A 
ATOM      5  C   UNL d   1       5.378  -2.101 -16.311  0.00  0.00     0.025 A 
ATOM      6  C   UNL d   1       5.587  -2.220 -17.697  0.00  0.00     0.153 A 
ATOM      7  O   UNL d   1       5.299  -3.408 -18.305  0.00  0.00    -0.188 OA
ATOM      8  C   UNL d   1       5.480  -0.796 -14.136  0.00  0.00     0.061 C 
ATOM      9  C   UNL d   1       6.163   0.428 -13.488  0.00  0.00     0.256 C 
ATOM     10  N   UNL d   1       5.921   1.581 -14.354  0.00  0.00     0.144 N 
ATOM     11  C   UNL d   1       6.182   2.871 -13.745  0.00  0.00     0.279 C 
ATOM     12  C   UNL d   1       7.643   3.243 -13.652  0.00  0.00     0.031 A 
ATOM     13  C   UNL d   1       8.586   2.646 -14.525  0.00  0.00    -0.020 A 
ATOM     14  C   UNL d   1       9.936   3.042 -14.457  0.00  0.00    -0.002 A 
ATOM     15  C   UNL d   1      10.332   4.010 -13.518  0.00  0.00     0.026 A 
ATOM     16  C   UNL d   1       9.392   4.610 -12.646  0.00  0.00     0.116 A 
ATOM     17  C   UNL d   1       8.029   4.244 -12.750  0.00  0.00     0.114 A 
ATOM     18  C   UNL d   1       8.157   1.552 -15.480  0.00  0.00     0.064 C 
ATOM     19  C   UNL d   1       6.622   1.448 -15.637  0.00  0.00     0.246 C 
ENDROOT
BRANCH   1  20
ATOM     20  O   UNL d   1       6.278  -1.316 -19.796  0.00  0.00    -0.326 OA
ATOM     21  C   UNL d   1       6.512  -0.170 -20.600  0.00  0.00     0.181 C 
ENDBRANCH   1  20
BRANCH  17  22
ATOM     22  O   UNL d   1       7.059   4.818 -11.966  0.00  0.00    -0.326 OA
ATOM     23  C   UNL d   1       6.836   6.188 -12.223  0.00  0.00     0.181 C 
ENDBRANCH  17  22
BRANCH  16  24
ATOM     24  O   UNL d   1       9.857   5.522 -11.726  0.00  0.00    -0.326 OA
ATOM     25  C   UNL d   1       9.540   5.296 -10.352  0.00  0.00     0.181 C 
ENDBRANCH  16  24
TORSDOF 3
