REMARK  5 active torsions:
REMARK  status: ('A' for Active; 'I' for Inactive)
REMARK    1  A    between atoms: C_2  and  C_4 
REMARK    2  A    between atoms: C_4  and  C_5 
REMARK    3  A    between atoms: C_11  and  O_12 
REMARK    4  A    between atoms: O_12  and  C_13 
REMARK    5  A    between atoms: C_13  and  C_14 
ROOT
ATOM      1  C   UNL d   1       8.560   5.662 -11.340  0.00  0.00     0.001 A 
ATOM      2  C   UNL d   1       8.813   6.504 -12.397  0.00  0.00     0.095 A 
ATOM      3  N   UNL d   1       9.449   7.631 -11.931  0.00  0.00    -0.244 NA
ATOM      4  C   UNL d   1       9.769   7.489 -10.598  0.00  0.00     0.081 A 
ATOM      5  C   UNL d   1      10.498   8.316  -9.733  0.00  0.00     0.021 A 
ATOM      6  C   UNL d   1      10.707   7.907  -8.418  0.00  0.00     0.026 A 
ATOM      7  C   UNL d   1      10.081   6.738  -7.941  0.00  0.00     0.095 A 
ATOM      8  C   UNL d   1       9.317   5.920  -8.810  0.00  0.00     0.025 A 
ATOM      9  C   UNL d   1       9.177   6.255 -10.187  0.00  0.00     0.017 A 
ENDROOT
BRANCH   7  10
ATOM     10  O   UNL d   1      10.182   6.391  -6.615  0.00  0.00    -0.326 OA
BRANCH  10  11
ATOM     11  C   UNL d   1      11.451   6.583  -5.998  0.00  0.00     0.182 C 
BRANCH  11  12
ATOM     12  C   UNL d   1      11.400   7.839  -5.186  0.00  0.00     0.037 A 
ATOM     13  S   UNL d   1      12.185   7.923  -3.625  0.00  0.00    -0.088 SA
ATOM     14  C   UNL d   1      11.734   9.591  -3.432  0.00  0.00     0.035 A 
ATOM     15  C   UNL d   1      11.058  10.043  -4.537  0.00  0.00     0.007 A 
ATOM     16  C   UNL d   1      10.825   9.040  -5.514  0.00  0.00     0.005 A 
ENDBRANCH  11  12
ENDBRANCH  10  11
ENDBRANCH   7  10
BRANCH   1  17
ATOM     17  C   UNL d   1       7.773   4.390 -11.406  0.00  0.00     0.067 C 
BRANCH  17  18
ATOM     18  C   UNL d   1       6.515   4.457 -12.302  0.00  0.00     0.306 C 
ATOM     19  C   UNL d   1       5.853   5.845 -12.406  0.00  0.00     0.042 C 
ATOM     20  N   UNL d   1       6.874   3.991 -13.630  0.00  0.00     0.616 N 
ENDBRANCH  17  18
ENDBRANCH   1  17
TORSDOF 5
