REMARK  7 active torsions:
REMARK  status: ('A' for Active; 'I' for Inactive)
REMARK    1  A    between atoms: C_3  and  S_4 
REMARK    2  A    between atoms: S_4  and  N_7 
REMARK    3  A    between atoms: N_7  and  C_8 
REMARK    4  A    between atoms: C_8  and  C_9 
REMARK    5  A    between atoms: C_9  and  C_10 
REMARK    6  A    between atoms: C_10  and  N_11 
REMARK    7  A    between atoms: C_14  and  C_15 
ROOT
ATOM      1  C   UNL d   1       9.235   4.746 -11.367  0.00  0.00     0.062 C 
ENDROOT
BRANCH   1   2
ATOM      2  C   UNL d   1       9.798   4.018 -12.580  0.00  0.00     0.141 C 
BRANCH   2   3
ATOM      3  N   UNL d   1       9.373   4.641 -13.825  0.00  0.00    -0.184 NA
BRANCH   3   4
ATOM      4  S   UNL d   1       9.981   4.029 -15.303  0.00  0.00     0.287 S 
ATOM      5  O   UNL d   1      11.278   3.387 -15.036  0.00  0.00    -0.198 OA
ATOM      6  O   UNL d   1       9.850   5.100 -16.301  0.00  0.00    -0.198 OA
BRANCH   4   7
ATOM      7  C   UNL d   1       8.824   2.735 -15.726  0.00  0.00     0.130 A 
ATOM      8  C   UNL d   1       8.482   2.344 -16.998  0.00  0.00    -0.003 A 
ATOM      9  C   UNL d   1       9.078   2.933 -18.243  0.00  0.00     0.032 C 
ATOM     10  C   UNL d   1       7.472   1.301 -16.958  0.00  0.00     0.005 A 
ATOM     11  C   UNL d   1       7.077   0.966 -15.624  0.00  0.00     0.030 A 
ATOM     12  C   UNL d   1       6.835   0.593 -18.000  0.00  0.00     0.030 A 
ATOM     13  S   UNL d   1       7.935   1.934 -14.462  0.00  0.00    -0.074 SA
ATOM     14  C   UNL d   1       6.119  -0.028 -15.354  0.00  0.00     0.009 A 
ATOM     15  C   UNL d   1       5.518  -0.719 -16.418  0.00  0.00     0.030 A 
ATOM     16  C   UNL d   1       5.878  -0.405 -17.739  0.00  0.00     0.140 A 
ATOM     17  F   UNL d   1       5.313  -1.069 -18.771  0.00  0.00    -0.204 F 
ENDBRANCH   4   7
ENDBRANCH   3   4
ENDBRANCH   2   3
ENDBRANCH   1   2
BRANCH   1  18
ATOM     18  C   UNL d   1       9.127   6.290 -11.491  0.00  0.00     0.252 C 
BRANCH  18  19
ATOM     19  N   UNL d   1       9.465   6.991 -10.255  0.00  0.00     0.137 N 
ATOM     20  C   UNL d   1       9.092   6.245  -9.046  0.00  0.00     0.251 C 
ATOM     21  C   UNL d   1       9.330   7.076  -7.785  0.00  0.00     0.041 C 
ATOM     22  C   UNL d   1      10.796   7.520  -7.726  0.00  0.00     0.047 C 
ATOM     23  C   UNL d   1      11.200   8.236  -9.032  0.00  0.00     0.041 C 
ATOM     24  C   UNL d   1      10.869   7.384 -10.259  0.00  0.00     0.251 C 
BRANCH  22  25
ATOM     25  C   UNL d   1      11.027   8.387  -6.518  0.00  0.00     0.087 A 
ATOM     26  C   UNL d   1      11.467   8.070  -5.218  0.00  0.00     0.041 A 
ATOM     27  C   UNL d   1      11.479   9.238  -4.456  0.00  0.00     0.129 A 
ATOM     28  C   UNL d   1      11.841   6.845  -4.630  0.00  0.00     0.006 A 
ATOM     29  O   UNL d   1      11.029  10.238  -5.285  0.00  0.00    -0.211 OA
ATOM     30  C   UNL d   1      11.883   9.268  -3.116  0.00  0.00     0.057 A 
ATOM     31  N   UNL d   1      10.725   9.683  -6.559  0.00  0.00    -0.131 NA
ATOM     32  C   UNL d   1      12.262   8.045  -2.528  0.00  0.00     0.142 A 
ATOM     33  F   UNL d   1      12.655   8.032  -1.237  0.00  0.00    -0.204 F 
ATOM     34  C   UNL d   1      12.249   6.845  -3.275  0.00  0.00     0.030 A 
ENDBRANCH  22  25
ENDBRANCH  18  19
ENDBRANCH   1  18
TORSDOF 7
