REMARK  4 active torsions:
REMARK  status: ('A' for Active; 'I' for Inactive)
REMARK    1  A    between atoms: C_4  and  O_5 
REMARK    2  A    between atoms: O_5  and  C_6 
REMARK    3  A    between atoms: C_6  and  C_8 
REMARK    4  A    between atoms: C_8  and  C_10 
ROOT
ATOM      1  O   UNL d   1       8.628   5.498 -11.487  0.00  0.00    -0.302 OA
ENDROOT
BRANCH   1   2
ATOM      2  C   UNL d   1       9.404   6.032 -10.423  0.00  0.00     0.124 C 
ATOM      3  C   UNL d   1       9.808   7.484 -10.696  0.00  0.00     0.030 C 
ATOM      4  C   UNL d   1      10.580   8.078  -9.496  0.00  0.00     0.002 C 
ATOM      5  C   UNL d   1      10.950   9.499  -9.777  0.00  0.00     0.000 C 
ATOM      6  C   UNL d   1       9.677   8.118  -8.270  0.00  0.00     0.000 C 
ATOM      7  C   UNL d   1       9.239   6.714  -7.966  0.00  0.00     0.002 C 
ATOM      8  C   UNL d   1       8.548   5.956  -9.154  0.00  0.00     0.030 C 
ATOM      9  C   UNL d   1       8.345   6.696  -6.754  0.00  0.00     0.000 C 
ATOM     10  C   UNL d   1      10.469   5.943  -7.588  0.00  0.00     0.000 C 
ENDBRANCH   1   2
BRANCH   1  11
ATOM     11  C   UNL d   1       9.222   5.102 -12.625  0.00  0.00     0.307 C 
ATOM     12  O   UNL d   1      10.430   5.161 -12.828  0.00  0.00    -0.261 OA
BRANCH  11  13
ATOM     13  C   UNL d   1       8.254   4.583 -13.691  0.00  0.00     0.260 C 
ATOM     14  O   UNL d   1       7.121   3.991 -13.082  0.00  0.00    -0.208 OA
BRANCH  13  15
ATOM     15  C   UNL d   1       8.974   3.689 -14.692  0.00  0.00     0.018 A 
ATOM     16  C   UNL d   1       9.469   4.247 -15.889  0.00  0.00    -0.001 A 
ATOM     17  C   UNL d   1      10.137   3.423 -16.836  0.00  0.00    -0.000 A 
ATOM     18  C   UNL d   1      10.319   2.059 -16.564  0.00  0.00    -0.000 A 
ATOM     19  C   UNL d   1       9.858   1.500 -15.363  0.00  0.00    -0.000 A 
ATOM     20  C   UNL d   1       9.187   2.325 -14.423  0.00  0.00    -0.001 A 
ENDBRANCH  13  15
ENDBRANCH  11  13
ENDBRANCH   1  11
TORSDOF 4
