REMARK  6 active torsions:
REMARK  status: ('A' for Active; 'I' for Inactive)
REMARK    1  A    between atoms: O_2  and  C_3 
REMARK    2  A    between atoms: C_7  and  C_8 
REMARK       I    between atoms: C_8  and  N_10 
REMARK    3  A    between atoms: N_10  and  C_11 
REMARK    4  A    between atoms: C_11  and  C_12 
REMARK    5  A    between atoms: C_12  and  N_13 
REMARK    6  A    between atoms: N_16  and  C_17 
ROOT
ATOM      1  N   UNL d   1       9.717   7.030  -9.315  0.00  0.00     0.143 N 
ATOM      2  C   UNL d   1       8.928   6.813  -8.101  0.00  0.00     0.274 C 
ATOM      3  C   UNL d   1       9.101   7.996  -7.130  0.00  0.00     0.137 C 
ATOM      4  N   UNL d   1      10.510   8.204  -6.847  0.00  0.00    -0.344 N 
ATOM      5  C   UNL d   1      11.389   8.318  -7.992  0.00  0.00     0.137 C 
ATOM      6  C   UNL d   1      11.126   7.134  -8.935  0.00  0.00     0.274 C 
ENDROOT
BRANCH   1   7
ATOM      7  C   UNL d   1       9.540   5.912 -10.230  0.00  0.00     0.277 C 
BRANCH   7   8
ATOM      8  C   UNL d   1       8.266   6.029 -11.085  0.00  0.00     0.164 C 
BRANCH   8   9
ATOM      9  N   UNL d   1       8.144   4.952 -12.062  0.00  0.00    -0.232 NA
ATOM     10  C   UNL d   1       9.015   4.636 -13.038  0.00  0.00     0.275 C 
ATOM     11  O   UNL d   1      10.084   5.219 -13.236  0.00  0.00    -0.266 OA
BRANCH  10  12
ATOM     12  C   UNL d   1       8.647   3.442 -13.869  0.00  0.00     0.059 A 
ATOM     13  C   UNL d   1       7.296   3.061 -14.041  0.00  0.00     0.005 A 
ATOM     14  C   UNL d   1       6.986   1.943 -14.842  0.00  0.00     0.002 A 
ATOM     15  C   UNL d   1       8.006   1.228 -15.490  0.00  0.00     0.024 A 
ATOM     16  C   UNL d   1       9.363   1.601 -15.334  0.00  0.00     0.094 A 
ATOM     17  C   UNL d   1       9.662   2.712 -14.524  0.00  0.00     0.029 A 
BRANCH  16  18
ATOM     18  O   UNL d   1      10.425   0.958 -15.931  0.00  0.00    -0.328 OA
ATOM     19  C   UNL d   1      10.138  -0.157 -16.760  0.00  0.00     0.181 C 
ENDBRANCH  16  18
ENDBRANCH  10  12
ENDBRANCH   8   9
ENDBRANCH   7   8
ENDBRANCH   1   7
BRANCH   4  20
ATOM     20  C   UNL d   1      11.015   8.261  -5.544  0.00  0.00     0.056 A 
ATOM     21  C   UNL d   1      11.136   9.512  -4.909  0.00  0.00     0.019 A 
ATOM     22  C   UNL d   1      11.641   9.588  -3.596  0.00  0.00     0.031 A 
ATOM     23  C   UNL d   1      12.027   8.418  -2.916  0.00  0.00     0.140 A 
ATOM     24  C   UNL d   1      11.898   7.166  -3.545  0.00  0.00     0.031 A 
ATOM     25  F   UNL d   1      12.511   8.492  -1.658  0.00  0.00    -0.204 F 
ATOM     26  C   UNL d   1      11.397   7.089  -4.862  0.00  0.00     0.019 A 
ENDBRANCH   4  20
TORSDOF 6
