REMARK  5 active torsions:
REMARK  status: ('A' for Active; 'I' for Inactive)
REMARK    1  A    between atoms: C_4  and  C_5 
REMARK    2  A    between atoms: C_5  and  C_6 
REMARK    3  A    between atoms: C_6  and  N_7 
REMARK    4  A    between atoms: C_10  and  C_11 
REMARK    5  A    between atoms: C_13  and  C_14 
ROOT
ATOM      1  N   UNL d   1      10.041   6.943  -8.203  0.00  0.00     0.137 N 
ATOM      2  C   UNL d   1       9.530   7.833  -9.230  0.00  0.00     0.251 C 
ATOM      3  C   UNL d   1       9.232   7.078 -10.538  0.00  0.00     0.041 C 
ATOM      4  C   UNL d   1       8.362   5.788 -10.377  0.00  0.00     0.046 C 
ATOM      5  C   UNL d   1       8.945   4.959  -9.236  0.00  0.00     0.041 C 
ATOM      6  C   UNL d   1       9.129   5.822  -7.989  0.00  0.00     0.251 C 
ENDROOT
BRANCH   4   7
ATOM      7  C   UNL d   1       8.269   5.031 -11.653  0.00  0.00     0.082 A 
ATOM      8  N   UNL d   1       7.085   4.857 -12.338  0.00  0.00    -0.152 NA
ATOM      9  N   UNL d   1       7.227   4.114 -13.451  0.00  0.00    -0.147 NA
ATOM     10  C   UNL d   1       8.529   3.837 -13.494  0.00  0.00     0.122 A 
ATOM     11  C   UNL d   1       9.219   4.387 -12.382  0.00  0.00     0.039 A 
BRANCH  10  12
ATOM     12  C   UNL d   1       9.111   3.030 -14.573  0.00  0.00     0.101 A 
ATOM     13  N   UNL d   1      10.462   2.971 -14.613  0.00  0.00    -0.242 NA
ATOM     14  C   UNL d   1      11.048   2.242 -15.589  0.00  0.00     0.099 A 
ATOM     15  C   UNL d   1      10.319   1.539 -16.563  0.00  0.00     0.021 A 
ATOM     16  C   UNL d   1       8.914   1.589 -16.514  0.00  0.00     0.003 A 
ATOM     17  C   UNL d   1       8.299   2.346 -15.498  0.00  0.00     0.021 A 
ENDBRANCH  10  12
ENDBRANCH   4   7
BRANCH   1  18
ATOM     18  C   UNL d   1      10.120   7.683  -6.931  0.00  0.00     0.255 C 
BRANCH  18  19
ATOM     19  C   UNL d   1      11.487   7.387  -6.362  0.00  0.00     0.062 C 
BRANCH  19  20
ATOM     20  C   UNL d   1      11.672   7.878  -4.942  0.00  0.00    -0.020 A 
ATOM     21  C   UNL d   1      11.568   9.250  -4.633  0.00  0.00    -0.004 A 
ATOM     22  C   UNL d   1      11.776   9.675  -3.307  0.00  0.00    -0.000 A 
ATOM     23  C   UNL d   1      12.125   8.756  -2.302  0.00  0.00    -0.000 A 
ATOM     24  C   UNL d   1      12.241   7.389  -2.612  0.00  0.00    -0.000 A 
ATOM     25  C   UNL d   1      12.010   6.957  -3.929  0.00  0.00    -0.004 A 
ENDBRANCH  19  20
ENDBRANCH  18  19
ENDBRANCH   1  18
TORSDOF 5
