REMARK  4 active torsions:
REMARK  status: ('A' for Active; 'I' for Inactive)
REMARK    1  A    between atoms: C_8  and  C_9 
REMARK    2  A    between atoms: C_9  and  C_10 
REMARK    3  A    between atoms: C_10  and  N_11 
REMARK    4  A    between atoms: N_14  and  C_15 
ROOT
ATOM      1  N   UNL d   1       9.023   6.242  -9.585  0.00  0.00     0.141 N 
ATOM      2  C   UNL d   1       9.601   5.643  -8.399  0.00  0.00     0.274 C 
ATOM      3  C   UNL d   1       9.298   6.498  -7.168  0.00  0.00     0.138 C 
ATOM      4  N   UNL d   1       9.822   7.849  -7.378  0.00  0.00    -0.328 N 
ATOM      5  C   UNL d   1       9.347   8.508  -8.577  0.00  0.00     0.138 C 
ATOM      6  C   UNL d   1       9.595   7.578  -9.799  0.00  0.00     0.274 C 
ENDROOT
BRANCH   1   7
ATOM      7  C   UNL d   1       9.208   5.354 -10.715  0.00  0.00     0.255 C 
BRANCH   7   8
ATOM      8  C   UNL d   1       8.299   5.773 -11.883  0.00  0.00     0.063 C 
BRANCH   8   9
ATOM      9  C   UNL d   1       7.987   4.601 -12.794  0.00  0.00    -0.003 A 
ATOM     10  C   UNL d   1       8.974   4.003 -13.608  0.00  0.00     0.076 A 
ATOM     11  N   UNL d   1      10.293   4.512 -13.607  0.00  0.00    -0.212 NA
ATOM     12  C   UNL d   1       8.643   2.902 -14.439  0.00  0.00    -0.005 A 
ATOM     13  C   UNL d   1      11.357   3.892 -14.133  0.00  0.00     0.256 C 
ATOM     14  C   UNL d   1      11.139   2.490 -14.711  0.00  0.00     0.094 C 
ATOM     15  O   UNL d   1      12.483   4.390 -14.108  0.00  0.00    -0.270 OA
ATOM     16  C   UNL d   1       9.731   2.301 -15.325  0.00  0.00     0.033 C 
ATOM     17  C   UNL d   1       9.490   0.809 -15.634  0.00  0.00     0.005 C 
ATOM     18  C   UNL d   1       7.313   2.422 -14.441  0.00  0.00    -0.003 A 
ATOM     19  C   UNL d   1       6.339   3.007 -13.621  0.00  0.00    -0.001 A 
ATOM     20  C   UNL d   1       6.674   4.089 -12.793  0.00  0.00    -0.003 A 
ENDBRANCH   8   9
ENDBRANCH   7   8
ENDBRANCH   1   7
BRANCH   4  21
ATOM     21  C   UNL d   1      10.726   8.494  -6.489  0.00  0.00     0.169 A 
ATOM     22  C   UNL d   1      11.232   8.013  -5.251  0.00  0.00     0.061 A 
ATOM     23  C   UNL d   1      12.058   9.017  -4.717  0.00  0.00     0.128 A 
ATOM     24  C   UNL d   1      11.053   6.809  -4.490  0.00  0.00     0.005 A 
ATOM     25  O   UNL d   1      12.063  10.041  -5.642  0.00  0.00    -0.210 OA
ATOM     26  C   UNL d   1      12.698   8.885  -3.482  0.00  0.00     0.027 A 
ATOM     27  N   UNL d   1      11.204   9.709  -6.725  0.00  0.00    -0.109 NA
ATOM     28  C   UNL d   1      12.574   7.679  -2.765  0.00  0.00     0.002 A 
ATOM     29  C   UNL d   1      11.758   6.660  -3.282  0.00  0.00     0.000 A 
ENDBRANCH   4  21
TORSDOF 4
