REMARK  9 active torsions:
REMARK  status: ('A' for Active; 'I' for Inactive)
REMARK    1  A    between atoms: C_4  and  N_5 
REMARK    2  A    between atoms: N_5  and  C_6 
REMARK    3  A    between atoms: C_6  and  C_7 
REMARK    4  A    between atoms: C_7  and  C_8 
REMARK    5  A    between atoms: C_18  and  N_19 
REMARK    6  A    between atoms: N_19  and  C_20 
REMARK    7  A    between atoms: C_20  and  C_21 
REMARK    8  A    between atoms: C_21  and  N_22 
REMARK    9  A    between atoms: N_25  and  C_26 
ROOT
ATOM      1  N   UNL d   1      11.145   9.155 -10.350  0.00  0.00     0.063 N 
ATOM      2  C   UNL d   1      10.159   8.233 -10.366  0.00  0.00     0.799 C 
ATOM      3  N   UNL d   1       9.956   7.665  -9.187  0.00  0.00     0.136 NA
ATOM      4  C   UNL d   1       9.218   6.543  -9.282  0.00  0.00     0.776 C 
ATOM      5  N   UNL d   1       8.764   5.942 -10.389  0.00  0.00     0.134 NA
ATOM      6  C   UNL d   1       8.974   6.738 -11.466  0.00  0.00     0.776 C 
ATOM      7  N   UNL d   1       9.633   7.904 -11.554  0.00  0.00     0.136 NA
ENDROOT
BRANCH   6   8
ATOM      8  N   UNL d   1       8.449   6.323 -12.654  0.00  0.00    -0.083 NA
BRANCH   8   9
ATOM      9  C   UNL d   1       8.126   4.944 -12.981  0.00  0.00     0.180 C 
BRANCH   9  10
ATOM     10  C   UNL d   1       9.396   4.088 -13.284  0.00  0.00     0.277 C 
BRANCH  10  11
ATOM     11  N   UNL d   1       9.097   2.766 -13.827  0.00  0.00     0.143 N 
ATOM     12  C   UNL d   1       8.107   2.799 -14.898  0.00  0.00     0.274 C 
ATOM     13  C   UNL d   1       7.795   1.395 -15.428  0.00  0.00     0.137 C 
ATOM     14  N   UNL d   1       9.016   0.719 -15.847  0.00  0.00    -0.344 N 
ATOM     15  C   UNL d   1      10.077   0.718 -14.841  0.00  0.00     0.137 C 
ATOM     16  C   UNL d   1      10.331   2.156 -14.339  0.00  0.00     0.274 C 
BRANCH  14  17
ATOM     17  C   UNL d   1       9.176   0.225 -17.148  0.00  0.00     0.056 A 
ATOM     18  C   UNL d   1      10.450   0.182 -17.772  0.00  0.00     0.017 A 
ATOM     19  C   UNL d   1      10.604  -0.362 -19.066  0.00  0.00     0.002 A 
ATOM     20  C   UNL d   1       9.489  -0.849 -19.765  0.00  0.00     0.000 A 
ATOM     21  C   UNL d   1       8.218  -0.800 -19.177  0.00  0.00     0.002 A 
ATOM     22  C   UNL d   1       8.061  -0.266 -17.878  0.00  0.00     0.017 A 
ENDBRANCH  14  17
ENDBRANCH  10  11
ENDBRANCH   9  10
ENDBRANCH   8   9
ENDBRANCH   6   8
BRANCH   4  23
ATOM     23  N   UNL d   1       8.833   5.935  -8.108  0.00  0.00    -0.085 NA
BRANCH  23  24
ATOM     24  C   UNL d   1       9.083   6.595  -6.832  0.00  0.00     0.150 C 
BRANCH  24  25
ATOM     25  C   UNL d   1      10.620   6.670  -6.513  0.00  0.00     0.055 C 
BRANCH  25  26
ATOM     26  C   UNL d   1      10.910   7.862  -5.711  0.00  0.00     0.000 A 
ATOM     27  C   UNL d   1      11.472   7.864  -4.404  0.00  0.00     0.015 A 
ATOM     28  C   UNL d   1      11.600   9.218  -4.001  0.00  0.00     0.081 A 
ATOM     29  C   UNL d   1      11.855   6.862  -3.497  0.00  0.00     0.001 A 
ATOM     30  N   UNL d   1      11.127   9.985  -5.048  0.00  0.00    -0.244 NA
ATOM     31  C   UNL d   1      12.135   9.559  -2.754  0.00  0.00     0.019 A 
ATOM     32  C   UNL d   1      10.709   9.163  -6.079  0.00  0.00     0.095 A 
ATOM     33  C   UNL d   1      12.551   8.543  -1.878  0.00  0.00     0.002 A 
ATOM     34  C   UNL d   1      12.387   7.193  -2.240  0.00  0.00     0.000 A 
ENDBRANCH  25  26
ENDBRANCH  24  25
ENDBRANCH  23  24
ENDBRANCH   4  23
TORSDOF 9
