REMARK  8 active torsions:
REMARK  status: ('A' for Active; 'I' for Inactive)
REMARK    1  A    between atoms: O_2  and  C_3 
REMARK    2  A    between atoms: C_7  and  N_8 
REMARK    3  A    between atoms: N_11  and  C_12 
REMARK    4  A    between atoms: C_12  and  C_13 
REMARK    5  A    between atoms: C_13  and  C_14 
REMARK    6  A    between atoms: C_14  and  C_15 
REMARK    7  A    between atoms: C_15  and  N_16 
REMARK       I    between atoms: N_16  and  C_17 
REMARK    8  A    between atoms: C_17  and  C_19 
ROOT
ATOM      1  C   UNL d   1       9.181   5.390 -11.421  0.00  0.00     0.251 C 
ENDROOT
BRANCH   1   2
ATOM      2  N   UNL d   1       8.599   4.875 -12.651  0.00  0.00     0.141 N 
ATOM      3  C   UNL d   1       7.188   4.535 -12.390  0.00  0.00     0.274 C 
ATOM      4  C   UNL d   1       6.513   3.992 -13.654  0.00  0.00     0.137 C 
ATOM      5  N   UNL d   1       7.274   2.866 -14.176  0.00  0.00    -0.344 N 
ATOM      6  C   UNL d   1       8.692   3.116 -14.393  0.00  0.00     0.137 C 
ATOM      7  C   UNL d   1       9.318   3.674 -13.101  0.00  0.00     0.274 C 
BRANCH   5   8
ATOM      8  C   UNL d   1       6.663   1.633 -14.481  0.00  0.00     0.058 A 
ATOM      9  C   UNL d   1       7.124   0.851 -15.561  0.00  0.00     0.017 A 
ATOM     10  C   UNL d   1       6.488  -0.362 -15.883  0.00  0.00     0.004 A 
ATOM     11  C   UNL d   1       5.393  -0.810 -15.128  0.00  0.00     0.024 A 
ATOM     12  C   UNL d   1       4.926  -0.040 -14.046  0.00  0.00     0.096 A 
ATOM     13  C   UNL d   1       5.565   1.169 -13.722  0.00  0.00     0.041 A 
BRANCH  12  14
ATOM     14  O   UNL d   1       3.870  -0.411 -13.255  0.00  0.00    -0.328 OA
ATOM     15  C   UNL d   1       2.799  -1.070 -13.892  0.00  0.00     0.181 C 
ENDBRANCH  12  14
ENDBRANCH   5   8
ENDBRANCH   1   2
BRANCH   1  16
ATOM     16  C   UNL d   1       9.063   6.925 -11.407  0.00  0.00     0.037 C 
BRANCH  16  17
ATOM     17  C   UNL d   1       9.461   7.524 -10.042  0.00  0.00     0.029 C 
BRANCH  17  18
ATOM     18  C   UNL d   1      10.973   7.486  -9.737  0.00  0.00     0.129 C 
BRANCH  18  19
ATOM     19  N   UNL d   1      11.283   8.093  -8.451  0.00  0.00    -0.234 NA
ATOM     20  C   UNL d   1      10.927   7.574  -7.267  0.00  0.00     0.276 C 
ATOM     21  O   UNL d   1      10.463   6.445  -7.124  0.00  0.00    -0.266 OA
BRANCH  20  22
ATOM     22  C   UNL d   1      11.133   8.493  -6.126  0.00  0.00     0.078 A 
ATOM     23  C   UNL d   1      11.519   8.065  -4.812  0.00  0.00     0.024 A 
ATOM     24  C   UNL d   1      11.570   9.229  -3.993  0.00  0.00     0.082 A 
ATOM     25  C   UNL d   1      11.848   6.835  -4.200  0.00  0.00     0.002 A 
ATOM     26  N   UNL d   1      11.175  10.275  -4.799  0.00  0.00    -0.244 NA
ATOM     27  C   UNL d   1      11.988   9.181  -2.654  0.00  0.00     0.019 A 
ATOM     28  C   UNL d   1      10.948   9.845  -6.087  0.00  0.00     0.104 A 
ATOM     29  C   UNL d   1      12.325   7.949  -2.080  0.00  0.00     0.002 A 
ATOM     30  C   UNL d   1      12.239   6.775  -2.848  0.00  0.00     0.000 A 
ENDBRANCH  20  22
ENDBRANCH  18  19
ENDBRANCH  17  18
ENDBRANCH  16  17
ENDBRANCH   1  16
TORSDOF 8
