REMARK  0 active torsions:
REMARK  status: ('A' for Active; 'I' for Inactive)
ROOT
ATOM      1  O   UNL d   1       9.060   4.460 -11.256  0.00  0.00    -0.188 OA
ATOM      2  C   UNL d   1       9.358   5.244 -10.198  0.00  0.00     0.156 A 
ATOM      3  C   UNL d   1      10.139   6.350 -10.532  0.00  0.00     0.025 A 
ATOM      4  C   UNL d   1      10.541   7.230  -9.556  0.00  0.00    -0.024 A 
ATOM      5  C   UNL d   1      10.146   7.068  -8.206  0.00  0.00    -0.018 A 
ATOM      6  C   UNL d   1       9.300   5.990  -7.877  0.00  0.00     0.025 A 
ATOM      7  C   UNL d   1       8.970   5.030  -8.849  0.00  0.00     0.156 A 
ATOM      8  O   UNL d   1       8.267   3.937  -8.437  0.00  0.00    -0.188 OA
ATOM      9  C   UNL d   1      10.442   8.139  -7.165  0.00  0.00     0.080 C 
ATOM     10  C   UNL d   1      11.094   7.781  -5.821  0.00  0.00     0.003 A 
ATOM     11  C   UNL d   1      11.245   6.473  -5.344  0.00  0.00     0.095 A 
ATOM     12  N   UNL d   1      11.830   6.189  -4.160  0.00  0.00    -0.240 NA
ATOM     13  C   UNL d   1      12.265   7.184  -3.384  0.00  0.00     0.128 A 
ATOM     14  C   UNL d   1      12.232   8.526  -3.785  0.00  0.00     0.157 A 
ATOM     15  F   UNL d   1      12.764   9.500  -3.028  0.00  0.00    -0.203 F 
ATOM     16  C   UNL d   1      11.659   8.806  -5.034  0.00  0.00     0.041 A 
ATOM     17  C   UNL d   1      11.775  10.183  -5.600  0.00  0.00     0.319 C 
ATOM     18  N   UNL d   1      11.095  10.378  -6.834  0.00  0.00     0.342 N 
ATOM     19  C   UNL d   1      11.309   9.256  -7.733  0.00  0.00     0.265 C 
ATOM     20  C   UNL d   1      10.942   9.585  -9.191  0.00  0.00     0.041 C 
ATOM     21  C   UNL d   1      11.294   8.423 -10.051  0.00  0.00     0.028 C 
ENDROOT
TORSDOF 0
