REMARK  10 active torsions:
REMARK  status: ('A' for Active; 'I' for Inactive)
REMARK    1  A    between atoms: N_2  and  C_4 
REMARK    2  A    between atoms: C_7  and  C_8 
REMARK       I    between atoms: C_8  and  N_10 
REMARK    3  A    between atoms: N_10  and  C_11 
REMARK    4  A    between atoms: C_11  and  C_12 
REMARK    5  A    between atoms: C_13  and  C_14 
REMARK    6  A    between atoms: C_14  and  N_15 
REMARK    7  A    between atoms: N_18  and  C_19 
REMARK    8  A    between atoms: C_24  and  O_25 
REMARK    9  A    between atoms: O_25  and  C_26 
REMARK   10  A    between atoms: C_26  and  C_27 
ROOT
ATOM      1  N   UNL d   1      10.605   3.516 -14.947  0.00  0.00     0.145 N 
ATOM      2  C   UNL d   1       9.185   3.220 -15.153  0.00  0.00     0.275 C 
ATOM      3  C   UNL d   1       8.902   3.049 -16.656  0.00  0.00     0.137 C 
ATOM      4  N   UNL d   1       9.750   2.013 -17.218  0.00  0.00    -0.343 N 
ATOM      5  C   UNL d   1      11.173   2.173 -16.956  0.00  0.00     0.137 C 
ATOM      6  C   UNL d   1      11.407   2.391 -15.442  0.00  0.00     0.275 C 
ENDROOT
BRANCH   1   7
ATOM      7  C   UNL d   1      10.880   3.711 -13.527  0.00  0.00     0.276 C 
BRANCH   7   8
ATOM      8  C   UNL d   1      10.156   4.910 -12.941  0.00  0.00     0.006 C 
ATOM      9  C   UNL d   1       9.572   4.921 -11.733  0.00  0.00    -0.003 C 
BRANCH   9  10
ATOM     10  C   UNL d   1       8.871   6.120 -11.131  0.00  0.00     0.155 C 
BRANCH  10  11
ATOM     11  N   UNL d   1       9.455   6.463  -9.842  0.00  0.00    -0.229 NA
ATOM     12  C   UNL d   1      10.133   7.590  -9.559  0.00  0.00     0.275 C 
ATOM     13  O   UNL d   1      10.358   8.466 -10.394  0.00  0.00    -0.266 OA
BRANCH  12  14
ATOM     14  C   UNL d   1      10.569   7.758  -8.126  0.00  0.00     0.058 A 
ATOM     15  C   UNL d   1      11.024   9.013  -7.670  0.00  0.00     0.006 A 
ATOM     16  C   UNL d   1      11.446   9.191  -6.336  0.00  0.00     0.017 A 
ATOM     17  C   UNL d   1      11.431   8.112  -5.413  0.00  0.00     0.056 A 
ATOM     18  C   UNL d   1      10.981   6.854  -5.883  0.00  0.00     0.017 A 
ATOM     19  C   UNL d   1      10.554   6.679  -7.213  0.00  0.00     0.006 A 
BRANCH  17  20
ATOM     20  N   UNL d   1      11.862   8.275  -4.076  0.00  0.00    -0.344 N 
ATOM     21  C   UNL d   1      12.287   9.587  -3.602  0.00  0.00     0.126 C 
ATOM     22  C   UNL d   1      11.876   7.138  -3.161  0.00  0.00     0.126 C 
ENDBRANCH  17  20
ENDBRANCH  12  14
ENDBRANCH  10  11
ENDBRANCH   9  10
ENDBRANCH   7   8
ENDBRANCH   1   7
BRANCH   4  23
ATOM     23  C   UNL d   1       9.220   0.892 -17.883  0.00  0.00     0.079 A 
ATOM     24  C   UNL d   1       8.095   0.190 -17.366  0.00  0.00     0.110 A 
ATOM     25  C   UNL d   1       7.552  -0.885 -18.116  0.00  0.00     0.026 A 
ATOM     26  C   UNL d   1       8.146  -1.288 -19.325  0.00  0.00     0.002 A 
ATOM     27  C   UNL d   1       9.275  -0.615 -19.817  0.00  0.00     0.002 A 
ATOM     28  C   UNL d   1       9.805   0.478 -19.100  0.00  0.00     0.019 A 
BRANCH  24  29
ATOM     29  O   UNL d   1       7.608   0.562 -16.128  0.00  0.00    -0.326 OA
BRANCH  29  30
ATOM     30  C   UNL d   1       6.403  -0.004 -15.632  0.00  0.00     0.187 C 
BRANCH  30  31
ATOM     31  C   UNL d   1       6.312   0.359 -14.149  0.00  0.00     0.226 C 
ATOM     32  F   UNL d   1       5.153  -0.049 -13.634  0.00  0.00    -0.232 F 
ENDBRANCH  30  31
ENDBRANCH  29  30
ENDBRANCH  24  29
ENDBRANCH   4  23
TORSDOF 10
