REMARK  7 active torsions:
REMARK  status: ('A' for Active; 'I' for Inactive)
REMARK    1  A    between atoms: S_2  and  C_3 
REMARK    2  A    between atoms: C_7  and  C_8 
REMARK       I    between atoms: C_8  and  N_10 
REMARK    3  A    between atoms: N_10  and  C_11 
REMARK    4  A    between atoms: C_11  and  C_12 
REMARK    5  A    between atoms: N_16  and  C_17 
REMARK    6  A    between atoms: C_17  and  C_18 
REMARK    7  A    between atoms: C_18  and  C_19 
ROOT
ATOM      1  C   UNL d   1      10.341   7.169  -8.892  0.00  0.00     0.243 C 
ATOM      2  C   UNL d   1      10.465   7.859 -10.264  0.00  0.00     0.037 C 
ATOM      3  C   UNL d   1      11.650   8.809 -10.096  0.00  0.00     0.037 C 
ATOM      4  C   UNL d   1      12.043   8.641  -8.634  0.00  0.00     0.250 C 
ATOM      5  N   UNL d   1      10.838   8.174  -7.992  0.00  0.00     0.137 N 
ENDROOT
BRANCH   1   6
ATOM      6  C   UNL d   1       8.911   6.698  -8.506  0.00  0.00     0.162 C 
BRANCH   6   7
ATOM      7  N   UNL d   1       8.296   5.989  -9.643  0.00  0.00    -0.232 NA
ATOM      8  C   UNL d   1       8.814   4.944 -10.257  0.00  0.00     0.275 C 
ATOM      9  O   UNL d   1       9.778   4.335  -9.782  0.00  0.00    -0.266 OA
BRANCH   8  10
ATOM     10  C   UNL d   1       8.220   4.580 -11.594  0.00  0.00     0.058 A 
ATOM     11  C   UNL d   1       6.865   4.871 -11.880  0.00  0.00     0.005 A 
ATOM     12  C   UNL d   1       6.244   4.391 -13.041  0.00  0.00     0.001 A 
ATOM     13  C   UNL d   1       6.962   3.601 -13.956  0.00  0.00     0.006 A 
ATOM     14  C   UNL d   1       8.330   3.345 -13.713  0.00  0.00     0.025 A 
ATOM     15  C   UNL d   1       8.962   3.840 -12.555  0.00  0.00     0.011 A 
BRANCH  14  16
ATOM     16  S   UNL d   1       9.265   2.369 -14.850  0.00  0.00    -0.113 SA
ATOM     17  C   UNL d   1       8.240   0.918 -15.249  0.00  0.00     0.074 C 
ENDBRANCH  14  16
ENDBRANCH   8  10
ENDBRANCH   6   7
ENDBRANCH   1   6
BRANCH   5  18
ATOM     18  C   UNL d   1      11.179   7.610  -6.693  0.00  0.00     0.255 C 
BRANCH  18  19
ATOM     19  C   UNL d   1      10.983   8.683  -5.627  0.00  0.00     0.062 C 
BRANCH  19  20
ATOM     20  C   UNL d   1      11.533   8.264  -4.281  0.00  0.00    -0.020 A 
ATOM     21  C   UNL d   1      11.726   6.888  -3.963  0.00  0.00    -0.004 A 
ATOM     22  C   UNL d   1      12.286   6.558  -2.723  0.00  0.00    -0.000 A 
ATOM     23  C   UNL d   1      12.632   7.549  -1.803  0.00  0.00    -0.000 A 
ATOM     24  C   UNL d   1      12.388   8.893  -2.084  0.00  0.00    -0.000 A 
ATOM     25  C   UNL d   1      11.850   9.261  -3.340  0.00  0.00    -0.004 A 
ENDBRANCH  19  20
ENDBRANCH  18  19
ENDBRANCH   5  18
TORSDOF 7
