REMARK  5 active torsions:
REMARK  status: ('A' for Active; 'I' for Inactive)
REMARK    1  A    between atoms: C_6  and  C_7 
REMARK    2  A    between atoms: C_10  and  C_11 
REMARK       I    between atoms: C_11  and  N_13 
REMARK    3  A    between atoms: N_13  and  C_14 
REMARK    4  A    between atoms: N_17  and  C_18 
REMARK    5  A    between atoms: C_18  and  C_19 
ROOT
ATOM      1  C   UNL d   1       9.040   6.507 -11.991  0.00  0.00     0.275 C 
ATOM      2  O   UNL d   1       8.726   7.432 -12.724  0.00  0.00    -0.266 OA
ATOM      3  N   UNL d   1       9.018   5.218 -12.366  0.00  0.00    -0.234 NA
ENDROOT
BRANCH   1   4
ATOM      4  C   UNL d   1       9.554   6.772 -10.614  0.00  0.00     0.058 A 
ATOM      5  C   UNL d   1      10.204   7.990 -10.318  0.00  0.00     0.005 A 
ATOM      6  C   UNL d   1      10.632   8.270  -9.006  0.00  0.00     0.000 A 
ATOM      7  C   UNL d   1      10.405   7.337  -7.970  0.00  0.00     0.000 A 
ATOM      8  C   UNL d   1       9.734   6.131  -8.272  0.00  0.00     0.000 A 
ATOM      9  C   UNL d   1       9.305   5.852  -9.574  0.00  0.00     0.005 A 
BRANCH   7  10
ATOM     10  C   UNL d   1      10.864   7.611  -6.603  0.00  0.00     0.001 A 
ATOM     11  C   UNL d   1      11.453   6.586  -5.832  0.00  0.00     0.000 A 
ATOM     12  C   UNL d   1      11.849   6.811  -4.496  0.00  0.00     0.001 A 
ATOM     13  C   UNL d   1      11.755   8.102  -3.950  0.00  0.00     0.014 A 
ATOM     14  C   UNL d   1      11.179   9.126  -4.720  0.00  0.00     0.070 A 
ATOM     15  N   UNL d   1      11.009  10.383  -4.176  0.00  0.00    -0.101 NA
ATOM     16  C   UNL d   1      10.730   8.892  -6.031  0.00  0.00     0.014 A 
ENDBRANCH   7  10
ENDBRANCH   1   4
BRANCH   3  17
ATOM     17  C   UNL d   1       8.594   4.726 -13.678  0.00  0.00     0.142 C 
ATOM     18  C   UNL d   1       8.369   3.221 -13.654  0.00  0.00     0.275 C 
ATOM     19  N   UNL d   1       8.717   2.783 -14.998  0.00  0.00     0.143 N 
ATOM     20  C   UNL d   1       9.949   3.496 -15.271  0.00  0.00     0.253 C 
ATOM     21  C   UNL d   1       9.654   4.896 -14.774  0.00  0.00     0.062 C 
BRANCH  19  22
ATOM     22  C   UNL d   1       8.899   1.339 -15.072  0.00  0.00     0.277 C 
BRANCH  22  23
ATOM     23  C   UNL d   1       7.595   0.600 -15.260  0.00  0.00     0.011 A 
ATOM     24  C   UNL d   1       6.978   0.608 -16.531  0.00  0.00    -0.002 A 
ATOM     25  C   UNL d   1       5.788  -0.116 -16.747  0.00  0.00    -0.000 A 
ATOM     26  C   UNL d   1       5.217  -0.855 -15.696  0.00  0.00    -0.000 A 
ATOM     27  C   UNL d   1       5.831  -0.864 -14.427  0.00  0.00    -0.000 A 
ATOM     28  C   UNL d   1       7.013  -0.127 -14.206  0.00  0.00    -0.002 A 
ENDBRANCH  22  23
ENDBRANCH  19  22
ENDBRANCH   3  17
TORSDOF 5
