REMARK  7 active torsions:
REMARK  status: ('A' for Active; 'I' for Inactive)
REMARK    1  A    between atoms: O_2  and  C_3 
REMARK    2  A    between atoms: C_7  and  N_8 
REMARK    3  A    between atoms: N_11  and  C_12 
REMARK    4  A    between atoms: C_12  and  C_13 
REMARK    5  A    between atoms: C_13  and  C_14 
REMARK    6  A    between atoms: C_17  and  N_18 
REMARK       I    between atoms: N_18  and  C_19 
REMARK    7  A    between atoms: C_19  and  C_21 
ROOT
ATOM      1  C   UNL d   1       9.206   3.943 -13.104  0.00  0.00     0.250 C 
ENDROOT
BRANCH   1   2
ATOM      2  N   UNL d   1       9.114   3.595 -14.524  0.00  0.00     0.141 N 
ATOM      3  C   UNL d   1       9.256   4.758 -15.432  0.00  0.00     0.274 C 
ATOM      4  C   UNL d   1      10.637   5.464 -15.375  0.00  0.00     0.137 C 
ATOM      5  N   UNL d   1      11.696   4.481 -15.482  0.00  0.00    -0.344 N 
ATOM      6  C   UNL d   1      11.578   3.252 -14.703  0.00  0.00     0.137 C 
ATOM      7  C   UNL d   1      10.161   2.624 -14.859  0.00  0.00     0.274 C 
BRANCH   5   8
ATOM      8  C   UNL d   1      12.708   4.656 -16.449  0.00  0.00     0.058 A 
ATOM      9  C   UNL d   1      13.217   3.561 -17.168  0.00  0.00     0.017 A 
ATOM     10  C   UNL d   1      14.269   3.732 -18.084  0.00  0.00     0.004 A 
ATOM     11  C   UNL d   1      14.796   5.015 -18.315  0.00  0.00     0.024 A 
ATOM     12  C   UNL d   1      14.268   6.137 -17.646  0.00  0.00     0.096 A 
ATOM     13  C   UNL d   1      13.225   5.950 -16.711  0.00  0.00     0.041 A 
BRANCH  12  14
ATOM     14  O   UNL d   1      14.840   7.359 -17.936  0.00  0.00    -0.328 OA
ATOM     15  C   UNL d   1      14.105   8.529 -17.602  0.00  0.00     0.181 C 
ENDBRANCH  12  14
ENDBRANCH   5   8
ENDBRANCH   1   2
BRANCH   1  16
ATOM     16  C   UNL d   1       7.977   4.720 -12.577  0.00  0.00     0.035 C 
BRANCH  16  17
ATOM     17  C   UNL d   1       8.323   5.632 -11.370  0.00  0.00     0.002 C 
ATOM     18  C   UNL d   1       9.471   6.652 -11.636  0.00  0.00     0.002 C 
ATOM     19  C   UNL d   1       9.845   7.535 -10.447  0.00  0.00     0.024 C 
ATOM     20  C   UNL d   1      10.156   6.657  -9.232  0.00  0.00     0.107 C 
ATOM     21  C   UNL d   1       8.983   5.701  -8.907  0.00  0.00     0.024 C 
ATOM     22  C   UNL d   1       8.648   4.814 -10.108  0.00  0.00     0.002 C 
BRANCH  20  23
ATOM     23  N   UNL d   1      10.447   7.516  -8.093  0.00  0.00    -0.236 NA
ATOM     24  C   UNL d   1      11.090   7.135  -6.984  0.00  0.00     0.281 C 
ATOM     25  O   UNL d   1      11.601   6.023  -6.827  0.00  0.00    -0.265 OA
BRANCH  24  26
ATOM     26  C   UNL d   1      11.149   8.128  -5.909  0.00  0.00     0.087 A 
ATOM     27  S   UNL d   1      11.798   7.634  -4.368  0.00  0.00    -0.082 SA
ATOM     28  C   UNL d   1      11.630   9.246  -3.723  0.00  0.00     0.036 A 
ATOM     29  C   UNL d   1      11.046  10.081  -4.643  0.00  0.00     0.008 A 
ATOM     30  C   UNL d   1      10.790   9.455  -5.898  0.00  0.00     0.012 A 
ENDBRANCH  24  26
ENDBRANCH  20  23
ENDBRANCH  16  17
ENDBRANCH   1  16
TORSDOF 7
