REMARK  4 active torsions:
REMARK  status: ('A' for Active; 'I' for Inactive)
REMARK    1  A    between atoms: C_2  and  C_4 
REMARK    2  A    between atoms: C_11  and  C_12 
REMARK    3  A    between atoms: C_12  and  N_13 
REMARK    4  A    between atoms: C_16  and  C_17 
ROOT
ATOM      1  N   UNL d   1       8.201   3.035 -14.603  0.00  0.00     0.137 N 
ATOM      2  C   UNL d   1       9.350   2.803 -13.727  0.00  0.00     0.251 C 
ATOM      3  C   UNL d   1       9.782   4.101 -13.043  0.00  0.00     0.041 C 
ATOM      4  C   UNL d   1       8.638   4.678 -12.210  0.00  0.00     0.047 C 
ATOM      5  C   UNL d   1       7.375   4.789 -13.068  0.00  0.00     0.041 C 
ATOM      6  C   UNL d   1       7.050   3.472 -13.798  0.00  0.00     0.251 C 
ENDROOT
BRANCH   1   7
ATOM      7  C   UNL d   1       7.851   1.799 -15.320  0.00  0.00     0.251 C 
BRANCH   7   8
ATOM      8  C   UNL d   1       8.605   1.633 -16.660  0.00  0.00     0.045 C 
ATOM      9  C   UNL d   1      10.120   1.842 -16.520  0.00  0.00     0.029 C 
ATOM     10  C   UNL d   1      10.901   1.494 -17.776  0.00  0.00    -0.019 A 
ATOM     11  C   UNL d   1      10.400   0.594 -18.735  0.00  0.00     0.031 A 
ATOM     12  C   UNL d   1      12.165   2.095 -17.933  0.00  0.00    -0.001 A 
ATOM     13  C   UNL d   1      11.183   0.308 -19.869  0.00  0.00     0.003 A 
ATOM     14  C   UNL d   1       9.052  -0.044 -18.566  0.00  0.00     0.173 C 
ATOM     15  C   UNL d   1      12.451   0.907 -20.035  0.00  0.00     0.003 A 
ATOM     16  C   UNL d   1      12.955   1.815 -19.072  0.00  0.00     0.034 A 
ATOM     17  C   UNL d   1       8.318   0.238 -17.255  0.00  0.00     0.071 C 
ATOM     18  O   UNL d   1       8.550  -0.773 -19.399  0.00  0.00    -0.291 OA
BRANCH  16  19
ATOM     19  C   UNL d   1      14.289   2.426 -19.244  0.00  0.00     0.173 C 
ATOM     20  C   UNL d   1      14.624   3.653 -18.396  0.00  0.00     0.077 C 
ATOM     21  O   UNL d   1      15.145   2.014 -20.039  0.00  0.00    -0.291 OA
ENDBRANCH  16  19
ENDBRANCH   7   8
ENDBRANCH   1   7
BRANCH   4  22
ATOM     22  C   UNL d   1       9.026   6.036 -11.639  0.00  0.00     0.087 A 
ATOM     23  C   UNL d   1       9.454   6.402 -10.346  0.00  0.00     0.041 A 
ATOM     24  C   UNL d   1       9.746   7.770 -10.349  0.00  0.00     0.129 A 
ATOM     25  C   UNL d   1       9.615   5.658  -9.154  0.00  0.00     0.006 A 
ATOM     26  O   UNL d   1       9.477   8.203 -11.633  0.00  0.00    -0.211 OA
ATOM     27  C   UNL d   1      10.172   8.463  -9.207  0.00  0.00     0.057 A 
ATOM     28  N   UNL d   1       9.059   7.101 -12.437  0.00  0.00    -0.131 NA
ATOM     29  C   UNL d   1      10.318   7.727  -8.013  0.00  0.00     0.142 A 
ATOM     30  F   UNL d   1      10.715   8.357  -6.881  0.00  0.00    -0.204 F 
ATOM     31  C   UNL d   1      10.046   6.336  -7.990  0.00  0.00     0.030 A 
ENDBRANCH   4  22
TORSDOF 4
