REMARK  2 active torsions:
REMARK  status: ('A' for Active; 'I' for Inactive)
REMARK    1  A    between atoms: N_2  and  C_4 
REMARK    2  A    between atoms: C_4  and  C_5 
ROOT
ATOM      1  C   UNL d   1       9.319   2.392 -17.527  0.00  0.00     0.180 C 
ATOM      2  C   UNL d   1       9.535   0.881 -17.420  0.00  0.00     0.064 C 
ATOM      3  C   UNL d   1       8.452   0.471 -16.434  0.00  0.00     0.134 C 
ATOM      4  C   UNL d   1       7.106   0.070 -17.046  0.00  0.00    -0.003 A 
ATOM      5  C   UNL d   1       6.838   0.150 -18.434  0.00  0.00    -0.003 A 
ATOM      6  C   UNL d   1       5.592  -0.259 -18.947  0.00  0.00    -0.000 A 
ATOM      7  C   UNL d   1       4.600  -0.756 -18.082  0.00  0.00    -0.000 A 
ATOM      8  C   UNL d   1       4.852  -0.829 -16.701  0.00  0.00    -0.004 A 
ATOM      9  C   UNL d   1       6.098  -0.417 -16.185  0.00  0.00    -0.020 A 
ATOM     10  C   UNL d   1       6.340  -0.433 -14.689  0.00  0.00     0.054 C 
ATOM     11  C   UNL d   1       6.417   0.979 -14.149  0.00  0.00    -0.000 A 
ATOM     12  C   UNL d   1       5.454   1.367 -13.197  0.00  0.00    -0.002 A 
ATOM     13  C   UNL d   1       5.438   2.671 -12.681  0.00  0.00     0.011 A 
ATOM     14  C   UNL d   1       6.408   3.596 -13.089  0.00  0.00     0.059 A 
ATOM     15 CL   UNL d   1       6.420   5.194 -12.436  0.00  0.00    -0.082 Cl
ATOM     16  C   UNL d   1       7.383   3.214 -14.023  0.00  0.00     0.030 A 
ATOM     17  C   UNL d   1       7.392   1.917 -14.593  0.00  0.00     0.080 A 
ATOM     18  N   UNL d   1       8.401   1.626 -15.540  0.00  0.00    -0.237 N 
ATOM     19  O   UNL d   1       8.974   2.779 -16.202  0.00  0.00    -0.258 OA
ENDROOT
BRANCH   1  20
ATOM     20  C   UNL d   1      10.549   3.183 -18.012  0.00  0.00     0.282 C 
BRANCH  20  21
ATOM     21  N   UNL d   1      11.755   2.971 -17.211  0.00  0.00     0.144 N 
ATOM     22  C   UNL d   1      11.628   3.492 -15.855  0.00  0.00     0.286 C 
ATOM     23  C   UNL d   1      12.882   3.641 -17.854  0.00  0.00     0.286 C 
ENDBRANCH  20  21
ENDBRANCH   1  20
TORSDOF 2
