REMARK  4 active torsions:
REMARK  status: ('A' for Active; 'I' for Inactive)
REMARK    1  A    between atoms: C_8  and  C_9 
REMARK    2  A    between atoms: C_9  and  C_10 
REMARK    3  A    between atoms: C_10  and  N_11 
REMARK    4  A    between atoms: C_14  and  C_15 
ROOT
ATOM      1  N   UNL d   1       9.596   7.233  -9.943  0.00  0.00     0.137 N 
ATOM      2  C   UNL d   1      11.037   7.369  -9.817  0.00  0.00     0.251 C 
ATOM      3  C   UNL d   1      11.380   8.152  -8.547  0.00  0.00     0.040 C 
ATOM      4  C   UNL d   1      10.744   7.516  -7.287  0.00  0.00     0.026 C 
ATOM      5  C   UNL d   1       9.234   7.321  -7.499  0.00  0.00     0.040 C 
ATOM      6  C   UNL d   1       9.004   6.545  -8.789  0.00  0.00     0.251 C 
ENDROOT
BRANCH   1   7
ATOM      7  C   UNL d   1       9.220   6.600 -11.210  0.00  0.00     0.255 C 
BRANCH   7   8
ATOM      8  C   UNL d   1       9.255   5.054 -11.152  0.00  0.00     0.068 C 
BRANCH   8   9
ATOM      9  C   UNL d   1       8.853   4.412 -12.460  0.00  0.00     0.050 A 
ATOM     10  C   UNL d   1       7.580   4.015 -12.716  0.00  0.00     0.061 A 
ATOM     11  C   UNL d   1       6.445   4.216 -11.727  0.00  0.00     0.052 C 
ATOM     12  N   UNL d   1       7.265   3.323 -13.878  0.00  0.00    -0.234 NA
ATOM     13  C   UNL d   1       8.204   3.036 -14.718  0.00  0.00     0.153 A 
ATOM     14  C   UNL d   1       7.833   2.279 -15.986  0.00  0.00     0.208 C 
ATOM     15  N   UNL d   1       9.548   3.451 -14.542  0.00  0.00    -0.283 N 
ATOM     16  C   UNL d   1       8.817   2.432 -17.148  0.00  0.00     0.043 C 
ATOM     17  O   UNL d   1       7.673   0.912 -15.670  0.00  0.00    -0.215 OA
ATOM     18  C   UNL d   1      10.236   2.224 -16.645  0.00  0.00     0.028 C 
ATOM     19  C   UNL d   1      10.561   3.290 -15.604  0.00  0.00     0.111 C 
ATOM     20  C   UNL d   1       9.915   4.172 -13.445  0.00  0.00     0.259 A 
ATOM     21  O   UNL d   1      11.054   4.615 -13.313  0.00  0.00    -0.267 OA
ENDBRANCH   8   9
ENDBRANCH   7   8
ENDBRANCH   1   7
BRANCH   4  22
ATOM     22  C   UNL d   1      10.980   8.352  -6.035  0.00  0.00    -0.022 A 
ATOM     23  C   UNL d   1      11.468   7.778  -4.840  0.00  0.00     0.003 A 
ATOM     24  C   UNL d   1      11.663   8.648  -3.720  0.00  0.00     0.029 A 
ATOM     25  C   UNL d   1      11.860   6.443  -4.505  0.00  0.00     0.007 A 
ATOM     26  C   UNL d   1      11.342  10.001  -3.770  0.00  0.00     0.006 A 
ATOM     27  S   UNL d   1      12.253   7.849  -2.307  0.00  0.00    -0.086 SA
ATOM     28  C   UNL d   1      10.831  10.530  -4.952  0.00  0.00     0.000 A 
ATOM     29  C   UNL d   1      10.668   9.720  -6.077  0.00  0.00    -0.004 A 
ATOM     30  C   UNL d   1      12.266   6.383  -3.194  0.00  0.00     0.035 A 
ENDBRANCH   4  22
TORSDOF 4
