REMARK  9 active torsions:
REMARK  status: ('A' for Active; 'I' for Inactive)
REMARK    1  A    between atoms: O_2  and  C_3 
REMARK    2  A    between atoms: C_8  and  N_9 
REMARK    3  A    between atoms: N_12  and  C_13 
REMARK    4  A    between atoms: C_13  and  C_14 
REMARK    5  A    between atoms: C_14  and  C_15 
REMARK    6  A    between atoms: C_15  and  C_16 
REMARK    7  A    between atoms: C_16  and  O_17 
REMARK    8  A    between atoms: O_17  and  C_18 
REMARK    9  A    between atoms: C_21  and  C_22 
ROOT
ATOM      1  C   UNL d   1       6.642   0.546 -16.279  0.00  0.00     0.149 C 
ENDROOT
BRANCH   1   2
ATOM      2  C   UNL d   1       7.041   1.275 -17.585  0.00  0.00     0.035 C 
BRANCH   2   3
ATOM      3  C   UNL d   1       5.889   1.323 -18.579  0.00  0.00     0.038 C 
BRANCH   3   4
ATOM      4  C   UNL d   1       5.282  -0.023 -18.995  0.00  0.00     0.251 C 
BRANCH   4   5
ATOM      5  N   UNL d   1       6.269  -0.831 -19.698  0.00  0.00     0.141 N 
ATOM      6  C   UNL d   1       5.619  -1.576 -20.780  0.00  0.00     0.274 C 
ATOM      7  C   UNL d   1       6.660  -2.412 -21.567  0.00  0.00     0.137 C 
ATOM      8  N   UNL d   1       7.394  -3.266 -20.658  0.00  0.00    -0.343 N 
ATOM      9  C   UNL d   1       7.955  -2.628 -19.490  0.00  0.00     0.137 C 
ATOM     10  C   UNL d   1       6.899  -1.794 -18.778  0.00  0.00     0.274 C 
BRANCH   8  11
ATOM     11  C   UNL d   1       7.439  -4.681 -20.832  0.00  0.00     0.079 A 
ATOM     12  C   UNL d   1       7.133  -5.569 -19.780  0.00  0.00     0.110 A 
ATOM     13  C   UNL d   1       7.204  -6.966 -20.021  0.00  0.00     0.026 A 
ATOM     14  C   UNL d   1       7.587  -7.457 -21.284  0.00  0.00     0.002 A 
ATOM     15  C   UNL d   1       7.893  -6.565 -22.321  0.00  0.00     0.002 A 
ATOM     16  C   UNL d   1       7.814  -5.174 -22.097  0.00  0.00     0.019 A 
BRANCH  12  17
ATOM     17  O   UNL d   1       6.741  -5.045 -18.560  0.00  0.00    -0.327 OA
ATOM     18  C   UNL d   1       6.382  -5.918 -17.508  0.00  0.00     0.181 C 
ENDBRANCH  12  17
ENDBRANCH   8  11
ENDBRANCH   4   5
ENDBRANCH   3   4
ENDBRANCH   2   3
ENDBRANCH   1   2
BRANCH   1  19
ATOM     19  O   UNL d   1       7.762   0.534 -15.414  0.00  0.00    -0.331 OA
BRANCH  19  20
ATOM     20  C   UNL d   1       8.024   1.676 -14.695  0.00  0.00     0.094 A 
ATOM     21  C   UNL d   1       9.367   1.949 -14.368  0.00  0.00     0.024 A 
ATOM     22  C   UNL d   1       9.687   3.070 -13.566  0.00  0.00     0.004 A 
ATOM     23  C   UNL d   1       8.662   3.906 -13.080  0.00  0.00     0.019 A 
ATOM     24  C   UNL d   1       7.325   3.651 -13.433  0.00  0.00     0.004 A 
ATOM     25  C   UNL d   1       7.005   2.538 -14.224  0.00  0.00     0.024 A 
BRANCH  23  26
ATOM     26  C   UNL d   1       8.960   5.020 -12.196  0.00  0.00     0.101 A 
ATOM     27  N   UNL d   1       9.283   4.840 -10.860  0.00  0.00    -0.227 NA
ATOM     28  C   UNL d   1       9.495   6.067 -10.360  0.00  0.00     0.144 A 
ATOM     29  N   UNL d   1       9.320   7.032 -11.372  0.00  0.00    -0.288 N 
ATOM     30  C   UNL d   1       9.864   6.543  -9.071  0.00  0.00     0.013 A 
ATOM     31  C   UNL d   1       8.946   6.342 -12.508  0.00  0.00     0.101 A 
ATOM     32  C   UNL d   1       9.504   8.367 -11.164  0.00  0.00     0.082 A 
ATOM     33  C   UNL d   1       9.862   8.805  -9.908  0.00  0.00     0.019 A 
ATOM     34  C   UNL d   1      10.040   7.892  -8.854  0.00  0.00     0.000 A 
ATOM     35  C   UNL d   1      10.045   5.596  -7.917  0.00  0.00     0.034 C 
ENDBRANCH  23  26
ENDBRANCH  19  20
ENDBRANCH   1  19
TORSDOF 9
