REMARK  6 active torsions:
REMARK  status: ('A' for Active; 'I' for Inactive)
REMARK    1  A    between atoms: O_2  and  C_3 
REMARK    2  A    between atoms: C_7  and  C_8 
REMARK       I    between atoms: C_8  and  N_10 
REMARK    3  A    between atoms: N_10  and  C_11 
REMARK    4  A    between atoms: C_11  and  C_12 
REMARK    5  A    between atoms: C_12  and  N_13 
REMARK    6  A    between atoms: N_16  and  C_17 
ROOT
ATOM      1  N   UNL d   1       8.538   4.733 -12.577  0.00  0.00     0.143 N 
ATOM      2  C   UNL d   1       9.303   3.622 -13.146  0.00  0.00     0.274 C 
ATOM      3  C   UNL d   1       8.676   3.165 -14.473  0.00  0.00     0.137 C 
ATOM      4  N   UNL d   1       7.270   2.838 -14.289  0.00  0.00    -0.344 N 
ATOM      5  C   UNL d   1       6.473   3.866 -13.620  0.00  0.00     0.137 C 
ATOM      6  C   UNL d   1       7.147   4.322 -12.316  0.00  0.00     0.274 C 
ENDROOT
BRANCH   1   7
ATOM      7  C   UNL d   1       9.201   5.102 -11.342  0.00  0.00     0.277 C 
BRANCH   7   8
ATOM      8  C   UNL d   1       8.703   6.431 -10.822  0.00  0.00     0.164 C 
BRANCH   8   9
ATOM      9  N   UNL d   1       9.549   6.915  -9.745  0.00  0.00    -0.232 NA
ATOM     10  C   UNL d   1       9.460   6.571  -8.447  0.00  0.00     0.275 C 
ATOM     11  O   UNL d   1       8.828   5.586  -8.049  0.00  0.00    -0.266 OA
BRANCH  10  12
ATOM     12  C   UNL d   1      10.203   7.468  -7.488  0.00  0.00     0.059 A 
ATOM     13  C   UNL d   1      10.525   8.791  -7.876  0.00  0.00     0.005 A 
ATOM     14  C   UNL d   1      11.190   9.637  -6.984  0.00  0.00     0.002 A 
ATOM     15  C   UNL d   1      11.519   9.213  -5.695  0.00  0.00     0.024 A 
ATOM     16  C   UNL d   1      11.189   7.901  -5.259  0.00  0.00     0.094 A 
ATOM     17  C   UNL d   1      10.528   7.047  -6.172  0.00  0.00     0.029 A 
BRANCH  16  18
ATOM     18  O   UNL d   1      11.479   7.402  -4.006  0.00  0.00    -0.328 OA
ATOM     19  C   UNL d   1      12.081   8.297  -3.072  0.00  0.00     0.181 C 
ENDBRANCH  16  18
ENDBRANCH  10  12
ENDBRANCH   8   9
ENDBRANCH   7   8
ENDBRANCH   1   7
BRANCH   4  20
ATOM     20  C   UNL d   1       6.714   1.633 -14.751  0.00  0.00     0.068 A 
ATOM     21  C   UNL d   1       6.943   1.098 -16.053  0.00  0.00     0.084 A 
ATOM     22  C   UNL d   1       6.334  -0.113 -16.438  0.00  0.00     0.070 A 
ATOM     23 CL   UNL d   1       7.876   1.929 -17.267  0.00  0.00    -0.080 Cl
ATOM     24  C   UNL d   1       5.477  -0.793 -15.557  0.00  0.00     0.012 A 
ATOM     25 CL   UNL d   1       6.598  -0.772 -18.014  0.00  0.00    -0.081 Cl
ATOM     26  C   UNL d   1       5.226  -0.259 -14.288  0.00  0.00     0.002 A 
ATOM     27  C   UNL d   1       5.842   0.933 -13.880  0.00  0.00     0.018 A 
ENDBRANCH   4  20
TORSDOF 6
