REMARK  12 active torsions:
REMARK  status: ('A' for Active; 'I' for Inactive)
REMARK    1  A    between atoms: C_2  and  C_3 
REMARK    2  A    between atoms: C_3  and  N_4 
REMARK    3  A    between atoms: N_4  and  C_5 
REMARK    4  A    between atoms: N_4  and  C_22 
REMARK    5  A    between atoms: C_5  and  C_6 
REMARK    6  A    between atoms: C_6  and  C_7 
REMARK    7  A    between atoms: C_7  and  C_8 
REMARK    8  A    between atoms: C_8  and  N_9 
REMARK       I    between atoms: N_9  and  C_10 
REMARK    9  A    between atoms: C_10  and  C_12 
REMARK   10  A    between atoms: C_22  and  C_23 
REMARK   11  A    between atoms: C_25  and  C_26 
REMARK   12  A    between atoms: C_32  and  O_33 
ROOT
ATOM      1  N   UNL d   1       6.626   3.879 -12.901  0.00  0.00     0.137 N 
ENDROOT
BRANCH   1   2
ATOM      2  C   UNL d   1       6.369   5.182 -13.451  0.00  0.00     0.250 C 
BRANCH   2   3
ATOM      3  C   UNL d   1       6.007   6.379 -12.522  0.00  0.00     0.035 C 
ATOM      4  C   UNL d   1       6.062   7.755 -13.125  0.00  0.00     0.002 C 
ENDBRANCH   2   3
ENDBRANCH   1   2
BRANCH   1   5
ATOM      5  C   UNL d   1       7.334   4.112 -11.655  0.00  0.00     0.250 C 
BRANCH   5   6
ATOM      6  C   UNL d   1       8.724   4.833 -11.743  0.00  0.00     0.037 C 
BRANCH   6   7
ATOM      7  C   UNL d   1       9.369   5.059 -10.390  0.00  0.00     0.029 C 
BRANCH   7   8
ATOM      8  C   UNL d   1       8.425   5.705  -9.372  0.00  0.00     0.129 C 
BRANCH   8   9
ATOM      9  N   UNL d   1       9.169   6.324  -8.290  0.00  0.00    -0.234 NA
ATOM     10  C   UNL d   1       9.884   7.455  -8.393  0.00  0.00     0.275 C 
ATOM     11  O   UNL d   1      10.070   8.095  -9.427  0.00  0.00    -0.266 OA
BRANCH  10  12
ATOM     12  C   UNL d   1      10.416   7.953  -7.085  0.00  0.00     0.058 A 
ATOM     13  C   UNL d   1      11.053   7.081  -6.183  0.00  0.00     0.005 A 
ATOM     14  C   UNL d   1      11.534   7.578  -4.951  0.00  0.00     0.000 A 
ATOM     15  C   UNL d   1      11.422   8.951  -4.638  0.00  0.00     0.000 A 
ATOM     16  C   UNL d   1      12.209   6.723  -4.083  0.00  0.00     0.000 A 
ATOM     17  C   UNL d   1      10.797   9.819  -5.542  0.00  0.00     0.000 A 
ATOM     18  C   UNL d   1      11.966   9.435  -3.418  0.00  0.00     0.000 A 
ATOM     19  C   UNL d   1      10.271   9.328  -6.769  0.00  0.00     0.005 A 
ATOM     20  C   UNL d   1      12.615   8.553  -2.542  0.00  0.00     0.000 A 
ATOM     21  C   UNL d   1      12.701   7.186  -2.866  0.00  0.00     0.000 A 
ENDBRANCH  10  12
ENDBRANCH   8   9
ENDBRANCH   7   8
ENDBRANCH   6   7
ENDBRANCH   5   6
ENDBRANCH   1   5
BRANCH   1  22
ATOM     22  C   UNL d   1       7.507   3.147 -13.843  0.00  0.00     0.251 C 
BRANCH  22  23
ATOM     23  C   UNL d   1       7.155   1.699 -14.049  0.00  0.00     0.038 A 
ATOM     24  C   UNL d   1       7.779   0.958 -15.207  0.00  0.00     0.026 A 
ATOM     25  C   UNL d   1       8.220   0.653 -13.810  0.00  0.00     0.007 A 
BRANCH  24  26
ATOM     26  C   UNL d   1       8.681   1.688 -16.179  0.00  0.00     0.002 A 
ATOM     27  C   UNL d   1       8.207   1.969 -17.483  0.00  0.00     0.090 A 
ATOM     28  C   UNL d   1       9.039   2.694 -18.376  0.00  0.00     0.026 A 
ATOM     29  C   UNL d   1      10.315   3.138 -17.977  0.00  0.00     0.032 A 
ATOM     30  C   UNL d   1      10.780   2.856 -16.687  0.00  0.00     0.140 A 
ATOM     31  C   UNL d   1       9.975   2.137 -15.804  0.00  0.00     0.027 A 
ATOM     32  F   UNL d   1      12.001   3.267 -16.273  0.00  0.00    -0.204 F 
BRANCH  27  33
ATOM     33  O   UNL d   1       6.929   1.568 -17.810  0.00  0.00    -0.328 OA
ATOM     34  C   UNL d   1       6.679   1.217 -19.164  0.00  0.00     0.181 C 
ENDBRANCH  27  33
ENDBRANCH  24  26
ENDBRANCH  22  23
ENDBRANCH   1  22
TORSDOF 12
