REMARK  0 active torsions:
REMARK  status: ('A' for Active; 'I' for Inactive)
ROOT
ATOM      1  O   UNL d   1      11.059  10.388  -5.428  0.00  0.00    -0.190 OA
ATOM      2  C   UNL d   1      11.374   9.276  -4.705  0.00  0.00     0.131 A 
ATOM      3  C   UNL d   1      11.135   7.994  -5.238  0.00  0.00     0.027 A 
ATOM      4  C   UNL d   1      11.462   6.846  -4.490  0.00  0.00     0.002 A 
ATOM      5  C   UNL d   1      12.022   6.979  -3.203  0.00  0.00     0.000 A 
ATOM      6  C   UNL d   1      12.260   8.260  -2.669  0.00  0.00     0.002 A 
ATOM      7  C   UNL d   1      11.934   9.406  -3.418  0.00  0.00     0.027 A 
ENDROOT
TORSDOF 0
