REMARK  0 active torsions:
REMARK  status: ('A' for Active; 'I' for Inactive)
ROOT
ATOM      1  C   UNL d   1       8.663   6.917  -7.231  0.00  0.00     0.025 C 
ATOM      2  C   UNL d   1       9.377   6.368  -8.222  0.00  0.00     0.115 C 
ATOM      3 CL   UNL d   1       9.075   4.788  -8.847  0.00  0.00    -0.070 Cl
ATOM      4 CL   UNL d   1      10.695   7.168  -8.996  0.00  0.00    -0.070 Cl
ENDROOT
TORSDOF 0
