REMARK  4 active torsions:
REMARK  status: ('A' for Active; 'I' for Inactive)
REMARK    1  A    between atoms: C_8  and  N_9 
REMARK    2  A    between atoms: N_12  and  C_13 
REMARK    3  A    between atoms: C_13  and  C_14 
REMARK    4  A    between atoms: C_18  and  C_19 
ROOT
ATOM      1  N   UNL d   1      11.371   3.118 -15.363  0.00  0.00    -0.343 N 
ATOM      2  C   UNL d   1      11.639   4.451 -14.850  0.00  0.00     0.137 C 
ATOM      3  C   UNL d   1      10.386   5.002 -14.147  0.00  0.00     0.275 C 
ATOM      4  N   UNL d   1       9.972   4.126 -13.050  0.00  0.00     0.145 N 
ATOM      5  C   UNL d   1       9.587   2.859 -13.677  0.00  0.00     0.275 C 
ATOM      6  C   UNL d   1      10.785   2.200 -14.399  0.00  0.00     0.137 C 
ENDROOT
BRANCH   4   7
ATOM      7  C   UNL d   1       8.823   4.655 -12.301  0.00  0.00     0.277 C 
BRANCH   7   8
ATOM      8  C   UNL d   1       9.059   6.013 -11.675  0.00  0.00     0.011 A 
ATOM      9  C   UNL d   1       9.616   6.146 -10.386  0.00  0.00    -0.002 A 
ATOM     10  C   UNL d   1       9.889   7.428  -9.848  0.00  0.00    -0.000 A 
ATOM     11  C   UNL d   1       9.614   8.567 -10.643  0.00  0.00    -0.000 A 
ATOM     12  C   UNL d   1       9.059   8.433 -11.926  0.00  0.00    -0.000 A 
ATOM     13  C   UNL d   1       8.736   7.157 -12.425  0.00  0.00    -0.002 A 
BRANCH  10  14
ATOM     14  C   UNL d   1      10.424   7.589  -8.488  0.00  0.00    -0.000 A 
ATOM     15  C   UNL d   1      11.296   8.656  -8.164  0.00  0.00    -0.000 A 
ATOM     16  C   UNL d   1      11.801   8.804  -6.860  0.00  0.00    -0.000 A 
ATOM     17  C   UNL d   1      11.443   7.881  -5.859  0.00  0.00     0.000 A 
ATOM     18  C   UNL d   1      10.578   6.819  -6.168  0.00  0.00    -0.000 A 
ATOM     19  C   UNL d   1      10.064   6.681  -7.467  0.00  0.00    -0.000 A 
ENDBRANCH  10  14
ENDBRANCH   7   8
ENDBRANCH   4   7
BRANCH   1  20
ATOM     20  C   UNL d   1      11.490   2.794 -16.731  0.00  0.00     0.081 A 
ATOM     21  C   UNL d   1      10.584   1.902 -17.369  0.00  0.00     0.019 A 
ATOM     22  C   UNL d   1      10.732   1.554 -18.737  0.00  0.00     0.003 A 
ATOM     23  C   UNL d   1      11.782   2.097 -19.505  0.00  0.00     0.021 A 
ATOM     24  C   UNL d   1      12.653   2.983 -18.857  0.00  0.00     0.111 A 
ATOM     25  N   UNL d   1      13.767   3.662 -19.327  0.00  0.00    -0.184 NA
ATOM     26  C   UNL d   1      12.525   3.333 -17.532  0.00  0.00     0.138 A 
ATOM     27  C   UNL d   1      14.317   4.414 -18.297  0.00  0.00     0.392 A 
ATOM     28  O   UNL d   1      15.308   5.139 -18.346  0.00  0.00    -0.236 OA
ATOM     29  O   UNL d   1      13.540   4.197 -17.198  0.00  0.00    -0.255 OA
ENDBRANCH   1  20
TORSDOF 4
