REMARK  6 active torsions:
REMARK  status: ('A' for Active; 'I' for Inactive)
REMARK    1  A    between atoms: C_6  and  C_7 
REMARK    2  A    between atoms: C_10  and  S_11 
REMARK    3  A    between atoms: S_11  and  C_12 
REMARK    4  A    between atoms: C_12  and  C_13 
REMARK    5  A    between atoms: C_13  and  N_14 
REMARK    6  A    between atoms: C_21  and  C_22 
ROOT
ATOM      1  C   UNL d   1      11.038   1.169 -19.237  0.00  0.00     0.262 C 
ENDROOT
BRANCH   1   2
ATOM      2  C   UNL d   1      11.314  -0.303 -18.888  0.00  0.00     0.101 C 
BRANCH   2   3
ATOM      3  S   UNL d   1       9.783  -1.163 -18.436  0.00  0.00    -0.073 SA
BRANCH   3   4
ATOM      4  C   UNL d   1       9.442  -0.348 -16.916  0.00  0.00     0.193 A 
ATOM      5  N   UNL d   1      10.388  -0.012 -16.037  0.00  0.00    -0.122 NA
ATOM      6  N   UNL d   1       9.730   0.560 -14.983  0.00  0.00    -0.128 NA
ATOM      7  C   UNL d   1       8.442   0.606 -15.337  0.00  0.00     0.167 A 
ATOM      8  N   UNL d   1       8.197   0.006 -16.527  0.00  0.00    -0.289 N 
ATOM      9  C   UNL d   1       6.918  -0.205 -17.200  0.00  0.00     0.134 C 
BRANCH   7  10
ATOM     10  C   UNL d   1       7.446   1.264 -14.498  0.00  0.00     0.037 A 
ATOM     11  C   UNL d   1       7.579   2.622 -14.076  0.00  0.00     0.021 A 
ATOM     12  C   UNL d   1       8.706   3.414 -14.419  0.00  0.00     0.003 A 
ATOM     13  C   UNL d   1       6.577   3.212 -13.249  0.00  0.00     0.081 A 
ATOM     14  C   UNL d   1       8.805   4.719 -13.911  0.00  0.00     0.015 A 
ATOM     15  C   UNL d   1       7.767   5.201 -13.098  0.00  0.00     0.059 A 
ATOM     16  C   UNL d   1       7.821   6.606 -12.538  0.00  0.00     0.052 C 
ATOM     17  N   UNL d   1       6.673   4.480 -12.794  0.00  0.00    -0.250 NA
ATOM     18  C   UNL d   1       5.459   2.437 -12.880  0.00  0.00     0.019 A 
ATOM     19  C   UNL d   1       5.330   1.102 -13.304  0.00  0.00     0.002 A 
ATOM     20  C   UNL d   1       6.325   0.514 -14.094  0.00  0.00     0.003 A 
ENDBRANCH   7  10
ENDBRANCH   3   4
ENDBRANCH   2   3
ENDBRANCH   1   2
BRANCH   1  21
ATOM     21  N   UNL d   1      12.202   1.794 -19.866  0.00  0.00     0.139 N 
ATOM     22  C   UNL d   1      13.310   2.106 -18.959  0.00  0.00     0.255 C 
ATOM     23  C   UNL d   1      13.053   3.251 -17.957  0.00  0.00     0.061 C 
ATOM     24  C   UNL d   1      13.190   4.647 -18.563  0.00  0.00    -0.026 A 
ATOM     25  C   UNL d   1      12.305   5.055 -19.599  0.00  0.00    -0.023 A 
ATOM     26  C   UNL d   1      14.185   5.556 -18.105  0.00  0.00    -0.002 A 
ATOM     27  C   UNL d   1      11.243   4.115 -20.139  0.00  0.00     0.061 C 
ATOM     28  C   UNL d   1      12.403   6.344 -20.170  0.00  0.00     0.017 A 
ATOM     29  C   UNL d   1      11.839   2.859 -20.800  0.00  0.00     0.255 C 
ATOM     30  C   UNL d   1      13.379   7.250 -19.724  0.00  0.00     0.105 A 
ATOM     31  C   UNL d   1      14.247   6.832 -18.696  0.00  0.00     0.115 A 
ATOM     32  N   UNL d   1      13.691   8.536 -20.109  0.00  0.00    -0.217 NA
ATOM     33  O   UNL d   1      15.108   7.877 -18.419  0.00  0.00    -0.285 OA
ATOM     34  C   UNL d   1      14.714   8.851 -19.300  0.00  0.00     0.256 A 
ATOM     35  C   UNL d   1      15.175   5.203 -17.006  0.00  0.00     0.033 C 
BRANCH  34  36
ATOM     36  C   UNL d   1      15.454  10.146 -19.274  0.00  0.00     0.458 C 
ATOM     37  F   UNL d   1      16.721   9.953 -19.645  0.00  0.00    -0.163 F 
ATOM     38  F   UNL d   1      14.902  11.040 -20.093  0.00  0.00    -0.163 F 
ATOM     39  F   UNL d   1      15.450  10.641 -18.036  0.00  0.00    -0.163 F 
ENDBRANCH  34  36
ENDBRANCH   1  21
TORSDOF 6
