REMARK  2 active torsions:
REMARK  status: ('A' for Active; 'I' for Inactive)
REMARK    1  A    between atoms: C_13  and  C_14 
REMARK    2  A    between atoms: C_14  and  C_15 
ROOT
ATOM      1  C   UNL d   1      11.772   9.986  -7.030  0.00  0.00     0.286 C 
ATOM      2  N   UNL d   1      10.838   9.225  -7.830  0.00  0.00     0.142 N 
ATOM      3  C   UNL d   1      11.371   9.319  -9.171  0.00  0.00     0.255 C 
ATOM      4  C   UNL d   1      10.363   8.771 -10.162  0.00  0.00     0.061 C 
ATOM      5  C   UNL d   1       9.842   7.416  -9.752  0.00  0.00    -0.021 A 
ATOM      6  C   UNL d   1       9.158   6.606 -10.691  0.00  0.00     0.009 A 
ATOM      7  C   UNL d   1       8.609   5.381 -10.301  0.00  0.00     0.083 A 
ATOM      8 CL   UNL d   1       7.766   4.416 -11.466  0.00  0.00    -0.080 Cl
ATOM      9  C   UNL d   1       8.761   4.930  -8.976  0.00  0.00     0.141 A 
ATOM     10  O   UNL d   1       8.269   3.755  -8.513  0.00  0.00    -0.189 OA
ATOM     11  C   UNL d   1       9.452   5.741  -8.065  0.00  0.00     0.026 A 
ATOM     12  C   UNL d   1       9.971   6.984  -8.416  0.00  0.00     0.007 A 
ATOM     13  C   UNL d   1      10.729   7.828  -7.388  0.00  0.00     0.246 C 
ENDROOT
BRANCH  13  14
ATOM     14  C   UNL d   1      10.063   7.755  -5.989  0.00  0.00     0.064 C 
BRANCH  14  15
ATOM     15  C   UNL d   1      11.009   8.043  -4.835  0.00  0.00    -0.020 C 
ATOM     16  C   UNL d   1      11.806   7.019  -4.298  0.00  0.00    -0.004 C 
ATOM     17  C   UNL d   1      12.647   7.317  -3.212  0.00  0.00    -0.000 C 
ATOM     18  C   UNL d   1      12.715   8.621  -2.688  0.00  0.00    -0.000 C 
ATOM     19  C   UNL d   1      11.905   9.632  -3.206  0.00  0.00    -0.000 C 
ATOM     20  C   UNL d   1      10.997   9.305  -4.197  0.00  0.00    -0.004 C 
ENDBRANCH  14  15
ENDBRANCH  13  14
TORSDOF 2
