REMARK  8 active torsions:
REMARK  status: ('A' for Active; 'I' for Inactive)
REMARK    1  A    between atoms: C_6  and  N_7 
REMARK    2  A    between atoms: N_10  and  C_11 
REMARK    3  A    between atoms: C_11  and  C_12 
REMARK    4  A    between atoms: C_12  and  C_13 
REMARK    5  A    between atoms: C_13  and  C_14 
REMARK    6  A    between atoms: C_14  and  N_15 
REMARK       I    between atoms: N_15  and  C_16 
REMARK    7  A    between atoms: C_16  and  C_18 
REMARK    8  A    between atoms: C_21  and  C_22 
ROOT
ATOM      1  C   UNL d   1       9.261   4.451 -12.637  0.00  0.00     0.029 C 
ENDROOT
BRANCH   1   2
ATOM      2  C   UNL d   1       8.720   4.106 -14.028  0.00  0.00     0.037 C 
BRANCH   2   3
ATOM      3  C   UNL d   1       9.314   2.793 -14.581  0.00  0.00     0.251 C 
BRANCH   3   4
ATOM      4  N   UNL d   1       8.701   2.410 -15.852  0.00  0.00     0.141 N 
ATOM      5  C   UNL d   1       7.345   1.899 -15.621  0.00  0.00     0.274 C 
ATOM      6  C   UNL d   1       6.674   1.513 -16.944  0.00  0.00     0.137 C 
ATOM      7  N   UNL d   1       7.484   0.537 -17.665  0.00  0.00    -0.344 N 
ATOM      8  C   UNL d   1       8.882   0.935 -17.836  0.00  0.00     0.137 C 
ATOM      9  C   UNL d   1       9.492   1.342 -16.476  0.00  0.00     0.274 C 
BRANCH   7  10
ATOM     10  C   UNL d   1       6.942  -0.682 -18.128  0.00  0.00     0.056 A 
ATOM     11  C   UNL d   1       7.769  -1.788 -18.450  0.00  0.00     0.017 A 
ATOM     12  C   UNL d   1       7.211  -3.009 -18.886  0.00  0.00     0.001 A 
ATOM     13  C   UNL d   1       5.818  -3.153 -19.004  0.00  0.00    -0.004 A 
ATOM     14  C   UNL d   1       4.981  -2.064 -18.692  0.00  0.00    -0.020 A 
ATOM     15  C   UNL d   1       3.480  -2.185 -18.800  0.00  0.00     0.031 C 
ATOM     16  C   UNL d   1       5.539  -0.840 -18.274  0.00  0.00     0.013 A 
ENDBRANCH   7  10
ENDBRANCH   3   4
ENDBRANCH   2   3
ENDBRANCH   1   2
BRANCH   1  17
ATOM     17  C   UNL d   1       8.599   5.706 -12.050  0.00  0.00     0.129 C 
BRANCH  17  18
ATOM     18  N   UNL d   1       9.217   6.062 -10.779  0.00  0.00    -0.234 NA
ATOM     19  C   UNL d   1       9.731   7.264 -10.464  0.00  0.00     0.275 C 
ATOM     20  O   UNL d   1       9.857   8.190 -11.264  0.00  0.00    -0.266 OA
BRANCH  19  21
ATOM     21  C   UNL d   1      10.192   7.414  -9.047  0.00  0.00     0.058 A 
ATOM     22  C   UNL d   1       9.517   6.755  -7.996  0.00  0.00     0.005 A 
ATOM     23  C   UNL d   1       9.942   6.927  -6.667  0.00  0.00     0.000 A 
ATOM     24  C   UNL d   1      11.022   7.778  -6.364  0.00  0.00     0.001 A 
ATOM     25  C   UNL d   1      11.681   8.457  -7.413  0.00  0.00     0.000 A 
ATOM     26  C   UNL d   1      11.265   8.280  -8.746  0.00  0.00     0.005 A 
BRANCH  24  27
ATOM     27  C   UNL d   1      11.457   7.926  -4.976  0.00  0.00     0.007 A 
ATOM     28  C   UNL d   1      11.540   6.930  -4.035  0.00  0.00     0.035 A 
ATOM     29  S   UNL d   1      12.131   7.509  -2.503  0.00  0.00    -0.086 SA
ATOM     30  C   UNL d   1      12.246   9.128  -3.130  0.00  0.00     0.035 A 
ATOM     31  C   UNL d   1      11.872   9.188  -4.448  0.00  0.00     0.007 A 
ENDBRANCH  24  27
ENDBRANCH  19  21
ENDBRANCH  17  18
ENDBRANCH   1  17
TORSDOF 8
