REMARK  7 active torsions:
REMARK  status: ('A' for Active; 'I' for Inactive)
REMARK    1  A    between atoms: S_2  and  N_4 
REMARK    2  A    between atoms: S_2  and  N_28 
REMARK    3  A    between atoms: N_4  and  C_5 
REMARK    4  A    between atoms: C_8  and  C_9 
REMARK    5  A    between atoms: C_9  and  C_10 
REMARK    6  A    between atoms: C_10  and  N_11 
REMARK    7  A    between atoms: C_14  and  C_15 
ROOT
ATOM      1  C   UNL d   1       9.112   4.906 -10.688  0.00  0.00     0.035 C 
ENDROOT
BRANCH   1   2
ATOM      2  C   UNL d   1       9.073   6.151  -9.781  0.00  0.00     0.002 C 
ATOM      3  C   UNL d   1       8.651   5.808  -8.329  0.00  0.00     0.002 C 
ATOM      4  C   UNL d   1       8.665   7.019  -7.362  0.00  0.00     0.025 C 
ATOM      5  C   UNL d   1      10.039   7.686  -7.382  0.00  0.00     0.117 C 
ATOM      6  C   UNL d   1      10.406   8.127  -8.817  0.00  0.00     0.025 C 
ATOM      7  C   UNL d   1      10.406   6.928  -9.764  0.00  0.00     0.002 C 
BRANCH   5   8
ATOM      8  N   UNL d   1      10.002   8.835  -6.499  0.00  0.00    -0.173 NA
BRANCH   8   9
ATOM      9  S   UNL d   1      11.409   9.533  -5.884  0.00  0.00     0.340 S 
ATOM     10  O   UNL d   1      12.548   9.228  -6.758  0.00  0.00    -0.181 OA
ATOM     11  O   UNL d   1      11.066  10.922  -5.590  0.00  0.00    -0.181 OA
BRANCH   9  12
ATOM     12  N   UNL d   1      11.489   8.728  -4.371  0.00  0.00    -0.255 N 
ATOM     13  C   UNL d   1      11.562   9.507  -3.129  0.00  0.00     0.147 C 
ATOM     14  C   UNL d   1      12.671   9.088  -2.215  0.00  0.00     0.167 C 
ATOM     15  O   UNL d   1      12.576   7.705  -1.994  0.00  0.00    -0.350 OA
ATOM     16  C   UNL d   1      12.771   6.993  -3.199  0.00  0.00     0.167 C 
ATOM     17  C   UNL d   1      11.639   7.261  -4.200  0.00  0.00     0.147 C 
ENDBRANCH   9  12
ENDBRANCH   8   9
ENDBRANCH   5   8
ENDBRANCH   1   2
BRANCH   1  18
ATOM     18  C   UNL d   1       9.468   5.306 -12.129  0.00  0.00     0.250 C 
BRANCH  18  19
ATOM     19  N   UNL d   1       9.178   4.233 -13.068  0.00  0.00     0.137 N 
ATOM     20  C   UNL d   1       9.194   4.779 -14.420  0.00  0.00     0.251 C 
ATOM     21  C   UNL d   1       8.793   3.657 -15.379  0.00  0.00     0.040 C 
ATOM     22  C   UNL d   1       9.719   2.455 -15.367  0.00  0.00     0.028 C 
ATOM     23  C   UNL d   1       9.850   2.005 -13.935  0.00  0.00     0.040 C 
ATOM     24  C   UNL d   1      10.187   3.190 -13.006  0.00  0.00     0.251 C 
BRANCH  22  25
ATOM     25  C   UNL d   1       9.194   1.323 -16.248  0.00  0.00     0.002 A 
ATOM     26  C   UNL d   1      10.057   0.646 -17.127  0.00  0.00     0.115 A 
ATOM     27  C   UNL d   1       9.612  -0.372 -17.943  0.00  0.00     0.119 A 
ATOM     28  O   UNL d   1      11.390   0.833 -17.325  0.00  0.00    -0.300 OA
ATOM     29  C   UNL d   1       8.265  -0.784 -17.953  0.00  0.00     0.026 A 
ATOM     30  O   UNL d   1      10.650  -0.864 -18.670  0.00  0.00    -0.300 OA
ATOM     31  C   UNL d   1       7.375  -0.129 -17.072  0.00  0.00     0.002 A 
ATOM     32  C   UNL d   1       7.841   0.900 -16.213  0.00  0.00    -0.002 A 
ATOM     33  C   UNL d   1      11.767  -0.095 -18.309  0.00  0.00     0.304 A 
ENDBRANCH  22  25
ENDBRANCH  18  19
ENDBRANCH   1  18
TORSDOF 7
