REMARK  8 active torsions:
REMARK  status: ('A' for Active; 'I' for Inactive)
REMARK    1  A    between atoms: C_2  and  C_3 
REMARK    2  A    between atoms: C_3  and  C_5 
REMARK    3  A    between atoms: C_5  and  C_6 
REMARK       I    between atoms: C_6  and  N_8 
REMARK    4  A    between atoms: N_8  and  C_9 
REMARK    5  A    between atoms: C_12  and  C_13 
REMARK    6  A    between atoms: C_13  and  C_14 
REMARK    7  A    between atoms: C_14  and  N_15 
REMARK    8  A    between atoms: C_18  and  C_19 
ROOT
ATOM      1  C   UNL d   1       8.477   5.049 -10.732  0.00  0.00     0.250 C 
ENDROOT
BRANCH   1   2
ATOM      2  C   UNL d   1       8.699   5.526 -12.179  0.00  0.00     0.035 C 
BRANCH   2   3
ATOM      3  C   UNL d   1       8.079   4.596 -13.247  0.00  0.00     0.002 C 
ATOM      4  C   UNL d   1       8.993   3.388 -13.545  0.00  0.00     0.002 C 
ATOM      5  C   UNL d   1       8.366   2.443 -14.583  0.00  0.00     0.024 C 
ATOM      6  C   UNL d   1       6.953   1.996 -14.167  0.00  0.00     0.106 C 
ATOM      7  C   UNL d   1       6.036   3.207 -13.918  0.00  0.00     0.024 C 
ATOM      8  C   UNL d   1       6.651   4.140 -12.867  0.00  0.00     0.002 C 
BRANCH   6   9
ATOM      9  N   UNL d   1       6.379   1.145 -15.193  0.00  0.00    -0.240 NA
ATOM     10  C   UNL d   1       5.808  -0.051 -14.974  0.00  0.00     0.254 C 
ATOM     11  O   UNL d   1       5.940  -0.696 -13.936  0.00  0.00    -0.271 OA
BRANCH  10  12
ATOM     12  C   UNL d   1       4.869  -0.553 -16.067  0.00  0.00     0.122 C 
BRANCH  12  13
ATOM     13  C   UNL d   1       5.332  -1.866 -16.724  0.00  0.00     0.162 C 
ATOM     14  O   UNL d   1       4.224  -2.412 -17.426  0.00  0.00    -0.223 OA
BRANCH  13  15
ATOM     15  C   UNL d   1       6.503  -1.611 -17.702  0.00  0.00     0.034 C 
ATOM     16  C   UNL d   1       6.968  -2.870 -18.440  0.00  0.00     0.003 C 
ENDBRANCH  13  15
ENDBRANCH  12  13
ENDBRANCH  10  12
ENDBRANCH   6   9
ENDBRANCH   2   3
ENDBRANCH   1   2
BRANCH   1  17
ATOM     17  N   UNL d   1       8.904   6.003  -9.725  0.00  0.00     0.137 N 
ATOM     18  C   UNL d   1       8.536   5.490  -8.404  0.00  0.00     0.251 C 
ATOM     19  C   UNL d   1       8.874   6.533  -7.332  0.00  0.00     0.040 C 
ATOM     20  C   UNL d   1      10.374   6.876  -7.362  0.00  0.00     0.028 C 
ATOM     21  C   UNL d   1      10.772   7.283  -8.782  0.00  0.00     0.040 C 
ATOM     22  C   UNL d   1      10.337   6.222  -9.789  0.00  0.00     0.251 C 
BRANCH  20  23
ATOM     23  C   UNL d   1      10.714   7.977  -6.376  0.00  0.00     0.004 A 
ATOM     24  C   UNL d   1      11.262   7.845  -5.068  0.00  0.00     0.021 A 
ATOM     25  C   UNL d   1      11.387   9.160  -4.561  0.00  0.00     0.100 A 
ATOM     26  C   UNL d   1      11.660   6.789  -4.222  0.00  0.00     0.002 A 
ATOM     27  O   UNL d   1      10.944  10.059  -5.503  0.00  0.00    -0.305 OA
ATOM     28  C   UNL d   1      11.868   9.444  -3.271  0.00  0.00     0.025 A 
ATOM     29  C   UNL d   1      10.550   9.320  -6.580  0.00  0.00     0.118 A 
ATOM     30  C   UNL d   1      12.268   8.374  -2.454  0.00  0.00     0.002 A 
ATOM     31  C   UNL d   1      12.163   7.048  -2.927  0.00  0.00     0.000 A 
ENDBRANCH  20  23
ENDBRANCH   1  17
TORSDOF 8
