REMARK  2 active torsions:
REMARK  status: ('A' for Active; 'I' for Inactive)
REMARK    1  A    between atoms: C_2  and  N_3 
REMARK    2  A    between atoms: C_6  and  C_7 
ROOT
ATOM      1  C   UNL d   1       8.839   1.582 -16.439  0.00  0.00    -0.002 C 
ATOM      2  C   UNL d   1       8.940   2.376 -15.348  0.00  0.00     0.002 C 
ATOM      3  C   UNL d   1       7.885   2.748 -14.400  0.00  0.00     0.023 A 
ATOM      4  C   UNL d   1       7.969   4.003 -13.759  0.00  0.00     0.002 A 
ATOM      5  C   UNL d   1       6.962   4.425 -12.871  0.00  0.00     0.000 A 
ATOM      6  C   UNL d   1       5.857   3.594 -12.613  0.00  0.00     0.002 A 
ATOM      7  C   UNL d   1       5.771   2.337 -13.240  0.00  0.00     0.025 A 
ATOM      8  C   UNL d   1       6.772   1.918 -14.136  0.00  0.00     0.100 A 
ATOM      9  O   UNL d   1       6.694   0.659 -14.665  0.00  0.00    -0.307 OA
ATOM     10  C   UNL d   1       6.552   0.555 -16.020  0.00  0.00     0.100 A 
ATOM     11  C   UNL d   1       5.380  -0.051 -16.519  0.00  0.00     0.025 A 
ATOM     12  C   UNL d   1       5.206  -0.252 -17.898  0.00  0.00     0.002 A 
ATOM     13  C   UNL d   1       6.214   0.147 -18.788  0.00  0.00     0.000 A 
ATOM     14  C   UNL d   1       7.384   0.747 -18.295  0.00  0.00     0.002 A 
ATOM     15  C   UNL d   1       7.574   0.966 -16.908  0.00  0.00     0.022 A 
ENDROOT
BRANCH   1  16
ATOM     16  C   UNL d   1      10.030   1.346 -17.237  0.00  0.00    -0.022 C 
ATOM     17  C   UNL d   1      10.759   2.352 -17.757  0.00  0.00     0.005 C 
ATOM     18  C   UNL d   1      11.977   2.139 -18.643  0.00  0.00     0.276 C 
ATOM     19  N   UNL d   1      12.087   0.756 -19.131  0.00  0.00     0.142 N 
ATOM     20  C   UNL d   1      11.880  -0.188 -18.032  0.00  0.00     0.255 C 
ATOM     21  C   UNL d   1      10.445  -0.089 -17.510  0.00  0.00     0.061 C 
BRANCH  19  22
ATOM     22  C   UNL d   1      13.400   0.550 -19.739  0.00  0.00     0.251 C 
ATOM     23  C   UNL d   1      13.419  -0.704 -20.634  0.00  0.00     0.037 C 
ENDBRANCH  19  22
ENDBRANCH   1  16
TORSDOF 2
