REMARK  15 active torsions:
REMARK  status: ('A' for Active; 'I' for Inactive)
REMARK       I    between atoms: C_2  and  N_3 
REMARK    1  A    between atoms: C_2  and  C_24 
REMARK    2  A    between atoms: N_3  and  C_4 
REMARK    3  A    between atoms: C_4  and  C_5 
REMARK    4  A    between atoms: C_6  and  C_7 
REMARK    5  A    between atoms: C_7  and  N_8 
REMARK    6  A    between atoms: N_11  and  C_12 
REMARK    7  A    between atoms: C_17  and  O_18 
REMARK    8  A    between atoms: O_18  and  C_19 
REMARK    9  A    between atoms: C_19  and  C_20 
REMARK   10  A    between atoms: C_27  and  O_28 
REMARK   11  A    between atoms: O_28  and  C_29 
REMARK   12  A    between atoms: C_29  and  C_30 
REMARK   13  A    between atoms: C_30  and  O_31 
REMARK   14  A    between atoms: O_31  and  C_32 
REMARK   15  A    between atoms: C_32  and  C_33 
ROOT
ATOM      1  C   UNL d   1       8.131   4.684 -12.765  0.00  0.00    -0.003 C 
ATOM      2  C   UNL d   1       8.958   3.688 -13.125  0.00  0.00     0.006 C 
ENDROOT
BRANCH   1   3
ATOM      3  C   UNL d   1       7.613   4.923 -11.364  0.00  0.00     0.155 C 
BRANCH   3   4
ATOM      4  N   UNL d   1       8.457   5.861 -10.643  0.00  0.00    -0.229 NA
ATOM      5  C   UNL d   1       9.214   5.543  -9.588  0.00  0.00     0.275 C 
ATOM      6  O   UNL d   1       9.384   4.393  -9.178  0.00  0.00    -0.266 OA
BRANCH   5   7
ATOM      7  C   UNL d   1       9.790   6.705  -8.852  0.00  0.00     0.058 A 
ATOM      8  C   UNL d   1      10.479   7.728  -9.538  0.00  0.00     0.007 A 
ATOM      9  C   UNL d   1      11.028   8.807  -8.823  0.00  0.00     0.024 A 
ATOM     10  C   UNL d   1      10.870   8.907  -7.424  0.00  0.00     0.094 A 
ATOM     11  C   UNL d   1      10.161   7.883  -6.742  0.00  0.00     0.024 A 
ATOM     12  C   UNL d   1       9.652   6.782  -7.452  0.00  0.00     0.007 A 
BRANCH  10  13
ATOM     13  O   UNL d   1      11.412  10.019  -6.815  0.00  0.00    -0.328 OA
BRANCH  13  14
ATOM     14  C   UNL d   1      11.132  10.289  -5.449  0.00  0.00     0.181 C 
BRANCH  14  15
ATOM     15  C   UNL d   1      12.035   9.427  -4.551  0.00  0.00     0.175 C 
BRANCH  15  16
ATOM     16  O   UNL d   1      11.624   9.544  -3.199  0.00  0.00    -0.348 OA
BRANCH  16  17
ATOM     17  C   UNL d   1      12.401   8.757  -2.308  0.00  0.00     0.180 C 
BRANCH  17  18
ATOM     18  C   UNL d   1      12.034   7.262  -2.336  0.00  0.00     0.225 C 
ATOM     19  F   UNL d   1      12.266   6.685  -3.513  0.00  0.00    -0.232 F 
ENDBRANCH  17  18
ENDBRANCH  16  17
ENDBRANCH  15  16
ENDBRANCH  14  15
ENDBRANCH  13  14
ENDBRANCH  10  13
ENDBRANCH   5   7
ENDBRANCH   3   4
ENDBRANCH   1   3
BRANCH   2  20
ATOM     20  C   UNL d   1       9.410   3.446 -14.552  0.00  0.00     0.276 C 
BRANCH  20  21
ATOM     21  N   UNL d   1       8.985   2.145 -15.073  0.00  0.00     0.145 N 
ATOM     22  C   UNL d   1       7.531   1.955 -14.951  0.00  0.00     0.275 C 
ATOM     23  C   UNL d   1       7.102   0.578 -15.499  0.00  0.00     0.137 C 
ATOM     24  N   UNL d   1       7.566   0.425 -16.872  0.00  0.00    -0.343 N 
ATOM     25  C   UNL d   1       8.990   0.676 -17.065  0.00  0.00     0.137 C 
ATOM     26  C   UNL d   1       9.363   2.059 -16.489  0.00  0.00     0.275 C 
BRANCH  24  27
ATOM     27  C   UNL d   1       6.686   0.122 -17.923  0.00  0.00     0.079 A 
ATOM     28  C   UNL d   1       6.744   0.826 -19.158  0.00  0.00     0.110 A 
ATOM     29  C   UNL d   1       5.864   0.454 -20.210  0.00  0.00     0.026 A 
ATOM     30  C   UNL d   1       4.930  -0.579 -20.028  0.00  0.00     0.002 A 
ATOM     31  C   UNL d   1       4.857  -1.262 -18.805  0.00  0.00     0.002 A 
ATOM     32  C   UNL d   1       5.735  -0.912 -17.758  0.00  0.00     0.019 A 
BRANCH  28  33
ATOM     33  O   UNL d   1       7.620   1.883 -19.266  0.00  0.00    -0.326 OA
BRANCH  33  34
ATOM     34  C   UNL d   1       7.950   2.386 -20.554  0.00  0.00     0.187 C 
BRANCH  34  35
ATOM     35  C   UNL d   1       8.982   3.505 -20.379  0.00  0.00     0.226 C 
ATOM     36  F   UNL d   1      10.156   3.018 -19.978  0.00  0.00    -0.232 F 
ENDBRANCH  34  35
ENDBRANCH  33  34
ENDBRANCH  28  33
ENDBRANCH  24  27
ENDBRANCH  20  21
ENDBRANCH   2  20
TORSDOF 15
