REMARK  8 active torsions:
REMARK  status: ('A' for Active; 'I' for Inactive)
REMARK    1  A    between atoms: C_2  and  C_3 
REMARK    2  A    between atoms: C_3  and  N_4 
REMARK    3  A    between atoms: N_4  and  C_5 
REMARK       I    between atoms: N_4  and  C_24 
REMARK    4  A    between atoms: C_5  and  C_6 
REMARK    5  A    between atoms: C_6  and  C_7 
REMARK    6  A    between atoms: C_7  and  N_8 
REMARK    7  A    between atoms: C_11  and  C_12 
REMARK    8  A    between atoms: C_24  and  C_26 
ROOT
ATOM      1  N   UNL d   1       8.674   2.392 -15.505  0.00  0.00     0.137 N 
ATOM      2  C   UNL d   1       8.353   2.389 -16.946  0.00  0.00     0.251 C 
ATOM      3  C   UNL d   1       7.775   1.083 -17.430  0.00  0.00     0.041 C 
ATOM      4  C   UNL d   1       8.680  -0.100 -17.029  0.00  0.00     0.047 C 
ATOM      5  C   UNL d   1       8.917  -0.072 -15.505  0.00  0.00     0.041 C 
ATOM      6  C   UNL d   1       9.491   1.254 -15.027  0.00  0.00     0.251 C 
ENDROOT
BRANCH   1   7
ATOM      7  C   UNL d   1       9.305   3.652 -15.075  0.00  0.00     0.252 C 
BRANCH   7   8
ATOM      8  C   UNL d   1       8.957   3.978 -13.643  0.00  0.00     0.060 C 
BRANCH   8   9
ATOM      9  C   UNL d   1       9.704   5.170 -13.028  0.00  0.00     0.106 C 
BRANCH   9  10
ATOM     10  N   UNL d   1       9.023   5.840 -11.899  0.00  0.00    -0.317 N 
ATOM     11  C   UNL d   1       9.315   5.562 -10.580  0.00  0.00     0.257 C 
ATOM     12  O   UNL d   1       9.485   4.368 -10.157  0.00  0.00    -0.267 OA
BRANCH  10  13
ATOM     13  C   UNL d   1       8.027   6.833 -12.209  0.00  0.00     0.104 C 
BRANCH  13  14
ATOM     14  C   UNL d   1       6.572   6.370 -11.906  0.00  0.00     0.024 C 
ATOM     15  C   UNL d   1       6.173   5.023 -12.492  0.00  0.00     0.002 C 
ENDBRANCH  13  14
ENDBRANCH  10  13
BRANCH  11  16
ATOM     16  C   UNL d   1       9.545   6.728  -9.653  0.00  0.00     0.056 A 
ATOM     17  C   UNL d   1       9.068   6.652  -8.324  0.00  0.00     0.005 A 
ATOM     18  C   UNL d   1       9.269   7.752  -7.461  0.00  0.00     0.000 A 
ATOM     19  C   UNL d   1       9.968   8.884  -7.917  0.00  0.00     0.000 A 
ATOM     20  C   UNL d   1      10.475   8.924  -9.228  0.00  0.00     0.000 A 
ATOM     21  C   UNL d   1      10.275   7.829 -10.084  0.00  0.00     0.005 A 
ENDBRANCH  11  16
ENDBRANCH   9  10
ENDBRANCH   8   9
ENDBRANCH   7   8
ENDBRANCH   1   7
BRANCH   4  22
ATOM     22  C   UNL d   1       9.987  -0.133 -17.807  0.00  0.00     0.087 A 
ATOM     23  C   UNL d   1      11.068   0.796 -17.938  0.00  0.00     0.041 A 
ATOM     24  C   UNL d   1      12.029   0.280 -18.798  0.00  0.00     0.129 A 
ATOM     25  C   UNL d   1      11.336   2.076 -17.386  0.00  0.00     0.006 A 
ATOM     26  O   UNL d   1      11.537  -0.963 -19.162  0.00  0.00    -0.211 OA
ATOM     27  C   UNL d   1      13.193   0.998 -19.112  0.00  0.00     0.057 A 
ATOM     28  N   UNL d   1      10.278  -1.189 -18.539  0.00  0.00    -0.131 NA
ATOM     29  C   UNL d   1      13.400   2.292 -18.559  0.00  0.00     0.142 A 
ATOM     30  F   UNL d   1      14.506   3.019 -18.817  0.00  0.00    -0.204 F 
ATOM     31  C   UNL d   1      12.456   2.837 -17.693  0.00  0.00     0.030 A 
ENDBRANCH   4  22
TORSDOF 8
