REMARK  8 active torsions:
REMARK  status: ('A' for Active; 'I' for Inactive)
REMARK       I    between atoms: C_2  and  N_4 
REMARK    1  A    between atoms: N_4  and  C_5 
REMARK    2  A    between atoms: C_9  and  O_10 
REMARK    3  A    between atoms: O_10  and  C_11 
REMARK    4  A    between atoms: C_11  and  C_12 
REMARK    5  A    between atoms: C_12  and  N_13 
REMARK    6  A    between atoms: N_13  and  C_14 
REMARK    7  A    between atoms: C_14  and  C_15 
REMARK       I    between atoms: N_19  and  C_20 
REMARK    8  A    between atoms: C_20  and  C_22 
ROOT
ATOM      1  C   UNL d   1       9.409   6.372  -8.963  0.00  0.00     0.172 C 
ATOM      2  F   UNL d   1       8.152   6.073  -8.657  0.00  0.00    -0.238 F 
ATOM      3  C   UNL d   1      10.051   6.140  -7.620  0.00  0.00     0.059 C 
ATOM      4  C   UNL d   1       9.650   7.170  -6.542  0.00  0.00     0.107 C 
ATOM      5  N   UNL d   1      10.127   8.482  -7.067  0.00  0.00    -0.317 N 
ATOM      6  C   UNL d   1      11.011   9.305  -6.454  0.00  0.00     0.257 C 
ATOM      7  O   UNL d   1      11.462  10.363  -6.903  0.00  0.00    -0.267 OA
ATOM      8  C   UNL d   1       9.441   8.855  -8.316  0.00  0.00     0.107 C 
ATOM      9  C   UNL d   1       9.685   7.813  -9.433  0.00  0.00     0.059 C 
ENDROOT
BRANCH   1  10
ATOM     10  C   UNL d   1       9.702   5.327 -10.019  0.00  0.00     0.323 C 
BRANCH  10  11
ATOM     11  N   UNL d   1       8.707   5.329 -11.077  0.00  0.00     0.345 N 
BRANCH  11  12
ATOM     12  C   UNL d   1       9.127   4.433 -12.133  0.00  0.00     0.323 C 
BRANCH  12  13
ATOM     13  C   UNL d   1       8.088   4.457 -13.270  0.00  0.00     0.187 C 
BRANCH  13  14
ATOM     14  O   UNL d   1       7.947   3.156 -13.832  0.00  0.00    -0.329 OA
BRANCH  14  15
ATOM     15  C   UNL d   1       8.983   2.624 -14.568  0.00  0.00     0.096 A 
ATOM     16  C   UNL d   1       8.928   1.248 -14.859  0.00  0.00     0.024 A 
ATOM     17  C   UNL d   1       9.930   0.645 -15.643  0.00  0.00     0.004 A 
ATOM     18  C   UNL d   1      11.001   1.415 -16.137  0.00  0.00     0.019 A 
ATOM     19  C   UNL d   1      11.087   2.790 -15.838  0.00  0.00     0.086 A 
ATOM     20  C   UNL d   1      10.068   3.387 -15.061  0.00  0.00     0.043 A 
BRANCH  19  21
ATOM     21  N   UNL d   1      12.194   3.513 -16.367  0.00  0.00    -0.212 NA
ATOM     22  C   UNL d   1      12.687   4.712 -15.998  0.00  0.00     0.256 C 
ATOM     23  C   UNL d   1      13.965   5.151 -16.700  0.00  0.00     0.100 C 
ATOM     24  O   UNL d   1      12.200   5.453 -15.146  0.00  0.00    -0.270 OA
ENDBRANCH  19  21
ENDBRANCH  14  15
ENDBRANCH  13  14
ENDBRANCH  12  13
ENDBRANCH  11  12
ENDBRANCH  10  11
ENDBRANCH   1  10
BRANCH   6  25
ATOM     25  C   UNL d   1      11.408   9.032  -5.061  0.00  0.00     0.057 A 
ATOM     26  C   UNL d   1      11.864   7.774  -4.626  0.00  0.00     0.018 A 
ATOM     27  C   UNL d   1      12.252   7.606  -3.318  0.00  0.00     0.085 A 
ATOM     28  C   UNL d   1      12.261   8.657  -2.416  0.00  0.00     0.151 A 
ATOM     29 CL   UNL d   1      12.674   6.100  -2.672  0.00  0.00    -0.080 Cl
ATOM     30  C   UNL d   1      11.828   9.916  -2.844  0.00  0.00     0.031 A 
ATOM     31  F   UNL d   1      12.629   8.408  -1.158  0.00  0.00    -0.203 F 
ATOM     32  C   UNL d   1      11.378  10.089  -4.149  0.00  0.00     0.007 A 
ENDBRANCH   6  25
TORSDOF 8
