REMARK  8 active torsions:
REMARK  status: ('A' for Active; 'I' for Inactive)
REMARK       I    between atoms: C_2  and  N_3 
REMARK    1  A    between atoms: C_2  and  C_23 
REMARK    2  A    between atoms: N_3  and  C_4 
REMARK    3  A    between atoms: C_4  and  C_5 
REMARK    4  A    between atoms: C_5  and  C_6 
REMARK    5  A    between atoms: C_6  and  C_8 
REMARK    6  A    between atoms: C_8  and  N_9 
REMARK    7  A    between atoms: N_12  and  C_13 
REMARK    8  A    between atoms: C_26  and  C_27 
ROOT
ATOM      1  C   UNL d   1       8.015   4.718 -12.009  0.00  0.00     0.061 C 
ENDROOT
BRANCH   1   2
ATOM      2  C   UNL d   1       8.774   6.057 -12.082  0.00  0.00     0.132 C 
BRANCH   2   3
ATOM      3  N   UNL d   1       9.431   6.327 -10.811  0.00  0.00    -0.234 NA
ATOM      4  C   UNL d   1       9.859   7.535 -10.414  0.00  0.00     0.275 C 
ATOM      5  O   UNL d   1       9.871   8.524 -11.142  0.00  0.00    -0.266 OA
BRANCH   4   6
ATOM      6  C   UNL d   1      10.294   7.616  -8.981  0.00  0.00     0.058 A 
ATOM      7  C   UNL d   1       9.619   6.880  -7.979  0.00  0.00     0.005 A 
ATOM      8  C   UNL d   1      10.014   6.984  -6.634  0.00  0.00     0.002 A 
ATOM      9  C   UNL d   1      11.061   7.847  -6.252  0.00  0.00     0.018 A 
ATOM     10  C   UNL d   1      11.713   8.601  -7.254  0.00  0.00     0.002 A 
ATOM     11  C   UNL d   1      11.331   8.492  -8.605  0.00  0.00     0.005 A 
BRANCH   9  12
ATOM     12  C   UNL d   1      11.469   7.950  -4.840  0.00  0.00     0.081 A 
ATOM     13  N   UNL d   1      11.680   9.205  -4.379  0.00  0.00    -0.244 NA
ATOM     14  C   UNL d   1      12.065   9.364  -3.100  0.00  0.00     0.099 A 
ATOM     15  C   UNL d   1      12.261   8.292  -2.212  0.00  0.00     0.021 A 
ATOM     16  C   UNL d   1      12.039   6.984  -2.681  0.00  0.00     0.003 A 
ATOM     17  C   UNL d   1      11.642   6.812  -4.020  0.00  0.00     0.019 A 
ENDBRANCH   9  12
ENDBRANCH   4   6
ENDBRANCH   2   3
ENDBRANCH   1   2
BRANCH   1  18
ATOM     18  C   UNL d   1       7.084   4.487 -13.213  0.00  0.00     0.188 C 
ATOM     19  O   UNL d   1       5.777   4.880 -12.848  0.00  0.00    -0.221 OA
BRANCH  18  20
ATOM     20  C   UNL d   1       7.017   3.026 -13.695  0.00  0.00     0.283 C 
BRANCH  20  21
ATOM     21  N   UNL d   1       8.297   2.450 -14.136  0.00  0.00     0.144 N 
ATOM     22  C   UNL d   1       8.899   3.168 -15.268  0.00  0.00     0.274 C 
ATOM     23  C   UNL d   1      10.256   2.596 -15.687  0.00  0.00     0.137 C 
ATOM     24  N   UNL d   1      10.114   1.170 -15.959  0.00  0.00    -0.344 N 
ATOM     25  C   UNL d   1       9.463   0.378 -14.921  0.00  0.00     0.137 C 
ATOM     26  C   UNL d   1       8.134   1.038 -14.490  0.00  0.00     0.274 C 
BRANCH  24  27
ATOM     27  C   UNL d   1      10.474   0.641 -17.205  0.00  0.00     0.068 A 
ATOM     28  C   UNL d   1       9.539   0.034 -18.087  0.00  0.00     0.084 A 
ATOM     29  C   UNL d   1       9.981  -0.489 -19.324  0.00  0.00     0.070 A 
ATOM     30 CL   UNL d   1       7.847  -0.033 -17.721  0.00  0.00    -0.080 Cl
ATOM     31  C   UNL d   1      11.337  -0.409 -19.683  0.00  0.00     0.012 A 
ATOM     32 CL   UNL d   1       8.868  -1.212 -20.425  0.00  0.00    -0.081 Cl
ATOM     33  C   UNL d   1      12.261   0.208 -18.824  0.00  0.00     0.002 A 
ATOM     34  C   UNL d   1      11.827   0.741 -17.597  0.00  0.00     0.018 A 
ENDBRANCH  24  27
ENDBRANCH  20  21
ENDBRANCH  18  20
ENDBRANCH   1  18
TORSDOF 8
