REMARK  7 active torsions:
REMARK  status: ('A' for Active; 'I' for Inactive)
REMARK    1  A    between atoms: C_2  and  C_3 
REMARK    2  A    between atoms: C_2  and  C_23 
REMARK    3  A    between atoms: C_3  and  C_4 
REMARK    4  A    between atoms: C_4  and  C_5 
REMARK    5  A    between atoms: C_5  and  C_6 
REMARK    6  A    between atoms: C_6  and  N_7 
REMARK    7  A    between atoms: C_13  and  C_15 
ROOT
ATOM      1  N   UNL d   1       8.626   5.827 -11.145  0.00  0.00     0.133 N 
ATOM      2  C   UNL d   1       9.003   5.992 -12.546  0.00  0.00     0.222 C 
ATOM      3  C   UNL d   1       9.953   4.799 -12.732  0.00  0.00     0.035 C 
ATOM      4  C   UNL d   1       9.452   3.703 -11.827  0.00  0.00     0.035 C 
ATOM      5  C   UNL d   1       8.316   4.399 -11.061  0.00  0.00     0.222 C 
ATOM      6  C   UNL d   1       6.925   4.205 -11.719  0.00  0.00     0.068 C 
ATOM      7  C   UNL d   1       6.899   4.620 -13.210  0.00  0.00     0.149 C 
ATOM      8  O   UNL d   1       5.547   4.781 -13.611  0.00  0.00    -0.221 OA
ATOM      9  C   UNL d   1       7.671   5.965 -13.327  0.00  0.00     0.068 C 
ENDROOT
BRANCH   1  10
ATOM     10  C   UNL d   1       9.725   6.208 -10.264  0.00  0.00     0.250 C 
BRANCH  10  11
ATOM     11  C   UNL d   1       9.855   7.722 -10.187  0.00  0.00     0.036 C 
BRANCH  11  12
ATOM     12  C   UNL d   1      11.247   8.206  -9.747  0.00  0.00     0.010 C 
BRANCH  12  13
ATOM     13  C   UNL d   1      11.220   9.362  -8.731  0.00  0.00     0.071 C 
BRANCH  13  14
ATOM     14  C   UNL d   1      10.239   9.141  -7.569  0.00  0.00     0.197 C 
ATOM     15  O   UNL d   1       9.026   9.224  -7.705  0.00  0.00    -0.289 OA
BRANCH  14  16
ATOM     16  C   UNL d   1      10.772   8.815  -6.248  0.00  0.00     0.145 A 
ATOM     17  S   UNL d   1      11.056  10.158  -5.154  0.00  0.00    -0.064 SA
ATOM     18  C   UNL d   1      11.610   8.995  -3.955  0.00  0.00     0.049 A 
ATOM     19  C   UNL d   1      11.504   7.677  -4.487  0.00  0.00     0.088 A 
ATOM     20  C   UNL d   1      12.084   9.223  -2.652  0.00  0.00     0.008 A 
ATOM     21  N   UNL d   1      11.025   7.588  -5.788  0.00  0.00    -0.236 NA
ATOM     22  C   UNL d   1      11.894   6.608  -3.655  0.00  0.00     0.020 A 
ATOM     23  C   UNL d   1      12.369   6.827  -2.350  0.00  0.00     0.002 A 
ATOM     24  C   UNL d   1      12.467   8.137  -1.848  0.00  0.00     0.001 A 
ENDBRANCH  14  16
ENDBRANCH  13  14
ENDBRANCH  12  13
ENDBRANCH  11  12
ENDBRANCH  10  11
ENDBRANCH   1  10
BRANCH   7  25
ATOM     25  C   UNL d   1       7.504   3.529 -14.092  0.00  0.00     0.005 A 
ATOM     26  C   UNL d   1       7.054   2.199 -14.053  0.00  0.00    -0.001 A 
ATOM     27  C   UNL d   1       7.699   1.224 -14.837  0.00  0.00     0.011 A 
ATOM     28  C   UNL d   1       8.814   1.552 -15.632  0.00  0.00     0.058 A 
ATOM     29  C   UNL d   1       9.277   2.860 -15.674  0.00  0.00     0.011 A 
ATOM     30 CL   UNL d   1       9.593   0.368 -16.600  0.00  0.00    -0.082 Cl
ATOM     31  C   UNL d   1       8.577   3.814 -14.966  0.00  0.00    -0.001 A 
ENDBRANCH   7  25
TORSDOF 7
