REMARK  6 active torsions:
REMARK  status: ('A' for Active; 'I' for Inactive)
REMARK    1  A    between atoms: C_6  and  S_7 
REMARK    2  A    between atoms: S_7  and  N_10 
REMARK    3  A    between atoms: N_10  and  C_12 
REMARK    4  A    between atoms: C_12  and  C_14 
REMARK    5  A    between atoms: C_14  and  C_15 
REMARK    6  A    between atoms: C_15  and  N_16 
ROOT
ATOM      1  N   UNL d   1      10.832   8.162  -8.113  0.00  0.00    -0.274 N 
ATOM      2  C   UNL d   1      11.304   9.519  -8.306  0.00  0.00     0.138 C 
ENDROOT
BRANCH   1   3
ATOM      3  S   UNL d   1       9.759   7.791  -6.843  0.00  0.00     0.264 S 
ATOM      4  O   UNL d   1       9.464   6.344  -6.927  0.00  0.00    -0.200 OA
ATOM      5  O   UNL d   1       8.668   8.786  -6.915  0.00  0.00    -0.200 OA
BRANCH   3   6
ATOM      6  C   UNL d   1      10.762   8.078  -5.387  0.00  0.00     0.103 A 
ATOM      7  C   UNL d   1      10.960   9.400  -4.921  0.00  0.00     0.013 A 
ATOM      8  C   UNL d   1      11.670   9.617  -3.716  0.00  0.00     0.000 A 
ATOM      9  C   UNL d   1      12.209   8.534  -3.011  0.00  0.00    -0.004 A 
ATOM     10  C   UNL d   1      11.982   7.218  -3.461  0.00  0.00    -0.021 A 
ATOM     11  C   UNL d   1      12.424   6.081  -2.588  0.00  0.00     0.031 C 
ATOM     12  C   UNL d   1      11.274   6.998  -4.667  0.00  0.00     0.009 A 
ENDBRANCH   3   6
ENDBRANCH   1   3
BRANCH   1  13
ATOM     13  C   UNL d   1      11.071   7.211  -9.180  0.00  0.00     0.094 C 
ATOM     14  C   UNL d   1      12.383   7.589  -9.927  0.00  0.00     0.025 C 
BRANCH  13  15
ATOM     15  C   UNL d   1       9.822   7.087 -10.086  0.00  0.00     0.058 C 
BRANCH  15  16
ATOM     16  C   UNL d   1       9.851   5.861 -11.037  0.00  0.00     0.252 C 
BRANCH  16  17
ATOM     17  N   UNL d   1       8.652   5.665 -11.848  0.00  0.00     0.137 N 
ATOM     18  C   UNL d   1       8.819   4.488 -12.704  0.00  0.00     0.250 C 
ATOM     19  C   UNL d   1       7.600   4.327 -13.636  0.00  0.00     0.035 C 
ATOM     20  C   UNL d   1       6.284   4.264 -12.835  0.00  0.00     0.004 C 
ATOM     21  C   UNL d   1       6.206   5.442 -11.886  0.00  0.00     0.035 C 
ATOM     22  C   UNL d   1       5.067   4.245 -13.733  0.00  0.00     0.000 C 
ATOM     23  C   UNL d   1       7.460   5.483 -11.018  0.00  0.00     0.250 C 
ENDBRANCH  16  17
ENDBRANCH  15  16
ENDBRANCH  13  15
ENDBRANCH   1  13
TORSDOF 6
