REMARK  10 active torsions:
REMARK  status: ('A' for Active; 'I' for Inactive)
REMARK    1  A    between atoms: C_2  and  C_5 
REMARK    2  A    between atoms: C_7  and  N_8 
REMARK    3  A    between atoms: N_11  and  C_12 
REMARK    4  A    between atoms: C_12  and  C_13 
REMARK    5  A    between atoms: C_13  and  C_14 
REMARK    6  A    between atoms: C_14  and  C_15 
REMARK    7  A    between atoms: C_15  and  N_16 
REMARK       I    between atoms: N_16  and  C_17 
REMARK    8  A    between atoms: C_17  and  C_19 
REMARK    9  A    between atoms: N_22  and  C_23 
REMARK   10  A    between atoms: C_34  and  C_35 
ROOT
ATOM      1  N   UNL d   1       9.109   0.693 -17.654  0.00  0.00    -0.330 N 
ATOM      2  C   UNL d   1       9.946   1.847 -17.974  0.00  0.00     0.138 C 
ATOM      3  C   UNL d   1      10.064   2.792 -16.765  0.00  0.00     0.274 C 
ATOM      4  N   UNL d   1      10.553   2.067 -15.592  0.00  0.00     0.141 N 
ATOM      5  C   UNL d   1       9.643   0.958 -15.269  0.00  0.00     0.274 C 
ATOM      6  C   UNL d   1       9.517  -0.023 -16.444  0.00  0.00     0.138 C 
ENDROOT
BRANCH   4   7
ATOM      7  C   UNL d   1      10.741   2.985 -14.464  0.00  0.00     0.251 C 
BRANCH   7   8
ATOM      8  C   UNL d   1       9.435   3.333 -13.696  0.00  0.00     0.037 C 
BRANCH   8   9
ATOM      9  C   UNL d   1       9.633   4.353 -12.597  0.00  0.00     0.029 C 
BRANCH   9  10
ATOM     10  C   UNL d   1       8.296   4.768 -11.960  0.00  0.00     0.129 C 
BRANCH  10  11
ATOM     11  N   UNL d   1       8.496   5.760 -10.912  0.00  0.00    -0.238 NA
ATOM     12  C   UNL d   1       9.216   5.588  -9.787  0.00  0.00     0.251 C 
ATOM     13  O   UNL d   1       9.655   4.489  -9.434  0.00  0.00    -0.271 OA
BRANCH  12  14
ATOM     14  C   UNL d   1       9.454   6.836  -8.911  0.00  0.00     0.085 C 
ATOM     15  C   UNL d   1       8.889   6.561  -7.514  0.00  0.00     0.034 C 
ATOM     16  C   UNL d   1       9.078   7.773  -6.620  0.00  0.00     0.102 C 
ATOM     17  N   UNL d   1      10.470   8.162  -6.582  0.00  0.00    -0.348 N 
ATOM     18  C   UNL d   1      11.140   8.423  -7.850  0.00  0.00     0.102 C 
ATOM     19  C   UNL d   1      10.943   7.221  -8.790  0.00  0.00     0.034 C 
BRANCH  17  20
ATOM     20  C   UNL d   1      11.182   8.148  -5.393  0.00  0.00     0.056 A 
ATOM     21  C   UNL d   1      11.459   6.960  -4.672  0.00  0.00     0.017 A 
ATOM     22  C   UNL d   1      12.156   7.006  -3.443  0.00  0.00     0.002 A 
ATOM     23  C   UNL d   1      12.578   8.240  -2.928  0.00  0.00     0.000 A 
ATOM     24  C   UNL d   1      12.293   9.421  -3.627  0.00  0.00     0.002 A 
ATOM     25  C   UNL d   1      11.625   9.382  -4.861  0.00  0.00     0.017 A 
ENDBRANCH  17  20
ENDBRANCH  12  14
ENDBRANCH  10  11
ENDBRANCH   9  10
ENDBRANCH   8   9
ENDBRANCH   7   8
ENDBRANCH   4   7
BRANCH   1  26
ATOM     26  C   UNL d   1       7.960   0.348 -18.388  0.00  0.00     0.143 A 
ATOM     27  N   UNL d   1       7.055  -0.496 -17.831  0.00  0.00    -0.214 NA
ATOM     28  C   UNL d   1       5.957  -0.818 -18.514  0.00  0.00     0.140 A 
ATOM     29  N   UNL d   1       5.694  -0.428 -19.770  0.00  0.00    -0.227 NA
ATOM     30  C   UNL d   1       6.568   0.415 -20.353  0.00  0.00     0.157 A 
ATOM     31  C   UNL d   1       7.745   0.826 -19.698  0.00  0.00     0.060 A 
BRANCH  28  32
ATOM     32  C   UNL d   1       4.925  -1.743 -17.832  0.00  0.00     0.052 C 
ATOM     33  C   UNL d   1       3.565  -1.691 -18.575  0.00  0.00     0.008 C 
ATOM     34  C   UNL d   1       4.651  -1.231 -16.400  0.00  0.00     0.008 C 
ATOM     35  C   UNL d   1       5.409  -3.199 -17.794  0.00  0.00     0.008 C 
ENDBRANCH  28  32
BRANCH  30  36
ATOM     36  C   UNL d   1       6.223   0.896 -21.759  0.00  0.00     0.435 C 
ATOM     37  F   UNL d   1       7.159   1.722 -22.215  0.00  0.00    -0.165 F 
ATOM     38  F   UNL d   1       6.120  -0.130 -22.602  0.00  0.00    -0.165 F 
ATOM     39  F   UNL d   1       5.069   1.554 -21.718  0.00  0.00    -0.165 F 
ENDBRANCH  30  36
ENDBRANCH   1  26
TORSDOF 10
