REMARK  8 active torsions:
REMARK  status: ('A' for Active; 'I' for Inactive)
REMARK    1  A    between atoms: S_2  and  N_4 
REMARK    2  A    between atoms: S_2  and  C_25 
REMARK    3  A    between atoms: N_4  and  C_5 
REMARK    4  A    between atoms: N_8  and  C_9 
REMARK    5  A    between atoms: C_9  and  C_10 
REMARK    6  A    between atoms: C_10  and  O_11 
REMARK    7  A    between atoms: O_11  and  C_12 
REMARK    8  A    between atoms: C_17  and  C_18 
ROOT
ATOM      1  C   UNL d   1      11.050   8.221  -7.674  0.00  0.00     0.151 C 
ATOM      2  C   UNL d   1      11.556   9.137  -8.789  0.00  0.00     0.063 C 
ATOM      3  C   UNL d   1      10.904   8.605 -10.050  0.00  0.00     0.253 C 
ATOM      4  N   UNL d   1      10.649   7.206  -9.726  0.00  0.00     0.142 N 
ATOM      5  C   UNL d   1      10.103   7.245  -8.377  0.00  0.00     0.275 C 
ENDROOT
BRANCH   4   6
ATOM      6  C   UNL d   1       9.713   6.613 -10.670  0.00  0.00     0.283 C 
BRANCH   6   7
ATOM      7  C   UNL d   1       9.528   5.107 -10.380  0.00  0.00     0.184 C 
BRANCH   7   8
ATOM      8  O   UNL d   1       9.444   4.407 -11.625  0.00  0.00    -0.329 OA
BRANCH   8   9
ATOM      9  C   UNL d   1       8.215   4.287 -12.246  0.00  0.00     0.094 A 
ATOM     10  C   UNL d   1       8.117   3.633 -13.499  0.00  0.00     0.022 A 
ATOM     11  C   UNL d   1       6.832   3.398 -14.044  0.00  0.00     0.002 A 
ATOM     12  C   UNL d   1       5.662   3.805 -13.379  0.00  0.00     0.000 A 
ATOM     13  C   UNL d   1       5.773   4.441 -12.145  0.00  0.00     0.002 A 
ATOM     14  C   UNL d   1       7.037   4.710 -11.609  0.00  0.00     0.024 A 
BRANCH  10  15
ATOM     15  C   UNL d   1       9.310   3.174 -14.231  0.00  0.00     0.002 A 
ATOM     16  C   UNL d   1       9.341   1.898 -14.835  0.00  0.00     0.000 A 
ATOM     17  C   UNL d   1      10.478   1.469 -15.543  0.00  0.00     0.000 A 
ATOM     18  C   UNL d   1      11.592   2.319 -15.655  0.00  0.00     0.000 A 
ATOM     19  C   UNL d   1      11.581   3.588 -15.052  0.00  0.00     0.000 A 
ATOM     20  C   UNL d   1      10.440   4.013 -14.350  0.00  0.00     0.000 A 
ENDBRANCH  10  15
ENDBRANCH   8   9
ENDBRANCH   7   8
ENDBRANCH   6   7
ENDBRANCH   4   6
BRANCH   1  21
ATOM     21  N   UNL d   1      10.317   8.955  -6.632  0.00  0.00    -0.185 NA
BRANCH  21  22
ATOM     22  S   UNL d   1      11.187   9.884  -5.479  0.00  0.00     0.281 S 
ATOM     23  O   UNL d   1      12.331  10.454  -6.193  0.00  0.00    -0.199 OA
ATOM     24  O   UNL d   1      10.262  10.762  -4.768  0.00  0.00    -0.199 OA
BRANCH  22  25
ATOM     25  C   UNL d   1      11.783   8.696  -4.304  0.00  0.00     0.107 A 
ATOM     26  C   UNL d   1      12.205   9.133  -3.020  0.00  0.00     0.045 A 
ATOM     27  C   UNL d   1      12.632   8.178  -2.068  0.00  0.00     0.168 A 
ATOM     28  C   UNL d   1      12.634   6.809  -2.410  0.00  0.00     0.167 A 
ATOM     29  F   UNL d   1      13.063   8.554  -0.845  0.00  0.00    -0.202 F 
ATOM     30  C   UNL d   1      12.213   6.413  -3.688  0.00  0.00     0.033 A 
ATOM     31  F   UNL d   1      13.058   5.875  -1.526  0.00  0.00    -0.202 F 
ATOM     32  C   UNL d   1      11.752   7.324  -4.641  0.00  0.00     0.015 A 
ENDBRANCH  22  25
ENDBRANCH  21  22
ENDBRANCH   1  21
TORSDOF 8
