REMARK  6 active torsions:
REMARK  status: ('A' for Active; 'I' for Inactive)
REMARK    1  A    between atoms: C_2  and  C_3 
REMARK    2  A    between atoms: C_2  and  C_20 
REMARK    3  A    between atoms: C_3  and  C_4 
REMARK    4  A    between atoms: C_4  and  C_5 
REMARK    5  A    between atoms: C_5  and  N_6 
REMARK    6  A    between atoms: SI_9  and  C_11 
ROOT
ATOM      1  N   UNL d   1       9.851   6.556 -11.007  0.00  0.00     0.137 N 
ATOM      2  C   UNL d   1       8.778   6.068 -10.137  0.00  0.00     0.250 C 
ATOM      3  C   UNL d   1       9.156   6.178  -8.640  0.00  0.00     0.037 C 
ATOM      4 SI   UNL d   1       9.824   7.893  -8.155  0.00  0.00     0.000 Si
ATOM      5  O   UNL d   1       8.695   9.077  -8.044  0.00  0.00     0.000 OA
ATOM      6  C   UNL d   1      10.792   8.444  -9.614  0.00  0.00     0.037 C 
ATOM      7  C   UNL d   1      10.020   8.023 -10.879  0.00  0.00     0.250 C 
ENDROOT
BRANCH   1   8
ATOM      8  C   UNL d   1       9.479   6.256 -12.395  0.00  0.00     0.251 C 
BRANCH   8   9
ATOM      9  C   UNL d   1       9.649   4.756 -12.745  0.00  0.00     0.043 C 
BRANCH   9  10
ATOM     10  C   UNL d   1       9.434   4.502 -14.254  0.00  0.00     0.071 C 
BRANCH  10  11
ATOM     11  C   UNL d   1       9.436   2.996 -14.571  0.00  0.00     0.173 C 
ATOM     12  O   UNL d   1      10.486   2.477 -14.931  0.00  0.00    -0.291 OA
BRANCH  11  13
ATOM     13  C   UNL d   1       8.172   2.220 -14.366  0.00  0.00     0.035 A 
ATOM     14  C   UNL d   1       8.173   0.819 -14.562  0.00  0.00     0.005 A 
ATOM     15  C   UNL d   1       7.008   0.038 -14.320  0.00  0.00     0.030 A 
ATOM     16  C   UNL d   1       5.840   0.673 -13.856  0.00  0.00     0.140 A 
ATOM     17  C   UNL d   1       5.857   2.052 -13.621  0.00  0.00     0.030 A 
ATOM     18  F   UNL d   1       4.720  -0.056 -13.607  0.00  0.00    -0.204 F 
ATOM     19  C   UNL d   1       6.985   2.835 -13.887  0.00  0.00     0.005 A 
ENDBRANCH  11  13
ENDBRANCH  10  11
ENDBRANCH   9  10
ENDBRANCH   8   9
ENDBRANCH   1   8
BRANCH   4  20
ATOM     20  C   UNL d   1      10.628   7.999  -6.484  0.00  0.00     0.000 A 
ATOM     21  C   UNL d   1      10.993   6.809  -5.838  0.00  0.00     0.001 A 
ATOM     22  C   UNL d   1      11.606   6.848  -4.577  0.00  0.00     0.011 A 
ATOM     23  C   UNL d   1      11.852   8.088  -3.957  0.00  0.00     0.058 A 
ATOM     24  C   UNL d   1      11.464   9.285  -4.593  0.00  0.00     0.011 A 
ATOM     25 CL   UNL d   1      12.606   8.143  -2.407  0.00  0.00    -0.082 Cl
ATOM     26  C   UNL d   1      10.840   9.242  -5.854  0.00  0.00     0.001 A 
ENDBRANCH   4  20
TORSDOF 6
