REMARK  7 active torsions:
REMARK  status: ('A' for Active; 'I' for Inactive)
REMARK    1  A    between atoms: C_6  and  C_7 
REMARK    2  A    between atoms: C_10  and  S_11 
REMARK    3  A    between atoms: S_11  and  C_12 
REMARK    4  A    between atoms: C_12  and  C_13 
REMARK    5  A    between atoms: C_13  and  C_14 
REMARK    6  A    between atoms: C_14  and  N_15 
REMARK    7  A    between atoms: C_19  and  C_20 
ROOT
ATOM      1  C   UNL d   1      13.520   4.571 -18.943  0.00  0.00     0.167 A 
ATOM      2  N   UNL d   1      13.040   4.178 -17.763  0.00  0.00    -0.128 NA
ATOM      3  N   UNL d   1      12.878   2.816 -17.878  0.00  0.00    -0.122 NA
ATOM      4  C   UNL d   1      13.246   2.507 -19.122  0.00  0.00     0.193 A 
ATOM      5  N   UNL d   1      13.697   3.563 -19.823  0.00  0.00    -0.289 N 
ATOM      6  C   UNL d   1      14.241   3.610 -21.174  0.00  0.00     0.134 C 
ENDROOT
BRANCH   4   7
ATOM      7  S   UNL d   1      13.132   0.897 -19.837  0.00  0.00    -0.075 SA
BRANCH   7   8
ATOM      8  C   UNL d   1      12.212  -0.015 -18.555  0.00  0.00     0.067 C 
BRANCH   8   9
ATOM      9  C   UNL d   1      10.775   0.500 -18.323  0.00  0.00     0.047 C 
BRANCH   9  10
ATOM     10  C   UNL d   1       9.998  -0.371 -17.334  0.00  0.00     0.251 C 
BRANCH  10  11
ATOM     11  N   UNL d   1       8.857   0.399 -16.838  0.00  0.00     0.137 N 
ATOM     12  C   UNL d   1       8.637   0.240 -15.398  0.00  0.00     0.254 C 
ATOM     13  C   UNL d   1       7.192   0.662 -15.186  0.00  0.00     0.052 A 
ATOM     14  C   UNL d   1       6.546   0.520 -16.529  0.00  0.00     0.039 A 
ATOM     15  C   UNL d   1       6.042  -0.323 -15.383  0.00  0.00     0.008 A 
ATOM     16  C   UNL d   1       7.601   0.028 -17.489  0.00  0.00     0.251 C 
BRANCH  13  17
ATOM     17  C   UNL d   1       7.010   1.958 -14.394  0.00  0.00    -0.021 A 
ATOM     18  C   UNL d   1       5.873   2.137 -13.588  0.00  0.00    -0.004 A 
ATOM     19  C   UNL d   1       5.660   3.340 -12.893  0.00  0.00     0.006 A 
ATOM     20  C   UNL d   1       6.606   4.377 -12.969  0.00  0.00     0.035 A 
ATOM     21  C   UNL d   1       7.765   4.214 -13.745  0.00  0.00     0.006 A 
ATOM     22 BR   UNL d   1       6.269   5.998 -12.036  0.00  0.00    -0.049 Br
ATOM     23  C   UNL d   1       7.963   3.010 -14.465  0.00  0.00    -0.004 A 
ENDBRANCH  13  17
ENDBRANCH  10  11
ENDBRANCH   9  10
ENDBRANCH   8   9
ENDBRANCH   7   8
ENDBRANCH   4   7
BRANCH   1  24
ATOM     24  C   UNL d   1      13.865   5.956 -19.192  0.00  0.00     0.037 A 
ATOM     25  C   UNL d   1      15.122   6.473 -18.790  0.00  0.00     0.021 A 
ATOM     26  C   UNL d   1      16.088   5.657 -18.156  0.00  0.00     0.003 A 
ATOM     27  C   UNL d   1      15.439   7.844 -19.006  0.00  0.00     0.081 A 
ATOM     28  C   UNL d   1      17.326   6.216 -17.784  0.00  0.00     0.015 A 
ATOM     29  C   UNL d   1      17.551   7.579 -18.056  0.00  0.00     0.059 A 
ATOM     30  C   UNL d   1      18.847   8.251 -17.663  0.00  0.00     0.052 C 
ATOM     31  N   UNL d   1      16.634   8.372 -18.646  0.00  0.00    -0.250 NA
ATOM     32  C   UNL d   1      14.469   8.667 -19.617  0.00  0.00     0.019 A 
ATOM     33  C   UNL d   1      13.217   8.156 -20.015  0.00  0.00     0.002 A 
ATOM     34  C   UNL d   1      12.917   6.800 -19.803  0.00  0.00     0.003 A 
ENDBRANCH   1  24
TORSDOF 7
