REMARK  5 active torsions:
REMARK  status: ('A' for Active; 'I' for Inactive)
REMARK    1  A    between atoms: C_6  and  N_7 
REMARK    2  A    between atoms: N_10  and  C_11 
REMARK    3  A    between atoms: C_11  and  C_12 
REMARK    4  A    between atoms: C_12  and  C_13 
REMARK    5  A    between atoms: C_13  and  N_14 
ROOT
ATOM      1  C   UNL d   1       9.811   7.246 -10.579  0.00  0.00     0.252 C 
ENDROOT
BRANCH   1   2
ATOM      2  N   UNL d   1       9.500   7.119  -9.160  0.00  0.00     0.141 N 
ATOM      3  C   UNL d   1      10.521   6.320  -8.489  0.00  0.00     0.274 C 
ATOM      4  C   UNL d   1      10.222   6.175  -6.994  0.00  0.00     0.137 C 
ATOM      5  N   UNL d   1      10.069   7.476  -6.384  0.00  0.00    -0.344 N 
ATOM      6  C   UNL d   1       9.071   8.298  -7.059  0.00  0.00     0.137 C 
ATOM      7  C   UNL d   1       9.441   8.444  -8.543  0.00  0.00     0.274 C 
BRANCH   5   8
ATOM      8  C   UNL d   1      10.849   7.911  -5.277  0.00  0.00     0.056 A 
ATOM      9  C   UNL d   1      11.014   9.282  -4.996  0.00  0.00     0.017 A 
ATOM     10  C   UNL d   1      11.636   9.698  -3.812  0.00  0.00     0.001 A 
ATOM     11  C   UNL d   1      12.229   8.775  -2.938  0.00  0.00    -0.004 A 
ATOM     12  C   UNL d   1      12.102   7.404  -3.214  0.00  0.00    -0.020 A 
ATOM     13  C   UNL d   1      12.643   6.400  -2.220  0.00  0.00     0.031 C 
ATOM     14  C   UNL d   1      11.417   6.972  -4.370  0.00  0.00     0.013 A 
ENDBRANCH   5   8
ENDBRANCH   1   2
BRANCH   1  15
ATOM     15  C   UNL d   1       9.466   5.904 -11.280  0.00  0.00     0.060 C 
BRANCH  15  16
ATOM     16  C   UNL d   1       9.311   6.084 -12.822  0.00  0.00     0.111 C 
BRANCH  16  17
ATOM     17  N   UNL d   1       9.228   4.779 -13.512  0.00  0.00    -0.299 N 
ATOM     18  C   UNL d   1       7.991   4.057 -13.432  0.00  0.00     0.058 A 
ATOM     19  C   UNL d   1       7.770   2.905 -14.259  0.00  0.00    -0.006 A 
ATOM     20  C   UNL d   1       6.943   4.457 -12.559  0.00  0.00     0.017 A 
ATOM     21  C   UNL d   1       8.835   2.526 -15.271  0.00  0.00     0.038 C 
ATOM     22  C   UNL d   1       6.569   2.176 -14.162  0.00  0.00    -0.003 A 
ATOM     23  C   UNL d   1      10.243   2.874 -14.771  0.00  0.00     0.093 C 
ATOM     24  C   UNL d   1      10.322   4.273 -14.161  0.00  0.00     0.238 C 
ATOM     25  O   UNL d   1      11.398   4.873 -14.265  0.00  0.00    -0.272 OA
ATOM     26  C   UNL d   1       5.581   2.547 -13.226  0.00  0.00    -0.000 A 
ATOM     27  C   UNL d   1       5.775   3.689 -12.438  0.00  0.00     0.002 A 
ENDBRANCH  16  17
ENDBRANCH  15  16
ENDBRANCH   1  15
TORSDOF 5
