REMARK  5 active torsions:
REMARK  status: ('A' for Active; 'I' for Inactive)
REMARK    1  A    between atoms: O_2  and  C_3 
REMARK    2  A    between atoms: C_10  and  C_11 
REMARK    3  A    between atoms: C_11  and  N_12 
REMARK    4  A    between atoms: N_15  and  C_16 
REMARK    5  A    between atoms: C_21  and  O_22 
ROOT
ATOM      1  N   UNL d   1       7.620   5.286 -12.708  0.00  0.00     0.141 N 
ATOM      2  C   UNL d   1       7.759   4.483 -11.498  0.00  0.00     0.274 C 
ATOM      3  C   UNL d   1       9.083   4.776 -10.777  0.00  0.00     0.137 C 
ATOM      4  N   UNL d   1       9.171   6.209 -10.535  0.00  0.00    -0.343 N 
ATOM      5  C   UNL d   1       8.801   7.142 -11.597  0.00  0.00     0.137 C 
ATOM      6  C   UNL d   1       7.506   6.694 -12.309  0.00  0.00     0.274 C 
ENDROOT
BRANCH   1   7
ATOM      7  C   UNL d   1       8.642   5.076 -13.725  0.00  0.00     0.251 C 
BRANCH   7   8
ATOM      8  C   UNL d   1       8.707   3.618 -14.212  0.00  0.00     0.045 C 
ATOM      9  C   UNL d   1       9.497   3.584 -15.518  0.00  0.00     0.029 C 
ATOM     10  C   UNL d   1       9.500   2.209 -16.145  0.00  0.00    -0.017 A 
ATOM     11  C   UNL d   1       8.509   1.251 -15.847  0.00  0.00     0.031 A 
ATOM     12  C   UNL d   1      10.532   1.922 -17.066  0.00  0.00     0.020 A 
ATOM     13  C   UNL d   1       8.575  -0.006 -16.473  0.00  0.00     0.004 A 
ATOM     14  C   UNL d   1       7.402   1.526 -14.882  0.00  0.00     0.173 C 
ATOM     15  C   UNL d   1       9.605  -0.314 -17.378  0.00  0.00     0.024 A 
ATOM     16  C   UNL d   1      10.592   0.635 -17.694  0.00  0.00     0.094 A 
ATOM     17  C   UNL d   1       7.311   2.950 -14.322  0.00  0.00     0.071 C 
ATOM     18  O   UNL d   1       6.610   0.675 -14.511  0.00  0.00    -0.291 OA
BRANCH  16  19
ATOM     19  O   UNL d   1      11.564   0.279 -18.596  0.00  0.00    -0.328 OA
ATOM     20  C   UNL d   1      12.578   1.232 -18.887  0.00  0.00     0.181 C 
ENDBRANCH  16  19
ENDBRANCH   7   8
ENDBRANCH   1   7
BRANCH   4  21
ATOM     21  C   UNL d   1       9.431   6.650  -9.240  0.00  0.00     0.079 A 
ATOM     22  C   UNL d   1      10.386   7.661  -9.023  0.00  0.00     0.110 A 
ATOM     23  C   UNL d   1      10.679   8.093  -7.710  0.00  0.00     0.026 A 
ATOM     24  C   UNL d   1       9.985   7.526  -6.621  0.00  0.00     0.002 A 
ATOM     25  C   UNL d   1       9.002   6.534  -6.843  0.00  0.00     0.002 A 
ATOM     26  C   UNL d   1       8.745   6.089  -8.150  0.00  0.00     0.019 A 
BRANCH  22  27
ATOM     27  O   UNL d   1      11.001   8.152 -10.152  0.00  0.00    -0.327 OA
ATOM     28  C   UNL d   1      11.901   9.196  -9.999  0.00  0.00     0.181 C 
ENDBRANCH  22  27
ENDBRANCH   4  21
TORSDOF 5
