REMARK  6 active torsions:
REMARK  status: ('A' for Active; 'I' for Inactive)
REMARK       I    between atoms: C_2  and  N_3 
REMARK    1  A    between atoms: C_2  and  C_27 
REMARK    2  A    between atoms: N_3  and  C_4 
REMARK    3  A    between atoms: C_4  and  C_5 
REMARK    4  A    between atoms: C_5  and  C_6 
REMARK    5  A    between atoms: C_6  and  C_7 
REMARK    6  A    between atoms: C_7  and  N_8 
ROOT
ATOM      1  N   UNL d   1       8.582   5.990 -12.450  0.00  0.00     0.141 N 
ATOM      2  C   UNL d   1       7.749   4.905 -11.927  0.00  0.00     0.274 C 
ATOM      3  C   UNL d   1       7.179   4.067 -13.055  0.00  0.00     0.137 C 
ATOM      4  N   UNL d   1       8.268   3.534 -13.870  0.00  0.00    -0.343 N 
ATOM      5  C   UNL d   1       8.001   2.358 -14.589  0.00  0.00     0.053 A 
ATOM      6  C   UNL d   1       6.693   2.046 -15.004  0.00  0.00     0.017 A 
ATOM      7  C   UNL d   1       6.427   0.874 -15.736  0.00  0.00     0.002 A 
ATOM      8  C   UNL d   1       7.471  -0.003 -16.044  0.00  0.00    -0.000 A 
ATOM      9  C   UNL d   1       8.783   0.274 -15.605  0.00  0.00    -0.003 A 
ATOM     10  C   UNL d   1       9.046   1.454 -14.878  0.00  0.00    -0.002 A 
ATOM     11  C   UNL d   1      10.457   1.777 -14.442  0.00  0.00     0.054 C 
ATOM     12  C   UNL d   1      10.986   2.909 -15.290  0.00  0.00    -0.020 A 
ATOM     13  C   UNL d   1      12.103   2.671 -16.119  0.00  0.00    -0.004 A 
ATOM     14  C   UNL d   1      12.614   3.683 -16.950  0.00  0.00    -0.000 A 
ATOM     15  C   UNL d   1      11.989   4.940 -16.974  0.00  0.00    -0.000 A 
ATOM     16  C   UNL d   1      10.865   5.176 -16.164  0.00  0.00    -0.003 A 
ATOM     17  C   UNL d   1      10.349   4.178 -15.303  0.00  0.00    -0.004 A 
ATOM     18  C   UNL d   1       9.167   4.567 -14.400  0.00  0.00     0.137 C 
ATOM     19  C   UNL d   1       9.685   5.432 -13.226  0.00  0.00     0.277 C 
ENDROOT
BRANCH   1  20
ATOM     20  C   UNL d   1       9.082   6.886 -11.400  0.00  0.00     0.251 C 
BRANCH  20  21
ATOM     21  C   UNL d   1       9.305   6.212 -10.025  0.00  0.00     0.037 C 
BRANCH  21  22
ATOM     22  C   UNL d   1       9.712   7.190  -8.926  0.00  0.00     0.029 C 
BRANCH  22  23
ATOM     23  C   UNL d   1       9.206   6.676  -7.572  0.00  0.00     0.129 C 
BRANCH  23  24
ATOM     24  N   UNL d   1       9.808   7.393  -6.470  0.00  0.00    -0.234 NA
ATOM     25  C   UNL d   1      11.055   7.157  -6.052  0.00  0.00     0.281 C 
ATOM     26  O   UNL d   1      11.824   6.364  -6.600  0.00  0.00    -0.265 OA
BRANCH  25  27
ATOM     27  C   UNL d   1      11.459   7.835  -4.826  0.00  0.00     0.087 A 
ATOM     28  S   UNL d   1      11.239   9.564  -4.761  0.00  0.00    -0.082 SA
ATOM     29  C   UNL d   1      11.862   9.590  -3.138  0.00  0.00     0.036 A 
ATOM     30  C   UNL d   1      12.258   8.352  -2.715  0.00  0.00     0.008 A 
ATOM     31  C   UNL d   1      12.032   7.337  -3.686  0.00  0.00     0.012 A 
ENDBRANCH  25  27
ENDBRANCH  23  24
ENDBRANCH  22  23
ENDBRANCH  21  22
ENDBRANCH  20  21
ENDBRANCH   1  20
TORSDOF 6
