REMARK  11 active torsions:
REMARK  status: ('A' for Active; 'I' for Inactive)
REMARK       I    between atoms: C_2  and  N_3 
REMARK    1  A    between atoms: C_2  and  C_13 
REMARK    2  A    between atoms: N_3  and  C_4 
REMARK    3  A    between atoms: C_4  and  C_5 
REMARK    4  A    between atoms: C_5  and  C_6 
REMARK    5  A    between atoms: C_6  and  C_7 
REMARK    6  A    between atoms: C_24  and  C_25 
REMARK    7  A    between atoms: C_25  and  N_26 
REMARK    8  A    between atoms: N_26  and  C_27 
REMARK    9  A    between atoms: C_27  and  C_28 
REMARK   10  A    between atoms: C_28  and  C_29 
REMARK   11  A    between atoms: C_29  and  C_30 
ROOT
ATOM      1  C   UNL d   1       9.043   4.939 -12.620  0.00  0.00     0.139 A 
ATOM      2  C   UNL d   1       8.319   3.871 -13.005  0.00  0.00     0.028 A 
ATOM      3  C   UNL d   1       8.647   3.536 -14.341  0.00  0.00     0.044 A 
ATOM      4  C   UNL d   1       8.173   2.497 -15.104  0.00  0.00     0.118 A 
ATOM      5  C   UNL d   1       8.590   2.348 -16.433  0.00  0.00     0.116 A 
ATOM      6  C   UNL d   1       9.511   3.230 -17.001  0.00  0.00     0.028 A 
ATOM      7  C   UNL d   1      10.024   4.282 -16.252  0.00  0.00     0.021 A 
ATOM      8  C   UNL d   1       9.594   4.462 -14.852  0.00  0.00     0.084 A 
ATOM      9  N   UNL d   1       9.798   5.290 -13.774  0.00  0.00    -0.241 NA
ATOM     10  O   UNL d   1       8.092   1.356 -17.206  0.00  0.00    -0.326 OA
ATOM     11  C   UNL d   1       6.961   0.746 -16.652  0.00  0.00     0.181 C 
ATOM     12  C   UNL d   1       7.057   0.433 -15.150  0.00  0.00     0.188 C 
ATOM     13  O   UNL d   1       7.257   1.660 -14.492  0.00  0.00    -0.327 OA
ENDROOT
BRANCH   1  14
ATOM     14  C   UNL d   1       9.060   5.686 -11.372  0.00  0.00     0.293 C 
ATOM     15  O   UNL d   1       9.481   6.841 -11.316  0.00  0.00    -0.264 OA
ATOM     16  N   UNL d   1       8.596   5.002 -10.322  0.00  0.00    -0.233 NA
BRANCH  16  17
ATOM     17  C   UNL d   1       8.486   5.482  -8.953  0.00  0.00     0.129 C 
BRANCH  17  18
ATOM     18  C   UNL d   1       9.844   5.734  -8.290  0.00  0.00     0.031 C 
BRANCH  18  19
ATOM     19  C   UNL d   1      10.388   7.181  -8.471  0.00  0.00     0.028 C 
BRANCH  19  20
ATOM     20  C   UNL d   1      10.919   7.822  -7.192  0.00  0.00    -0.022 A 
ATOM     21  C   UNL d   1      11.300   9.193  -7.214  0.00  0.00    -0.004 A 
ATOM     22  C   UNL d   1      11.776   9.806  -6.040  0.00  0.00    -0.000 A 
ATOM     23  C   UNL d   1      11.857   9.081  -4.834  0.00  0.00    -0.000 A 
ATOM     24  C   UNL d   1      11.472   7.729  -4.809  0.00  0.00    -0.000 A 
ATOM     25  C   UNL d   1      11.033   7.105  -5.979  0.00  0.00    -0.004 A 
ENDBRANCH  19  20
ENDBRANCH  18  19
ENDBRANCH  17  18
ENDBRANCH  16  17
ENDBRANCH   1  14
BRANCH  12  26
ATOM     26  C   UNL d   1       5.787  -0.203 -14.533  0.00  0.00     0.323 C 
BRANCH  26  27
ATOM     27  N   UNL d   1       5.443  -1.419 -15.255  0.00  0.00     0.342 N 
BRANCH  27  28
ATOM     28  C   UNL d   1       4.619  -1.121 -16.438  0.00  0.00     0.291 C 
BRANCH  28  29
ATOM     29  C   UNL d   1       4.657  -2.313 -17.402  0.00  0.00     0.043 C 
BRANCH  29  30
ATOM     30  C   UNL d   1       3.847  -2.027 -18.681  0.00  0.00     0.029 C 
BRANCH  30  31
ATOM     31  C   UNL d   1       3.852  -3.205 -19.628  0.00  0.00    -0.022 A 
ATOM     32  C   UNL d   1       3.079  -4.344 -19.337  0.00  0.00    -0.004 A 
ATOM     33  C   UNL d   1       3.089  -5.447 -20.212  0.00  0.00    -0.000 A 
ATOM     34  C   UNL d   1       3.877  -5.413 -21.380  0.00  0.00    -0.000 A 
ATOM     35  C   UNL d   1       4.655  -4.276 -21.669  0.00  0.00    -0.000 A 
ATOM     36  C   UNL d   1       4.649  -3.173 -20.795  0.00  0.00    -0.004 A 
ENDBRANCH  30  31
ENDBRANCH  29  30
ENDBRANCH  28  29
ENDBRANCH  27  28
ENDBRANCH  26  27
ENDBRANCH  12  26
TORSDOF 11
