REMARK  7 active torsions:
REMARK  status: ('A' for Active; 'I' for Inactive)
REMARK    1  A    between atoms: C_2  and  C_3 
REMARK       I    between atoms: C_2  and  N_10 
REMARK    2  A    between atoms: C_3  and  C_4 
REMARK    3  A    between atoms: N_10  and  C_11 
REMARK    4  A    between atoms: C_14  and  C_15 
REMARK    5  A    between atoms: C_15  and  C_16 
REMARK    6  A    between atoms: C_16  and  N_17 
REMARK    7  A    between atoms: N_20  and  C_21 
ROOT
ATOM      1  C   UNL d   1       9.680   5.399 -11.116  0.00  0.00     0.035 C 
ENDROOT
BRANCH   1   2
ATOM      2  C   UNL d   1       9.409   6.401  -9.985  0.00  0.00     0.002 C 
ATOM      3  C   UNL d   1       9.819   5.869  -8.598  0.00  0.00     0.002 C 
ATOM      4  C   UNL d   1       9.485   6.882  -7.502  0.00  0.00     0.024 C 
ATOM      5  C   UNL d   1      10.200   8.214  -7.800  0.00  0.00     0.106 C 
ATOM      6  C   UNL d   1       9.754   8.793  -9.147  0.00  0.00     0.024 C 
ATOM      7  C   UNL d   1      10.073   7.776 -10.262  0.00  0.00     0.002 C 
BRANCH   5   8
ATOM      8  N   UNL d   1       9.872   9.184  -6.726  0.00  0.00    -0.240 NA
ATOM      9  C   UNL d   1      10.682   9.600  -5.755  0.00  0.00     0.254 C 
ATOM     10  O   UNL d   1      10.290  10.379  -4.873  0.00  0.00    -0.271 OA
BRANCH   9  11
ATOM     11  C   UNL d   1      12.139   9.129  -5.721  0.00  0.00     0.122 C 
BRANCH  11  12
ATOM     12  C   UNL d   1      12.445   8.322  -4.453  0.00  0.00     0.154 C 
ATOM     13  O   UNL d   1      12.016   9.014  -3.277  0.00  0.00    -0.351 OA
ATOM     14  C   UNL d   1      12.361   8.319  -2.098  0.00  0.00     0.174 C 
ATOM     15  C   UNL d   1      11.761   6.896  -2.149  0.00  0.00     0.174 C 
ATOM     16  O   UNL d   1      12.264   6.220  -3.287  0.00  0.00    -0.349 OA
ATOM     17  C   UNL d   1      11.860   6.877  -4.481  0.00  0.00     0.172 C 
ENDBRANCH  11  12
ENDBRANCH   9  11
ENDBRANCH   5   8
ENDBRANCH   1   2
BRANCH   1  18
ATOM     18  C   UNL d   1       8.573   5.326 -12.170  0.00  0.00     0.250 C 
BRANCH  18  19
ATOM     19  N   UNL d   1       8.667   4.070 -12.926  0.00  0.00     0.141 N 
ATOM     20  C   UNL d   1       7.366   3.770 -13.524  0.00  0.00     0.274 C 
ATOM     21  C   UNL d   1       7.409   2.447 -14.309  0.00  0.00     0.137 C 
ATOM     22  N   UNL d   1       8.473   2.487 -15.309  0.00  0.00    -0.343 N 
ATOM     23  C   UNL d   1       9.785   2.863 -14.778  0.00  0.00     0.137 C 
ATOM     24  C   UNL d   1       9.674   4.180 -13.987  0.00  0.00     0.274 C 
BRANCH  22  25
ATOM     25  C   UNL d   1       8.263   2.183 -16.661  0.00  0.00     0.081 A 
ATOM     26  C   UNL d   1       7.276   1.262 -17.074  0.00  0.00     0.135 A 
ATOM     27  C   UNL d   1       7.050   0.973 -18.412  0.00  0.00     0.121 A 
ATOM     28  O   UNL d   1       6.429   0.515 -16.317  0.00  0.00    -0.298 OA
ATOM     29  C   UNL d   1       7.796   1.579 -19.433  0.00  0.00     0.026 A 
ATOM     30  O   UNL d   1       6.060   0.055 -18.522  0.00  0.00    -0.299 OA
ATOM     31  C   UNL d   1       8.789   2.508 -19.062  0.00  0.00     0.004 A 
ATOM     32  C   UNL d   1       9.017   2.805 -17.691  0.00  0.00     0.019 A 
ATOM     33  C   UNL d   1       5.661  -0.240 -17.208  0.00  0.00     0.304 A 
ENDBRANCH  22  25
ENDBRANCH  18  19
ENDBRANCH   1  18
TORSDOF 7
