REMARK  7 active torsions:
REMARK  status: ('A' for Active; 'I' for Inactive)
REMARK    1  A    between atoms: S_2  and  C_3 
REMARK    2  A    between atoms: C_8  and  N_9 
REMARK    3  A    between atoms: N_12  and  C_13 
REMARK    4  A    between atoms: C_13  and  C_14 
REMARK    5  A    between atoms: C_14  and  C_15 
REMARK    6  A    between atoms: C_15  and  N_16 
REMARK       I    between atoms: N_16  and  C_17 
REMARK    7  A    between atoms: C_17  and  C_19 
ROOT
ATOM      1  C   UNL d   1       9.437   6.266 -11.516  0.00  0.00     0.253 C 
ENDROOT
BRANCH   1   2
ATOM      2  N   UNL d   1       8.163   5.654 -11.869  0.00  0.00     0.141 N 
ATOM      3  C   UNL d   1       7.965   4.391 -11.155  0.00  0.00     0.274 C 
ATOM      4  C   UNL d   1       6.603   3.761 -11.524  0.00  0.00     0.137 C 
ATOM      5  N   UNL d   1       6.557   3.534 -12.949  0.00  0.00    -0.344 N 
ATOM      6  C   UNL d   1       6.829   4.720 -13.702  0.00  0.00     0.137 C 
ATOM      7  C   UNL d   1       8.179   5.351 -13.299  0.00  0.00     0.274 C 
BRANCH   5   8
ATOM      8  C   UNL d   1       6.263   2.292 -13.557  0.00  0.00     0.062 A 
ATOM      9  C   UNL d   1       7.138   1.650 -14.482  0.00  0.00     0.041 A 
ATOM     10  C   UNL d   1       6.793   0.385 -15.014  0.00  0.00     0.008 A 
ATOM     11  C   UNL d   1       5.611  -0.258 -14.620  0.00  0.00     0.001 A 
ATOM     12  C   UNL d   1       4.761   0.354 -13.689  0.00  0.00     0.002 A 
ATOM     13  C   UNL d   1       5.101   1.612 -13.149  0.00  0.00     0.017 A 
BRANCH   9  14
ATOM     14  S   UNL d   1       8.687   2.369 -14.970  0.00  0.00    -0.111 SA
ATOM     15  C   UNL d   1       9.899   1.025 -15.036  0.00  0.00     0.074 C 
ENDBRANCH   9  14
ENDBRANCH   5   8
ENDBRANCH   1   2
BRANCH   1  16
ATOM     16  C   UNL d   1       9.523   6.565 -10.010  0.00  0.00     0.062 C 
BRANCH  16  17
ATOM     17  C   UNL d   1      10.454   7.731  -9.695  0.00  0.00     0.131 C 
BRANCH  17  18
ATOM     18  N   UNL d   1      10.304   8.184  -8.319  0.00  0.00    -0.234 NA
ATOM     19  C   UNL d   1      10.843   7.578  -7.253  0.00  0.00     0.278 C 
ATOM     20  O   UNL d   1      11.239   6.412  -7.253  0.00  0.00    -0.265 OA
BRANCH  19  21
ATOM     21  C   UNL d   1      10.989   8.456  -6.071  0.00  0.00     0.096 A 
ATOM     22  C   UNL d   1      11.441   8.038  -4.850  0.00  0.00     0.089 A 
ATOM     23  N   UNL d   1      11.481   9.200  -4.048  0.00  0.00    -0.228 N 
ATOM     24  C   UNL d   1      11.853   6.814  -4.253  0.00  0.00     0.019 A 
ATOM     25  N   UNL d   1      11.056  10.306  -4.739  0.00  0.00    -0.163 NA
ATOM     26  C   UNL d   1      11.887   9.188  -2.757  0.00  0.00     0.101 A 
ATOM     27  C   UNL d   1      10.799   9.850  -5.939  0.00  0.00     0.127 A 
ATOM     28  C   UNL d   1      12.264   8.000  -2.182  0.00  0.00     0.021 A 
ATOM     29  C   UNL d   1      12.256   6.801  -2.938  0.00  0.00     0.003 A 
ENDBRANCH  19  21
ENDBRANCH  17  18
ENDBRANCH  16  17
ENDBRANCH   1  16
TORSDOF 7
