REMARK  9 active torsions:
REMARK  status: ('A' for Active; 'I' for Inactive)
REMARK    1  A    between atoms: O_2  and  C_3 
REMARK    2  A    between atoms: C_8  and  N_9 
REMARK    3  A    between atoms: N_12  and  C_13 
REMARK    4  A    between atoms: C_13  and  C_14 
REMARK    5  A    between atoms: C_15  and  C_16 
REMARK    6  A    between atoms: C_16  and  N_17 
REMARK       I    between atoms: N_17  and  C_18 
REMARK    7  A    between atoms: C_18  and  C_20 
REMARK    8  A    between atoms: C_23  and  C_24 
REMARK    9  A    between atoms: C_24  and  C_25 
ROOT
ATOM      1  C   UNL d   1       6.232   1.577 -13.887  0.00  0.00     0.276 C 
ENDROOT
BRANCH   1   2
ATOM      2  N   UNL d   1       7.181   0.812 -14.697  0.00  0.00     0.145 N 
ATOM      3  C   UNL d   1       8.570   1.082 -14.299  0.00  0.00     0.275 C 
ATOM      4  C   UNL d   1       9.562   0.239 -15.113  0.00  0.00     0.137 C 
ATOM      5  N   UNL d   1       9.331   0.446 -16.537  0.00  0.00    -0.343 N 
ATOM      6  C   UNL d   1       7.950   0.255 -16.970  0.00  0.00     0.137 C 
ATOM      7  C   UNL d   1       7.000   1.109 -16.122  0.00  0.00     0.275 C 
BRANCH   5   8
ATOM      8  C   UNL d   1      10.370   0.791 -17.423  0.00  0.00     0.079 A 
ATOM      9  C   UNL d   1      10.449   0.223 -18.725  0.00  0.00     0.110 A 
ATOM     10  C   UNL d   1      11.507   0.616 -19.583  0.00  0.00     0.026 A 
ATOM     11  C   UNL d   1      12.480   1.536 -19.157  0.00  0.00     0.002 A 
ATOM     12  C   UNL d   1      12.406   2.086 -17.869  0.00  0.00     0.002 A 
ATOM     13  C   UNL d   1      11.353   1.720 -17.010  0.00  0.00     0.019 A 
BRANCH   9  14
ATOM     14  O   UNL d   1       9.510  -0.724 -19.085  0.00  0.00    -0.327 OA
ATOM     15  C   UNL d   1       9.373  -1.059 -20.454  0.00  0.00     0.181 C 
ENDBRANCH   9  14
ENDBRANCH   5   8
ENDBRANCH   1   2
BRANCH   1  16
ATOM     16  C   UNL d   1       6.542   3.066 -13.822  0.00  0.00     0.006 C 
ATOM     17  C   UNL d   1       6.481   3.805 -12.707  0.00  0.00    -0.003 C 
BRANCH  17  18
ATOM     18  C   UNL d   1       6.844   5.273 -12.658  0.00  0.00     0.155 C 
BRANCH  18  19
ATOM     19  N   UNL d   1       7.558   5.596 -11.435  0.00  0.00    -0.229 NA
ATOM     20  C   UNL d   1       8.886   5.721 -11.309  0.00  0.00     0.275 C 
ATOM     21  O   UNL d   1       9.680   5.508 -12.229  0.00  0.00    -0.266 OA
BRANCH  20  22
ATOM     22  C   UNL d   1       9.351   6.240  -9.980  0.00  0.00     0.058 A 
ATOM     23  C   UNL d   1       8.713   5.857  -8.778  0.00  0.00     0.004 A 
ATOM     24  C   UNL d   1       9.141   6.392  -7.549  0.00  0.00    -0.004 A 
ATOM     25  C   UNL d   1      10.232   7.282  -7.499  0.00  0.00    -0.019 A 
ATOM     26  C   UNL d   1      10.871   7.665  -8.695  0.00  0.00    -0.004 A 
ATOM     27  C   UNL d   1      10.428   7.147  -9.922  0.00  0.00     0.004 A 
BRANCH  25  28
ATOM     28  C   UNL d   1      10.708   7.835  -6.167  0.00  0.00     0.065 C 
BRANCH  28  29
ATOM     29  C   UNL d   1      11.366   6.761  -5.291  0.00  0.00     0.198 C 
ATOM     30  F   UNL d   1      11.851   7.309  -4.177  0.00  0.00    -0.234 F 
ENDBRANCH  28  29
ENDBRANCH  25  28
ENDBRANCH  20  22
ENDBRANCH  18  19
ENDBRANCH  17  18
ENDBRANCH   1  16
TORSDOF 9
