REMARK  6 active torsions:
REMARK  status: ('A' for Active; 'I' for Inactive)
REMARK    1  A    between atoms: C_5  and  N_6 
REMARK    2  A    between atoms: N_9  and  C_10 
REMARK    3  A    between atoms: C_10  and  C_11 
REMARK    4  A    between atoms: C_11  and  C_12 
REMARK    5  A    between atoms: C_12  and  O_13 
REMARK    6  A    between atoms: O_13  and  C_14 
ROOT
ATOM      1  N   UNL d   1      10.659   6.817  -8.493  0.00  0.00    -0.344 N 
ATOM      2  C   UNL d   1       9.968   5.534  -8.498  0.00  0.00     0.137 C 
ATOM      3  C   UNL d   1       8.763   5.591  -9.438  0.00  0.00     0.274 C 
ATOM      4  N   UNL d   1       9.196   5.968 -10.791  0.00  0.00     0.141 N 
ATOM      5  C   UNL d   1       9.781   7.316 -10.727  0.00  0.00     0.274 C 
ATOM      6  C   UNL d   1      11.011   7.341  -9.801  0.00  0.00     0.137 C 
ENDROOT
BRANCH   4   7
ATOM      7  C   UNL d   1       8.050   6.006 -11.696  0.00  0.00     0.253 C 
BRANCH   7   8
ATOM      8  C   UNL d   1       7.447   4.612 -11.942  0.00  0.00     0.068 C 
BRANCH   8   9
ATOM      9  C   UNL d   1       6.181   4.671 -12.809  0.00  0.00     0.151 C 
BRANCH   9  10
ATOM     10  O   UNL d   1       6.447   3.959 -14.020  0.00  0.00    -0.331 OA
BRANCH  10  11
ATOM     11  C   UNL d   1       6.407   2.586 -13.982  0.00  0.00     0.094 A 
ATOM     12  C   UNL d   1       7.346   1.854 -14.751  0.00  0.00     0.024 A 
ATOM     13  C   UNL d   1       7.345   0.443 -14.729  0.00  0.00     0.002 A 
ATOM     14  C   UNL d   1       6.402  -0.252 -13.952  0.00  0.00     0.000 A 
ATOM     15  C   UNL d   1       5.452   0.474 -13.207  0.00  0.00     0.002 A 
ATOM     16  C   UNL d   1       5.454   1.879 -13.222  0.00  0.00     0.024 A 
ENDBRANCH  10  11
ENDBRANCH   9  10
ENDBRANCH   8   9
ENDBRANCH   7   8
ENDBRANCH   4   7
BRANCH   1  17
ATOM     17  C   UNL d   1      10.947   7.496  -7.283  0.00  0.00     0.056 A 
ATOM     18  C   UNL d   1      11.001   8.903  -7.224  0.00  0.00     0.018 A 
ATOM     19  C   UNL d   1      11.286   9.554  -6.005  0.00  0.00     0.013 A 
ATOM     20  C   UNL d   1      11.513   8.805  -4.832  0.00  0.00     0.058 A 
ATOM     21 CL   UNL d   1      11.859   9.582  -3.336  0.00  0.00    -0.082 Cl
ATOM     22  C   UNL d   1      11.462   7.399  -4.888  0.00  0.00     0.013 A 
ATOM     23  C   UNL d   1      11.187   6.763  -6.105  0.00  0.00     0.018 A 
ENDBRANCH   1  17
TORSDOF 6
