REMARK  9 active torsions:
REMARK  status: ('A' for Active; 'I' for Inactive)
REMARK    1  A    between atoms: C_2  and  C_3 
REMARK    2  A    between atoms: C_3  and  N_4 
REMARK    3  A    between atoms: N_4  and  C_5 
REMARK    4  A    between atoms: N_4  and  C_19 
REMARK    5  A    between atoms: C_5  and  C_6 
REMARK    6  A    between atoms: C_6  and  C_7 
REMARK    7  A    between atoms: C_7  and  C_8 
REMARK    8  A    between atoms: C_8  and  O_9 
REMARK    9  A    between atoms: O_9  and  C_10 
ROOT
ATOM      1  N   UNL d   1       9.435   5.275 -12.893  0.00  0.00     0.135 N 
ENDROOT
BRANCH   1   2
ATOM      2  C   UNL d   1       8.464   6.354 -13.167  0.00  0.00     0.250 C 
BRANCH   2   3
ATOM      3  C   UNL d   1       7.124   6.309 -12.366  0.00  0.00     0.035 C 
ATOM      4  C   UNL d   1       6.297   5.011 -12.654  0.00  0.00     0.002 C 
ENDBRANCH   2   3
ENDBRANCH   1   2
BRANCH   1   5
ATOM      5  C   UNL d   1       9.408   4.894 -11.465  0.00  0.00     0.250 C 
BRANCH   5   6
ATOM      6  C   UNL d   1       9.681   6.134 -10.561  0.00  0.00     0.038 C 
BRANCH   6   7
ATOM      7  C   UNL d   1       9.694   5.619  -9.102  0.00  0.00     0.035 C 
BRANCH   7   8
ATOM      8  C   UNL d   1      10.021   6.771  -8.178  0.00  0.00     0.149 C 
BRANCH   8   9
ATOM      9  O   UNL d   1      10.606   6.305  -6.976  0.00  0.00    -0.331 OA
BRANCH   9  10
ATOM     10  C   UNL d   1      10.931   7.254  -6.045  0.00  0.00     0.097 A 
ATOM     11  C   UNL d   1      11.462   6.817  -4.834  0.00  0.00     0.043 A 
ATOM     12  C   UNL d   1      11.781   7.776  -3.846  0.00  0.00     0.086 A 
ATOM     13  N   UNL d   1      11.545   9.132  -4.140  0.00  0.00    -0.228 N 
ATOM     14  C   UNL d   1      12.267   7.750  -2.559  0.00  0.00     0.042 A 
ATOM     15  C   UNL d   1      11.034   9.566  -5.323  0.00  0.00     0.102 A 
ATOM     16  N   UNL d   1      11.862   9.941  -3.097  0.00  0.00    -0.164 NA
ATOM     17  C   UNL d   1      10.724   8.638  -6.269  0.00  0.00     0.045 A 
ATOM     18  C   UNL d   1      12.275   9.111  -2.177  0.00  0.00     0.122 A 
ENDBRANCH   9  10
ENDBRANCH   8   9
ENDBRANCH   7   8
ENDBRANCH   6   7
ENDBRANCH   5   6
ENDBRANCH   1   5
BRANCH   1  19
ATOM     19  C   UNL d   1       9.336   4.150 -13.856  0.00  0.00     0.224 C 
ATOM     20  C   UNL d   1       9.527   4.575 -15.339  0.00  0.00     0.059 C 
ATOM     21  C   UNL d   1       9.661   3.411 -16.312  0.00  0.00    -0.022 A 
ATOM     22  C   UNL d   1       9.970   2.096 -15.877  0.00  0.00    -0.001 A 
ATOM     23  C   UNL d   1       9.459   3.655 -17.684  0.00  0.00    -0.004 A 
ATOM     24  C   UNL d   1      10.146   1.794 -14.402  0.00  0.00     0.030 C 
ATOM     25  C   UNL d   1      10.092   1.051 -16.816  0.00  0.00     0.127 A 
ATOM     26  C   UNL d   1      10.361   3.045 -13.545  0.00  0.00     0.038 C 
ATOM     27  O   UNL d   1      10.372  -0.221 -16.403  0.00  0.00    -0.191 OA
ATOM     28  C   UNL d   1       9.923   1.317 -18.187  0.00  0.00     0.027 A 
ATOM     29  C   UNL d   1       9.599   2.616 -18.620  0.00  0.00     0.002 A 
ENDBRANCH   1  19
TORSDOF 9
