REMARK  7 active torsions:
REMARK  status: ('A' for Active; 'I' for Inactive)
REMARK    1  A    between atoms: O_2  and  C_3 
REMARK    2  A    between atoms: C_6  and  N_7 
REMARK    3  A    between atoms: N_10  and  C_11 
REMARK    4  A    between atoms: C_11  and  C_12 
REMARK    5  A    between atoms: C_12  and  N_13 
REMARK       I    between atoms: N_13  and  C_14 
REMARK    6  A    between atoms: C_14  and  C_16 
REMARK    7  A    between atoms: C_20  and  O_21 
ROOT
ATOM      1  N   UNL d   1       7.427   3.275 -13.692  0.00  0.00    -0.344 N 
ATOM      2  C   UNL d   1       6.675   4.359 -13.098  0.00  0.00     0.137 C 
ATOM      3  C   UNL d   1       7.351   4.844 -11.823  0.00  0.00     0.274 C 
ATOM      4  N   UNL d   1       8.759   5.194 -12.066  0.00  0.00     0.143 N 
ATOM      5  C   UNL d   1       9.467   3.993 -12.519  0.00  0.00     0.274 C 
ATOM      6  C   UNL d   1       8.862   3.499 -13.840  0.00  0.00     0.137 C 
ENDROOT
BRANCH   4   7
ATOM      7  C   UNL d   1       9.316   5.609 -10.797  0.00  0.00     0.277 C 
BRANCH   7   8
ATOM      8  C   UNL d   1       9.585   7.110 -10.726  0.00  0.00     0.164 C 
BRANCH   8   9
ATOM      9  N   UNL d   1      10.213   7.519  -9.470  0.00  0.00    -0.232 NA
ATOM     10  C   UNL d   1      10.030   7.015  -8.225  0.00  0.00     0.275 C 
ATOM     11  O   UNL d   1       9.378   6.000  -7.984  0.00  0.00    -0.266 OA
BRANCH  10  12
ATOM     12  C   UNL d   1      10.693   7.770  -7.110  0.00  0.00     0.059 A 
ATOM     13  C   UNL d   1      10.953   7.104  -5.877  0.00  0.00     0.029 A 
ATOM     14  C   UNL d   1      11.502   7.796  -4.779  0.00  0.00     0.094 A 
ATOM     15  C   UNL d   1      11.787   9.180  -4.925  0.00  0.00     0.024 A 
ATOM     16  C   UNL d   1      11.525   9.850  -6.135  0.00  0.00     0.002 A 
ATOM     17  C   UNL d   1      10.979   9.153  -7.224  0.00  0.00     0.005 A 
BRANCH  14  18
ATOM     18  O   UNL d   1      11.721   7.058  -3.629  0.00  0.00    -0.328 OA
ATOM     19  C   UNL d   1      12.188   7.769  -2.496  0.00  0.00     0.181 C 
ENDBRANCH  14  18
ENDBRANCH  10  12
ENDBRANCH   8   9
ENDBRANCH   7   8
ENDBRANCH   4   7
BRANCH   1  20
ATOM     20  C   UNL d   1       6.825   2.052 -14.062  0.00  0.00     0.056 A 
ATOM     21  C   UNL d   1       5.669   1.570 -13.401  0.00  0.00     0.019 A 
ATOM     22  C   UNL d   1       5.082   0.355 -13.796  0.00  0.00     0.026 A 
ATOM     23  C   UNL d   1       5.636  -0.402 -14.854  0.00  0.00     0.094 A 
ATOM     24  C   UNL d   1       6.825   0.065 -15.467  0.00  0.00     0.026 A 
ATOM     25  C   UNL d   1       7.392   1.280 -15.087  0.00  0.00     0.019 A 
BRANCH  23  26
ATOM     26  O   UNL d   1       4.985  -1.550 -15.215  0.00  0.00    -0.328 OA
ATOM     27  C   UNL d   1       5.019  -1.898 -16.595  0.00  0.00     0.181 C 
ENDBRANCH  23  26
ENDBRANCH   1  20
TORSDOF 7
