REMARK  13 active torsions:
REMARK  status: ('A' for Active; 'I' for Inactive)
REMARK    1  A    between atoms: O_2  and  C_3 
REMARK    2  A    between atoms: C_6  and  C_7 
REMARK    3  A    between atoms: C_7  and  C_8 
REMARK    4  A    between atoms: C_8  and  N_9 
REMARK    5  A    between atoms: N_9  and  C_11 
REMARK    6  A    between atoms: C_11  and  C_12 
REMARK    7  A    between atoms: C_12  and  C_13 
REMARK    8  A    between atoms: C_13  and  C_14 
REMARK    9  A    between atoms: C_14  and  C_17 
REMARK   10  A    between atoms: C_14  and  C_27 
REMARK   11  A    between atoms: C_20  and  O_21 
REMARK   12  A    between atoms: C_23  and  O_24 
REMARK   13  A    between atoms: C_31  and  O_32 
ROOT
ATOM      1  C   UNL d   1      11.363   4.171 -16.470  0.00  0.00     0.098 C 
ATOM      2  C   UNL d   1      10.834   2.790 -16.333  0.00  0.00     0.076 C 
ATOM      3  N   UNL d   1      10.414   1.719 -16.214  0.00  0.00    -0.196 NA
ENDROOT
BRANCH   1   4
ATOM      4  C   UNL d   1      10.449   5.109 -15.635  0.00  0.00     0.020 C 
BRANCH   4   5
ATOM      5  C   UNL d   1      10.080   4.615 -14.236  0.00  0.00     0.037 C 
BRANCH   5   6
ATOM      6  C   UNL d   1       9.155   5.618 -13.480  0.00  0.00     0.250 C 
BRANCH   6   7
ATOM      7  N   UNL d   1       8.617   5.008 -12.245  0.00  0.00     0.139 N 
ATOM      8  C   UNL d   1       9.695   4.721 -11.294  0.00  0.00     0.285 C 
BRANCH   7   9
ATOM      9  C   UNL d   1       7.924   3.756 -12.528  0.00  0.00     0.255 C 
BRANCH   9  10
ATOM     10  C   UNL d   1       6.941   3.866 -13.697  0.00  0.00     0.062 C 
BRANCH  10  11
ATOM     11  C   UNL d   1       6.362   2.523 -14.057  0.00  0.00    -0.018 A 
ATOM     12  C   UNL d   1       5.432   1.930 -13.213  0.00  0.00    -0.002 A 
ATOM     13  C   UNL d   1       4.866   0.703 -13.572  0.00  0.00     0.026 A 
ATOM     14  C   UNL d   1       5.202   0.071 -14.779  0.00  0.00     0.116 A 
ATOM     15  C   UNL d   1       6.146   0.649 -15.640  0.00  0.00     0.116 A 
ATOM     16  C   UNL d   1       6.745   1.883 -15.266  0.00  0.00     0.022 A 
BRANCH  14  17
ATOM     17  O   UNL d   1       4.559  -1.100 -15.082  0.00  0.00    -0.326 OA
ATOM     18  C   UNL d   1       5.408  -2.220 -15.243  0.00  0.00     0.181 C 
ENDBRANCH  14  17
BRANCH  15  19
ATOM     19  O   UNL d   1       6.377   0.035 -16.861  0.00  0.00    -0.326 OA
ATOM     20  C   UNL d   1       7.420   0.532 -17.678  0.00  0.00     0.181 C 
ENDBRANCH  15  19
ENDBRANCH  10  11
ENDBRANCH   9  10
ENDBRANCH   7   9
ENDBRANCH   6   7
ENDBRANCH   5   6
ENDBRANCH   4   5
ENDBRANCH   1   4
BRANCH   1  21
ATOM     21  C   UNL d   1      11.307   4.627 -17.953  0.00  0.00    -0.008 A 
ATOM     22  C   UNL d   1      11.814   5.909 -18.312  0.00  0.00     0.023 A 
ATOM     23  C   UNL d   1      11.887   6.325 -19.652  0.00  0.00     0.116 A 
ATOM     24  C   UNL d   1      11.377   5.489 -20.688  0.00  0.00     0.116 A 
ATOM     25  C   UNL d   1      10.811   4.232 -20.323  0.00  0.00     0.026 A 
ATOM     26  C   UNL d   1      10.787   3.793 -18.986  0.00  0.00    -0.001 A 
BRANCH  23  27
ATOM     27  O   UNL d   1      12.503   7.502 -20.048  0.00  0.00    -0.326 OA
ATOM     28  C   UNL d   1      13.184   8.266 -19.044  0.00  0.00     0.181 C 
ENDBRANCH  23  27
BRANCH  24  29
ATOM     29  O   UNL d   1      11.456   5.980 -21.971  0.00  0.00    -0.326 OA
ATOM     30  C   UNL d   1      10.859   5.214 -22.994  0.00  0.00     0.181 C 
ENDBRANCH  24  29
ENDBRANCH   1  21
BRANCH   1  31
ATOM     31  C   UNL d   1      12.860   4.134 -15.890  0.00  0.00     0.017 C 
ATOM     32  C   UNL d   1      12.994   4.003 -14.369  0.00  0.00     0.001 C 
ATOM     33  C   UNL d   1      13.786   5.323 -16.241  0.00  0.00     0.001 C 
ENDBRANCH   1  31
TORSDOF 13
