REMARK  7 active torsions:
REMARK  status: ('A' for Active; 'I' for Inactive)
REMARK    1  A    between atoms: O_2  and  C_3 
REMARK    2  A    between atoms: C_7  and  N_8 
REMARK    3  A    between atoms: N_11  and  C_12 
REMARK    4  A    between atoms: C_12  and  C_13 
REMARK    5  A    between atoms: C_13  and  C_15 
REMARK    6  A    between atoms: C_15  and  N_16 
REMARK    7  A    between atoms: C_20  and  C_22 
ROOT
ATOM      1  C   UNL d   1       6.950   2.949 -14.148  0.00  0.00     0.208 C 
ATOM      2  O   UNL d   1       6.029   2.841 -13.095  0.00  0.00    -0.219 OA
ENDROOT
BRANCH   1   3
ATOM      3  C   UNL d   1       8.273   3.648 -13.741  0.00  0.00     0.285 C 
BRANCH   3   4
ATOM      4  N   UNL d   1       8.155   4.829 -12.928  0.00  0.00     0.144 N 
ATOM      5  C   UNL d   1       8.035   4.460 -11.509  0.00  0.00     0.274 C 
ATOM      6  C   UNL d   1       7.921   5.668 -10.588  0.00  0.00     0.137 C 
ATOM      7  N   UNL d   1       9.085   6.529 -10.780  0.00  0.00    -0.344 N 
ATOM      8  C   UNL d   1       9.304   6.915 -12.178  0.00  0.00     0.137 C 
ATOM      9  C   UNL d   1       9.365   5.642 -13.033  0.00  0.00     0.274 C 
BRANCH   7  10
ATOM     10  C   UNL d   1       9.864   7.031  -9.702  0.00  0.00     0.058 A 
ATOM     11  C   UNL d   1      10.892   7.986  -9.960  0.00  0.00     0.017 A 
ATOM     12  C   UNL d   1      11.715   8.453  -8.945  0.00  0.00     0.004 A 
ATOM     13  C   UNL d   1      11.542   8.034  -7.618  0.00  0.00     0.024 A 
ATOM     14  C   UNL d   1      10.504   7.112  -7.310  0.00  0.00     0.096 A 
ATOM     15  C   UNL d   1       9.684   6.618  -8.340  0.00  0.00     0.041 A 
BRANCH  14  16
ATOM     16  O   UNL d   1      10.262   6.682  -6.019  0.00  0.00    -0.328 OA
ATOM     17  C   UNL d   1      11.301   6.888  -5.061  0.00  0.00     0.181 C 
ENDBRANCH  14  16
ENDBRANCH   7  10
ENDBRANCH   3   4
ENDBRANCH   1   3
BRANCH   1  18
ATOM     18  C   UNL d   1       7.174   1.519 -14.699  0.00  0.00     0.148 C 
BRANCH  18  19
ATOM     19  N   UNL d   1       8.136   1.457 -15.809  0.00  0.00    -0.247 N 
ATOM     20  C   UNL d   1       7.796   1.504 -17.101  0.00  0.00     0.265 A 
ATOM     21  C   UNL d   1       9.065   1.433 -17.945  0.00  0.00     0.179 A 
ATOM     22  O   UNL d   1       6.661   1.592 -17.575  0.00  0.00    -0.269 OA
ATOM     23  N   UNL d   1      10.032   1.315 -16.872  0.00  0.00    -0.209 NA
ATOM     24  C   UNL d   1       9.093   0.140 -18.786  0.00  0.00     0.039 C 
ATOM     25  C   UNL d   1       9.471   1.314 -15.661  0.00  0.00     0.348 A 
ATOM     26  O   UNL d   1      10.098   1.218 -14.614  0.00  0.00    -0.245 OA
BRANCH  21  27
ATOM     27  C   UNL d   1       9.222   2.726 -18.767  0.00  0.00     0.006 A 
ATOM     28  C   UNL d   1       8.716   2.798 -20.088  0.00  0.00     0.000 A 
ATOM     29  C   UNL d   1       8.868   3.966 -20.857  0.00  0.00     0.029 A 
ATOM     30  C   UNL d   1       9.511   5.091 -20.314  0.00  0.00     0.140 A 
ATOM     31  C   UNL d   1      10.004   5.046 -18.997  0.00  0.00     0.029 A 
ATOM     32  F   UNL d   1       9.654   6.211 -21.059  0.00  0.00    -0.204 F 
ATOM     33  C   UNL d   1       9.860   3.873 -18.227  0.00  0.00     0.000 A 
ENDBRANCH  21  27
ENDBRANCH  18  19
ENDBRANCH   1  18
TORSDOF 7
