REMARK  10 active torsions:
REMARK  status: ('A' for Active; 'I' for Inactive)
REMARK    1  A    between atoms: C_2  and  O_3 
REMARK    2  A    between atoms: O_3  and  C_4 
REMARK    3  A    between atoms: C_9  and  N_10 
REMARK    4  A    between atoms: N_13  and  C_14 
REMARK    5  A    between atoms: C_14  and  C_15 
REMARK    6  A    between atoms: C_15  and  C_16 
REMARK    7  A    between atoms: C_16  and  C_17 
REMARK       I    between atoms: C_17  and  N_19 
REMARK    8  A    between atoms: N_19  and  C_20 
REMARK    9  A    between atoms: C_20  and  C_21 
REMARK   10  A    between atoms: N_32  and  C_33 
ROOT
ATOM      1  C   UNL d   1       7.152   3.005 -14.204  0.00  0.00     0.252 C 
ATOM      2  O   UNL d   1       8.153   3.715 -14.317  0.00  0.00    -0.271 OA
ATOM      3  N   UNL d   1       6.834   2.049 -15.086  0.00  0.00    -0.230 NA
ENDROOT
BRANCH   1   4
ATOM      4  C   UNL d   1       6.139   3.203 -13.079  0.00  0.00     0.092 C 
BRANCH   4   5
ATOM      5  C   UNL d   1       6.498   4.260 -12.031  0.00  0.00     0.045 C 
BRANCH   5   6
ATOM      6  C   UNL d   1       7.991   4.283 -11.586  0.00  0.00     0.251 C 
BRANCH   6   7
ATOM      7  N   UNL d   1       8.218   4.508 -10.190  0.00  0.00     0.141 N 
ATOM      8  C   UNL d   1       9.668   4.403  -9.980  0.00  0.00     0.274 C 
ATOM      9  C   UNL d   1       9.989   4.677  -8.521  0.00  0.00     0.137 C 
ATOM     10  N   UNL d   1       9.515   5.950  -8.085  0.00  0.00    -0.343 N 
ATOM     11  C   UNL d   1       8.171   6.224  -8.456  0.00  0.00     0.137 C 
ATOM     12  C   UNL d   1       7.926   5.879  -9.946  0.00  0.00     0.274 C 
BRANCH  10  13
ATOM     13  C   UNL d   1      10.334   6.931  -7.519  0.00  0.00     0.079 A 
ATOM     14  C   UNL d   1      11.057   7.820  -8.346  0.00  0.00     0.109 A 
ATOM     15  C   UNL d   1      11.820   8.810  -7.750  0.00  0.00     0.026 A 
ATOM     16  C   UNL d   1      11.884   8.955  -6.343  0.00  0.00     0.002 A 
ATOM     17  C   UNL d   1      11.164   8.056  -5.528  0.00  0.00     0.002 A 
ATOM     18  C   UNL d   1      10.391   7.066  -6.116  0.00  0.00     0.019 A 
BRANCH  14  19
ATOM     19  O   UNL d   1      10.974   7.656  -9.723  0.00  0.00    -0.329 OA
BRANCH  19  20
ATOM     20  C   UNL d   1      10.575   8.801 -10.491  0.00  0.00     0.149 C 
ATOM     21  C   UNL d   1       9.579   8.441 -11.609  0.00  0.00     0.035 C 
ENDBRANCH  19  20
ENDBRANCH  14  19
ENDBRANCH  10  13
ENDBRANCH   6   7
ENDBRANCH   5   6
ENDBRANCH   4   5
ENDBRANCH   1   4
BRANCH   3  22
ATOM     22  C   UNL d   1       7.586   1.963 -16.348  0.00  0.00     0.192 C 
BRANCH  22  23
ATOM     23  C   UNL d   1       7.229   0.624 -17.009  0.00  0.00     0.151 A 
ATOM     24  N   UNL d   1       8.275  -0.068 -17.699  0.00  0.00    -0.261 N 
ATOM     25  C   UNL d   1       7.990  -1.261 -18.293  0.00  0.00     0.267 A 
ATOM     26  C   UNL d   1       6.575  -1.734 -18.233  0.00  0.00     0.076 A 
ATOM     27  O   UNL d   1       8.834  -1.978 -18.826  0.00  0.00    -0.267 OA
ATOM     28  C   UNL d   1       5.617  -0.943 -17.567  0.00  0.00     0.087 A 
ATOM     29  C   UNL d   1       6.197  -2.977 -18.792  0.00  0.00     0.036 A 
ATOM     30  N   UNL d   1       5.990   0.251 -16.950  0.00  0.00    -0.230 NA
ATOM     31  C   UNL d   1       4.283  -1.372 -17.493  0.00  0.00     0.022 A 
ATOM     32  C   UNL d   1       3.904  -2.587 -18.086  0.00  0.00     0.031 A 
ATOM     33  C   UNL d   1       4.860  -3.397 -18.719  0.00  0.00     0.140 A 
ATOM     34  F   UNL d   1       4.486  -4.579 -19.261  0.00  0.00    -0.204 F 
BRANCH  24  35
ATOM     35  C   UNL d   1       9.614   0.435 -17.831  0.00  0.00     0.068 A 
ATOM     36  C   UNL d   1      10.417   0.737 -16.702  0.00  0.00     0.018 A 
ATOM     37  C   UNL d   1      11.689   1.298 -16.854  0.00  0.00     0.002 A 
ATOM     38  C   UNL d   1      12.229   1.496 -18.135  0.00  0.00     0.000 A 
ATOM     39  C   UNL d   1      11.479   1.140 -19.275  0.00  0.00     0.002 A 
ATOM     40  C   UNL d   1      10.171   0.631 -19.118  0.00  0.00     0.018 A 
ENDBRANCH  24  35
ENDBRANCH  22  23
ENDBRANCH   3  22
TORSDOF 10
