REMARK  5 active torsions:
REMARK  status: ('A' for Active; 'I' for Inactive)
REMARK    1  A    between atoms: C_2  and  C_3 
REMARK       I    between atoms: C_2  and  N_12 
REMARK    2  A    between atoms: N_15  and  C_16 
REMARK    3  A    between atoms: C_16  and  C_17 
REMARK    4  A    between atoms: C_17  and  O_18 
REMARK    5  A    between atoms: O_18  and  C_19 
ROOT
ATOM      1  O   UNL d   1      12.264   8.798  -8.999  0.00  0.00    -0.264 OA
ATOM      2  C   UNL d   1      11.351   8.196  -8.425  0.00  0.00     0.293 C 
ATOM      3  N   UNL d   1      10.257   7.713  -9.066  0.00  0.00    -0.310 N 
ATOM      4  C   UNL d   1       9.999   7.980 -10.494  0.00  0.00     0.140 C 
ATOM      5  C   UNL d   1       9.735   6.660 -11.235  0.00  0.00     0.274 C 
ATOM      6  N   UNL d   1       8.611   5.934 -10.623  0.00  0.00     0.144 N 
ATOM      7  C   UNL d   1       8.936   5.651  -9.227  0.00  0.00     0.274 C 
ATOM      8  C   UNL d   1       9.153   6.951  -8.444  0.00  0.00     0.140 C 
ENDROOT
BRANCH   2   9
ATOM      9  C   UNL d   1      11.399   8.092  -6.936  0.00  0.00     0.220 A 
ATOM     10  N   UNL d   1      11.515   9.214  -6.205  0.00  0.00    -0.221 NA
ATOM     11  C   UNL d   1      11.629   8.827  -4.876  0.00  0.00     0.101 A 
ATOM     12  C   UNL d   1      11.582   7.411  -4.946  0.00  0.00     0.101 A 
ATOM     13  C   UNL d   1      11.780   9.504  -3.645  0.00  0.00     0.021 A 
ATOM     14  N   UNL d   1      11.460   6.953  -6.247  0.00  0.00    -0.221 NA
ATOM     15  C   UNL d   1      11.704   6.667  -3.751  0.00  0.00     0.021 A 
ATOM     16  C   UNL d   1      11.874   7.344  -2.521  0.00  0.00     0.002 A 
ATOM     17  C   UNL d   1      11.918   8.748  -2.465  0.00  0.00     0.002 A 
ENDBRANCH   2   9
BRANCH   6  18
ATOM     18  C   UNL d   1       8.331   4.654 -11.294  0.00  0.00     0.283 C 
BRANCH  18  19
ATOM     19  C   UNL d   1       7.522   4.862 -12.603  0.00  0.00     0.184 C 
BRANCH  19  20
ATOM     20  O   UNL d   1       7.498   3.686 -13.386  0.00  0.00    -0.327 OA
BRANCH  20  21
ATOM     21  C   UNL d   1       8.666   3.276 -13.989  0.00  0.00     0.113 A 
ATOM     22  C   UNL d   1       8.719   2.030 -14.670  0.00  0.00     0.123 A 
ATOM     23  N   UNL d   1       9.841   1.535 -15.243  0.00  0.00    -0.240 NA
ATOM     24  C   UNL d   1      10.975   2.261 -15.170  0.00  0.00     0.099 A 
ATOM     25  C   UNL d   1      11.038   3.510 -14.511  0.00  0.00     0.023 A 
ATOM     26  C   UNL d   1       9.865   4.031 -13.930  0.00  0.00     0.027 A 
ENDBRANCH  20  21
ENDBRANCH  19  20
ENDBRANCH  18  19
ENDBRANCH   6  18
TORSDOF 5
