REMARK  7 active torsions:
REMARK  status: ('A' for Active; 'I' for Inactive)
REMARK    1  A    between atoms: O_2  and  C_3 
REMARK    2  A    between atoms: N_15  and  C_16 
REMARK    3  A    between atoms: C_16  and  C_17 
REMARK    4  A    between atoms: C_17  and  C_18 
REMARK    5  A    between atoms: C_18  and  S_19 
REMARK    6  A    between atoms: S_19  and  C_20 
REMARK    7  A    between atoms: C_23  and  C_24 
ROOT
ATOM      1  C   UNL d   1       6.865   0.335 -21.401  0.00  0.00     0.094 A 
ATOM      2  C   UNL d   1       6.274   0.889 -20.244  0.00  0.00     0.024 A 
ATOM      3  C   UNL d   1       5.632   0.078 -19.310  0.00  0.00    -0.003 A 
ATOM      4  C   UNL d   1       5.473  -1.305 -19.509  0.00  0.00    -0.025 A 
ATOM      5  C   UNL d   1       6.070  -1.883 -20.652  0.00  0.00    -0.024 A 
ATOM      6  C   UNL d   1       6.758  -1.069 -21.594  0.00  0.00     0.020 A 
ATOM      7  C   UNL d   1       5.932  -3.382 -20.921  0.00  0.00     0.026 C 
ATOM      8  C   UNL d   1       5.514  -4.197 -19.687  0.00  0.00     0.005 C 
ATOM      9  C   UNL d   1       4.354  -3.520 -18.941  0.00  0.00     0.006 C 
ATOM     10  C   UNL d   1       4.742  -2.121 -18.436  0.00  0.00     0.052 C 
ATOM     11  C   UNL d   1       3.473  -1.379 -17.939  0.00  0.00     0.041 C 
ATOM     12  C   UNL d   1       3.758  -0.997 -16.512  0.00  0.00     0.251 C 
ATOM     13  N   UNL d   1       4.745  -1.966 -16.081  0.00  0.00     0.137 N 
ATOM     14  C   UNL d   1       5.609  -2.236 -17.165  0.00  0.00     0.254 C 
ENDROOT
BRANCH  13  15
ATOM     15  C   UNL d   1       5.386  -1.655 -14.789  0.00  0.00     0.251 C 
BRANCH  15  16
ATOM     16  C   UNL d   1       6.499  -0.560 -14.826  0.00  0.00     0.047 C 
BRANCH  16  17
ATOM     17  C   UNL d   1       5.953   0.884 -14.837  0.00  0.00     0.067 C 
BRANCH  17  18
ATOM     18  S   UNL d   1       7.297   2.088 -14.700  0.00  0.00    -0.075 SA
BRANCH  18  19
ATOM     19  C   UNL d   1       8.127   1.690 -16.217  0.00  0.00     0.193 A 
ATOM     20  N   UNL d   1       9.399   1.290 -16.228  0.00  0.00    -0.287 N 
ATOM     21  C   UNL d   1       9.664   1.139 -17.555  0.00  0.00     0.191 A 
ATOM     22  C   UNL d   1      10.269   1.140 -15.076  0.00  0.00     0.134 C 
ATOM     23  N   UNL d   1       8.585   1.363 -18.303  0.00  0.00    -0.126 NA
ATOM     24  N   UNL d   1       7.582   1.747 -17.437  0.00  0.00    -0.122 NA
BRANCH  21  25
ATOM     25  C   UNL d   1      10.958   0.830 -18.140  0.00  0.00     0.151 A 
ATOM     26  C   UNL d   1      12.200   1.428 -18.056  0.00  0.00     0.087 A 
ATOM     27  N   UNL d   1      13.061   0.714 -18.885  0.00  0.00    -0.221 NA
ATOM     28  C   UNL d   1      12.677   2.644 -17.306  0.00  0.00     0.054 C 
ATOM     29  C   UNL d   1      12.317  -0.249 -19.430  0.00  0.00     0.225 A 
ATOM     30  O   UNL d   1      11.022  -0.225 -19.021  0.00  0.00    -0.282 OA
ENDBRANCH  21  25
ENDBRANCH  18  19
ENDBRANCH  17  18
ENDBRANCH  16  17
ENDBRANCH  15  16
ENDBRANCH  13  15
BRANCH   1  31
ATOM     31  O   UNL d   1       7.571   1.087 -22.314  0.00  0.00    -0.328 OA
ATOM     32  C   UNL d   1       7.688   2.487 -22.053  0.00  0.00     0.181 C 
ENDBRANCH   1  31
TORSDOF 7
