REMARK  11 active torsions:
REMARK  status: ('A' for Active; 'I' for Inactive)
REMARK    1  A    between atoms: C_2  and  C_3 
REMARK    2  A    between atoms: C_3  and  N_4 
REMARK    3  A    between atoms: N_4  and  C_5 
REMARK    4  A    between atoms: N_4  and  C_22 
REMARK    5  A    between atoms: C_5  and  C_6 
REMARK    6  A    between atoms: C_6  and  C_7 
REMARK    7  A    between atoms: C_7  and  C_8 
REMARK    8  A    between atoms: C_8  and  N_9 
REMARK       I    between atoms: N_9  and  C_10 
REMARK    9  A    between atoms: C_10  and  C_12 
REMARK   10  A    between atoms: C_22  and  C_23 
REMARK   11  A    between atoms: C_25  and  C_26 
ROOT
ATOM      1  C   UNL d   1       8.003   6.524 -12.202  0.00  0.00     0.250 C 
ENDROOT
BRANCH   1   2
ATOM      2  N   UNL d   1       8.514   5.197 -12.561  0.00  0.00     0.137 N 
BRANCH   2   3
ATOM      3  C   UNL d   1       7.450   4.211 -12.300  0.00  0.00     0.250 C 
BRANCH   3   4
ATOM      4  C   UNL d   1       6.090   4.515 -12.954  0.00  0.00     0.035 C 
ATOM      5  C   UNL d   1       5.110   3.359 -12.842  0.00  0.00     0.002 C 
ENDBRANCH   3   4
ENDBRANCH   2   3
BRANCH   2   6
ATOM      6  C   UNL d   1       9.051   5.197 -13.930  0.00  0.00     0.251 C 
BRANCH   6   7
ATOM      7  C   UNL d   1       9.732   3.912 -14.343  0.00  0.00     0.038 A 
ATOM      8  C   UNL d   1      10.247   3.723 -15.754  0.00  0.00     0.024 A 
ATOM      9  C   UNL d   1      11.230   3.858 -14.598  0.00  0.00     0.007 A 
BRANCH   8  10
ATOM     10  C   UNL d   1      10.016   2.408 -16.431  0.00  0.00    -0.022 A 
ATOM     11  C   UNL d   1      10.071   1.200 -15.692  0.00  0.00    -0.003 A 
ATOM     12  C   UNL d   1       9.880  -0.036 -16.316  0.00  0.00     0.011 A 
ATOM     13  C   UNL d   1       9.626  -0.085 -17.697  0.00  0.00     0.058 A 
ATOM     14  C   UNL d   1       9.540   1.105 -18.445  0.00  0.00     0.011 A 
ATOM     15 CL   UNL d   1       9.407  -1.606 -18.445  0.00  0.00    -0.082 Cl
ATOM     16  C   UNL d   1       9.725   2.352 -17.812  0.00  0.00    -0.003 A 
ENDBRANCH   8  10
ENDBRANCH   6   7
ENDBRANCH   2   6
ENDBRANCH   1   2
BRANCH   1  17
ATOM     17  C   UNL d   1       9.053   7.623 -11.991  0.00  0.00     0.037 C 
BRANCH  17  18
ATOM     18  C   UNL d   1       9.785   7.426 -10.672  0.00  0.00     0.029 C 
BRANCH  18  19
ATOM     19  C   UNL d   1      10.584   8.662 -10.256  0.00  0.00     0.129 C 
BRANCH  19  20
ATOM     20  N   UNL d   1      11.069   8.518  -8.896  0.00  0.00    -0.234 NA
ATOM     21  C   UNL d   1      10.296   8.709  -7.812  0.00  0.00     0.275 C 
ATOM     22  O   UNL d   1       9.166   9.172  -7.832  0.00  0.00    -0.266 OA
BRANCH  21  23
ATOM     23  C   UNL d   1      10.911   8.283  -6.535  0.00  0.00     0.058 A 
ATOM     24  C   UNL d   1      11.038   9.191  -5.462  0.00  0.00     0.005 A 
ATOM     25  C   UNL d   1      11.579   8.754  -4.250  0.00  0.00     0.000 A 
ATOM     26  C   UNL d   1      11.960   7.395  -4.071  0.00  0.00     0.000 A 
ATOM     27  C   UNL d   1      11.733   9.642  -3.179  0.00  0.00     0.000 A 
ATOM     28  C   UNL d   1      11.837   6.522  -5.147  0.00  0.00     0.000 A 
ATOM     29  C   UNL d   1      12.496   6.951  -2.844  0.00  0.00     0.000 A 
ATOM     30  C   UNL d   1      11.306   6.944  -6.378  0.00  0.00     0.005 A 
ATOM     31  C   UNL d   1      12.648   7.858  -1.790  0.00  0.00     0.000 A 
ATOM     32  C   UNL d   1      12.251   9.179  -1.948  0.00  0.00     0.000 A 
ENDBRANCH  21  23
ENDBRANCH  19  20
ENDBRANCH  18  19
ENDBRANCH  17  18
ENDBRANCH   1  17
TORSDOF 11
