REMARK  7 active torsions:
REMARK  status: ('A' for Active; 'I' for Inactive)
REMARK    1  A    between atoms: C_7  and  S_8 
REMARK    2  A    between atoms: S_8  and  N_11 
REMARK    3  A    between atoms: N_11  and  C_12 
REMARK    4  A    between atoms: N_15  and  C_16 
REMARK    5  A    between atoms: C_16  and  C_17 
REMARK    6  A    between atoms: C_17  and  C_18 
REMARK    7  A    between atoms: C_18  and  C_19 
ROOT
ATOM      1  C   UNL d   1       6.506   4.384 -12.895  0.00  0.00     0.151 C 
ATOM      2  C   UNL d   1       5.305   3.631 -12.340  0.00  0.00     0.063 C 
ATOM      3  C   UNL d   1       5.457   2.200 -12.836  0.00  0.00     0.252 C 
ATOM      4  N   UNL d   1       6.325   2.318 -14.019  0.00  0.00     0.139 N 
ATOM      5  C   UNL d   1       7.308   3.354 -13.704  0.00  0.00     0.275 C 
ENDROOT
BRANCH   1   6
ATOM      6  N   UNL d   1       7.319   4.996 -11.856  0.00  0.00    -0.184 NA
BRANCH   6   7
ATOM      7  S   UNL d   1       8.399   6.240 -12.349  0.00  0.00     0.287 S 
ATOM      8  O   UNL d   1       7.585   7.365 -12.812  0.00  0.00    -0.198 OA
ATOM      9  O   UNL d   1       9.417   5.613 -13.207  0.00  0.00    -0.198 OA
BRANCH   7  10
ATOM     10  C   UNL d   1       9.199   6.783 -10.848  0.00  0.00     0.134 A 
ATOM     11  S   UNL d   1       9.876   8.372 -10.713  0.00  0.00    -0.074 SA
ATOM     12  C   UNL d   1      10.291   8.096  -9.024  0.00  0.00     0.030 A 
ATOM     13  C   UNL d   1      10.916   8.985  -8.121  0.00  0.00     0.006 A 
ATOM     14  C   UNL d   1       9.893   6.780  -8.631  0.00  0.00     0.007 A 
ATOM     15  C   UNL d   1      11.151   8.575  -6.791  0.00  0.00    -0.004 A 
ATOM     16  C   UNL d   1      10.771   7.282  -6.377  0.00  0.00    -0.022 A 
ATOM     17  C   UNL d   1      11.036   6.802  -4.961  0.00  0.00     0.031 C 
ATOM     18  C   UNL d   1      10.146   6.418  -7.297  0.00  0.00    -0.004 A 
ATOM     19  C   UNL d   1       9.287   6.032  -9.702  0.00  0.00     0.020 A 
ENDBRANCH   7  10
ENDBRANCH   6   7
ENDBRANCH   1   6
BRANCH   4  20
ATOM     20  C   UNL d   1       6.895   1.030 -14.398  0.00  0.00     0.251 C 
BRANCH  20  21
ATOM     21  C   UNL d   1       7.865   1.113 -15.596  0.00  0.00     0.042 C 
BRANCH  21  22
ATOM     22  C   UNL d   1       9.101   0.233 -15.350  0.00  0.00     0.050 C 
BRANCH  22  23
ATOM     23  C   UNL d   1      10.122   0.346 -16.450  0.00  0.00     0.088 A 
ATOM     24  C   UNL d   1      11.020   1.391 -16.747  0.00  0.00     0.041 A 
ATOM     25  C   UNL d   1      11.736   1.054 -17.894  0.00  0.00     0.126 A 
ATOM     26  C   UNL d   1      11.262   2.628 -16.110  0.00  0.00     0.003 A 
ATOM     27  O   UNL d   1      11.253  -0.187 -18.278  0.00  0.00    -0.211 OA
ATOM     28  C   UNL d   1      12.721   1.886 -18.447  0.00  0.00     0.027 A 
ATOM     29  N   UNL d   1      10.237  -0.611 -17.376  0.00  0.00    -0.131 NA
ATOM     30  C   UNL d   1      12.977   3.119 -17.808  0.00  0.00     0.002 A 
ATOM     31  C   UNL d   1      12.251   3.487 -16.648  0.00  0.00     0.000 A 
ENDBRANCH  22  23
ENDBRANCH  21  22
ENDBRANCH  20  21
ENDBRANCH   4  20
TORSDOF 7
