REMARK  6 active torsions:
REMARK  status: ('A' for Active; 'I' for Inactive)
REMARK    1  A    between atoms: O_2  and  C_3 
REMARK    2  A    between atoms: C_6  and  O_7 
REMARK    3  A    between atoms: O_7  and  C_8 
REMARK    4  A    between atoms: C_8  and  C_9 
REMARK    5  A    between atoms: C_9  and  N_10 
REMARK       I    between atoms: N_13  and  C_14 
REMARK    6  A    between atoms: C_14  and  C_16 
ROOT
ATOM      1  N   UNL d   1      10.469   2.633 -15.992  0.00  0.00     0.144 N 
ATOM      2  C   UNL d   1      10.875   3.604 -14.964  0.00  0.00     0.274 C 
ATOM      3  C   UNL d   1      10.164   3.391 -13.640  0.00  0.00     0.140 C 
ATOM      4  N   UNL d   1       8.716   3.529 -13.839  0.00  0.00    -0.311 N 
ATOM      5  C   UNL d   1       7.875   4.285 -13.095  0.00  0.00     0.275 C 
ATOM      6  O   UNL d   1       6.654   4.275 -13.229  0.00  0.00    -0.266 OA
ATOM      7  C   UNL d   1       8.255   2.587 -14.877  0.00  0.00     0.140 C 
ATOM      8  C   UNL d   1       9.030   2.809 -16.199  0.00  0.00     0.274 C 
ENDROOT
BRANCH   5   9
ATOM      9  C   UNL d   1       8.461   5.091 -12.001  0.00  0.00     0.137 A 
ATOM     10  N   UNL d   1       8.087   4.801 -10.707  0.00  0.00    -0.241 NA
ATOM     11  C   UNL d   1       8.721   5.617  -9.802  0.00  0.00     0.082 A 
ATOM     12  C   UNL d   1       9.527   6.494 -10.588  0.00  0.00     0.020 A 
ATOM     13  C   UNL d   1       8.674   5.711  -8.400  0.00  0.00     0.020 A 
ATOM     14  C   UNL d   1       9.338   6.148 -11.971  0.00  0.00     0.025 A 
ATOM     15  C   UNL d   1      10.283   7.473  -9.895  0.00  0.00     0.013 A 
ATOM     16  C   UNL d   1      10.241   7.574  -8.493  0.00  0.00     0.058 A 
ATOM     17 CL   UNL d   1      11.172   8.783  -7.689  0.00  0.00    -0.082 Cl
ATOM     18  C   UNL d   1       9.435   6.692  -7.743  0.00  0.00     0.013 A 
ENDBRANCH   5   9
BRANCH   1  19
ATOM     19  C   UNL d   1      11.142   2.858 -17.278  0.00  0.00     0.283 C 
BRANCH  19  20
ATOM     20  C   UNL d   1      12.662   2.541 -17.275  0.00  0.00     0.184 C 
BRANCH  20  21
ATOM     21  O   UNL d   1      13.389   3.328 -18.240  0.00  0.00    -0.329 OA
BRANCH  21  22
ATOM     22  C   UNL d   1      13.551   4.682 -17.984  0.00  0.00     0.094 A 
ATOM     23  C   UNL d   1      13.118   5.296 -16.778  0.00  0.00     0.026 A 
ATOM     24  C   UNL d   1      13.213   6.677 -16.610  0.00  0.00     0.026 A 
ATOM     25  C   UNL d   1      13.806   7.489 -17.581  0.00  0.00     0.094 A 
ATOM     26  C   UNL d   1      14.308   6.896 -18.778  0.00  0.00     0.026 A 
ATOM     27  C   UNL d   1      14.167   5.492 -18.976  0.00  0.00     0.026 A 
BRANCH  25  28
ATOM     28  O   UNL d   1      13.858   8.830 -17.269  0.00  0.00    -0.328 OA
ATOM     29  C   UNL d   1      14.502   9.696 -18.180  0.00  0.00     0.181 C 
ENDBRANCH  25  28
ENDBRANCH  21  22
ENDBRANCH  20  21
ENDBRANCH  19  20
ENDBRANCH   1  19
TORSDOF 6
