REMARK  13 active torsions:
REMARK  status: ('A' for Active; 'I' for Inactive)
REMARK    1  A    between atoms: N_3  and  C_4 
REMARK    2  A    between atoms: C_4  and  C_5 
REMARK    3  A    between atoms: C_5  and  S_6 
REMARK    4  A    between atoms: S_6  and  S_7 
REMARK    5  A    between atoms: S_7  and  C_8 
REMARK    6  A    between atoms: C_8  and  C_9 
REMARK    7  A    between atoms: C_9  and  N_10 
REMARK    8  A    between atoms: C_12  and  C_13 
REMARK    9  A    between atoms: C_13  and  C_15 
REMARK   10  A    between atoms: C_15  and  C_16 
REMARK   11  A    between atoms: C_16  and  C_17 
REMARK   12  A    between atoms: C_17  and  N_18 
REMARK   13  A    between atoms: C_21  and  C_23 
ROOT
ATOM      1  N   UNL d   1      16.664  -0.416 -19.799  0.00  0.00     0.068 N 
ATOM      2  N   UNL d   1      16.091   0.572 -19.668  0.00  0.00    -0.166 NA
ATOM      3  N   UNL d   1      15.433   1.604 -19.663  0.00  0.00    -0.097 NA
ENDROOT
BRANCH   3   4
ATOM      4  C   UNL d   1      14.172   1.577 -20.418  0.00  0.00     0.177 C 
BRANCH   4   5
ATOM      5  C   UNL d   1      13.125   0.699 -19.723  0.00  0.00     0.098 C 
BRANCH   5   6
ATOM      6  S   UNL d   1      11.579   0.625 -20.653  0.00  0.00    -0.080 SA
BRANCH   6   7
ATOM      7  S   UNL d   1      10.410  -0.683 -19.606  0.00  0.00    -0.080 SA
BRANCH   7   8
ATOM      8  C   UNL d   1       9.727   0.302 -18.257  0.00  0.00     0.095 C 
BRANCH   8   9
ATOM      9  C   UNL d   1      10.603   0.211 -16.994  0.00  0.00     0.142 C 
BRANCH   9  10
ATOM     10  N   UNL d   1      10.116   1.089 -15.957  0.00  0.00    -0.229 N 
ATOM     11  N   UNL d   1       8.976   0.771 -15.305  0.00  0.00    -0.064 NA
ATOM     12  N   UNL d   1       8.746   1.728 -14.466  0.00  0.00    -0.126 NA
ATOM     13  C   UNL d   1       9.768   2.677 -14.552  0.00  0.00     0.158 A 
ATOM     14  C   UNL d   1      10.656   2.272 -15.507  0.00  0.00     0.121 A 
BRANCH  13  15
ATOM     15  C   UNL d   1       9.880   3.896 -13.753  0.00  0.00     0.194 C 
ATOM     16  O   UNL d   1      10.845   4.657 -13.780  0.00  0.00    -0.290 OA
BRANCH  15  17
ATOM     17  C   UNL d   1       8.674   4.222 -12.865  0.00  0.00     0.073 C 
BRANCH  17  18
ATOM     18  C   UNL d   1       9.033   4.605 -11.427  0.00  0.00     0.043 C 
BRANCH  18  19
ATOM     19  C   UNL d   1       9.455   6.075 -11.266  0.00  0.00     0.251 C 
BRANCH  19  20
ATOM     20  N   UNL d   1       9.952   6.368  -9.936  0.00  0.00     0.137 N 
ATOM     21  C   UNL d   1      10.405   7.763  -9.902  0.00  0.00     0.253 C 
ATOM     22  C   UNL d   1      11.004   8.123  -8.527  0.00  0.00     0.070 C 
ATOM     23  C   UNL d   1      10.024   7.851  -7.372  0.00  0.00     0.149 C 
ATOM     24  C   UNL d   1       9.442   6.430  -7.545  0.00  0.00     0.070 C 
ATOM     25  O   UNL d   1       8.959   8.760  -7.560  0.00  0.00    -0.221 OA
ATOM     26  C   UNL d   1       8.914   6.161  -8.935  0.00  0.00     0.253 C 
BRANCH  23  27
ATOM     27  C   UNL d   1      10.724   8.069  -6.011  0.00  0.00     0.005 A 
ATOM     28  C   UNL d   1      10.834   9.371  -5.477  0.00  0.00    -0.001 A 
ATOM     29  C   UNL d   1      11.429   9.578  -4.217  0.00  0.00     0.011 A 
ATOM     30  C   UNL d   1      11.945   8.483  -3.490  0.00  0.00     0.058 A 
ATOM     31  C   UNL d   1      11.864   7.185  -4.030  0.00  0.00     0.011 A 
ATOM     32 CL   UNL d   1      12.645   8.716  -1.931  0.00  0.00    -0.082 Cl
ATOM     33  C   UNL d   1      11.261   6.985  -5.276  0.00  0.00    -0.001 A 
ENDBRANCH  23  27
ENDBRANCH  19  20
ENDBRANCH  18  19
ENDBRANCH  17  18
ENDBRANCH  15  17
ENDBRANCH  13  15
ENDBRANCH   9  10
ENDBRANCH   8   9
ENDBRANCH   7   8
ENDBRANCH   6   7
ENDBRANCH   5   6
ENDBRANCH   4   5
ENDBRANCH   3   4
TORSDOF 13
