REMARK  8 active torsions:
REMARK  status: ('A' for Active; 'I' for Inactive)
REMARK    1  A    between atoms: C_2  and  O_3 
REMARK    2  A    between atoms: O_3  and  C_4 
REMARK    3  A    between atoms: C_9  and  N_10 
REMARK    4  A    between atoms: N_13  and  C_14 
REMARK    5  A    between atoms: C_14  and  C_15 
REMARK    6  A    between atoms: C_15  and  C_17 
REMARK    7  A    between atoms: C_17  and  N_18 
REMARK    8  A    between atoms: C_22  and  C_24 
ROOT
ATOM      1  C   UNL d   1       9.111   6.280 -11.472  0.00  0.00     0.208 C 
ATOM      2  O   UNL d   1       9.015   7.679 -11.634  0.00  0.00    -0.219 OA
ENDROOT
BRANCH   1   3
ATOM      3  C   UNL d   1       9.566   5.634 -12.796  0.00  0.00     0.285 C 
BRANCH   3   4
ATOM      4  N   UNL d   1       8.985   4.319 -13.091  0.00  0.00     0.144 N 
ATOM      5  C   UNL d   1       9.870   3.523 -13.945  0.00  0.00     0.274 C 
ATOM      6  C   UNL d   1       9.271   2.136 -14.246  0.00  0.00     0.137 C 
ATOM      7  N   UNL d   1       7.937   2.262 -14.807  0.00  0.00    -0.343 N 
ATOM      8  C   UNL d   1       7.008   3.128 -14.090  0.00  0.00     0.137 C 
ATOM      9  C   UNL d   1       7.695   4.478 -13.765  0.00  0.00     0.274 C 
BRANCH   7  10
ATOM     10  C   UNL d   1       7.622   1.652 -16.030  0.00  0.00     0.079 A 
ATOM     11  C   UNL d   1       6.540   0.746 -16.143  0.00  0.00     0.109 A 
ATOM     12  C   UNL d   1       6.289   0.144 -17.403  0.00  0.00     0.026 A 
ATOM     13  C   UNL d   1       7.084   0.446 -18.526  0.00  0.00     0.002 A 
ATOM     14  C   UNL d   1       8.158   1.342 -18.401  0.00  0.00     0.002 A 
ATOM     15  C   UNL d   1       8.427   1.935 -17.151  0.00  0.00     0.019 A 
BRANCH  11  16
ATOM     16  O   UNL d   1       5.773   0.484 -15.015  0.00  0.00    -0.329 OA
BRANCH  16  17
ATOM     17  C   UNL d   1       4.781  -0.538 -15.054  0.00  0.00     0.149 C 
ATOM     18  C   UNL d   1       3.823  -0.346 -13.882  0.00  0.00     0.035 C 
ENDBRANCH  16  17
ENDBRANCH  11  16
ENDBRANCH   7  10
ENDBRANCH   3   4
ENDBRANCH   1   3
BRANCH   1  19
ATOM     19  C   UNL d   1      10.144   6.003 -10.375  0.00  0.00     0.148 C 
BRANCH  19  20
ATOM     20  N   UNL d   1       9.806   6.528  -9.075  0.00  0.00    -0.247 N 
ATOM     21  C   UNL d   1      10.338   7.621  -8.513  0.00  0.00     0.265 A 
ATOM     22  C   UNL d   1       9.672   7.796  -7.171  0.00  0.00     0.179 A 
ATOM     23  O   UNL d   1      11.201   8.378  -8.958  0.00  0.00    -0.269 OA
ATOM     24  N   UNL d   1       8.775   6.655  -7.178  0.00  0.00    -0.209 NA
ATOM     25  C   UNL d   1       8.878   9.062  -7.215  0.00  0.00     0.039 C 
ATOM     26  C   UNL d   1       8.923   5.913  -8.273  0.00  0.00     0.348 A 
ATOM     27  O   UNL d   1       8.379   4.833  -8.489  0.00  0.00    -0.245 OA
BRANCH  22  28
ATOM     28  C   UNL d   1      10.688   7.808  -6.023  0.00  0.00     0.006 A 
ATOM     29  C   UNL d   1      10.934   6.628  -5.310  0.00  0.00     0.000 A 
ATOM     30  C   UNL d   1      11.816   6.571  -4.230  0.00  0.00     0.029 A 
ATOM     31  C   UNL d   1      12.471   7.731  -3.828  0.00  0.00     0.140 A 
ATOM     32  C   UNL d   1      12.276   8.932  -4.535  0.00  0.00     0.029 A 
ATOM     33  F   UNL d   1      13.335   7.652  -2.828  0.00  0.00    -0.204 F 
ATOM     34  C   UNL d   1      11.402   8.973  -5.634  0.00  0.00     0.000 A 
ENDBRANCH  22  28
ENDBRANCH  19  20
ENDBRANCH   1  19
TORSDOF 8
