REMARK  3 active torsions:
REMARK  status: ('A' for Active; 'I' for Inactive)
REMARK    1  A    between atoms: C_2  and  C_4 
REMARK    2  A    between atoms: C_4  and  C_5 
REMARK    3  A    between atoms: C_5  and  N_6 
ROOT
ATOM      1  N   UNL d   1       9.420   6.654  -9.655  0.00  0.00     0.140 N 
ATOM      2  C   UNL d   1      10.457   5.763  -9.242  0.00  0.00     0.268 C 
ATOM      3  C   UNL d   1      10.641   5.763  -7.724  0.00  0.00     0.112 C 
ATOM      4  N   UNL d   1      10.964   7.076  -7.231  0.00  0.00    -0.249 NA
ATOM      5  C   UNL d   1      11.311   7.219  -5.875  0.00  0.00     0.038 A 
ATOM      6  C   UNL d   1      11.857   6.277  -5.050  0.00  0.00     0.011 A 
ATOM      7  C   UNL d   1      12.189   6.472  -3.688  0.00  0.00     0.003 A 
ATOM      8  C   UNL d   1      12.018   7.738  -3.140  0.00  0.00     0.019 A 
ATOM      9  C   UNL d   1      11.502   8.728  -3.949  0.00  0.00     0.082 A 
ATOM     10  N   UNL d   1      11.216  10.000  -3.709  0.00  0.00    -0.244 NA
ATOM     11  C   UNL d   1      10.680  10.591  -4.855  0.00  0.00     0.095 A 
ATOM     12  C   UNL d   1      10.678   9.641  -5.807  0.00  0.00     0.001 A 
ATOM     13  C   UNL d   1      11.158   8.455  -5.265  0.00  0.00     0.025 A 
ATOM     14  C   UNL d   1      10.359   9.470  -7.281  0.00  0.00     0.046 C 
ATOM     15  C   UNL d   1       9.982   8.053  -7.714  0.00  0.00     0.100 C 
ATOM     16  C   UNL d   1       9.828   8.005  -9.245  0.00  0.00     0.267 C 
ENDROOT
BRANCH   1  17
ATOM     17  C   UNL d   1       9.246   6.609 -11.107  0.00  0.00     0.250 C 
BRANCH  17  18
ATOM     18  C   UNL d   1       8.544   5.299 -11.533  0.00  0.00     0.035 C 
BRANCH  18  19
ATOM     19  C   UNL d   1       7.624   5.465 -12.755  0.00  0.00     0.002 C 
ATOM     20  C   UNL d   1       6.290   6.147 -12.382  0.00  0.00     0.000 C 
ATOM     21  C   UNL d   1       7.346   4.112 -13.429  0.00  0.00     0.000 C 
ENDBRANCH  18  19
ENDBRANCH  17  18
ENDBRANCH   1  17
TORSDOF 3
