REMARK  4 active torsions:
REMARK  status: ('A' for Active; 'I' for Inactive)
REMARK    1  A    between atoms: C_2  and  C_3 
REMARK    2  A    between atoms: C_3  and  N_4 
REMARK    3  A    between atoms: N_4  and  C_5 
REMARK    4  A    between atoms: C_13  and  C_14 
ROOT
ATOM      1  C   UNL d   1       9.011   6.008  -9.385  0.00  0.00     0.103 C 
ATOM      2  C   UNL d   1       9.734   6.819 -10.454  0.00  0.00     0.029 C 
ATOM      3  C   UNL d   1      10.010   8.196  -9.982  0.00  0.00     0.028 C 
ATOM      4  C   UNL d   1      10.531   8.282  -8.574  0.00  0.00    -0.026 A 
ATOM      5  C   UNL d   1      11.063   9.524  -8.225  0.00  0.00    -0.003 A 
ATOM      6  C   UNL d   1      11.533   9.784  -6.945  0.00  0.00     0.019 A 
ATOM      7  C   UNL d   1      11.490   8.774  -6.009  0.00  0.00     0.081 A 
ATOM      8  N   UNL d   1      11.951   8.821  -4.721  0.00  0.00    -0.241 NA
ATOM      9  C   UNL d   1      11.777   7.596  -4.113  0.00  0.00     0.141 A 
ATOM     10  C   UNL d   1      11.160   6.752  -4.995  0.00  0.00     0.025 A 
ATOM     11  C   UNL d   1      10.966   7.474  -6.282  0.00  0.00     0.015 A 
ATOM     12  C   UNL d   1      10.453   7.246  -7.617  0.00  0.00    -0.023 A 
ATOM     13  C   UNL d   1       9.840   5.905  -8.063  0.00  0.00     0.050 C 
ENDROOT
BRANCH   1  14
ATOM     14  N   UNL d   1       8.706   4.685  -9.906  0.00  0.00    -0.297 NA
BRANCH  14  15
ATOM     15  C   UNL d   1       7.697   4.630 -10.960  0.00  0.00     0.120 C 
BRANCH  15  16
ATOM     16  C   UNL d   1       8.338   4.542 -12.369  0.00  0.00     0.026 C 
ATOM     17  C   UNL d   1       7.314   4.358 -13.482  0.00  0.00     0.002 C 
ENDBRANCH  15  16
ENDBRANCH  14  15
ENDBRANCH   1  14
BRANCH   9  18
ATOM     18  C   UNL d   1      12.237   7.564  -2.711  0.00  0.00     0.314 C 
ATOM     19  N   UNL d   1      12.252   6.382  -2.103  0.00  0.00    -0.101 N 
ATOM     20  O   UNL d   1      12.601   8.576  -2.133  0.00  0.00    -0.262 OA
ENDBRANCH   9  18
TORSDOF 4
