REMARK  5 active torsions:
REMARK  status: ('A' for Active; 'I' for Inactive)
REMARK    1  A    between atoms: C_2  and  C_3 
REMARK    2  A    between atoms: C_2  and  N_12 
REMARK    3  A    between atoms: C_3  and  C_5 
REMARK    4  A    between atoms: C_15  and  C_16 
REMARK    5  A    between atoms: C_16  and  C_17 
ROOT
ATOM      1  N   UNL d   1       9.678   5.811 -10.509  0.00  0.00     0.138 N 
ATOM      2  C   UNL d   1      10.062   5.444  -9.149  0.00  0.00     0.250 C 
ATOM      3  C   UNL d   1      10.867   6.552  -8.473  0.00  0.00     0.036 C 
ATOM      4  C   UNL d   1      10.049   7.846  -8.342  0.00  0.00     0.008 C 
ATOM      5  C   UNL d   1       9.570   8.225  -9.727  0.00  0.00     0.036 C 
ATOM      6  C   UNL d   1       8.862   6.991 -10.351  0.00  0.00     0.250 C 
ENDROOT
BRANCH   1   7
ATOM      7  C   UNL d   1       8.896   4.746 -11.153  0.00  0.00     0.254 C 
ATOM      8  C   UNL d   1       9.868   3.614 -11.537  0.00  0.00     0.038 C 
BRANCH   7   9
ATOM      9  C   UNL d   1       8.097   5.195 -12.406  0.00  0.00     0.206 C 
ATOM     10  O   UNL d   1       8.934   5.934 -13.238  0.00  0.00    -0.216 OA
BRANCH   9  11
ATOM     11  C   UNL d   1       7.439   4.039 -13.130  0.00  0.00     0.010 A 
ATOM     12  C   UNL d   1       6.204   3.560 -12.648  0.00  0.00     0.000 A 
ATOM     13  C   UNL d   1       5.619   2.425 -13.233  0.00  0.00     0.027 A 
ATOM     14  C   UNL d   1       6.260   1.786 -14.316  0.00  0.00     0.131 A 
ATOM     15  C   UNL d   1       7.465   2.280 -14.837  0.00  0.00     0.027 A 
ATOM     16  O   UNL d   1       5.662   0.697 -14.898  0.00  0.00    -0.190 OA
ATOM     17  C   UNL d   1       8.065   3.402 -14.236  0.00  0.00     0.000 A 
ENDBRANCH   9  11
ENDBRANCH   7   9
ENDBRANCH   1   7
BRANCH   4  18
ATOM     18  C   UNL d   1      10.851   8.986  -7.710  0.00  0.00     0.026 C 
BRANCH  18  19
ATOM     19  C   UNL d   1      11.313   8.738  -6.286  0.00  0.00    -0.022 A 
ATOM     20  C   UNL d   1      12.250   9.622  -5.709  0.00  0.00    -0.004 A 
ATOM     21  C   UNL d   1      12.753   9.356  -4.420  0.00  0.00    -0.000 A 
ATOM     22  C   UNL d   1      12.365   8.222  -3.702  0.00  0.00    -0.000 A 
ATOM     23  C   UNL d   1      11.455   7.321  -4.302  0.00  0.00    -0.000 A 
ATOM     24  C   UNL d   1      10.885   7.608  -5.535  0.00  0.00    -0.004 A 
ENDBRANCH  18  19
ENDBRANCH   4  18
TORSDOF 5
