REMARK  7 active torsions:
REMARK  status: ('A' for Active; 'I' for Inactive)
REMARK       I    between atoms: C_2  and  N_4 
REMARK    1  A    between atoms: N_4  and  C_5 
REMARK    2  A    between atoms: C_8  and  O_9 
REMARK    3  A    between atoms: O_9  and  C_10 
REMARK    4  A    between atoms: C_10  and  C_11 
REMARK    5  A    between atoms: C_11  and  C_12 
REMARK    6  A    between atoms: C_12  and  N_13 
REMARK    7  A    between atoms: C_16  and  C_17 
ROOT
ATOM      1  N   UNL d   1       9.862   4.806 -12.450  0.00  0.00     0.137 N 
ATOM      2  C   UNL d   1       9.089   5.449 -13.510  0.00  0.00     0.251 C 
ATOM      3  C   UNL d   1       9.704   5.100 -14.884  0.00  0.00     0.041 C 
ATOM      4  C   UNL d   1       9.731   3.581 -15.116  0.00  0.00     0.047 C 
ATOM      5  C   UNL d   1      10.392   2.886 -13.923  0.00  0.00     0.041 C 
ATOM      6  C   UNL d   1       9.745   3.367 -12.613  0.00  0.00     0.251 C 
ENDROOT
BRANCH   1   7
ATOM      7  C   UNL d   1       9.300   5.179 -11.144  0.00  0.00     0.253 C 
BRANCH   7   8
ATOM      8  C   UNL d   1       9.774   6.583 -10.738  0.00  0.00     0.068 C 
BRANCH   8   9
ATOM      9  C   UNL d   1       9.520   6.849  -9.258  0.00  0.00     0.151 C 
BRANCH   9  10
ATOM     10  O   UNL d   1      10.024   8.129  -8.898  0.00  0.00    -0.331 OA
BRANCH  10  11
ATOM     11  C   UNL d   1      10.399   8.310  -7.593  0.00  0.00     0.094 A 
ATOM     12  C   UNL d   1      10.072   7.407  -6.558  0.00  0.00     0.026 A 
ATOM     13  C   UNL d   1      10.650   7.566  -5.286  0.00  0.00     0.021 A 
ATOM     14  C   UNL d   1      11.451   8.691  -4.974  0.00  0.00     0.085 A 
ATOM     15  C   UNL d   1      11.709   9.640  -5.988  0.00  0.00     0.021 A 
ATOM     16  C   UNL d   1      11.204   9.432  -7.280  0.00  0.00     0.026 A 
BRANCH  14  17
ATOM     17  N   UNL d   1      11.963   8.897  -3.673  0.00  0.00    -0.212 NA
ATOM     18  C   UNL d   1      12.290   7.920  -2.805  0.00  0.00     0.256 C 
ATOM     19  C   UNL d   1      12.712   8.371  -1.422  0.00  0.00     0.100 C 
ATOM     20  O   UNL d   1      12.297   6.733  -3.074  0.00  0.00    -0.270 OA
ENDBRANCH  14  17
ENDBRANCH  10  11
ENDBRANCH   9  10
ENDBRANCH   8   9
ENDBRANCH   7   8
ENDBRANCH   1   7
BRANCH   4  21
ATOM     21  C   UNL d   1      10.432   3.224 -16.412  0.00  0.00     0.087 A 
ATOM     22  C   UNL d   1       9.972   2.541 -17.561  0.00  0.00     0.041 A 
ATOM     23  C   UNL d   1      11.010   2.468 -18.488  0.00  0.00     0.129 A 
ATOM     24  C   UNL d   1       8.718   1.967 -17.875  0.00  0.00     0.006 A 
ATOM     25  O   UNL d   1      12.088   3.101 -17.889  0.00  0.00    -0.211 OA
ATOM     26  C   UNL d   1      10.884   1.855 -19.739  0.00  0.00     0.057 A 
ATOM     27  N   UNL d   1      11.707   3.558 -16.599  0.00  0.00    -0.131 NA
ATOM     28  C   UNL d   1       9.638   1.281 -20.060  0.00  0.00     0.142 A 
ATOM     29  F   UNL d   1       9.468   0.670 -21.257  0.00  0.00    -0.204 F 
ATOM     30  C   UNL d   1       8.561   1.333 -19.137  0.00  0.00     0.030 A 
ENDBRANCH   4  21
TORSDOF 7
