REMARK  6 active torsions:
REMARK  status: ('A' for Active; 'I' for Inactive)
REMARK    1  A    between atoms: C_2  and  C_3 
REMARK    2  A    between atoms: C_3  and  C_4 
REMARK    3  A    between atoms: C_4  and  O_5 
REMARK    4  A    between atoms: O_5  and  C_6 
REMARK    5  A    between atoms: C_11  and  O_12 
REMARK    6  A    between atoms: C_20  and  O_21 
ROOT
ATOM      1  C   UNL d   1      10.262   7.676  -7.862  0.00  0.00     0.116 C 
ATOM      2  C   UNL d   1      10.283   6.332  -7.512  0.00  0.00     0.026 C 
ATOM      3  C   UNL d   1       9.819   5.340  -8.409  0.00  0.00    -0.002 C 
ATOM      4  C   UNL d   1       9.486   5.690  -9.732  0.00  0.00    -0.020 C 
ATOM      5  C   UNL d   1       9.492   7.031 -10.115  0.00  0.00     0.031 C 
ATOM      6  C   UNL d   1       9.875   8.028  -9.195  0.00  0.00     0.114 C 
ATOM      7  C   UNL d   1       9.068   7.388 -11.526  0.00  0.00     0.279 C 
ATOM      8  N   UNL d   1       8.270   6.366 -12.229  0.00  0.00     0.144 N 
ATOM      9  C   UNL d   1       6.894   6.229 -11.721  0.00  0.00     0.256 C 
ATOM     10  C   UNL d   1       6.031   5.293 -12.610  0.00  0.00     0.061 C 
ATOM     11  C   UNL d   1       6.833   4.137 -13.200  0.00  0.00    -0.020 A 
ATOM     12  C   UNL d   1       6.149   3.146 -13.902  0.00  0.00     0.022 A 
ATOM     13  C   UNL d   1       6.847   2.045 -14.443  0.00  0.00     0.119 A 
ATOM     14  C   UNL d   1       8.247   1.927 -14.254  0.00  0.00     0.153 A 
ATOM     15  O   UNL d   1       8.879   0.734 -14.517  0.00  0.00    -0.188 OA
ATOM     16  C   UNL d   1       8.953   2.963 -13.575  0.00  0.00     0.027 A 
ATOM     17  C   UNL d   1       8.240   4.051 -13.033  0.00  0.00     0.007 A 
ATOM     18  C   UNL d   1       8.957   5.073 -12.168  0.00  0.00     0.246 C 
ATOM     19  C   UNL d   1       9.097   4.586 -10.700  0.00  0.00     0.064 C 
ENDROOT
BRANCH   1  20
ATOM     20  O   UNL d   1      10.557   8.680  -6.967  0.00  0.00    -0.329 OA
BRANCH  20  21
ATOM     21  C   UNL d   1      10.839   8.356  -5.613  0.00  0.00     0.149 C 
BRANCH  21  22
ATOM     22  C   UNL d   1      10.974   9.663  -4.812  0.00  0.00     0.033 C 
BRANCH  22  23
ATOM     23  C   UNL d   1      11.556   9.479  -3.402  0.00  0.00     0.003 C 
ATOM     24  C   UNL d   1      13.056   9.181  -3.429  0.00  0.00     0.000 C 
ENDBRANCH  22  23
ENDBRANCH  21  22
ENDBRANCH  20  21
ENDBRANCH   1  20
BRANCH   6  25
ATOM     25  O   UNL d   1       9.871   9.315  -9.638  0.00  0.00    -0.326 OA
ATOM     26  C   UNL d   1      11.178   9.821  -9.648  0.00  0.00     0.181 C 
ENDBRANCH   6  25
BRANCH  13  27
ATOM     27  O   UNL d   1       6.126   1.059 -15.050  0.00  0.00    -0.326 OA
ATOM     28  C   UNL d   1       6.453   0.791 -16.393  0.00  0.00     0.181 C 
ENDBRANCH  13  27
TORSDOF 6
