REMARK  4 active torsions:
REMARK  status: ('A' for Active; 'I' for Inactive)
REMARK    1  A    between atoms: C_5  and  N_6 
REMARK    2  A    between atoms: N_9  and  C_10 
REMARK    3  A    between atoms: C_10  and  C_11 
REMARK    4  A    between atoms: C_11  and  N_12 
ROOT
ATOM      1  N   UNL d   1      11.405   3.675 -15.939  0.00  0.00    -0.275 N 
ATOM      2  C   UNL d   1      11.687   3.619 -14.511  0.00  0.00     0.135 A 
ATOM      3  C   UNL d   1      11.085   2.275 -14.086  0.00  0.00     0.131 A 
ATOM      4  N   UNL d   1      10.568   1.740 -15.326  0.00  0.00    -0.298 N 
ATOM      5  C   UNL d   1      10.786   2.554 -16.372  0.00  0.00     0.328 A 
ATOM      6  O   UNL d   1      10.481   2.275 -17.528  0.00  0.00    -0.247 OA
ENDROOT
BRANCH   4   7
ATOM      7  C   UNL d   1       9.955   0.409 -15.398  0.00  0.00     0.141 C 
BRANCH   7   8
ATOM      8  C   UNL d   1       8.567   0.409 -14.729  0.00  0.00     0.275 C 
BRANCH   8   9
ATOM      9  N   UNL d   1       7.638   1.351 -15.365  0.00  0.00     0.148 N 
ATOM     10  C   UNL d   1       6.432   1.456 -14.508  0.00  0.00     0.277 C 
ATOM     11  C   UNL d   1       5.507   0.367 -14.966  0.00  0.00     0.009 A 
ATOM     12  C   UNL d   1       5.901  -0.038 -16.224  0.00  0.00     0.009 A 
ATOM     13  C   UNL d   1       4.373  -0.176 -14.342  0.00  0.00    -0.003 A 
ATOM     14  C   UNL d   1       7.109   0.765 -16.623  0.00  0.00     0.277 C 
ATOM     15  C   UNL d   1       5.209  -1.029 -16.939  0.00  0.00    -0.003 A 
ATOM     16  C   UNL d   1       4.075  -1.600 -16.322  0.00  0.00    -0.000 A 
ATOM     17  C   UNL d   1       3.656  -1.168 -15.040  0.00  0.00    -0.000 A 
ENDBRANCH   8   9
ENDBRANCH   7   8
ENDBRANCH   4   7
BRANCH   1  18
ATOM     18  C   UNL d   1      11.733   4.736 -16.731  0.00  0.00     0.094 A 
ATOM     19  C   UNL d   1      11.094   5.152 -17.869  0.00  0.00     0.024 A 
ATOM     20  C   UNL d   1      11.697   6.272 -18.500  0.00  0.00     0.004 A 
ATOM     21  C   UNL d   1      12.805   6.721 -17.839  0.00  0.00     0.009 A 
ATOM     22  C   UNL d   1      13.668   7.873 -18.227  0.00  0.00     0.038 C 
ATOM     23  S   UNL d   1      13.108   5.760 -16.408  0.00  0.00    -0.074 SA
ENDBRANCH   1  18
TORSDOF 4
