REMARK  6 active torsions:
REMARK  status: ('A' for Active; 'I' for Inactive)
REMARK    1  A    between atoms: O_2  and  N_3 
REMARK    2  A    between atoms: C_4  and  C_5 
REMARK    3  A    between atoms: C_4  and  C_19 
REMARK    4  A    between atoms: C_5  and  C_6 
REMARK    5  A    between atoms: C_6  and  N_7 
REMARK    6  A    between atoms: N_10  and  C_11 
ROOT
ATOM      1  C   UNL d   1       9.464   8.409 -10.769  0.00  0.00     0.257 C 
ENDROOT
BRANCH   1   2
ATOM      2  C   UNL d   1       9.625   8.596  -9.231  0.00  0.00     0.083 C 
BRANCH   2   3
ATOM      3  C   UNL d   1      11.056   8.408  -8.748  0.00  0.00     0.087 C 
ATOM      4  N   UNL d   1      12.008   8.403  -9.585  0.00  0.00    -0.136 NA
BRANCH   4   5
ATOM      5  O   UNL d   1      13.266   8.191  -9.000  0.00  0.00    -0.234 OA
ATOM      6  C   UNL d   1      14.120   7.763 -10.044  0.00  0.00     0.211 C 
ENDBRANCH   4   5
BRANCH   3   7
ATOM      7  C   UNL d   1      11.226   8.229  -7.293  0.00  0.00     0.016 A 
ATOM      8  C   UNL d   1      11.054   6.958  -6.702  0.00  0.00     0.002 A 
ATOM      9  C   UNL d   1      11.239   6.795  -5.315  0.00  0.00     0.007 A 
ATOM     10  C   UNL d   1      11.606   7.894  -4.517  0.00  0.00     0.035 A 
ATOM     11  C   UNL d   1      11.770   9.163  -5.101  0.00  0.00     0.007 A 
ATOM     12 BR   UNL d   1      11.910   7.659  -2.653  0.00  0.00    -0.049 Br
ATOM     13  C   UNL d   1      11.580   9.331  -6.485  0.00  0.00     0.002 A 
ENDBRANCH   3   7
ENDBRANCH   2   3
ENDBRANCH   1   2
BRANCH   1  14
ATOM     14  N   UNL d   1       9.613   7.020 -11.224  0.00  0.00     0.141 N 
ATOM     15  C   UNL d   1       8.646   6.108 -10.606  0.00  0.00     0.274 C 
ATOM     16  C   UNL d   1       8.888   4.675 -11.080  0.00  0.00     0.138 C 
ATOM     17  N   UNL d   1       8.862   4.617 -12.538  0.00  0.00    -0.330 N 
ATOM     18  C   UNL d   1       9.707   5.569 -13.232  0.00  0.00     0.138 C 
ATOM     19  C   UNL d   1       9.445   6.990 -12.677  0.00  0.00     0.274 C 
BRANCH  17  20
ATOM     20  C   UNL d   1       8.011   3.779 -13.239  0.00  0.00     0.140 A 
ATOM     21  N   UNL d   1       8.539   3.113 -14.287  0.00  0.00    -0.227 NA
ATOM     22  C   UNL d   1       7.776   2.205 -14.914  0.00  0.00     0.101 A 
ATOM     23  C   UNL d   1       6.434   1.955 -14.563  0.00  0.00     0.021 A 
ATOM     24  C   UNL d   1       5.861   2.678 -13.501  0.00  0.00     0.005 A 
ATOM     25  C   UNL d   1       6.673   3.601 -12.818  0.00  0.00     0.037 A 
ENDBRANCH  17  20
ENDBRANCH   1  14
TORSDOF 6
