REMARK  8 active torsions:
REMARK  status: ('A' for Active; 'I' for Inactive)
REMARK    1  A    between atoms: C_3  and  S_4 
REMARK    2  A    between atoms: S_4  and  C_5 
REMARK    3  A    between atoms: C_5  and  C_6 
REMARK    4  A    between atoms: C_6  and  C_7 
REMARK    5  A    between atoms: C_7  and  N_8 
REMARK    6  A    between atoms: C_12  and  C_13 
REMARK    7  A    between atoms: C_16  and  C_17 
REMARK    8  A    between atoms: C_26  and  C_27 
ROOT
ATOM      1  N   UNL d   1       9.447   3.876 -13.404  0.00  0.00     0.143 N 
ATOM      2  C   UNL d   1       8.291   4.517 -14.027  0.00  0.00     0.282 C 
ATOM      3  C   UNL d   1       7.147   4.767 -13.038  0.00  0.00     0.178 C 
ATOM      4  O   UNL d   1       7.627   5.566 -11.967  0.00  0.00    -0.348 OA
ATOM      5  C   UNL d   1       8.693   4.937 -11.263  0.00  0.00     0.171 C 
ATOM      6  C   UNL d   1       9.839   4.627 -12.245  0.00  0.00     0.284 C 
ENDROOT
BRANCH   1   7
ATOM      7  C   UNL d   1      10.582   3.726 -14.321  0.00  0.00     0.251 C 
BRANCH   7   8
ATOM      8  C   UNL d   1      10.193   2.873 -15.524  0.00  0.00     0.047 C 
BRANCH   8   9
ATOM      9  C   UNL d   1      11.383   2.557 -16.483  0.00  0.00     0.067 C 
BRANCH   9  10
ATOM     10  S   UNL d   1      10.918   1.562 -17.954  0.00  0.00    -0.075 SA
BRANCH  10  11
ATOM     11  C   UNL d   1       9.187   1.363 -17.678  0.00  0.00     0.193 A 
ATOM     12  N   UNL d   1       8.682   0.643 -16.632  0.00  0.00    -0.289 N 
ATOM     13  C   UNL d   1       9.391  -0.139 -15.625  0.00  0.00     0.134 C 
ATOM     14  C   UNL d   1       7.367   0.875 -16.767  0.00  0.00     0.168 A 
ATOM     15  N   UNL d   1       7.057   1.618 -17.819  0.00  0.00    -0.128 NA
ATOM     16  N   UNL d   1       8.255   1.929 -18.422  0.00  0.00    -0.122 NA
BRANCH  14  17
ATOM     17  C   UNL d   1       6.341   0.401 -15.852  0.00  0.00     0.055 A 
ATOM     18  C   UNL d   1       6.304   0.787 -14.490  0.00  0.00     0.102 A 
ATOM     19  N   UNL d   1       5.361   0.362 -13.630  0.00  0.00    -0.242 NA
ATOM     20  C   UNL d   1       4.399  -0.461 -14.104  0.00  0.00     0.099 A 
ATOM     21  C   UNL d   1       4.345  -0.900 -15.439  0.00  0.00     0.021 A 
ATOM     22  C   UNL d   1       5.328  -0.449 -16.331  0.00  0.00     0.006 A 
ENDBRANCH  14  17
ENDBRANCH  10  11
ENDBRANCH   9  10
ENDBRANCH   8   9
ENDBRANCH   7   8
ENDBRANCH   1   7
BRANCH   5  23
ATOM     23  C   UNL d   1       9.163   5.801 -10.114  0.00  0.00     0.007 A 
ATOM     24  C   UNL d   1       9.913   6.977 -10.355  0.00  0.00    -0.002 A 
ATOM     25  C   UNL d   1      10.357   7.778  -9.290  0.00  0.00     0.004 A 
ATOM     26  C   UNL d   1      10.045   7.425  -7.960  0.00  0.00     0.071 A 
ATOM     27  C   UNL d   1       9.274   6.270  -7.717  0.00  0.00     0.004 A 
ATOM     28  C   UNL d   1       8.844   5.455  -8.785  0.00  0.00    -0.002 A 
BRANCH  26  29
ATOM     29  C   UNL d   1      10.506   8.291  -6.802  0.00  0.00     0.419 C 
ATOM     30  F   UNL d   1      11.430   9.177  -7.182  0.00  0.00    -0.166 F 
ATOM     31  F   UNL d   1       9.431   8.931  -6.335  0.00  0.00    -0.166 F 
ATOM     32  F   UNL d   1      11.019   7.534  -5.833  0.00  0.00    -0.166 F 
ENDBRANCH  26  29
ENDBRANCH   5  23
TORSDOF 8
