REMARK  6 active torsions:
REMARK  status: ('A' for Active; 'I' for Inactive)
REMARK       I    between atoms: C_2  and  N_3 
REMARK    1  A    between atoms: C_2  and  C_26 
REMARK    2  A    between atoms: N_3  and  C_4 
REMARK    3  A    between atoms: C_7  and  C_8 
REMARK    4  A    between atoms: C_8  and  C_9 
REMARK    5  A    between atoms: C_9  and  N_10 
REMARK    6  A    between atoms: N_13  and  C_14 
ROOT
ATOM      1  C   UNL d   1       9.412   7.019 -12.437  0.00  0.00     0.035 C 
ENDROOT
BRANCH   1   2
ATOM      2  C   UNL d   1       9.428   7.376 -10.958  0.00  0.00     0.002 C 
ATOM      3  C   UNL d   1       9.189   6.147 -10.053  0.00  0.00     0.002 C 
ATOM      4  C   UNL d   1       9.270   6.521  -8.565  0.00  0.00     0.024 C 
ATOM      5  C   UNL d   1      10.595   7.225  -8.212  0.00  0.00     0.106 C 
ATOM      6  C   UNL d   1      10.822   8.439  -9.143  0.00  0.00     0.024 C 
ATOM      7  C   UNL d   1      10.738   8.045 -10.589  0.00  0.00     0.002 C 
BRANCH   5   8
ATOM      8  N   UNL d   1      10.582   7.603  -6.805  0.00  0.00    -0.240 NA
ATOM      9  C   UNL d   1      11.426   8.448  -6.204  0.00  0.00     0.251 C 
ATOM     10  O   UNL d   1      12.245   9.152  -6.796  0.00  0.00    -0.271 OA
BRANCH   9  11
ATOM     11  C   UNL d   1      11.322   8.534  -4.695  0.00  0.00     0.081 C 
ATOM     12  C   UNL d   1      12.007   7.332  -4.004  0.00  0.00     0.009 C 
ATOM     13  C   UNL d   1      11.926   7.426  -2.472  0.00  0.00     0.001 C 
ATOM     14  C   UNL d   1      12.501   8.766  -1.986  0.00  0.00     0.000 C 
ATOM     15  C   UNL d   1      11.839   9.950  -2.702  0.00  0.00     0.001 C 
ATOM     16  C   UNL d   1      11.918   9.860  -4.208  0.00  0.00     0.009 C 
ENDBRANCH   9  11
ENDBRANCH   5   8
ENDBRANCH   1   2
BRANCH   1  17
ATOM     17  C   UNL d   1       8.025   6.552 -12.907  0.00  0.00     0.250 C 
BRANCH  17  18
ATOM     18  N   UNL d   1       7.919   5.100 -12.955  0.00  0.00     0.141 N 
ATOM     19  C   UNL d   1       8.686   4.562 -14.096  0.00  0.00     0.274 C 
ATOM     20  C   UNL d   1       8.600   3.030 -14.112  0.00  0.00     0.137 C 
ATOM     21  N   UNL d   1       7.204   2.623 -14.138  0.00  0.00    -0.344 N 
ATOM     22  C   UNL d   1       6.350   3.220 -13.108  0.00  0.00     0.137 C 
ATOM     23  C   UNL d   1       6.499   4.739 -13.099  0.00  0.00     0.274 C 
BRANCH  21  24
ATOM     24  C   UNL d   1       6.743   1.679 -15.074  0.00  0.00     0.068 A 
ATOM     25  C   UNL d   1       5.902   0.596 -14.705  0.00  0.00     0.084 A 
ATOM     26  C   UNL d   1       5.417  -0.286 -15.690  0.00  0.00     0.070 A 
ATOM     27 CL   UNL d   1       5.472   0.335 -13.054  0.00  0.00    -0.080 Cl
ATOM     28  C   UNL d   1       5.778  -0.119 -17.037  0.00  0.00     0.012 A 
ATOM     29 CL   UNL d   1       4.370  -1.584 -15.267  0.00  0.00    -0.081 Cl
ATOM     30  C   UNL d   1       6.629   0.933 -17.409  0.00  0.00     0.002 A 
ATOM     31  C   UNL d   1       7.110   1.821 -16.432  0.00  0.00     0.018 A 
ENDBRANCH  21  24
ENDBRANCH  17  18
ENDBRANCH   1  17
TORSDOF 6
