REMARK  6 active torsions:
REMARK  status: ('A' for Active; 'I' for Inactive)
REMARK    1  A    between atoms: C_2  and  N_3 
REMARK       I    between atoms: N_3  and  C_4 
REMARK       I    between atoms: C_4  and  N_6 
REMARK    2  A    between atoms: N_6  and  C_7 
REMARK    3  A    between atoms: C_11  and  C_12 
REMARK    4  A    between atoms: C_12  and  C_13 
REMARK    5  A    between atoms: C_13  and  N_14 
REMARK    6  A    between atoms: N_17  and  C_18 
ROOT
ATOM      1  N   UNL d   1       8.557   3.885 -12.831  0.00  0.00     0.141 N 
ATOM      2  C   UNL d   1       7.423   3.902 -13.757  0.00  0.00     0.274 C 
ATOM      3  C   UNL d   1       7.569   2.773 -14.791  0.00  0.00     0.137 C 
ATOM      4  N   UNL d   1       8.877   2.842 -15.444  0.00  0.00    -0.344 N 
ATOM      5  C   UNL d   1      10.017   2.909 -14.558  0.00  0.00     0.137 C 
ATOM      6  C   UNL d   1       9.828   4.035 -13.550  0.00  0.00     0.274 C 
ENDROOT
BRANCH   1   7
ATOM      7  C   UNL d   1       8.319   4.862 -11.774  0.00  0.00     0.255 C 
BRANCH   7   8
ATOM      8  C   UNL d   1       9.623   5.166 -10.994  0.00  0.00     0.062 C 
BRANCH   8   9
ATOM      9  C   UNL d   1       9.445   5.872  -9.685  0.00  0.00    -0.019 A 
ATOM     10  C   UNL d   1       8.526   5.346  -8.759  0.00  0.00    -0.004 A 
ATOM     11  C   UNL d   1       8.318   5.990  -7.535  0.00  0.00     0.001 A 
ATOM     12  C   UNL d   1       9.057   7.133  -7.209  0.00  0.00     0.019 A 
ATOM     13  C   UNL d   1       9.995   7.634  -8.127  0.00  0.00     0.086 A 
ATOM     14  C   UNL d   1      10.201   7.017  -9.369  0.00  0.00     0.015 A 
BRANCH  13  15
ATOM     15  N   UNL d   1      10.636   8.829  -7.798  0.00  0.00    -0.191 NA
ATOM     16  C   UNL d   1      11.932   8.900  -7.496  0.00  0.00     0.364 C 
ATOM     17  N   UNL d   1      12.197   9.764  -6.503  0.00  0.00    -0.217 NA
ATOM     18  O   UNL d   1      12.819   8.296  -8.093  0.00  0.00    -0.243 OA
BRANCH  17  19
ATOM     19  C   UNL d   1      11.245  10.525  -5.686  0.00  0.00     0.131 C 
ATOM     20  C   UNL d   1      11.089   9.911  -4.296  0.00  0.00     0.029 C 
ENDBRANCH  17  19
ENDBRANCH  13  15
ENDBRANCH   8   9
ENDBRANCH   7   8
ENDBRANCH   1   7
BRANCH   4  21
ATOM     21  C   UNL d   1       9.060   2.913 -16.835  0.00  0.00     0.058 A 
ATOM     22  C   UNL d   1       8.447   1.980 -17.721  0.00  0.00     0.033 A 
ATOM     23  C   UNL d   1       8.655   2.073 -19.124  0.00  0.00     0.082 A 
ATOM     24  C   UNL d   1       7.649   0.910 -17.231  0.00  0.00     0.004 A 
ATOM     25  C   UNL d   1       9.463   3.113 -19.623  0.00  0.00     0.019 A 
ATOM     26  N   UNL d   1       8.075   1.212 -19.991  0.00  0.00    -0.250 NA
ATOM     27  C   UNL d   1      10.069   4.042 -18.764  0.00  0.00     0.003 A 
ATOM     28  C   UNL d   1       9.866   3.942 -17.373  0.00  0.00     0.017 A 
ATOM     29  C   UNL d   1       7.297   0.219 -19.504  0.00  0.00     0.059 A 
ATOM     30  C   UNL d   1       6.705  -0.728 -20.516  0.00  0.00     0.052 C 
ATOM     31  C   UNL d   1       7.049   0.037 -18.140  0.00  0.00     0.015 A 
ENDBRANCH   4  21
TORSDOF 6
