REMARK  7 active torsions:
REMARK  status: ('A' for Active; 'I' for Inactive)
REMARK    1  A    between atoms: C_5  and  S_6 
REMARK    2  A    between atoms: S_6  and  C_9 
REMARK    3  A    between atoms: C_9  and  C_10 
REMARK    4  A    between atoms: N_13  and  C_14 
REMARK    5  A    between atoms: C_14  and  C_15 
REMARK    6  A    between atoms: C_15  and  C_16 
REMARK    7  A    between atoms: C_16  and  C_17 
ROOT
ATOM      1  C   UNL d   1       7.378   4.497 -12.119  0.00  0.00     0.052 C 
ATOM      2  C   UNL d   1       6.078   3.794 -11.767  0.00  0.00     0.038 C 
ATOM      3  C   UNL d   1       5.717   2.997 -13.022  0.00  0.00     0.250 C 
ATOM      4  N   UNL d   1       7.000   2.790 -13.687  0.00  0.00     0.137 N 
ATOM      5  C   UNL d   1       7.664   4.077 -13.554  0.00  0.00     0.251 C 
ENDROOT
BRANCH   4   6
ATOM      6  C   UNL d   1       6.856   2.371 -15.060  0.00  0.00     0.251 C 
BRANCH   6   7
ATOM      7  C   UNL d   1       8.200   2.217 -15.787  0.00  0.00     0.042 C 
BRANCH   7   8
ATOM      8  C   UNL d   1       8.974   0.953 -15.378  0.00  0.00     0.050 C 
BRANCH   8   9
ATOM      9  C   UNL d   1       9.957   0.518 -16.440  0.00  0.00     0.088 A 
ATOM     10  C   UNL d   1      11.004   1.223 -17.076  0.00  0.00     0.041 A 
ATOM     11  C   UNL d   1      11.592   0.398 -18.039  0.00  0.00     0.129 A 
ATOM     12  C   UNL d   1      11.488   2.538 -16.901  0.00  0.00     0.006 A 
ATOM     13  O   UNL d   1      10.888  -0.793 -17.977  0.00  0.00    -0.211 OA
ATOM     14  C   UNL d   1      12.668   0.807 -18.839  0.00  0.00     0.057 A 
ATOM     15  N   UNL d   1       9.870  -0.697 -16.987  0.00  0.00    -0.131 NA
ATOM     16  C   UNL d   1      13.160   2.116 -18.656  0.00  0.00     0.142 A 
ATOM     17  F   UNL d   1      14.218   2.546 -19.383  0.00  0.00    -0.204 F 
ATOM     18  C   UNL d   1      12.568   2.977 -17.699  0.00  0.00     0.030 A 
ENDBRANCH   8   9
ENDBRANCH   7   8
ENDBRANCH   6   7
ENDBRANCH   4   6
BRANCH   1  19
ATOM     19  C   UNL d   1       7.295   6.026 -11.929  0.00  0.00     0.129 C 
BRANCH  19  20
ATOM     20  S   UNL d   1       8.937   6.846 -11.995  0.00  0.00     0.190 S 
ATOM     21  O   UNL d   1       8.748   8.245 -12.418  0.00  0.00    -0.222 OA
ATOM     22  O   UNL d   1       9.838   5.970 -12.770  0.00  0.00    -0.222 OA
BRANCH  20  23
ATOM     23  C   UNL d   1       9.513   6.847 -10.307  0.00  0.00     0.084 A 
ATOM     24  C   UNL d   1       9.252   5.750  -9.462  0.00  0.00     0.011 A 
ATOM     25  C   UNL d   1       9.681   5.799  -8.138  0.00  0.00    -0.004 A 
ATOM     26  C   UNL d   1      10.366   6.919  -7.620  0.00  0.00    -0.026 A 
ATOM     27  C   UNL d   1      10.778   6.926  -6.159  0.00  0.00     0.031 C 
ATOM     28  C   UNL d   1      10.636   8.014  -8.473  0.00  0.00    -0.025 A 
ATOM     29  C   UNL d   1      10.222   7.974  -9.823  0.00  0.00     0.006 A 
ATOM     30  C   UNL d   1      11.366   9.230  -7.949  0.00  0.00     0.031 C 
ENDBRANCH  20  23
ENDBRANCH  19  20
ENDBRANCH   1  19
TORSDOF 7
