REMARK  0 active torsions:
REMARK  status: ('A' for Active; 'I' for Inactive)
ROOT
ATOM      1  O   UNL d   1      10.780  11.091  -4.837  0.00  0.00    -0.265 OA
ATOM      2  C   UNL d   1      11.041  10.025  -5.381  0.00  0.00     0.279 C 
ATOM      3  N   UNL d   1      10.791   9.901  -6.689  0.00  0.00    -0.208 NA
ATOM      4  C   UNL d   1      10.678   8.683  -7.347  0.00  0.00     0.085 A 
ATOM      5  C   UNL d   1      10.203   8.676  -8.688  0.00  0.00     0.019 A 
ATOM      6  C   UNL d   1      10.077   7.455  -9.371  0.00  0.00     0.002 A 
ATOM      7  C   UNL d   1      10.428   6.266  -8.700  0.00  0.00     0.000 A 
ATOM      8  C   UNL d   1      10.935   6.304  -7.388  0.00  0.00     0.002 A 
ATOM      9  C   UNL d   1      11.026   7.511  -6.658  0.00  0.00     0.018 A 
ATOM     10  C   UNL d   1      11.464   7.606  -5.242  0.00  0.00     0.006 A 
ATOM     11  C   UNL d   1      11.868   6.515  -4.464  0.00  0.00     0.000 A 
ATOM     12  C   UNL d   1      12.258   6.619  -3.118  0.00  0.00     0.000 A 
ATOM     13  C   UNL d   1      12.261   7.878  -2.478  0.00  0.00     0.000 A 
ATOM     14  C   UNL d   1      11.890   8.996  -3.242  0.00  0.00     0.005 A 
ATOM     15  C   UNL d   1      11.505   8.856  -4.598  0.00  0.00     0.058 A 
ENDROOT
TORSDOF 0
