REMARK  3 active torsions:
REMARK  status: ('A' for Active; 'I' for Inactive)
REMARK    1  A    between atoms: C_2  and  C_3 
REMARK    2  A    between atoms: C_2  and  N_18 
REMARK    3  A    between atoms: C_3  and  N_4 
ROOT
ATOM      1  N   UNL d   1       7.503   1.782 -14.800  0.00  0.00    -0.325 N 
ATOM      2  C   UNL d   1       7.337   2.991 -14.060  0.00  0.00     0.066 A 
ATOM      3  C   UNL d   1       6.134   3.292 -13.355  0.00  0.00     0.018 A 
ATOM      4  C   UNL d   1       6.004   4.457 -12.561  0.00  0.00     0.002 A 
ATOM      5  C   UNL d   1       7.043   5.400 -12.514  0.00  0.00     0.001 A 
ATOM      6  C   UNL d   1       8.212   5.162 -13.249  0.00  0.00     0.008 A 
ATOM      7  C   UNL d   1       8.371   3.970 -13.999  0.00  0.00     0.045 A 
ATOM      8  S   UNL d   1       9.887   3.814 -14.881  0.00  0.00    -0.084 SA
ATOM      9  C   UNL d   1       9.841   2.181 -15.541  0.00  0.00     0.045 A 
ATOM     10  C   UNL d   1      11.018   1.744 -16.197  0.00  0.00     0.008 A 
ATOM     11  C   UNL d   1      11.088   0.466 -16.772  0.00  0.00     0.001 A 
ATOM     12  C   UNL d   1       9.990  -0.395 -16.667  0.00  0.00     0.002 A 
ATOM     13  C   UNL d   1       8.824   0.033 -16.002  0.00  0.00     0.018 A 
ATOM     14  C   UNL d   1       8.701   1.337 -15.434  0.00  0.00     0.066 A 
ENDROOT
BRANCH   1  15
ATOM     15  C   UNL d   1       6.286   0.952 -14.989  0.00  0.00     0.139 C 
BRANCH  15  16
ATOM     16  C   UNL d   1       5.844   0.104 -13.753  0.00  0.00     0.242 C 
ATOM     17  C   UNL d   1       6.996  -0.698 -13.190  0.00  0.00     0.037 C 
BRANCH  16  18
ATOM     18  N   UNL d   1       4.688  -0.766 -14.039  0.00  0.00     0.141 N 
ATOM     19  C   UNL d   1       3.488  -0.002 -14.317  0.00  0.00     0.285 C 
ATOM     20  C   UNL d   1       4.888  -1.747 -15.096  0.00  0.00     0.285 C 
ENDBRANCH  16  18
ENDBRANCH  15  16
ENDBRANCH   1  15
TORSDOF 3
