REMARK  2 active torsions:
REMARK  status: ('A' for Active; 'I' for Inactive)
REMARK    1  A    between atoms: C_4  and  C_5 
REMARK    2  A    between atoms: C_5  and  N_6 
ROOT
ATOM      1  C   UNL d   1      10.393   7.546  -9.040  0.00  0.00    -0.000 A 
ATOM      2  C   UNL d   1       9.458   7.732  -8.005  0.00  0.00    -0.000 A 
ATOM      3  C   UNL d   1       9.806   8.460  -6.853  0.00  0.00    -0.002 A 
ATOM      4  C   UNL d   1      11.108   8.987  -6.720  0.00  0.00     0.001 A 
ATOM      5  C   UNL d   1      12.046   8.788  -7.755  0.00  0.00    -0.002 A 
ATOM      6  C   UNL d   1      11.690   8.077  -8.917  0.00  0.00    -0.000 A 
ENDROOT
BRANCH   4   7
ATOM      7  C   UNL d   1      11.513   9.720  -5.451  0.00  0.00     0.135 C 
BRANCH   7   8
ATOM      8  N   UNL d   1      11.805   8.799  -4.357  0.00  0.00    -0.304 N 
ATOM      9  C   UNL d   1      12.146   9.135  -3.106  0.00  0.00     0.179 A 
ATOM     10  N   UNL d   1      12.340   8.107  -2.291  0.00  0.00    -0.223 NA
ATOM     11  C   UNL d   1      12.108   6.996  -3.093  0.00  0.00     0.119 A 
ATOM     12  C   UNL d   1      11.784   7.403  -4.362  0.00  0.00     0.098 A 
ENDBRANCH   7   8
ENDBRANCH   4   7
TORSDOF 2
