REMARK  3 active torsions:
REMARK  status: ('A' for Active; 'I' for Inactive)
REMARK    1  A    between atoms: C_7  and  C_8 
REMARK    2  A    between atoms: N_10  and  S_11 
REMARK    3  A    between atoms: S_11  and  C_14 
ROOT
ATOM      1  C   UNL d   1       7.484   2.850 -13.932  0.00  0.00     0.039 A 
ATOM      2  C   UNL d   1       7.011   3.874 -13.157  0.00  0.00     0.093 A 
ATOM      3  N   UNL d   1       7.979   4.843 -13.003  0.00  0.00    -0.231 N 
ATOM      4  C   UNL d   1       9.125   4.505 -13.710  0.00  0.00     0.075 A 
ATOM      5  C   UNL d   1      10.367   5.160 -13.928  0.00  0.00     0.018 A 
ATOM      6  C   UNL d   1      11.412   4.535 -14.671  0.00  0.00     0.002 A 
ATOM      7  C   UNL d   1      11.171   3.269 -15.196  0.00  0.00     0.000 A 
ATOM      8  C   UNL d   1       9.928   2.644 -15.008  0.00  0.00     0.002 A 
ATOM      9  C   UNL d   1       8.849   3.241 -14.270  0.00  0.00     0.020 A 
ENDROOT
BRANCH   3  10
ATOM     10  S   UNL d   1       7.688   6.253 -12.072  0.00  0.00     0.271 S 
ATOM     11  O   UNL d   1       8.381   7.291 -12.822  0.00  0.00    -0.200 OA
ATOM     12  O   UNL d   1       6.228   6.285 -11.872  0.00  0.00    -0.200 OA
BRANCH  10  13
ATOM     13  C   UNL d   1       8.612   6.006 -10.566  0.00  0.00     0.104 A 
ATOM     14  C   UNL d   1       9.539   6.965 -10.024  0.00  0.00     0.012 A 
ATOM     15  C   UNL d   1      10.129   6.653  -8.782  0.00  0.00     0.001 A 
ATOM     16  C   UNL d   1       9.896   8.226 -10.570  0.00  0.00     0.001 A 
ATOM     17  C   UNL d   1       9.794   5.470  -8.136  0.00  0.00     0.000 A 
ATOM     18  C   UNL d   1      11.069   7.499  -8.135  0.00  0.00     0.000 A 
ATOM     19  C   UNL d   1       8.886   4.548  -8.685  0.00  0.00     0.001 A 
ATOM     20  C   UNL d   1       8.293   4.823  -9.908  0.00  0.00     0.013 A 
ATOM     21  C   UNL d   1      11.444   8.695  -8.737  0.00  0.00     0.000 A 
ATOM     22  C   UNL d   1      10.854   9.050  -9.942  0.00  0.00     0.000 A 
ENDBRANCH  10  13
ENDBRANCH   3  10
BRANCH   1  23
ATOM     23  C   UNL d   1       6.734   1.615 -14.200  0.00  0.00     0.116 A 
ATOM     24  C   UNL d   1       6.965   0.469 -14.958  0.00  0.00     0.096 A 
ATOM     25  C   UNL d   1       8.118   0.074 -15.807  0.00  0.00     0.054 C 
ATOM     26  N   UNL d   1       5.901  -0.417 -14.840  0.00  0.00    -0.061 NA
ATOM     27  C   UNL d   1       5.071   0.176 -14.014  0.00  0.00     0.768 A 
ATOM     28  N   UNL d   1       3.863  -0.362 -13.650  0.00  0.00     0.062 N 
ATOM     29  N   UNL d   1       5.516   1.353 -13.575  0.00  0.00    -0.057 NA
ENDBRANCH   1  23
TORSDOF 3
