REMARK  4 active torsions:
REMARK  status: ('A' for Active; 'I' for Inactive)
REMARK    1  A    between atoms: C_5  and  N_6 
REMARK    2  A    between atoms: N_9  and  C_10 
REMARK    3  A    between atoms: C_10  and  C_11 
REMARK    4  A    between atoms: C_11  and  C_12 
ROOT
ATOM      1  N   UNL d   1      10.827   8.556  -6.784  0.00  0.00    -0.344 N 
ATOM      2  C   UNL d   1       9.446   8.723  -7.119  0.00  0.00     0.137 C 
ATOM      3  C   UNL d   1       8.982   7.469  -7.855  0.00  0.00     0.274 C 
ATOM      4  N   UNL d   1       9.754   7.311  -9.094  0.00  0.00     0.141 N 
ATOM      5  C   UNL d   1      11.109   6.996  -8.637  0.00  0.00     0.274 C 
ATOM      6  C   UNL d   1      11.717   8.139  -7.835  0.00  0.00     0.137 C 
ENDROOT
BRANCH   4   7
ATOM      7  C   UNL d   1       9.177   6.231  -9.891  0.00  0.00     0.253 C 
BRANCH   7   8
ATOM      8  C   UNL d   1       9.788   6.100 -11.309  0.00  0.00     0.064 C 
BRANCH   8   9
ATOM      9  C   UNL d   1       9.800   4.672 -11.889  0.00  0.00     0.131 A 
ATOM     10  C   UNL d   1       8.428   4.262 -12.324  0.00  0.00     0.005 A 
ATOM     11  C   UNL d   1       8.485   3.848 -13.628  0.00  0.00     0.055 A 
ATOM     12  C   UNL d   1       7.237   4.199 -11.574  0.00  0.00    -0.002 A 
ATOM     13  C   UNL d   1       9.848   4.044 -14.179  0.00  0.00     0.275 A 
ATOM     14  C   UNL d   1       7.375   3.279 -14.259  0.00  0.00     0.004 A 
ATOM     15  N   UNL d   1      10.571   4.524 -13.153  0.00  0.00    -0.232 NA
ATOM     16  O   UNL d   1      10.226   3.804 -15.314  0.00  0.00    -0.266 OA
ATOM     17  C   UNL d   1       6.155   3.269 -13.546  0.00  0.00     0.000 A 
ATOM     18  C   UNL d   1       6.082   3.704 -12.203  0.00  0.00    -0.000 A 
ENDBRANCH   8   9
ENDBRANCH   7   8
ENDBRANCH   4   7
BRANCH   1  19
ATOM     19  C   UNL d   1      11.217   8.602  -5.442  0.00  0.00     0.056 A 
ATOM     20  C   UNL d   1      11.207   9.847  -4.816  0.00  0.00     0.017 A 
ATOM     21  C   UNL d   1      11.675   9.923  -3.482  0.00  0.00    -0.003 A 
ATOM     22  C   UNL d   1      12.139   8.796  -2.843  0.00  0.00    -0.026 A 
ATOM     23  C   UNL d   1      12.579   8.963  -1.413  0.00  0.00     0.031 C 
ATOM     24  C   UNL d   1      12.067   7.535  -3.443  0.00  0.00    -0.024 A 
ATOM     25  C   UNL d   1      11.610   7.432  -4.782  0.00  0.00     0.012 A 
ATOM     26  C   UNL d   1      12.473   6.293  -2.701  0.00  0.00     0.031 C 
ENDBRANCH   1  19
TORSDOF 4
