REMARK  4 active torsions:
REMARK  status: ('A' for Active; 'I' for Inactive)
REMARK    1  A    between atoms: C_2  and  CA_4 
REMARK    2  A    between atoms: C_15  and  C_16 
REMARK    3  A    between atoms: C_16  and  N_17 
REMARK    4  A    between atoms: N_27  and  C_28 
ROOT
ATOM      1  N   UNL d   1       9.478   4.441 -14.365  0.00  0.00     0.140 N 
ATOM      2  C   UNL d   1      10.506   3.411 -14.181  0.00  0.00     0.253 C 
ATOM      3  C   UNL d   1      11.896   3.880 -14.611  0.00  0.00     0.065 C 
ATOM      4  C   UNL d   1      11.890   4.492 -16.037  0.00  0.00     0.142 A 
ATOM      5  C   UNL d   1      10.772   5.524 -16.186  0.00  0.00     0.065 C 
ATOM      6  C   UNL d   1       9.426   4.963 -15.734  0.00  0.00     0.253 C 
ATOM      7  C   UNL d   1      13.161   5.293 -16.257  0.00  0.00     0.271 A 
ATOM      8  O   UNL d   1      13.456   6.330 -15.658  0.00  0.00    -0.269 OA
ATOM      9  N   UNL d   1      13.850   4.756 -17.238  0.00  0.00    -0.211 NA
ATOM     10  C   UNL d   1      13.200   3.577 -17.794  0.00  0.00     0.234 A 
ATOM     11  N   UNL d   1      11.917   3.456 -17.087  0.00  0.00    -0.323 N 
ENDROOT
BRANCH   1  12
ATOM     12  C   UNL d   1       9.736   5.546 -13.454  0.00  0.00     0.283 C 
BRANCH  12  13
ATOM     13  C   UNL d   1       9.588   5.181 -11.994  0.00  0.00     0.185 C 
ATOM     14  C   UNL d   1       8.142   4.778 -11.740  0.00  0.00     0.181 C 
ATOM     15  O   UNL d   1       8.047   4.453 -10.376  0.00  0.00    -0.326 OA
ATOM     16  C   UNL d   1       8.656   5.308  -9.495  0.00  0.00     0.116 A 
ATOM     17  C   UNL d   1       9.620   6.315  -9.880  0.00  0.00     0.118 A 
ATOM     18  C   UNL d   1       8.281   5.211  -8.171  0.00  0.00     0.028 A 
ATOM     19  C   UNL d   1      10.181   7.230  -8.887  0.00  0.00     0.044 A 
ATOM     20  O   UNL d   1       9.943   6.349 -11.218  0.00  0.00    -0.327 OA
ATOM     21  C   UNL d   1      11.124   8.355  -8.719  0.00  0.00     0.029 A 
ATOM     22  C   UNL d   1       9.696   7.029  -7.563  0.00  0.00     0.084 A 
ATOM     23  CA  UNL d   1      11.157   8.732  -7.375  0.00  0.00     0.146 A 
ATOM     24  N   UNL d   1      10.298   7.901  -6.718  0.00  0.00    -0.239 NA
ATOM     25  C   UNL d   1       8.758   6.060  -7.233  0.00  0.00     0.021 A 
BRANCH  23  26
ATOM     26  C   UNL d   1      11.838   9.737  -6.500  0.00  0.00     0.229 C 
ATOM     27  O   UNL d   1      11.778  10.947  -6.663  0.00  0.00    -0.643 OA
ATOM     28  OXT UNL d   1      12.562   9.196  -5.483  0.00  0.00    -0.643 OA
ENDBRANCH  23  26
ENDBRANCH  12  13
ENDBRANCH   1  12
BRANCH  11  29
ATOM     29  C   UNL d   1      10.737   2.940 -17.742  0.00  0.00     0.058 C 
ATOM     30  C   UNL d   1      10.469   3.291 -19.081  0.00  0.00     0.017 C 
ATOM     31  C   UNL d   1       9.316   2.817 -19.751  0.00  0.00     0.002 C 
ATOM     32  C   UNL d   1       8.351   2.031 -19.094  0.00  0.00     0.000 C 
ATOM     33  C   UNL d   1       8.556   1.703 -17.752  0.00  0.00     0.002 C 
ATOM     34  C   UNL d   1       9.754   2.090 -17.137  0.00  0.00     0.017 C 
ENDBRANCH  11  29
TORSDOF 4
