REMARK  10 active torsions:
REMARK  status: ('A' for Active; 'I' for Inactive)
REMARK    1  A    between atoms: C_2  and  C_3 
REMARK       I    between atoms: C_2  and  N_11 
REMARK    2  A    between atoms: C_4  and  C_5 
REMARK    3  A    between atoms: N_11  and  C_12 
REMARK    4  A    between atoms: C_12  and  C_13 
REMARK    5  A    between atoms: C_13  and  C_14 
REMARK    6  A    between atoms: C_14  and  C_15 
REMARK    7  A    between atoms: C_15  and  N_16 
REMARK    8  A    between atoms: C_22  and  O_23 
REMARK    9  A    between atoms: O_23  and  S_24 
REMARK   10  A    between atoms: S_24  and  C_27 
ROOT
ATOM      1  N   UNL d   1      11.262   4.356 -16.348  0.00  0.00     0.142 N 
ATOM      2  C   UNL d   1      10.020   4.139 -17.095  0.00  0.00     0.255 C 
ATOM      3  C   UNL d   1      10.276   4.223 -18.606  0.00  0.00     0.061 C 
ATOM      4  C   UNL d   1      11.085   5.448 -18.991  0.00  0.00    -0.022 A 
ATOM      5  C   UNL d   1      11.131   5.871 -20.332  0.00  0.00    -0.002 A 
ATOM      6  C   UNL d   1      11.912   6.984 -20.691  0.00  0.00     0.025 A 
ATOM      7  C   UNL d   1      12.648   7.679 -19.712  0.00  0.00     0.113 A 
ATOM      8  C   UNL d   1      12.595   7.265 -18.366  0.00  0.00     0.023 A 
ATOM      9  C   UNL d   1      11.819   6.147 -18.002  0.00  0.00     0.009 A 
ATOM     10  C   UNL d   1      11.726   5.734 -16.541  0.00  0.00     0.277 C 
ENDROOT
BRANCH   1  11
ATOM     11  C   UNL d   1      11.107   4.069 -14.917  0.00  0.00     0.251 C 
BRANCH  11  12
ATOM     12  C   UNL d   1       9.749   4.527 -14.336  0.00  0.00     0.037 C 
BRANCH  12  13
ATOM     13  C   UNL d   1       9.689   4.495 -12.814  0.00  0.00     0.029 C 
BRANCH  13  14
ATOM     14  C   UNL d   1       8.518   5.332 -12.270  0.00  0.00     0.129 C 
BRANCH  14  15
ATOM     15  N   UNL d   1       8.359   5.142 -10.836  0.00  0.00    -0.234 NA
ATOM     16  C   UNL d   1       9.094   5.781  -9.898  0.00  0.00     0.275 C 
ATOM     17  O   UNL d   1      10.102   6.426 -10.160  0.00  0.00    -0.266 OA
BRANCH  16  18
ATOM     18  C   UNL d   1       8.502   5.632  -8.579  0.00  0.00     0.062 C 
ATOM     19  C   UNL d   1       8.852   6.278  -7.444  0.00  0.00     0.005 C 
BRANCH  19  20
ATOM     20  C   UNL d   1       9.841   7.328  -7.186  0.00  0.00     0.000 A 
ATOM     21  C   UNL d   1      10.497   7.372  -5.932  0.00  0.00     0.000 A 
ATOM     22  C   UNL d   1      11.480   8.349  -5.654  0.00  0.00     0.000 A 
ATOM     23  C   UNL d   1      11.852   9.258  -6.655  0.00  0.00     0.000 A 
ATOM     24  C   UNL d   1      11.197   9.201  -7.913  0.00  0.00     0.000 A 
ATOM     25  C   UNL d   1      10.166   8.291  -8.168  0.00  0.00     0.000 A 
ENDBRANCH  19  20
ENDBRANCH  16  18
ENDBRANCH  14  15
ENDBRANCH  13  14
ENDBRANCH  12  13
ENDBRANCH  11  12
ENDBRANCH   1  11
BRANCH   7  26
ATOM     26  O   UNL d   1      13.402   8.759 -20.074  0.00  0.00    -0.224 OA
BRANCH  26  27
ATOM     27  S   UNL d   1      15.052   8.479 -20.275  0.00  0.00     0.374 S 
ATOM     28  O   UNL d   1      15.657   8.428 -18.933  0.00  0.00    -0.189 OA
ATOM     29  O   UNL d   1      15.204   7.355 -21.214  0.00  0.00    -0.189 OA
BRANCH  27  30
ATOM     30  C   UNL d   1      15.529  10.052 -21.121  0.00  0.00     0.524 C 
ATOM     31  F   UNL d   1      16.382  10.727 -20.353  0.00  0.00    -0.155 F 
ATOM     32  F   UNL d   1      16.100   9.764 -22.290  0.00  0.00    -0.155 F 
ATOM     33  F   UNL d   1      14.437  10.787 -21.331  0.00  0.00    -0.155 F 
ENDBRANCH  27  30
ENDBRANCH  26  27
ENDBRANCH   7  26
TORSDOF 10
