REMARK  4 active torsions:
REMARK  status: ('A' for Active; 'I' for Inactive)
REMARK    1  A    between atoms: C_11  and  C_12 
REMARK    2  A    between atoms: C_12  and  C_13 
REMARK    3  A    between atoms: C_13  and  N_14 
REMARK    4  A    between atoms: N_17  and  C_18 
ROOT
ATOM      1  C   UNL d   1       8.746   6.309 -10.508  0.00  0.00     0.251 C 
ENDROOT
BRANCH   1   2
ATOM      2  C   UNL d   1       8.831   4.971 -11.251  0.00  0.00     0.038 C 
BRANCH   2   3
ATOM      3  C   UNL d   1       8.173   5.016 -12.662  0.00  0.00     0.041 C 
ATOM      4  C   UNL d   1       6.804   4.269 -12.833  0.00  0.00     0.174 C 
ATOM      5  O   UNL d   1       6.181   3.784 -11.653  0.00  0.00    -0.219 OA
ATOM      6  C   UNL d   1       7.115   3.178 -13.827  0.00  0.00     0.004 A 
ATOM      7  C   UNL d   1       8.401   3.285 -14.336  0.00  0.00    -0.021 A 
ATOM      8  C   UNL d   1       6.280   2.114 -14.203  0.00  0.00     0.000 A 
ATOM      9  C   UNL d   1       8.910   2.350 -15.259  0.00  0.00     0.025 A 
ATOM     10  C   UNL d   1       9.128   4.459 -13.763  0.00  0.00     0.029 C 
ATOM     11  C   UNL d   1       8.074   1.284 -15.669  0.00  0.00     0.140 A 
ATOM     12  C   UNL d   1       6.762   1.173 -15.145  0.00  0.00     0.029 A 
ATOM     13  F   UNL d   1       8.531   0.376 -16.557  0.00  0.00    -0.204 F 
ENDBRANCH   2   3
ENDBRANCH   1   2
BRANCH   1  14
ATOM     14  N   UNL d   1       9.873   6.470  -9.586  0.00  0.00     0.141 N 
ATOM     15  C   UNL d   1       9.515   5.931  -8.272  0.00  0.00     0.274 C 
ATOM     16  C   UNL d   1      10.697   6.089  -7.303  0.00  0.00     0.138 C 
ATOM     17  N   UNL d   1      11.135   7.474  -7.242  0.00  0.00    -0.330 N 
ATOM     18  C   UNL d   1      11.368   8.116  -8.527  0.00  0.00     0.138 C 
ATOM     19  C   UNL d   1      10.156   7.899  -9.451  0.00  0.00     0.274 C 
BRANCH  17  20
ATOM     20  C   UNL d   1      11.240   8.163  -6.019  0.00  0.00     0.140 A 
ATOM     21  N   UNL d   1      10.962   9.483  -6.036  0.00  0.00    -0.227 NA
ATOM     22  C   UNL d   1      11.055  10.170  -4.878  0.00  0.00     0.101 A 
ATOM     23  C   UNL d   1      11.463   9.592  -3.664  0.00  0.00     0.021 A 
ATOM     24  C   UNL d   1      11.791   8.228  -3.644  0.00  0.00     0.005 A 
ATOM     25  C   UNL d   1      11.633   7.491  -4.840  0.00  0.00     0.037 A 
ENDBRANCH  17  20
ENDBRANCH   1  14
TORSDOF 4
