REMARK  5 active torsions:
REMARK  status: ('A' for Active; 'I' for Inactive)
REMARK    1  A    between atoms: N_12  and  C_13 
REMARK    2  A    between atoms: C_13  and  C_14 
REMARK    3  A    between atoms: C_19  and  C_20 
REMARK    4  A    between atoms: C_20  and  N_21 
REMARK    5  A    between atoms: N_24  and  C_25 
ROOT
ATOM      1  C   UNL d   1       8.720   5.589 -11.965  0.00  0.00     0.025 C 
ATOM      2  C   UNL d   1       7.368   5.232 -11.329  0.00  0.00     0.002 C 
ATOM      3  C   UNL d   1       6.234   5.165 -12.347  0.00  0.00     0.000 C 
ATOM      4  C   UNL d   1       6.580   4.177 -13.449  0.00  0.00     0.000 C 
ATOM      5  C   UNL d   1       7.913   4.533 -14.101  0.00  0.00     0.002 C 
ATOM      6  C   UNL d   1       9.092   4.601 -13.111  0.00  0.00     0.035 C 
ENDROOT
BRANCH   6   7
ATOM      7  C   UNL d   1      10.425   4.984 -13.816  0.00  0.00     0.250 C 
BRANCH   7   8
ATOM      8  N   UNL d   1      10.509   4.480 -15.186  0.00  0.00     0.141 N 
ATOM      9  C   UNL d   1      11.046   3.125 -15.177  0.00  0.00     0.274 C 
ATOM     10  C   UNL d   1      11.039   2.553 -16.593  0.00  0.00     0.138 C 
ATOM     11  N   UNL d   1      11.773   3.412 -17.522  0.00  0.00    -0.329 N 
ATOM     12  C   UNL d   1      11.342   4.810 -17.483  0.00  0.00     0.138 C 
ATOM     13  C   UNL d   1      11.352   5.334 -16.034  0.00  0.00     0.274 C 
BRANCH  11  14
ATOM     14  C   UNL d   1      12.828   2.952 -18.336  0.00  0.00     0.148 A 
ATOM     15  C   UNL d   1      12.901   1.585 -18.850  0.00  0.00     0.042 A 
ATOM     16  C   UNL d   1      14.098   1.432 -19.618  0.00  0.00     0.050 A 
ATOM     17  C   UNL d   1      12.066   0.440 -18.766  0.00  0.00     0.004 A 
ATOM     18  S   UNL d   1      14.899   2.988 -19.668  0.00  0.00     0.015 SA
ATOM     19  C   UNL d   1      14.471   0.209 -20.204  0.00  0.00     0.008 A 
ATOM     20  N   UNL d   1      13.797   3.771 -18.686  0.00  0.00    -0.192 NA
ATOM     21  C   UNL d   1      13.636  -0.915 -20.052  0.00  0.00     0.001 A 
ATOM     22  C   UNL d   1      12.437  -0.784 -19.331  0.00  0.00     0.000 A 
ENDBRANCH  11  14
ENDBRANCH   7   8
ENDBRANCH   6   7
BRANCH   1  23
ATOM     23  C   UNL d   1       9.839   5.607 -10.918  0.00  0.00     0.112 C 
BRANCH  23  24
ATOM     24  N   UNL d   1       9.597   6.479  -9.768  0.00  0.00    -0.271 N 
ATOM     25  C   UNL d   1       9.116   6.032  -8.608  0.00  0.00     0.239 A 
ATOM     26  O   UNL d   1       8.813   4.869  -8.369  0.00  0.00    -0.272 OA
ATOM     27  C   UNL d   1       8.961   7.175  -7.594  0.00  0.00     0.088 A 
ATOM     28  C   UNL d   1       9.463   8.389  -8.389  0.00  0.00     0.088 A 
ATOM     29  C   UNL d   1       9.872   7.169  -6.350  0.00  0.00     0.009 C 
ATOM     30  C   UNL d   1      10.612   8.937  -7.502  0.00  0.00     0.009 C 
ATOM     31  C   UNL d   1       9.862   7.804  -9.732  0.00  0.00     0.239 A 
ATOM     32  C   UNL d   1      11.841   8.014  -7.457  0.00  0.00     0.001 C 
ATOM     33  C   UNL d   1      10.014   8.672  -6.134  0.00  0.00     0.001 C 
ATOM     34  C   UNL d   1      11.332   6.794  -6.657  0.00  0.00     0.001 C 
ATOM     35  O   UNL d   1      10.316   8.486 -10.640  0.00  0.00    -0.272 OA
ENDBRANCH  23  24
ENDBRANCH   1  23
TORSDOF 5
