REMARK  4 active torsions:
REMARK  status: ('A' for Active; 'I' for Inactive)
REMARK    1  A    between atoms: O_2  and  C_3 
REMARK       I    between atoms: C_3  and  N_5 
REMARK    2  A    between atoms: N_5  and  C_6 
REMARK    3  A    between atoms: C_10  and  C_11 
REMARK    4  A    between atoms: C_11  and  C_13 
ROOT
ATOM      1  C   UNL d   1       8.984   5.338 -11.181  0.00  0.00     0.755 A 
ATOM      2  N   UNL d   1       9.857   6.339 -11.079  0.00  0.00    -0.058 NA
ATOM      3  C   UNL d   1       9.764   6.674  -9.739  0.00  0.00     0.118 A 
ATOM      4  C   UNL d   1      10.422   7.666  -8.974  0.00  0.00     0.025 A 
ATOM      5  C   UNL d   1      10.143   7.810  -7.590  0.00  0.00     0.041 A 
ATOM      6  C   UNL d   1       9.164   6.991  -6.986  0.00  0.00     0.005 A 
ATOM      7  C   UNL d   1       8.526   5.985  -7.720  0.00  0.00     0.021 A 
ATOM      8  C   UNL d   1       8.822   5.837  -9.077  0.00  0.00     0.118 A 
ATOM      9  N   UNL d   1       8.344   4.987 -10.056  0.00  0.00    -0.058 NA
ENDROOT
BRANCH   5  10
ATOM     10  C   UNL d   1      10.852   8.839  -6.784  0.00  0.00     0.196 C 
ATOM     11  O   UNL d   1      11.087   9.954  -7.233  0.00  0.00    -0.287 OA
BRANCH  10  12
ATOM     12  C   UNL d   1      11.278   8.475  -5.405  0.00  0.00     0.039 A 
ATOM     13  C   UNL d   1      11.459   7.127  -5.009  0.00  0.00     0.005 A 
ATOM     14  C   UNL d   1      11.884   6.822  -3.712  0.00  0.00     0.030 A 
ATOM     15  C   UNL d   1      12.189   7.857  -2.816  0.00  0.00     0.140 A 
ATOM     16  C   UNL d   1      12.008   9.197  -3.187  0.00  0.00     0.030 A 
ATOM     17  F   UNL d   1      12.659   7.560  -1.599  0.00  0.00    -0.204 F 
ATOM     18  C   UNL d   1      11.549   9.510  -4.479  0.00  0.00     0.005 A 
ENDBRANCH  10  12
ENDBRANCH   5  10
BRANCH   1  19
ATOM     19  N   UNL d   1       8.690   4.638 -12.376  0.00  0.00     0.005 NA
ATOM     20  C   UNL d   1       9.468   4.591 -13.521  0.00  0.00     0.403 C 
ATOM     21  O   UNL d   1      10.536   5.169 -13.733  0.00  0.00    -0.235 OA
BRANCH  20  22
ATOM     22  O   UNL d   1       8.859   3.775 -14.394  0.00  0.00    -0.280 OA
ATOM     23  C   UNL d   1       9.464   3.516 -15.649  0.00  0.00     0.186 C 
ENDBRANCH  20  22
ENDBRANCH   1  19
TORSDOF 4
