REMARK  6 active torsions:
REMARK  status: ('A' for Active; 'I' for Inactive)
REMARK       I    between atoms: C_2  and  N_3 
REMARK    1  A    between atoms: C_2  and  C_27 
REMARK    2  A    between atoms: N_3  and  C_4 
REMARK    3  A    between atoms: C_7  and  C_8 
REMARK    4  A    between atoms: C_8  and  C_9 
REMARK    5  A    between atoms: C_9  and  N_10 
REMARK    6  A    between atoms: N_13  and  C_14 
ROOT
ATOM      1  C   UNL d   1       9.665   4.343 -14.887  0.00  0.00     0.107 C 
ATOM      2  C   UNL d   1       8.268   4.801 -14.538  0.00  0.00     0.024 C 
ATOM      3  C   UNL d   1       8.110   5.364 -13.150  0.00  0.00     0.002 C 
ATOM      4  C   UNL d   1       8.551   4.308 -12.142  0.00  0.00     0.002 C 
ATOM      5  C   UNL d   1       9.942   3.742 -12.495  0.00  0.00     0.002 C 
ATOM      6  C   UNL d   1      10.078   3.232 -13.928  0.00  0.00     0.024 C 
ENDROOT
BRANCH   4   7
ATOM      7  C   UNL d   1       8.479   4.802 -10.695  0.00  0.00     0.035 C 
BRANCH   7   8
ATOM      8  C   UNL d   1       9.219   6.128 -10.488  0.00  0.00     0.250 C 
BRANCH   8   9
ATOM      9  N   UNL d   1       9.141   6.574  -9.119  0.00  0.00     0.141 N 
ATOM     10  C   UNL d   1       9.582   7.980  -9.080  0.00  0.00     0.274 C 
ATOM     11  C   UNL d   1       9.406   8.521  -7.652  0.00  0.00     0.138 C 
ATOM     12  N   UNL d   1      10.147   7.673  -6.728  0.00  0.00    -0.330 N 
ATOM     13  C   UNL d   1       9.912   6.255  -6.847  0.00  0.00     0.138 C 
ATOM     14  C   UNL d   1      10.030   5.785  -8.298  0.00  0.00     0.274 C 
BRANCH  12  15
ATOM     15  C   UNL d   1      11.113   8.185  -5.841  0.00  0.00     0.142 C 
ATOM     16  C   UNL d   1      11.499   7.568  -4.619  0.00  0.00     0.059 A 
ATOM     17  C   UNL d   1      12.419   8.260  -3.807  0.00  0.00     0.104 A 
ATOM     18  C   UNL d   1      11.183   6.397  -3.892  0.00  0.00     0.032 A 
ATOM     19  C   UNL d   1      12.955   9.474  -4.207  0.00  0.00     0.045 C 
ATOM     20  O   UNL d   1      12.650   7.560  -2.635  0.00  0.00    -0.305 OA
ATOM     21  C   UNL d   1      12.607   9.929  -5.481  0.00  0.00     0.103 C 
ATOM     22  N   UNL d   1      11.681   9.339  -6.238  0.00  0.00    -0.227 NA
ATOM     23  C   UNL d   1      11.898   6.421  -2.720  0.00  0.00     0.123 A 
ENDBRANCH  12  15
ENDBRANCH   8   9
ENDBRANCH   7   8
ENDBRANCH   4   7
BRANCH   1  24
ATOM     24  N   UNL d   1       9.674   3.859 -16.254  0.00  0.00    -0.236 NA
ATOM     25  C   UNL d   1      10.039   4.553 -17.342  0.00  0.00     0.275 C 
ATOM     26  O   UNL d   1      10.370   5.736 -17.323  0.00  0.00    -0.266 OA
BRANCH  25  27
ATOM     27  C   UNL d   1       9.953   3.805 -18.645  0.00  0.00     0.060 A 
ATOM     28  C   UNL d   1      10.538   2.520 -18.851  0.00  0.00     0.022 A 
ATOM     29  C   UNL d   1      10.422   1.932 -20.147  0.00  0.00     0.082 A 
ATOM     30  C   UNL d   1      11.248   1.816 -17.838  0.00  0.00     0.002 A 
ATOM     31  N   UNL d   1       9.771   2.540 -21.163  0.00  0.00    -0.244 NA
ATOM     32  C   UNL d   1      10.999   0.662 -20.377  0.00  0.00     0.019 A 
ATOM     33  C   UNL d   1       9.233   3.756 -20.962  0.00  0.00     0.099 A 
ATOM     34  C   UNL d   1       9.301   4.424 -19.731  0.00  0.00     0.025 A 
ATOM     35  C   UNL d   1      11.681  -0.030 -19.359  0.00  0.00     0.002 A 
ATOM     36  C   UNL d   1      11.790   0.545 -18.084  0.00  0.00     0.000 A 
ENDBRANCH  25  27
ENDBRANCH   1  24
TORSDOF 6
