REMARK  1 active torsions:
REMARK  status: ('A' for Active; 'I' for Inactive)
REMARK    1  A    between atoms: C_5  and  C_6 
ROOT
ATOM      1  C   UNL d   1       9.557   4.865 -12.701  0.00  0.00     0.079 C 
ATOM      2  N   UNL d   1      10.627   5.154 -13.326  0.00  0.00    -0.244 NA
ATOM      3  C   UNL d   1      11.088   4.652 -14.544  0.00  0.00     0.101 A 
ATOM      4  C   UNL d   1      11.894   5.534 -15.296  0.00  0.00     0.050 A 
ATOM      5  C   UNL d   1      12.502   5.098 -16.488  0.00  0.00     0.142 A 
ATOM      6  F   UNL d   1      13.264   5.955 -17.208  0.00  0.00    -0.204 F 
ATOM      7  C   UNL d   1      12.319   3.771 -16.922  0.00  0.00     0.031 A 
ATOM      8  C   UNL d   1      11.536   2.885 -16.166  0.00  0.00     0.023 A 
ATOM      9  C   UNL d   1      10.919   3.329 -14.982  0.00  0.00     0.099 A 
ATOM     10  N   UNL d   1      10.100   2.424 -14.323  0.00  0.00    -0.244 NA
ATOM     11  C   UNL d   1       8.809   2.781 -13.992  0.00  0.00     0.083 A 
ATOM     12  C   UNL d   1       7.778   1.917 -14.397  0.00  0.00     0.020 A 
ATOM     13  C   UNL d   1       6.451   2.266 -14.109  0.00  0.00     0.013 A 
ATOM     14  C   UNL d   1       6.199   3.483 -13.484  0.00  0.00     0.058 A 
ATOM     15 CL   UNL d   1       4.618   3.985 -13.234  0.00  0.00    -0.082 Cl
ATOM     16  C   UNL d   1       7.202   4.345 -13.056  0.00  0.00     0.014 A 
ATOM     17  C   UNL d   1       8.536   3.986 -13.273  0.00  0.00     0.036 A 
ENDROOT
BRANCH   1  18
ATOM     18  C   UNL d   1       9.366   5.504 -11.343  0.00  0.00    -0.005 C 
ATOM     19  C   UNL d   1       8.599   4.926 -10.386  0.00  0.00     0.006 C 
ATOM     20  C   UNL d   1       8.501   5.415  -8.953  0.00  0.00     0.276 C 
ATOM     21  N   UNL d   1       9.568   6.330  -8.563  0.00  0.00     0.144 N 
ATOM     22  C   UNL d   1       9.181   6.986  -7.327  0.00  0.00     0.286 C 
ATOM     23  C   UNL d   1       9.767   7.333  -9.596  0.00  0.00     0.255 C 
ATOM     24  C   UNL d   1      10.230   6.671 -10.879  0.00  0.00     0.063 C 
ENDBRANCH   1  18
TORSDOF 1
