REMARK  7 active torsions:
REMARK  status: ('A' for Active; 'I' for Inactive)
REMARK    1  A    between atoms: C_2  and  S_3 
REMARK    2  A    between atoms: S_3  and  C_6 
REMARK    3  A    between atoms: C_9  and  O_10 
REMARK    4  A    between atoms: C_12  and  C_13 
REMARK    5  A    between atoms: C_16  and  C_17 
REMARK    6  A    between atoms: N_21  and  C_22 
REMARK    7  A    between atoms: C_22  and  C_23 
ROOT
ATOM      1  C   UNL d   1       6.976   2.977 -13.794  0.00  0.00     0.083 A 
ATOM      2  C   UNL d   1       5.837   2.974 -13.026  0.00  0.00     0.020 A 
ATOM      3  C   UNL d   1       5.859   4.111 -12.172  0.00  0.00     0.018 A 
ATOM      4  C   UNL d   1       7.018   4.798 -12.412  0.00  0.00     0.090 A 
ATOM      5  N   UNL d   1       7.682   4.097 -13.395  0.00  0.00    -0.248 NA
ENDROOT
BRANCH   1   6
ATOM      6  C   UNL d   1       7.521   2.068 -14.811  0.00  0.00     0.041 A 
ATOM      7  C   UNL d   1       6.920   0.818 -15.113  0.00  0.00     0.096 A 
ATOM      8  C   UNL d   1       7.496  -0.001 -16.119  0.00  0.00     0.025 A 
ATOM      9  C   UNL d   1       8.678   0.376 -16.782  0.00  0.00     0.013 A 
ATOM     10  C   UNL d   1       9.280   1.600 -16.459  0.00  0.00     0.084 A 
ATOM     11  C   UNL d   1       8.690   2.448 -15.508  0.00  0.00     0.015 A 
BRANCH   7  12
ATOM     12  O   UNL d   1       5.795   0.450 -14.405  0.00  0.00    -0.328 OA
ATOM     13  C   UNL d   1       5.179  -0.793 -14.695  0.00  0.00     0.181 C 
ENDBRANCH   7  12
BRANCH  10  14
ATOM     14  S   UNL d   1      10.777   2.120 -17.286  0.00  0.00     0.190 S 
ATOM     15  O   UNL d   1      10.421   3.182 -18.234  0.00  0.00    -0.222 OA
ATOM     16  O   UNL d   1      11.471   0.914 -17.774  0.00  0.00    -0.222 OA
BRANCH  14  17
ATOM     17  C   UNL d   1      11.813   2.854 -15.948  0.00  0.00     0.127 C 
ATOM     18  C   UNL d   1      12.998   3.625 -16.523  0.00  0.00     0.018 C 
ENDBRANCH  14  17
ENDBRANCH  10  14
ENDBRANCH   1   6
BRANCH   4  19
ATOM     19  C   UNL d   1       7.568   6.070 -11.836  0.00  0.00     0.259 C 
ATOM     20  N   UNL d   1       8.947   5.961 -11.344  0.00  0.00     0.145 N 
ATOM     21  C   UNL d   1       9.393   7.354 -11.244  0.00  0.00     0.251 C 
ATOM     22  C   UNL d   1       8.845   8.053 -12.447  0.00  0.00     0.038 C 
ATOM     23  C   UNL d   1       7.649   7.208 -12.861  0.00  0.00     0.042 C 
BRANCH  20  24
ATOM     24  C   UNL d   1       9.021   5.211 -10.078  0.00  0.00     0.277 C 
BRANCH  24  25
ATOM     25  C   UNL d   1       9.545   5.987  -8.867  0.00  0.00     0.011 A 
ATOM     26  C   UNL d   1      10.748   6.731  -8.945  0.00  0.00    -0.002 A 
ATOM     27  C   UNL d   1      11.184   7.530  -7.892  0.00  0.00    -0.000 A 
ATOM     28  C   UNL d   1      10.453   7.567  -6.684  0.00  0.00    -0.000 A 
ATOM     29  C   UNL d   1       9.282   6.792  -6.575  0.00  0.00    -0.000 A 
ATOM     30  C   UNL d   1       8.815   6.015  -7.666  0.00  0.00    -0.002 A 
ENDBRANCH  24  25
ENDBRANCH  20  24
ENDBRANCH   4  19
TORSDOF 7
