REMARK  3 active torsions:
REMARK  status: ('A' for Active; 'I' for Inactive)
REMARK    1  A    between atoms: C_4  and  C_5 
REMARK    2  A    between atoms: N_8  and  C_9 
REMARK    3  A    between atoms: C_9  and  C_10 
ROOT
ATOM      1  C   UNL d   1      10.128   7.113  -8.602  0.00  0.00     0.046 C 
ATOM      2  C   UNL d   1       9.010   7.958  -7.976  0.00  0.00     0.041 C 
ATOM      3  C   UNL d   1       9.402   8.581  -6.644  0.00  0.00     0.251 C 
ATOM      4  N   UNL d   1      10.678   9.315  -6.790  0.00  0.00     0.141 N 
ATOM      5  C   UNL d   1      11.832   8.632  -7.431  0.00  0.00     0.251 C 
ATOM      6  C   UNL d   1      11.400   7.979  -8.744  0.00  0.00     0.041 C 
ENDROOT
BRANCH   4   7
ATOM      7  C   UNL d   1      11.060   9.948  -5.531  0.00  0.00     0.277 C 
BRANCH   7   8
ATOM      8  C   UNL d   1      11.476   8.978  -4.426  0.00  0.00     0.011 A 
ATOM      9  C   UNL d   1      11.450   7.569  -4.581  0.00  0.00    -0.002 A 
ATOM     10  C   UNL d   1      11.877   6.710  -3.577  0.00  0.00    -0.000 A 
ATOM     11  C   UNL d   1      12.300   7.211  -2.347  0.00  0.00    -0.000 A 
ATOM     12  C   UNL d   1      12.304   8.622  -2.151  0.00  0.00    -0.000 A 
ATOM     13  C   UNL d   1      11.894   9.496  -3.165  0.00  0.00    -0.002 A 
ENDBRANCH   7   8
ENDBRANCH   4   7
BRANCH   1  14
ATOM     14  C   UNL d   1       9.691   6.552  -9.924  0.00  0.00     0.082 A 
ATOM     15  C   UNL d   1       9.449   5.278 -10.358  0.00  0.00     0.033 A 
ATOM     16  C   UNL d   1       9.080   5.447 -11.728  0.00  0.00     0.082 A 
ATOM     17  C   UNL d   1       8.730   4.400 -12.730  0.00  0.00     0.054 C 
ATOM     18  N   UNL d   1       9.079   6.713 -12.112  0.00  0.00    -0.153 NA
ATOM     19  N   UNL d   1       9.458   7.371 -11.001  0.00  0.00    -0.153 NA
ENDBRANCH   1  14
TORSDOF 3
