REMARK  6 active torsions:
REMARK  status: ('A' for Active; 'I' for Inactive)
REMARK       I    between atoms: C_2  and  N_3 
REMARK    1  A    between atoms: C_2  and  C_22 
REMARK    2  A    between atoms: N_3  and  C_4 
REMARK    3  A    between atoms: C_4  and  C_5 
REMARK    4  A    between atoms: C_6  and  C_7 
REMARK    5  A    between atoms: C_7  and  N_8 
REMARK    6  A    between atoms: N_11  and  C_12 
ROOT
ATOM      1  N   UNL d   1       8.714   4.803 -12.491  0.00  0.00     0.145 N 
ATOM      2  C   UNL d   1       9.331   3.691 -13.225  0.00  0.00     0.275 C 
ATOM      3  C   UNL d   1       8.475   3.282 -14.431  0.00  0.00     0.137 C 
ATOM      4  N   UNL d   1       7.099   3.001 -14.040  0.00  0.00    -0.344 N 
ATOM      5  C   UNL d   1       6.474   4.017 -13.202  0.00  0.00     0.137 C 
ATOM      6  C   UNL d   1       7.376   4.406 -12.022  0.00  0.00     0.275 C 
ENDROOT
BRANCH   1   7
ATOM      7  C   UNL d   1       9.625   5.158 -11.402  0.00  0.00     0.276 C 
BRANCH   7   8
ATOM      8  C   UNL d   1       9.055   6.058 -10.333  0.00  0.00     0.006 C 
ATOM      9  C   UNL d   1       9.693   6.416  -9.214  0.00  0.00    -0.003 C 
BRANCH   9  10
ATOM     10  C   UNL d   1       9.019   7.265  -8.175  0.00  0.00     0.155 C 
BRANCH  10  11
ATOM     11  N   UNL d   1       9.787   7.331  -6.957  0.00  0.00    -0.229 NA
ATOM     12  C   UNL d   1      10.628   8.333  -6.681  0.00  0.00     0.275 C 
ATOM     13  O   UNL d   1      10.904   9.241  -7.458  0.00  0.00    -0.266 OA
BRANCH  12  14
ATOM     14  C   UNL d   1      11.164   8.326  -5.286  0.00  0.00     0.058 A 
ATOM     15  C   UNL d   1      11.470   7.113  -4.636  0.00  0.00     0.007 A 
ATOM     16  C   UNL d   1      11.981   7.130  -3.324  0.00  0.00     0.030 A 
ATOM     17  C   UNL d   1      12.178   8.361  -2.669  0.00  0.00     0.140 A 
ATOM     18  C   UNL d   1      11.864   9.568  -3.314  0.00  0.00     0.030 A 
ATOM     19  F   UNL d   1      12.664   8.387  -1.408  0.00  0.00    -0.204 F 
ATOM     20  C   UNL d   1      11.366   9.556  -4.629  0.00  0.00     0.007 A 
ENDBRANCH  12  14
ENDBRANCH  10  11
ENDBRANCH   9  10
ENDBRANCH   7   8
ENDBRANCH   1   7
BRANCH   4  21
ATOM     21  C   UNL d   1       6.437   1.789 -14.351  0.00  0.00     0.068 A 
ATOM     22  C   UNL d   1       6.527   1.159 -15.627  0.00  0.00     0.084 A 
ATOM     23  C   UNL d   1       5.786  -0.020 -15.895  0.00  0.00     0.070 A 
ATOM     24 CL   UNL d   1       7.391   1.857 -16.962  0.00  0.00    -0.080 Cl
ATOM     25  C   UNL d   1       4.939  -0.559 -14.917  0.00  0.00     0.012 A 
ATOM     26 CL   UNL d   1       5.811  -0.743 -17.465  0.00  0.00    -0.081 Cl
ATOM     27  C   UNL d   1       4.818   0.066 -13.670  0.00  0.00     0.002 A 
ATOM     28  C   UNL d   1       5.580   1.215 -13.382  0.00  0.00     0.018 A 
ENDBRANCH   4  21
TORSDOF 6
