REMARK  5 active torsions:
REMARK  status: ('A' for Active; 'I' for Inactive)
REMARK    1  A    between atoms: C_2  and  C_3 
REMARK    2  A    between atoms: C_3  and  C_4 
REMARK    3  A    between atoms: C_4  and  N_5 
REMARK    4  A    between atoms: N_11  and  C_12 
REMARK    5  A    between atoms: C_17  and  O_18 
ROOT
ATOM      1  N   UNL d   1      12.809   5.985 -16.603  0.00  0.00     0.137 N 
ATOM      2  C   UNL d   1      13.007   4.845 -17.485  0.00  0.00     0.250 C 
ATOM      3  C   UNL d   1      12.495   3.664 -16.672  0.00  0.00     0.039 C 
ATOM      4  C   UNL d   1      11.496   4.277 -15.680  0.00  0.00     0.056 C 
ATOM      5  C   UNL d   1      11.945   4.114 -14.218  0.00  0.00     0.028 C 
ATOM      6  C   UNL d   1      10.646   4.223 -13.444  0.00  0.00     0.102 C 
ATOM      7  N   UNL d   1       9.612   3.772 -14.340  0.00  0.00    -0.346 N 
ATOM      8  C   UNL d   1      10.105   3.626 -15.678  0.00  0.00     0.103 C 
ATOM      9  C   UNL d   1      11.474   5.770 -16.068  0.00  0.00     0.252 C 
ENDROOT
BRANCH   7  10
ATOM     10  C   UNL d   1       8.284   3.558 -13.954  0.00  0.00     0.079 A 
ATOM     11  C   UNL d   1       7.634   4.417 -13.019  0.00  0.00     0.110 A 
ATOM     12  C   UNL d   1       6.307   4.148 -12.619  0.00  0.00     0.026 A 
ATOM     13  C   UNL d   1       5.620   3.034 -13.127  0.00  0.00     0.002 A 
ATOM     14  C   UNL d   1       6.265   2.174 -14.044  0.00  0.00     0.002 A 
ATOM     15  C   UNL d   1       7.580   2.445 -14.456  0.00  0.00     0.019 A 
BRANCH  11  16
ATOM     16  O   UNL d   1       8.317   5.524 -12.568  0.00  0.00    -0.327 OA
ATOM     17  C   UNL d   1       7.723   6.391 -11.629  0.00  0.00     0.181 C 
ENDBRANCH  11  16
ENDBRANCH   7  10
BRANCH   1  18
ATOM     18  C   UNL d   1      12.877   7.252 -17.301  0.00  0.00     0.250 C 
BRANCH  18  19
ATOM     19  C   UNL d   1      14.322   7.570 -17.712  0.00  0.00     0.035 C 
BRANCH  19  20
ATOM     20  C   UNL d   1      14.445   8.948 -18.373  0.00  0.00     0.002 C 
ATOM     21  C   UNL d   1      13.756   9.009 -19.743  0.00  0.00     0.000 C 
ENDBRANCH  19  20
ENDBRANCH  18  19
ENDBRANCH   1  18
TORSDOF 5
