REMARK  6 active torsions:
REMARK  status: ('A' for Active; 'I' for Inactive)
REMARK    1  A    between atoms: C_5  and  C_6 
REMARK    2  A    between atoms: C_6  and  O_7 
REMARK    3  A    between atoms: C_6  and  C_26 
REMARK    4  A    between atoms: O_7  and  C_8 
REMARK    5  A    between atoms: N_15  and  C_16 
REMARK    6  A    between atoms: C_16  and  C_17 
ROOT
ATOM      1  C   UNL d   1       9.532   3.373 -13.929  0.00  0.00     0.120 C 
ATOM      2  C   UNL d   1       9.842   3.668 -12.480  0.00  0.00     0.063 C 
ATOM      3  C   UNL d   1       8.936   4.629 -11.776  0.00  0.00     0.222 C 
ATOM      4  C   UNL d   1       7.423   4.329 -11.906  0.00  0.00     0.035 C 
ATOM      5  C   UNL d   1       7.032   4.957 -13.235  0.00  0.00     0.035 C 
ATOM      6  C   UNL d   1       8.348   5.614 -13.664  0.00  0.00     0.222 C 
ATOM      7  C   UNL d   1       9.232   4.758 -14.568  0.00  0.00     0.063 C 
ATOM      8  N   UNL d   1       9.158   5.890 -12.490  0.00  0.00     0.139 N 
ENDROOT
BRANCH   1   9
ATOM      9  O   UNL d   1       8.399   2.521 -14.145  0.00  0.00    -0.350 OA
BRANCH   9  10
ATOM     10  C   UNL d   1       8.634   1.201 -14.652  0.00  0.00     0.160 C 
BRANCH  10  11
ATOM     11  C   UNL d   1       7.293   0.554 -14.986  0.00  0.00     0.009 A 
ATOM     12  C   UNL d   1       6.628  -0.298 -14.065  0.00  0.00     0.001 A 
ATOM     13  C   UNL d   1       5.408  -0.912 -14.432  0.00  0.00     0.029 A 
ATOM     14  C   UNL d   1       4.844  -0.668 -15.698  0.00  0.00     0.140 A 
ATOM     15  F   UNL d   1       3.667  -1.240 -16.036  0.00  0.00    -0.204 F 
ATOM     16  C   UNL d   1       5.489   0.184 -16.607  0.00  0.00     0.029 A 
ATOM     17  C   UNL d   1       6.692   0.803 -16.244  0.00  0.00     0.001 A 
ENDBRANCH  10  11
BRANCH  10  18
ATOM     18  C   UNL d   1       9.582   1.188 -15.835  0.00  0.00     0.009 C 
ATOM     19  C   UNL d   1      10.185  -0.028 -16.251  0.00  0.00     0.001 C 
ATOM     20  C   UNL d   1      11.081  -0.011 -17.380  0.00  0.00     0.029 C 
ATOM     21  C   UNL d   1      11.398   1.194 -18.046  0.00  0.00     0.140 C 
ATOM     22  C   UNL d   1      10.763   2.379 -17.607  0.00  0.00     0.029 C 
ATOM     23  F   UNL d   1      12.293   1.216 -19.068  0.00  0.00    -0.204 F 
ATOM     24  C   UNL d   1       9.839   2.378 -16.605  0.00  0.00     0.001 C 
ENDBRANCH  10  18
ENDBRANCH   9  10
ENDBRANCH   1   9
BRANCH   8  25
ATOM     25  C   UNL d   1       8.702   7.055 -11.777  0.00  0.00     0.295 C 
BRANCH  25  26
ATOM     26  C   UNL d   1       9.400   7.177 -10.466  0.00  0.00     0.092 A 
ATOM     27  N   UNL d   1      10.346   8.140 -10.217  0.00  0.00    -0.248 NA
ATOM     28  C   UNL d   1      10.739   8.078  -8.898  0.00  0.00     0.081 A 
ATOM     29  C   UNL d   1       9.973   7.027  -8.309  0.00  0.00     0.019 A 
ATOM     30  C   UNL d   1      11.659   8.808  -8.170  0.00  0.00     0.019 A 
ATOM     31  C   UNL d   1       9.177   6.490  -9.306  0.00  0.00     0.018 A 
ATOM     32  C   UNL d   1      10.144   6.792  -6.917  0.00  0.00     0.002 A 
ATOM     33  C   UNL d   1      11.105   7.505  -6.177  0.00  0.00     0.000 A 
ATOM     34  C   UNL d   1      11.853   8.530  -6.806  0.00  0.00     0.002 A 
ENDBRANCH  25  26
ENDBRANCH   8  25
TORSDOF 6
