REMARK  7 active torsions:
REMARK  status: ('A' for Active; 'I' for Inactive)
REMARK       I    between atoms: C_2  and  N_3 
REMARK    1  A    between atoms: C_2  and  C_22 
REMARK    2  A    between atoms: N_3  and  C_4 
REMARK    3  A    between atoms: C_4  and  C_5 
REMARK    4  A    between atoms: C_6  and  C_7 
REMARK    5  A    between atoms: C_7  and  N_8 
REMARK    6  A    between atoms: N_11  and  C_12 
REMARK    7  A    between atoms: C_25  and  C_26 
ROOT
ATOM      1  C   UNL d   1       9.568   4.826 -12.476  0.00  0.00    -0.003 C 
ATOM      2  C   UNL d   1      10.286   4.458 -13.552  0.00  0.00     0.006 C 
ENDROOT
BRANCH   1   3
ATOM      3  C   UNL d   1       9.196   6.254 -12.133  0.00  0.00     0.155 C 
BRANCH   3   4
ATOM      4  N   UNL d   1       9.562   6.555 -10.757  0.00  0.00    -0.229 NA
ATOM      5  C   UNL d   1       9.864   7.780 -10.295  0.00  0.00     0.275 C 
ATOM      6  O   UNL d   1       9.855   8.786 -10.997  0.00  0.00    -0.266 OA
BRANCH   5   7
ATOM      7  C   UNL d   1      10.280   7.843  -8.861  0.00  0.00     0.058 A 
ATOM      8  C   UNL d   1       9.660   7.024  -7.898  0.00  0.00     0.005 A 
ATOM      9  C   UNL d   1      10.059   7.089  -6.552  0.00  0.00     0.002 A 
ATOM     10  C   UNL d   1      11.076   7.974  -6.138  0.00  0.00     0.018 A 
ATOM     11  C   UNL d   1      11.681   8.807  -7.106  0.00  0.00     0.002 A 
ATOM     12  C   UNL d   1      11.290   8.743  -8.459  0.00  0.00     0.005 A 
BRANCH  10  13
ATOM     13  C   UNL d   1      11.511   8.011  -4.732  0.00  0.00     0.081 A 
ATOM     14  N   UNL d   1      11.726   6.812  -4.141  0.00  0.00    -0.244 NA
ATOM     15  C   UNL d   1      12.130   6.785  -2.853  0.00  0.00     0.099 A 
ATOM     16  C   UNL d   1      12.338   7.949  -2.090  0.00  0.00     0.021 A 
ATOM     17  C   UNL d   1      12.120   9.190  -2.703  0.00  0.00     0.003 A 
ATOM     18  C   UNL d   1      11.700   9.228  -4.044  0.00  0.00     0.019 A 
ENDBRANCH  10  13
ENDBRANCH   5   7
ENDBRANCH   3   4
ENDBRANCH   1   3
BRANCH   2  19
ATOM     19  C   UNL d   1      10.613   3.013 -13.888  0.00  0.00     0.276 C 
BRANCH  19  20
ATOM     20  N   UNL d   1       9.896   2.523 -15.073  0.00  0.00     0.145 N 
ATOM     21  C   UNL d   1      10.013   1.055 -15.138  0.00  0.00     0.275 C 
ATOM     22  C   UNL d   1       9.289   0.486 -16.381  0.00  0.00     0.137 C 
ATOM     23  N   UNL d   1       7.908   0.942 -16.399  0.00  0.00    -0.344 N 
ATOM     24  C   UNL d   1       7.720   2.371 -16.248  0.00  0.00     0.137 C 
ATOM     25  C   UNL d   1       8.470   2.873 -15.002  0.00  0.00     0.275 C 
BRANCH  23  26
ATOM     26  C   UNL d   1       6.808   0.068 -16.484  0.00  0.00     0.068 A 
ATOM     27  C   UNL d   1       5.798   0.024 -15.481  0.00  0.00     0.084 A 
ATOM     28  C   UNL d   1       4.686  -0.823 -15.640  0.00  0.00     0.070 A 
ATOM     29 CL   UNL d   1       5.886   0.958 -14.024  0.00  0.00    -0.080 Cl
ATOM     30  C   UNL d   1       4.578  -1.659 -16.766  0.00  0.00     0.012 A 
ATOM     31 CL   UNL d   1       3.443  -0.824 -14.447  0.00  0.00    -0.081 Cl
ATOM     32  C   UNL d   1       5.581  -1.636 -17.753  0.00  0.00     0.002 A 
ATOM     33  C   UNL d   1       6.686  -0.774 -17.614  0.00  0.00     0.018 A 
ENDBRANCH  23  26
ENDBRANCH  19  20
ENDBRANCH   2  19
TORSDOF 7
