REMARK  9 active torsions:
REMARK  status: ('A' for Active; 'I' for Inactive)
REMARK       I    between atoms: C_2  and  N_3 
REMARK    1  A    between atoms: C_2  and  C_22 
REMARK    2  A    between atoms: N_3  and  C_4 
REMARK    3  A    between atoms: C_4  and  C_5 
REMARK    4  A    between atoms: C_5  and  C_6 
REMARK    5  A    between atoms: C_6  and  C_7 
REMARK    6  A    between atoms: C_7  and  N_8 
REMARK    7  A    between atoms: N_11  and  C_12 
REMARK    8  A    between atoms: N_24  and  C_25 
REMARK    9  A    between atoms: C_28  and  N_29 
ROOT
ATOM      1  C   UNL d   1       6.775   5.122 -12.627  0.00  0.00     0.129 C 
ENDROOT
BRANCH   1   2
ATOM      2  N   UNL d   1       7.619   5.767 -11.625  0.00  0.00    -0.233 NA
ATOM      3  C   UNL d   1       8.899   6.098 -11.809  0.00  0.00     0.296 C 
ATOM      4  O   UNL d   1       9.537   5.804 -12.820  0.00  0.00    -0.264 OA
BRANCH   3   5
ATOM      5  C   UNL d   1       9.458   6.923 -10.708  0.00  0.00     0.181 A 
ATOM      6  N   UNL d   1       9.864   8.243 -10.863  0.00  0.00    -0.124 NA
ATOM      7  N   UNL d   1      10.303   8.690  -9.731  0.00  0.00    -0.059 NA
ATOM      8  N   UNL d   1      10.207   7.688  -8.823  0.00  0.00    -0.209 N 
ATOM      9  C   UNL d   1       9.667   6.550  -9.410  0.00  0.00     0.128 A 
BRANCH   8  10
ATOM     10  C   UNL d   1      10.628   7.886  -7.479  0.00  0.00     0.085 A 
ATOM     11  C   UNL d   1      10.645   6.795  -6.582  0.00  0.00     0.021 A 
ATOM     12  C   UNL d   1      11.063   6.967  -5.245  0.00  0.00     0.025 A 
ATOM     13  C   UNL d   1      11.462   8.237  -4.774  0.00  0.00     0.127 A 
ATOM     14  C   UNL d   1      11.445   9.331  -5.668  0.00  0.00     0.025 A 
ATOM     15  C   UNL d   1      11.044   9.151  -7.006  0.00  0.00     0.021 A 
BRANCH  13  16
ATOM     16  N   UNL d   1      11.888   8.420  -3.377  0.00  0.00    -0.114 N 
ATOM     17  O   UNL d   1      12.239   7.427  -2.741  0.00  0.00    -0.532 OA
ATOM     18  O   UNL d   1      11.858   9.555  -2.916  0.00  0.00    -0.532 OA
ENDBRANCH  13  16
ENDBRANCH   8  10
ENDBRANCH   3   5
ENDBRANCH   1   2
BRANCH   1  19
ATOM     19  C   UNL d   1       6.884   3.600 -12.575  0.00  0.00     0.029 C 
BRANCH  19  20
ATOM     20  C   UNL d   1       5.909   2.867 -13.507  0.00  0.00     0.037 C 
BRANCH  20  21
ATOM     21  C   UNL d   1       6.255   1.371 -13.635  0.00  0.00     0.251 C 
BRANCH  21  22
ATOM     22  N   UNL d   1       5.489   0.755 -14.711  0.00  0.00     0.141 N 
ATOM     23  C   UNL d   1       6.293   0.726 -15.937  0.00  0.00     0.274 C 
ATOM     24  C   UNL d   1       5.505   0.145 -17.116  0.00  0.00     0.137 C 
ATOM     25  N   UNL d   1       4.952  -1.162 -16.775  0.00  0.00    -0.344 N 
ATOM     26  C   UNL d   1       4.215  -1.210 -15.518  0.00  0.00     0.137 C 
ATOM     27  C   UNL d   1       5.059  -0.607 -14.379  0.00  0.00     0.274 C 
BRANCH  25  28
ATOM     28  C   UNL d   1       5.132  -2.309 -17.583  0.00  0.00     0.068 A 
ATOM     29  C   UNL d   1       4.992  -2.307 -19.008  0.00  0.00     0.084 A 
ATOM     30  C   UNL d   1       5.190  -3.500 -19.741  0.00  0.00     0.070 A 
ATOM     31 CL   UNL d   1       4.495  -0.898 -19.891  0.00  0.00    -0.080 Cl
ATOM     32  C   UNL d   1       5.514  -4.693 -19.081  0.00  0.00     0.012 A 
ATOM     33 CL   UNL d   1       5.021  -3.511 -21.453  0.00  0.00    -0.081 Cl
ATOM     34  C   UNL d   1       5.640  -4.721 -17.690  0.00  0.00     0.002 A 
ATOM     35  C   UNL d   1       5.462  -3.535 -16.951  0.00  0.00     0.018 A 
ENDBRANCH  25  28
ENDBRANCH  21  22
ENDBRANCH  20  21
ENDBRANCH  19  20
ENDBRANCH   1  19
TORSDOF 9
