REMARK  4 active torsions:
REMARK  status: ('A' for Active; 'I' for Inactive)
REMARK    1  A    between atoms: S_2  and  C_4 
REMARK    2  A    between atoms: S_2  and  C_19 
REMARK    3  A    between atoms: C_7  and  C_8 
REMARK    4  A    between atoms: C_9  and  C_10 
ROOT
ATOM      1  C   UNL d   1       8.601   5.741 -10.922  0.00  0.00     0.107 A 
ATOM      2  C   UNL d   1       8.354   4.844  -9.881  0.00  0.00     0.015 A 
ATOM      3  C   UNL d   1       8.981   5.077  -8.648  0.00  0.00     0.020 A 
ATOM      4  C   UNL d   1       9.813   6.207  -8.495  0.00  0.00     0.082 A 
ATOM      5  N   UNL d   1      10.048   7.078  -9.497  0.00  0.00    -0.243 NA
ATOM      6  C   UNL d   1       9.458   6.840 -10.692  0.00  0.00     0.110 A 
ENDROOT
BRANCH   1   7
ATOM      7  S   UNL d   1       7.794   5.501 -12.494  0.00  0.00     0.214 S 
ATOM      8  O   UNL d   1       6.488   4.875 -12.242  0.00  0.00    -0.217 OA
ATOM      9  O   UNL d   1       7.862   6.773 -13.219  0.00  0.00    -0.217 OA
BRANCH   7  10
ATOM     10  C   UNL d   1       8.853   4.329 -13.351  0.00  0.00     0.115 A 
ATOM     11  C   UNL d   1       8.329   3.194 -14.015  0.00  0.00     0.151 A 
ATOM     12  C   UNL d   1       9.208   2.311 -14.675  0.00  0.00     0.030 A 
ATOM     13  F   UNL d   1       7.000   2.936 -14.049  0.00  0.00    -0.203 F 
ATOM     14  C   UNL d   1      10.596   2.555 -14.683  0.00  0.00     0.002 A 
ATOM     15  C   UNL d   1      11.112   3.699 -14.043  0.00  0.00     0.001 A 
ATOM     16  C   UNL d   1      10.239   4.583 -13.376  0.00  0.00     0.014 A 
ENDBRANCH   7  10
ENDBRANCH   1   7
BRANCH   4  17
ATOM     17  C   UNL d   1      10.408   6.464  -7.180  0.00  0.00     0.019 C 
ATOM     18  C   UNL d   1      10.544   7.679  -6.613  0.00  0.00     0.004 C 
BRANCH  18  19
ATOM     19  C   UNL d   1      11.157   7.964  -5.289  0.00  0.00     0.025 A 
ATOM     20  C   UNL d   1      11.248   9.297  -4.806  0.00  0.00     0.131 A 
ATOM     21  C   UNL d   1      11.812   9.566  -3.544  0.00  0.00     0.027 A 
ATOM     22  O   UNL d   1      10.785  10.349  -5.535  0.00  0.00    -0.190 OA
ATOM     23  C   UNL d   1      12.324   8.528  -2.752  0.00  0.00     0.002 A 
ATOM     24  C   UNL d   1      12.258   7.205  -3.218  0.00  0.00     0.000 A 
ATOM     25  C   UNL d   1      11.674   6.928  -4.470  0.00  0.00     0.002 A 
ENDBRANCH  18  19
ENDBRANCH   4  17
TORSDOF 4
