REMARK  7 active torsions:
REMARK  status: ('A' for Active; 'I' for Inactive)
REMARK    1  A    between atoms: C_2  and  S_3 
REMARK    2  A    between atoms: S_3  and  N_6 
REMARK    3  A    between atoms: N_6  and  C_7 
REMARK    4  A    between atoms: C_10  and  C_11 
REMARK    5  A    between atoms: C_11  and  C_12 
REMARK    6  A    between atoms: C_12  and  N_13 
REMARK    7  A    between atoms: N_16  and  C_17 
ROOT
ATOM      1  N   UNL d   1       9.079   4.203 -13.481  0.00  0.00     0.141 N 
ATOM      2  C   UNL d   1      10.268   3.354 -13.299  0.00  0.00     0.274 C 
ATOM      3  C   UNL d   1      10.291   2.199 -14.303  0.00  0.00     0.138 C 
ATOM      4  N   UNL d   1      10.206   2.731 -15.644  0.00  0.00    -0.330 N 
ATOM      5  C   UNL d   1       9.132   3.667 -15.899  0.00  0.00     0.138 C 
ATOM      6  C   UNL d   1       9.131   4.782 -14.834  0.00  0.00     0.274 C 
ENDROOT
BRANCH   1   7
ATOM      7  C   UNL d   1       9.055   5.289 -12.503  0.00  0.00     0.250 C 
BRANCH   7   8
ATOM      8  C   UNL d   1       8.979   4.786 -11.043  0.00  0.00     0.035 C 
BRANCH   8   9
ATOM      9  C   UNL d   1       8.911   5.894  -9.981  0.00  0.00     0.002 C 
ATOM     10  C   UNL d   1       8.958   5.274  -8.563  0.00  0.00     0.002 C 
ATOM     11  C   UNL d   1       8.881   6.369  -7.484  0.00  0.00     0.025 C 
ATOM     12  C   UNL d   1       9.998   7.399  -7.649  0.00  0.00     0.116 C 
ATOM     13  C   UNL d   1       9.980   8.020  -9.051  0.00  0.00     0.025 C 
ATOM     14  C   UNL d   1      10.049   6.931 -10.132  0.00  0.00     0.002 C 
BRANCH  12  15
ATOM     15  N   UNL d   1       9.831   8.434  -6.630  0.00  0.00    -0.190 NA
BRANCH  15  16
ATOM     16  S   UNL d   1      11.150   8.972  -5.678  0.00  0.00     0.261 S 
ATOM     17  O   UNL d   1      10.660  10.044  -4.797  0.00  0.00    -0.203 OA
ATOM     18  O   UNL d   1      12.258   9.232  -6.606  0.00  0.00    -0.203 OA
BRANCH  16  19
ATOM     19  C   UNL d   1      11.548   7.488  -4.652  0.00  0.00     0.146 C 
ATOM     20  C   UNL d   1      12.138   7.883  -3.290  0.00  0.00     0.020 C 
ENDBRANCH  16  19
ENDBRANCH  15  16
ENDBRANCH  12  15
ENDBRANCH   8   9
ENDBRANCH   7   8
ENDBRANCH   1   7
BRANCH   4  21
ATOM     21  C   UNL d   1      11.128   2.365 -16.627  0.00  0.00     0.141 A 
ATOM     22  C   UNL d   1      11.069   1.088 -17.252  0.00  0.00     0.040 A 
ATOM     23  C   UNL d   1      12.076   0.810 -18.228  0.00  0.00     0.034 A 
ATOM     24  C   UNL d   1      10.147  -0.023 -17.094  0.00  0.00     0.011 A 
ATOM     25  C   UNL d   1      13.051   1.761 -18.538  0.00  0.00     0.027 A 
ATOM     26  S   UNL d   1      11.887  -0.798 -18.890  0.00  0.00    -0.086 SA
ATOM     27  C   UNL d   1      13.011   2.986 -17.864  0.00  0.00     0.101 A 
ATOM     28  N   UNL d   1      12.076   3.281 -16.939  0.00  0.00    -0.227 NA
ATOM     29  C   UNL d   1      10.470  -1.067 -17.922  0.00  0.00     0.035 A 
ENDBRANCH   4  21
TORSDOF 7
