REMARK  5 active torsions:
REMARK  status: ('A' for Active; 'I' for Inactive)
REMARK    1  A    between atoms: C_6  and  C_7 
REMARK    2  A    between atoms: C_7  and  C_10 
REMARK    3  A    between atoms: C_10  and  C_12 
REMARK    4  A    between atoms: C_12  and  N_13 
REMARK    5  A    between atoms: N_16  and  C_17 
ROOT
ATOM      1  C   UNL d   1       9.319   4.793 -11.045  0.00  0.00     0.289 C 
ENDROOT
BRANCH   1   2
ATOM      2  C   UNL d   1       9.023   4.858 -12.542  0.00  0.00     0.227 C 
ATOM      3  O   UNL d   1       9.631   5.924 -13.193  0.00  0.00    -0.215 OA
BRANCH   2   4
ATOM      4  C   UNL d   1       7.547   4.838 -12.737  0.00  0.00     0.121 C 
ATOM      5  N   UNL d   1       6.907   5.867 -12.355  0.00  0.00    -0.098 NA
ATOM      6  O   UNL d   1       5.564   5.755 -12.785  0.00  0.00    -0.061 OA
BRANCH   4   7
ATOM      7  C   UNL d   1       6.994   3.592 -13.322  0.00  0.00     0.018 A 
ATOM      8  C   UNL d   1       5.869   2.936 -12.740  0.00  0.00     0.001 A 
ATOM      9  C   UNL d   1       5.456   1.692 -13.238  0.00  0.00    -0.000 A 
ATOM     10  C   UNL d   1       6.080   1.117 -14.367  0.00  0.00    -0.004 A 
ATOM     11  C   UNL d   1       7.172   1.761 -14.963  0.00  0.00    -0.022 A 
ATOM     12  C   UNL d   1       7.846   1.167 -16.177  0.00  0.00     0.031 C 
ATOM     13  C   UNL d   1       7.628   2.980 -14.421  0.00  0.00    -0.003 A 
ENDBRANCH   4   7
ENDBRANCH   2   4
ENDBRANCH   1   2
BRANCH   1  14
ATOM     14  N   UNL d   1       9.185   5.930 -10.125  0.00  0.00     0.144 N 
ATOM     15  C   UNL d   1      10.247   6.925 -10.217  0.00  0.00     0.274 C 
ATOM     16  C   UNL d   1       9.980   8.129  -9.325  0.00  0.00     0.138 C 
ATOM     17  N   UNL d   1       9.833   7.660  -7.956  0.00  0.00    -0.330 N 
ATOM     18  C   UNL d   1       8.872   6.583  -7.749  0.00  0.00     0.138 C 
ATOM     19  C   UNL d   1       9.156   5.447  -8.738  0.00  0.00     0.274 C 
BRANCH  17  20
ATOM     20  C   UNL d   1      10.584   8.234  -6.893  0.00  0.00     0.140 A 
ATOM     21  N   UNL d   1      11.114   9.448  -7.126  0.00  0.00    -0.227 NA
ATOM     22  C   UNL d   1      11.848  10.031  -6.164  0.00  0.00     0.101 A 
ATOM     23  C   UNL d   1      12.086   9.435  -4.909  0.00  0.00     0.021 A 
ATOM     24  C   UNL d   1      11.534   8.166  -4.672  0.00  0.00     0.005 A 
ATOM     25  C   UNL d   1      10.783   7.553  -5.682  0.00  0.00     0.037 A 
ENDBRANCH  17  20
ENDBRANCH   1  14
TORSDOF 5
