REMARK  4 active torsions:
REMARK  status: ('A' for Active; 'I' for Inactive)
REMARK       I    between atoms: C_2  and  N_3 
REMARK    1  A    between atoms: C_2  and  C_12 
REMARK    2  A    between atoms: N_3  and  C_4 
REMARK    3  A    between atoms: C_4  and  C_5 
REMARK    4  A    between atoms: C_5  and  N_6 
ROOT
ATOM      1  O   UNL d   1      10.711   9.124  -8.318  0.00  0.00    -0.266 OA
ATOM      2  C   UNL d   1      10.591   8.137  -7.596  0.00  0.00     0.275 C 
ATOM      3  N   UNL d   1       9.966   7.008  -7.968  0.00  0.00    -0.232 NA
ENDROOT
BRANCH   2   4
ATOM      4  C   UNL d   1      11.069   8.163  -6.168  0.00  0.00     0.058 A 
ATOM      5  C   UNL d   1      11.245   9.399  -5.509  0.00  0.00     0.006 A 
ATOM      6  C   UNL d   1      11.713   9.437  -4.181  0.00  0.00     0.012 A 
ATOM      7  C   UNL d   1      12.031   8.246  -3.511  0.00  0.00     0.058 A 
ATOM      8  C   UNL d   1      11.861   7.006  -4.155  0.00  0.00     0.012 A 
ATOM      9 CL   UNL d   1      12.642   8.328  -1.906  0.00  0.00    -0.082 Cl
ATOM     10  C   UNL d   1      11.388   6.962  -5.481  0.00  0.00     0.006 A 
ENDBRANCH   2   4
BRANCH   3  11
ATOM     11  C   UNL d   1       9.149   6.853  -9.161  0.00  0.00     0.164 C 
BRANCH  11  12
ATOM     12  C   UNL d   1       9.675   5.743 -10.078  0.00  0.00     0.277 C 
BRANCH  12  13
ATOM     13  N   UNL d   1       8.913   5.532 -11.312  0.00  0.00     0.144 N 
ATOM     14  C   UNL d   1       7.528   5.152 -11.053  0.00  0.00     0.282 C 
ATOM     15  C   UNL d   1       6.736   4.898 -12.344  0.00  0.00     0.178 C 
ATOM     16  O   UNL d   1       7.389   3.914 -13.136  0.00  0.00    -0.350 OA
ATOM     17  C   UNL d   1       8.730   4.268 -13.451  0.00  0.00     0.178 C 
ATOM     18  C   UNL d   1       9.533   4.524 -12.161  0.00  0.00     0.282 C 
ENDBRANCH  12  13
ENDBRANCH  11  12
ENDBRANCH   3  11
TORSDOF 4
