REMARK  7 active torsions:
REMARK  status: ('A' for Active; 'I' for Inactive)
REMARK    1  A    between atoms: N_2  and  C_3 
REMARK    2  A    between atoms: N_2  and  C_21 
REMARK    3  A    between atoms: C_3  and  C_4 
REMARK    4  A    between atoms: C_4  and  N_5 
REMARK    5  A    between atoms: N_8  and  C_9 
REMARK    6  A    between atoms: C_13  and  C_14 
REMARK    7  A    between atoms: C_21  and  C_22 
ROOT
ATOM      1  N   UNL d   1       7.083   4.391 -12.677  0.00  0.00    -0.298 N 
ATOM      2  C   UNL d   1       5.995   3.549 -12.237  0.00  0.00     0.131 A 
ATOM      3  C   UNL d   1       6.055   2.407 -13.248  0.00  0.00     0.135 A 
ATOM      4  N   UNL d   1       7.177   2.765 -14.109  0.00  0.00    -0.280 N 
ATOM      5  C   UNL d   1       7.713   3.948 -13.759  0.00  0.00     0.328 A 
ATOM      6  O   UNL d   1       8.633   4.553 -14.333  0.00  0.00    -0.247 OA
ENDROOT
BRANCH   1   7
ATOM      7  C   UNL d   1       7.431   5.624 -12.010  0.00  0.00     0.141 C 
BRANCH   7   8
ATOM      8  C   UNL d   1       8.800   5.483 -11.295  0.00  0.00     0.274 C 
BRANCH   8   9
ATOM      9  N   UNL d   1       9.104   6.708 -10.570  0.00  0.00     0.141 N 
ATOM     10  C   UNL d   1       9.304   7.832 -11.503  0.00  0.00     0.285 C 
BRANCH   9  11
ATOM     11  C   UNL d   1      10.230   6.505  -9.648  0.00  0.00     0.250 C 
BRANCH  11  12
ATOM     12  C   UNL d   1      10.200   7.443  -8.409  0.00  0.00     0.032 C 
ATOM     13  C   UNL d   1       9.124   7.102  -7.342  0.00  0.00     0.002 C 
ATOM     14  C   UNL d   1       9.628   7.891  -6.108  0.00  0.00     0.000 C 
ATOM     15  C   UNL d   1      10.962   8.502  -6.578  0.00  0.00     0.000 C 
ATOM     16  C   UNL d   1      10.576   9.642  -7.496  0.00  0.00     0.000 C 
ATOM     17  C   UNL d   1      11.500   7.458  -7.558  0.00  0.00     0.002 C 
ATOM     18  C   UNL d   1      10.047   8.943  -8.742  0.00  0.00     0.002 C 
ATOM     19  C   UNL d   1      11.755   6.129  -6.794  0.00  0.00     0.000 C 
ATOM     20  C   UNL d   1      12.742   7.972  -8.372  0.00  0.00     0.000 C 
ENDBRANCH  11  12
ENDBRANCH   9  11
ENDBRANCH   8   9
ENDBRANCH   7   8
ENDBRANCH   1   7
BRANCH   4  21
ATOM     21  C   UNL d   1       7.612   1.935 -15.190  0.00  0.00     0.064 A 
ATOM     22  C   UNL d   1       8.965   1.922 -15.581  0.00  0.00     0.021 A 
ATOM     23  C   UNL d   1       9.408   1.157 -16.672  0.00  0.00     0.073 A 
ATOM     24  C   UNL d   1       8.482   0.353 -17.382  0.00  0.00     0.004 A 
ATOM     25  C   UNL d   1       7.129   0.322 -16.979  0.00  0.00     0.001 A 
ATOM     26  C   UNL d   1       6.698   1.104 -15.880  0.00  0.00     0.017 A 
BRANCH  23  27
ATOM     27  C   UNL d   1      10.872   1.216 -17.076  0.00  0.00     0.419 C 
ATOM     28  F   UNL d   1      10.996   1.871 -18.227  0.00  0.00    -0.166 F 
ATOM     29  F   UNL d   1      11.622   1.827 -16.156  0.00  0.00    -0.166 F 
ATOM     30  F   UNL d   1      11.341  -0.015 -17.237  0.00  0.00    -0.166 F 
ENDBRANCH  23  27
ENDBRANCH   4  21
TORSDOF 7
