REMARK  3 active torsions:
REMARK  status: ('A' for Active; 'I' for Inactive)
REMARK    1  A    between atoms: C_4  and  S_5 
REMARK    2  A    between atoms: S_5  and  C_8 
REMARK    3  A    between atoms: C_20  and  N_21 
ROOT
ATOM      1  C   UNL d   1       8.878   2.157 -19.040  0.00  0.00     0.154 C 
ATOM      2  N   UNL d   1       9.817   2.839 -18.169  0.00  0.00    -0.248 N 
ATOM      3  N   UNL d   1       9.736   2.615 -16.836  0.00  0.00    -0.158 NA
ATOM      4  C   UNL d   1      10.648   3.380 -16.282  0.00  0.00     0.190 A 
ATOM      5  C   UNL d   1      11.393   4.113 -17.251  0.00  0.00     0.049 A 
ATOM      6  C   UNL d   1      12.467   5.026 -17.264  0.00  0.00     0.021 A 
ATOM      7  C   UNL d   1      12.949   5.566 -18.474  0.00  0.00     0.056 A 
ATOM      8  C   UNL d   1      12.355   5.178 -19.700  0.00  0.00     0.018 A 
ATOM      9  C   UNL d   1      11.288   4.261 -19.717  0.00  0.00     0.020 A 
ATOM     10  C   UNL d   1      10.822   3.739 -18.500  0.00  0.00     0.080 A 
ENDROOT
BRANCH   4  11
ATOM     11  S   UNL d   1      10.915   3.461 -14.525  0.00  0.00     0.228 S 
ATOM     12  O   UNL d   1      11.185   2.091 -14.077  0.00  0.00    -0.216 OA
ATOM     13  O   UNL d   1      11.909   4.518 -14.261  0.00  0.00    -0.216 OA
BRANCH  11  14
ATOM     14  C   UNL d   1       9.342   4.004 -13.834  0.00  0.00     0.089 A 
ATOM     15  C   UNL d   1       8.182   3.183 -13.861  0.00  0.00     0.011 A 
ATOM     16  C   UNL d   1       6.986   3.670 -13.265  0.00  0.00     0.001 A 
ATOM     17  C   UNL d   1       8.174   1.881 -14.428  0.00  0.00     0.001 A 
ATOM     18  C   UNL d   1       6.949   4.948 -12.671  0.00  0.00     0.000 A 
ATOM     19  C   UNL d   1       5.833   2.862 -13.241  0.00  0.00     0.000 A 
ATOM     20  C   UNL d   1       8.095   5.762 -12.670  0.00  0.00     0.001 A 
ATOM     21  C   UNL d   1       9.286   5.288 -13.250  0.00  0.00     0.011 A 
ATOM     22  C   UNL d   1       5.851   1.578 -13.821  0.00  0.00     0.000 A 
ATOM     23  C   UNL d   1       7.015   1.095 -14.437  0.00  0.00     0.000 A 
ENDBRANCH  11  14
ENDBRANCH   4  11
BRANCH   7  24
ATOM     24  N   UNL d   1      14.001   6.487 -18.440  0.00  0.00    -0.344 N 
ATOM     25  C   UNL d   1      15.041   6.506 -19.455  0.00  0.00     0.140 C 
ATOM     26  C   UNL d   1      15.190   7.929 -20.020  0.00  0.00     0.314 C 
ATOM     27  N   UNL d   1      15.446   8.886 -18.942  0.00  0.00     0.343 N 
ATOM     28  C   UNL d   1      14.307   8.882 -18.021  0.00  0.00     0.314 C 
ATOM     29  C   UNL d   1      14.121   7.490 -17.388  0.00  0.00     0.140 C 
ENDBRANCH   7  24
TORSDOF 3
