REMARK  6 active torsions:
REMARK  status: ('A' for Active; 'I' for Inactive)
REMARK       I    between atoms: C_2  and  N_3 
REMARK    1  A    between atoms: C_2  and  C_27 
REMARK    2  A    between atoms: N_3  and  C_4 
REMARK    3  A    between atoms: C_7  and  C_8 
REMARK    4  A    between atoms: C_8  and  C_9 
REMARK    5  A    between atoms: C_9  and  N_10 
REMARK    6  A    between atoms: N_13  and  C_14 
ROOT
ATOM      1  N   UNL d   1       8.652   4.152 -12.548  0.00  0.00     0.141 N 
ATOM      2  C   UNL d   1       9.937   4.058 -13.255  0.00  0.00     0.274 C 
ATOM      3  C   UNL d   1       9.991   2.807 -14.150  0.00  0.00     0.138 C 
ATOM      4  N   UNL d   1       8.871   2.789 -15.067  0.00  0.00    -0.329 N 
ATOM      5  C   UNL d   1       7.581   2.969 -14.430  0.00  0.00     0.138 C 
ATOM      6  C   UNL d   1       7.585   4.231 -13.549  0.00  0.00     0.274 C 
ENDROOT
BRANCH   1   7
ATOM      7  C   UNL d   1       8.613   5.336 -11.707  0.00  0.00     0.250 C 
BRANCH   7   8
ATOM      8  C   UNL d   1       9.214   5.038 -10.322  0.00  0.00     0.035 C 
BRANCH   8   9
ATOM      9  C   UNL d   1       9.270   6.271  -9.414  0.00  0.00     0.002 C 
ATOM     10  C   UNL d   1       9.470   5.857  -7.951  0.00  0.00     0.002 C 
ATOM     11  C   UNL d   1       9.493   7.085  -7.029  0.00  0.00     0.024 C 
ATOM     12  C   UNL d   1      10.585   8.080  -7.479  0.00  0.00     0.106 C 
ATOM     13  C   UNL d   1      10.374   8.517  -8.931  0.00  0.00     0.024 C 
ATOM     14  C   UNL d   1      10.352   7.284  -9.850  0.00  0.00     0.002 C 
BRANCH  12  15
ATOM     15  N   UNL d   1      10.601   9.250  -6.597  0.00  0.00    -0.240 NA
ATOM     16  C   UNL d   1      11.074   9.320  -5.349  0.00  0.00     0.251 C 
ATOM     17  O   UNL d   1      10.937  10.376  -4.719  0.00  0.00    -0.271 OA
BRANCH  16  18
ATOM     18  C   UNL d   1      11.748   8.101  -4.777  0.00  0.00     0.081 A 
ATOM     19  C   UNL d   1      12.938   8.321  -3.879  0.00  0.00     0.010 A 
ATOM     20  C   UNL d   1      11.635   7.845  -3.292  0.00  0.00     0.010 A 
ENDBRANCH  16  18
ENDBRANCH  12  15
ENDBRANCH   8   9
ENDBRANCH   7   8
ENDBRANCH   1   7
BRANCH   4  21
ATOM     21  C   UNL d   1       9.046   2.625 -16.474  0.00  0.00     0.148 A 
ATOM     22  C   UNL d   1       8.079   1.936 -17.311  0.00  0.00     0.042 A 
ATOM     23  C   UNL d   1       8.549   1.944 -18.660  0.00  0.00     0.050 A 
ATOM     24  C   UNL d   1       6.847   1.273 -17.080  0.00  0.00     0.004 A 
ATOM     25  S   UNL d   1      10.084   2.784 -18.695  0.00  0.00     0.015 SA
ATOM     26  C   UNL d   1       7.830   1.342 -19.711  0.00  0.00     0.008 A 
ATOM     27  N   UNL d   1      10.128   3.095 -17.045  0.00  0.00    -0.192 NA
ATOM     28  C   UNL d   1       6.599   0.716 -19.442  0.00  0.00     0.001 A 
ATOM     29  C   UNL d   1       6.107   0.690 -18.125  0.00  0.00     0.000 A 
ENDBRANCH   4  21
TORSDOF 6
