REMARK  6 active torsions:
REMARK  status: ('A' for Active; 'I' for Inactive)
REMARK    1  A    between atoms: C_4  and  C_5 
REMARK    2  A    between atoms: C_5  and  N_6 
REMARK    3  A    between atoms: N_6  and  C_7 
REMARK    4  A    between atoms: C_7  and  C_8 
REMARK    5  A    between atoms: C_8  and  O_9 
REMARK    6  A    between atoms: O_9  and  C_10 
ROOT
ATOM      1  C   UNL d   1       9.912   6.722  -7.422  0.00  0.00     0.187 C 
ENDROOT
BRANCH   1   2
ATOM      2  C   UNL d   1      10.398   7.289  -8.780  0.00  0.00     0.323 C 
BRANCH   2   3
ATOM      3  N   UNL d   1       9.462   6.979  -9.851  0.00  0.00     0.347 N 
BRANCH   3   4
ATOM      4  C   UNL d   1       9.290   5.545  -9.956  0.00  0.00     0.317 C 
BRANCH   4   5
ATOM      5  C   UNL d   1       8.581   5.151 -11.248  0.00  0.00     0.014 A 
ATOM      6  C   UNL d   1       7.239   5.521 -11.455  0.00  0.00    -0.002 A 
ATOM      7  C   UNL d   1       6.551   5.101 -12.605  0.00  0.00    -0.000 A 
ATOM      8  C   UNL d   1       7.221   4.314 -13.562  0.00  0.00    -0.000 A 
ATOM      9  C   UNL d   1       8.572   3.954 -13.366  0.00  0.00    -0.000 A 
ATOM     10  C   UNL d   1       9.251   4.373 -12.209  0.00  0.00    -0.002 A 
ENDBRANCH   4   5
ENDBRANCH   3   4
ENDBRANCH   2   3
ENDBRANCH   1   2
BRANCH   1  11
ATOM     11  O   UNL d   1      10.960   6.749  -6.462  0.00  0.00    -0.329 OA
BRANCH  11  12
ATOM     12  C   UNL d   1      11.085   7.849  -5.651  0.00  0.00     0.096 A 
ATOM     13  C   UNL d   1      11.677   7.633  -4.384  0.00  0.00     0.042 A 
ATOM     14  C   UNL d   1      11.814   8.718  -3.493  0.00  0.00     0.083 A 
ATOM     15  C   UNL d   1      12.202   6.481  -3.726  0.00  0.00     0.024 A 
ATOM     16  C   UNL d   1      11.381   9.992  -3.846  0.00  0.00     0.019 A 
ATOM     17  N   UNL d   1      12.372   8.220  -2.339  0.00  0.00    -0.244 NA
ATOM     18  C   UNL d   1      10.812  10.214  -5.112  0.00  0.00     0.004 A 
ATOM     19  C   UNL d   1      10.651   9.148  -6.013  0.00  0.00     0.024 A 
ATOM     20  C   UNL d   1      12.592   6.858  -2.466  0.00  0.00     0.099 A 
ENDBRANCH  11  12
ENDBRANCH   1  11
TORSDOF 6
