REMARK  1 active torsions:
REMARK  status: ('A' for Active; 'I' for Inactive)
REMARK       I    between atoms: N_4  and  C_5 
REMARK    1  A    between atoms: C_5  and  C_7 
ROOT
ATOM      1  C   UNL d   1      10.282   7.625  -8.762  0.00  0.00     0.058 C 
ATOM      2  C   UNL d   1      10.650   6.408  -8.163  0.00  0.00     0.005 C 
ATOM      3  C   UNL d   1      11.183   6.389  -6.862  0.00  0.00    -0.000 C 
ATOM      4  C   UNL d   1      11.173   7.532  -6.082  0.00  0.00    -0.002 A 
ATOM      5  C   UNL d   1      10.797   8.732  -6.650  0.00  0.00     0.012 A 
ATOM      6  C   UNL d   1      10.357   8.804  -7.987  0.00  0.00     0.003 C 
ATOM      7  C   UNL d   1      10.981   9.845  -5.659  0.00  0.00     0.197 A 
ATOM      8  O   UNL d   1      11.862  10.800  -6.145  0.00  0.00    -0.214 OA
ATOM      9  C   UNL d   1      11.518   9.104  -4.459  0.00  0.00     0.012 A 
ATOM     10  C   UNL d   1      11.848   9.624  -3.202  0.00  0.00    -0.002 A 
ATOM     11  C   UNL d   1      12.283   8.747  -2.195  0.00  0.00    -0.000 A 
ATOM     12  C   UNL d   1      12.383   7.363  -2.444  0.00  0.00    -0.000 A 
ATOM     13  C   UNL d   1      12.053   6.844  -3.713  0.00  0.00    -0.000 A 
ATOM     14  C   UNL d   1      11.608   7.738  -4.709  0.00  0.00    -0.002 A 
ENDROOT
BRANCH   1  15
ATOM     15  C   UNL d   1       9.879   7.656 -10.215  0.00  0.00     0.296 C 
ATOM     16  N   UNL d   1       9.461   6.430 -10.730  0.00  0.00    -0.016 NA
ATOM     17  C   UNL d   1       8.674   6.366 -11.764  0.00  0.00     0.789 C 
ATOM     18  N   UNL d   1       8.091   7.400 -12.447  0.00  0.00     0.064 N 
ATOM     19  N   UNL d   1       8.360   5.138 -12.284  0.00  0.00     0.064 N 
ATOM     20  O   UNL d   1       9.863   8.750 -10.791  0.00  0.00    -0.265 OA
ENDBRANCH   1  15
TORSDOF 1
