REMARK  3 active torsions:
REMARK  status: ('A' for Active; 'I' for Inactive)
REMARK    1  A    between atoms: C_9  and  C_10 
REMARK    2  A    between atoms: C_10  and  N_11 
REMARK    3  A    between atoms: N_14  and  C_15 
ROOT
ATOM      1  N   UNL d   1       9.265   5.768 -12.191  0.00  0.00     0.147 N 
ATOM      2  C   UNL d   1       8.349   5.914 -13.323  0.00  0.00     0.275 C 
ATOM      3  C   UNL d   1       8.933   5.160 -14.534  0.00  0.00     0.137 C 
ATOM      4  N   UNL d   1       9.156   3.770 -14.226  0.00  0.00    -0.343 N 
ATOM      5  C   UNL d   1       9.928   3.546 -13.040  0.00  0.00     0.137 C 
ATOM      6  C   UNL d   1       9.300   4.342 -11.915  0.00  0.00     0.275 C 
ENDROOT
BRANCH   1   7
ATOM      7  C   UNL d   1       8.710   6.484 -11.043  0.00  0.00     0.296 C 
BRANCH   7   8
ATOM      8  C   UNL d   1       9.446   6.323  -9.739  0.00  0.00     0.092 C 
ATOM      9  C   UNL d   1      10.018   5.260  -9.087  0.00  0.00     0.018 C 
ATOM     10  C   UNL d   1      10.610   5.732  -7.934  0.00  0.00     0.020 C 
ATOM     11  C   UNL d   1      10.306   7.009  -7.734  0.00  0.00     0.081 C 
ATOM     12  C   UNL d   1      10.626   7.872  -6.622  0.00  0.00     0.018 A 
ATOM     13  N   UNL d   1       9.594   7.389  -8.857  0.00  0.00    -0.248 NA
ATOM     14  C   UNL d   1      11.179   7.328  -5.434  0.00  0.00     0.004 A 
ATOM     15  C   UNL d   1      10.380   9.235  -6.722  0.00  0.00     0.004 A 
ATOM     16  C   UNL d   1      11.477   8.181  -4.360  0.00  0.00     0.030 A 
ATOM     17  C   UNL d   1      11.212   9.554  -4.463  0.00  0.00     0.140 A 
ATOM     18  F   UNL d   1      11.441  10.369  -3.412  0.00  0.00    -0.204 F 
ATOM     19  C   UNL d   1      10.678  10.076  -5.646  0.00  0.00     0.030 A 
ENDBRANCH   7   8
ENDBRANCH   1   7
BRANCH   4  20
ATOM     20  C   UNL d   1       8.651   2.691 -14.961  0.00  0.00     0.079 A 
ATOM     21  C   UNL d   1       9.515   1.914 -15.741  0.00  0.00     0.115 A 
ATOM     22  C   UNL d   1       9.060   0.843 -16.549  0.00  0.00     0.026 A 
ATOM     23  O   UNL d   1      10.880   2.060 -15.897  0.00  0.00    -0.304 OA
ATOM     24  C   UNL d   1       7.676   0.561 -16.523  0.00  0.00     0.002 A 
ATOM     25  C   UNL d   1      10.222   0.320 -17.206  0.00  0.00     0.029 A 
ATOM     26  C   UNL d   1       6.798   1.318 -15.718  0.00  0.00     0.002 A 
ATOM     27  C   UNL d   1       7.279   2.373 -14.931  0.00  0.00     0.019 A 
ATOM     28  C   UNL d   1      11.276   1.093 -16.778  0.00  0.00     0.123 A 
ENDBRANCH   4  20
TORSDOF 3
