REMARK  4 active torsions:
REMARK  status: ('A' for Active; 'I' for Inactive)
REMARK    1  A    between atoms: C_5  and  C_6 
REMARK    2  A    between atoms: C_10  and  C_11 
REMARK    3  A    between atoms: C_11  and  N_12 
REMARK    4  A    between atoms: N_15  and  C_16 
ROOT
ATOM      1  C   UNL d   1       7.312   1.193 -14.770  0.00  0.00     0.019 A 
ATOM      2  C   UNL d   1       6.392   0.327 -14.136  0.00  0.00     0.099 A 
ATOM      3  N   UNL d   1       5.465   0.737 -13.240  0.00  0.00    -0.243 NA
ATOM      4  C   UNL d   1       5.418   2.053 -12.944  0.00  0.00     0.097 A 
ATOM      5  C   UNL d   1       6.262   3.011 -13.530  0.00  0.00     0.030 A 
ATOM      6  C   UNL d   1       7.236   2.563 -14.445  0.00  0.00     0.001 A 
ENDROOT
BRANCH   5   7
ATOM      7  C   UNL d   1       6.148   4.474 -13.136  0.00  0.00     0.278 C 
BRANCH   7   8
ATOM      8  N   UNL d   1       7.434   5.116 -12.850  0.00  0.00     0.145 N 
ATOM      9  C   UNL d   1       7.224   6.508 -12.437  0.00  0.00     0.275 C 
ATOM     10  C   UNL d   1       8.576   7.195 -12.137  0.00  0.00     0.138 C 
ATOM     11  N   UNL d   1       9.329   6.435 -11.148  0.00  0.00    -0.330 N 
ATOM     12  C   UNL d   1       9.454   5.021 -11.430  0.00  0.00     0.138 C 
ATOM     13  C   UNL d   1       8.087   4.428 -11.736  0.00  0.00     0.275 C 
BRANCH  11  14
ATOM     14  C   UNL d   1       9.824   7.011  -9.964  0.00  0.00     0.140 A 
ATOM     15  N   UNL d   1       9.882   6.226  -8.863  0.00  0.00    -0.227 NA
ATOM     16  C   UNL d   1      10.352   6.759  -7.715  0.00  0.00     0.101 A 
ATOM     17  C   UNL d   1      10.812   8.082  -7.608  0.00  0.00     0.021 A 
ATOM     18  C   UNL d   1      10.764   8.892  -8.753  0.00  0.00     0.005 A 
ATOM     19  C   UNL d   1      10.259   8.353  -9.950  0.00  0.00     0.037 A 
ENDBRANCH  11  14
ENDBRANCH   7   8
ENDBRANCH   5   7
BRANCH   1  20
ATOM     20  C   UNL d   1       8.318   0.691 -15.721  0.00  0.00     0.002 A 
ATOM     21  C   UNL d   1       9.697   0.903 -15.498  0.00  0.00     0.002 A 
ATOM     22  C   UNL d   1      10.656   0.416 -16.409  0.00  0.00     0.030 A 
ATOM     23  C   UNL d   1      10.245  -0.286 -17.558  0.00  0.00     0.140 A 
ATOM     24  F   UNL d   1      11.164  -0.769 -18.427  0.00  0.00    -0.204 F 
ATOM     25  C   UNL d   1       8.874  -0.493 -17.796  0.00  0.00     0.030 A 
ATOM     26  C   UNL d   1       7.918  -0.010 -16.879  0.00  0.00     0.002 A 
ENDBRANCH   1  20
TORSDOF 4
