REMARK  7 active torsions:
REMARK  status: ('A' for Active; 'I' for Inactive)
REMARK    1  A    between atoms: C_2  and  N_3 
REMARK    2  A    between atoms: C_7  and  C_8 
REMARK    3  A    between atoms: C_8  and  N_9 
REMARK       I    between atoms: N_9  and  C_10 
REMARK    4  A    between atoms: C_10  and  C_12 
REMARK    5  A    between atoms: C_14  and  S_15 
REMARK    6  A    between atoms: S_15  and  C_18 
REMARK    7  A    between atoms: C_22  and  O_23 
ROOT
ATOM      1  C   UNL d   1      10.053   8.033  -8.825  0.00  0.00     0.080 A 
ATOM      2  C   UNL d   1      10.648   9.010  -8.008  0.00  0.00     0.018 A 
ATOM      3  C   UNL d   1      10.604   8.878  -6.611  0.00  0.00     0.084 A 
ATOM      4  C   UNL d   1       9.941   7.788  -6.051  0.00  0.00     0.013 A 
ATOM      5  C   UNL d   1       9.383   6.804  -6.857  0.00  0.00     0.025 A 
ATOM      6  C   UNL d   1       9.461   6.865  -8.261  0.00  0.00     0.099 A 
ENDROOT
BRANCH   1   7
ATOM      7  C   UNL d   1      10.200   8.205 -10.293  0.00  0.00     0.277 C 
ATOM      8  N   UNL d   1       9.232   7.697 -11.057  0.00  0.00    -0.232 NA
ATOM      9  O   UNL d   1      11.198   8.791 -10.709  0.00  0.00    -0.266 OA
BRANCH   8  10
ATOM     10  C   UNL d   1       9.405   7.083 -12.356  0.00  0.00     0.162 C 
BRANCH  10  11
ATOM     11  C   UNL d   1       9.476   5.492 -12.219  0.00  0.00     0.243 C 
ATOM     12  N   UNL d   1       8.201   4.817 -12.489  0.00  0.00     0.137 N 
ATOM     13  C   UNL d   1       8.079   4.804 -13.940  0.00  0.00     0.250 C 
ATOM     14  C   UNL d   1       9.464   4.443 -14.431  0.00  0.00     0.037 C 
ATOM     15  C   UNL d   1      10.367   4.821 -13.282  0.00  0.00     0.037 C 
BRANCH  12  16
ATOM     16  C   UNL d   1       7.047   5.383 -11.795  0.00  0.00     0.250 C 
ATOM     17  C   UNL d   1       5.804   4.514 -11.916  0.00  0.00     0.037 C 
ENDBRANCH  12  16
ENDBRANCH  10  11
ENDBRANCH   8  10
ENDBRANCH   1   7
BRANCH   6  18
ATOM     18  O   UNL d   1       9.021   5.835  -9.073  0.00  0.00    -0.328 OA
ATOM     19  C   UNL d   1       8.532   4.646  -8.480  0.00  0.00     0.181 C 
ENDBRANCH   6  18
BRANCH   3  20
ATOM     20  S   UNL d   1      11.354  10.056  -5.518  0.00  0.00     0.190 S 
ATOM     21  O   UNL d   1      11.846  11.166  -6.338  0.00  0.00    -0.222 OA
ATOM     22  O   UNL d   1      10.401  10.303  -4.429  0.00  0.00    -0.222 OA
BRANCH  20  23
ATOM     23  C   UNL d   1      12.818   9.259  -4.762  0.00  0.00     0.127 C 
ATOM     24  C   UNL d   1      12.497   7.899  -4.123  0.00  0.00     0.018 C 
ENDBRANCH  20  23
ENDBRANCH   3  20
TORSDOF 7
