REMARK  5 active torsions:
REMARK  status: ('A' for Active; 'I' for Inactive)
REMARK       I    between atoms: C_2  and  N_3 
REMARK    1  A    between atoms: C_2  and  C_34 
REMARK    2  A    between atoms: N_3  and  N_4 
REMARK    3  A    between atoms: C_13  and  N_14 
REMARK    4  A    between atoms: N_17  and  C_18 
REMARK    5  A    between atoms: C_18  and  C_19 
ROOT
ATOM      1  N   UNL d   1      12.028   4.536 -18.396  0.00  0.00    -0.225 N 
ATOM      2  C   UNL d   1      11.012   5.340 -18.938  0.00  0.00     0.101 A 
ATOM      3  C   UNL d   1      11.187   5.902 -20.226  0.00  0.00     0.022 A 
ATOM      4  C   UNL d   1      10.175   6.655 -20.843  0.00  0.00     0.013 A 
ATOM      5  C   UNL d   1       8.963   6.869 -20.167  0.00  0.00     0.059 A 
ATOM      6 CL   UNL d   1       7.702   7.774 -20.916  0.00  0.00    -0.082 Cl
ATOM      7  C   UNL d   1       8.788   6.348 -18.876  0.00  0.00     0.032 A 
ATOM      8  C   UNL d   1       9.790   5.569 -18.244  0.00  0.00     0.101 A 
ATOM      9  N   UNL d   1       9.520   5.180 -16.926  0.00  0.00    -0.227 NA
ATOM     10  C   UNL d   1       9.914   4.078 -16.351  0.00  0.00     0.142 C 
ATOM     11  C   UNL d   1      10.708   2.979 -17.017  0.00  0.00     0.051 A 
ATOM     12  C   UNL d   1      10.420   1.632 -16.648  0.00  0.00     0.004 A 
ATOM     13  C   UNL d   1      11.172   0.566 -17.160  0.00  0.00     0.000 A 
ATOM     14  C   UNL d   1      12.235   0.822 -18.038  0.00  0.00     0.002 A 
ATOM     15  C   UNL d   1      12.537   2.146 -18.406  0.00  0.00     0.019 A 
ATOM     16  C   UNL d   1      11.773   3.233 -17.921  0.00  0.00     0.086 A 
ENDROOT
BRANCH  10  17
ATOM     17  N   UNL d   1       9.687   3.865 -15.010  0.00  0.00    -0.330 N 
ATOM     18  C   UNL d   1       8.555   3.128 -14.438  0.00  0.00     0.138 C 
ATOM     19  C   UNL d   1       7.800   3.972 -13.393  0.00  0.00     0.275 C 
ATOM     20  N   UNL d   1       8.722   4.407 -12.348  0.00  0.00     0.146 N 
ATOM     21  C   UNL d   1       9.760   5.207 -12.990  0.00  0.00     0.275 C 
ATOM     22  C   UNL d   1      10.567   4.399 -13.993  0.00  0.00     0.138 C 
BRANCH  20  23
ATOM     23  C   UNL d   1       7.977   5.215 -11.364  0.00  0.00     0.279 C 
BRANCH  23  24
ATOM     24  C   UNL d   1       8.849   5.914 -10.322  0.00  0.00     0.038 A 
ATOM     25  C   UNL d   1       9.456   7.163 -10.610  0.00  0.00     0.138 A 
ATOM     26  C   UNL d   1      10.290   7.789  -9.656  0.00  0.00     0.029 A 
ATOM     27  F   UNL d   1       9.240   7.787 -11.792  0.00  0.00    -0.204 F 
ATOM     28  C   UNL d   1      10.448   7.222  -8.380  0.00  0.00     0.002 A 
ATOM     29  C   UNL d   1       9.796   6.018  -8.063  0.00  0.00    -0.000 A 
ATOM     30  C   UNL d   1       9.006   5.356  -9.033  0.00  0.00    -0.000 A 
ENDBRANCH  23  24
ENDBRANCH  20  23
ENDBRANCH  10  17
BRANCH   1  31
ATOM     31  N   UNL d   1      13.339   5.042 -18.364  0.00  0.00    -0.123 NA
ATOM     32  C   UNL d   1      14.229   4.846 -19.355  0.00  0.00     0.296 C 
ATOM     33  O   UNL d   1      13.991   4.169 -20.350  0.00  0.00    -0.264 OA
BRANCH  32  34
ATOM     34  C   UNL d   1      15.551   5.553 -19.180  0.00  0.00     0.070 A 
ATOM     35  C   UNL d   1      16.296   6.020 -20.302  0.00  0.00     0.062 A 
ATOM     36  C   UNL d   1      17.550   6.621 -20.104  0.00  0.00     0.012 A 
ATOM     37 CL   UNL d   1      15.743   5.907 -21.938  0.00  0.00    -0.082 Cl
ATOM     38  C   UNL d   1      18.072   6.785 -18.811  0.00  0.00     0.001 A 
ATOM     39  C   UNL d   1      17.345   6.331 -17.694  0.00  0.00     0.000 A 
ATOM     40  C   UNL d   1      16.096   5.705 -17.882  0.00  0.00     0.006 A 
ENDBRANCH  32  34
ENDBRANCH   1  31
TORSDOF 5
