REMARK  7 active torsions:
REMARK  status: ('A' for Active; 'I' for Inactive)
REMARK    1  A    between atoms: S_2  and  C_4 
REMARK    2  A    between atoms: S_2  and  C_23 
REMARK    3  A    between atoms: C_4  and  C_5 
REMARK    4  A    between atoms: N_8  and  C_9 
REMARK    5  A    between atoms: C_9  and  C_10 
REMARK    6  A    between atoms: C_10  and  C_11 
REMARK    7  A    between atoms: C_11  and  C_12 
ROOT
ATOM      1  C   UNL d   1       6.789   5.064 -12.604  0.00  0.00     0.052 C 
ATOM      2  C   UNL d   1       5.506   4.270 -12.375  0.00  0.00     0.038 C 
ATOM      3  C   UNL d   1       5.777   2.912 -12.989  0.00  0.00     0.250 C 
ATOM      4  N   UNL d   1       6.760   3.183 -14.030  0.00  0.00     0.137 N 
ATOM      5  C   UNL d   1       7.683   4.095 -13.384  0.00  0.00     0.251 C 
ENDROOT
BRANCH   4   6
ATOM      6  C   UNL d   1       7.400   1.961 -14.492  0.00  0.00     0.251 C 
BRANCH   6   7
ATOM      7  C   UNL d   1       8.509   2.242 -15.527  0.00  0.00     0.042 C 
BRANCH   7   8
ATOM      8  C   UNL d   1       8.792   1.045 -16.442  0.00  0.00     0.050 C 
BRANCH   8   9
ATOM      9  C   UNL d   1       7.737   0.889 -17.511  0.00  0.00     0.088 A 
ATOM     10  C   UNL d   1       6.569   0.096 -17.552  0.00  0.00     0.041 A 
ATOM     11  C   UNL d   1       5.919   0.294 -18.772  0.00  0.00     0.129 A 
ATOM     12  C   UNL d   1       6.020  -0.803 -16.614  0.00  0.00     0.006 A 
ATOM     13  O   UNL d   1       6.702   1.214 -19.449  0.00  0.00    -0.211 OA
ATOM     14  C   UNL d   1       4.732  -0.368 -19.121  0.00  0.00     0.057 A 
ATOM     15  N   UNL d   1       7.816   1.588 -18.646  0.00  0.00    -0.131 NA
ATOM     16  C   UNL d   1       4.194  -1.276 -18.188  0.00  0.00     0.142 A 
ATOM     17  F   UNL d   1       3.072  -1.970 -18.492  0.00  0.00    -0.204 F 
ATOM     18  C   UNL d   1       4.829  -1.489 -16.942  0.00  0.00     0.030 A 
ENDBRANCH   8   9
ENDBRANCH   7   8
ENDBRANCH   6   7
ENDBRANCH   4   6
BRANCH   1  19
ATOM     19  C   UNL d   1       7.413   5.589 -11.316  0.00  0.00     0.129 C 
BRANCH  19  20
ATOM     20  S   UNL d   1       9.013   6.428 -11.637  0.00  0.00     0.190 S 
ATOM     21  O   UNL d   1       9.918   5.407 -12.176  0.00  0.00    -0.222 OA
ATOM     22  O   UNL d   1       8.752   7.638 -12.433  0.00  0.00    -0.222 OA
BRANCH  20  23
ATOM     23  C   UNL d   1       9.599   6.909 -10.010  0.00  0.00     0.084 A 
ATOM     24  C   UNL d   1       9.525   5.990  -8.942  0.00  0.00     0.013 A 
ATOM     25  C   UNL d   1       9.914   6.394  -7.654  0.00  0.00     0.030 A 
ATOM     26  C   UNL d   1      10.411   7.689  -7.431  0.00  0.00     0.140 A 
ATOM     27  C   UNL d   1      10.514   8.600  -8.506  0.00  0.00     0.030 A 
ATOM     28  F   UNL d   1      10.789   8.063  -6.183  0.00  0.00    -0.204 F 
ATOM     29  C   UNL d   1      10.109   8.208  -9.799  0.00  0.00     0.013 A 
ENDBRANCH  20  23
ENDBRANCH  19  20
ENDBRANCH   1  19
TORSDOF 7
