REMARK  8 active torsions:
REMARK  status: ('A' for Active; 'I' for Inactive)
REMARK    1  A    between atoms: S_2  and  C_3 
REMARK    2  A    between atoms: C_8  and  O_9 
REMARK    3  A    between atoms: O_9  and  C_10 
REMARK    4  A    between atoms: C_10  and  C_11 
REMARK    5  A    between atoms: C_11  and  N_12 
REMARK    6  A    between atoms: C_15  and  N_16 
REMARK    7  A    between atoms: N_16  and  S_17 
REMARK    8  A    between atoms: S_17  and  C_20 
ROOT
ATOM      1  N   UNL d   1       9.367   5.391  -9.101  0.00  0.00     0.142 N 
ATOM      2  C   UNL d   1       8.548   6.487  -9.510  0.00  0.00     0.253 C 
ATOM      3  C   UNL d   1       7.823   5.993 -10.775  0.00  0.00     0.063 C 
ATOM      4  C   UNL d   1       8.783   5.029 -11.368  0.00  0.00     0.151 C 
ATOM      5  C   UNL d   1       9.899   5.077 -10.391  0.00  0.00     0.275 C 
ENDROOT
BRANCH   1   6
ATOM      6  C   UNL d   1      10.363   5.890  -8.157  0.00  0.00     0.283 C 
BRANCH   6   7
ATOM      7  C   UNL d   1       9.692   6.354  -6.839  0.00  0.00     0.184 C 
BRANCH   7   8
ATOM      8  O   UNL d   1      10.680   6.562  -5.853  0.00  0.00    -0.328 OA
BRANCH   8   9
ATOM      9  C   UNL d   1      11.209   7.832  -5.829  0.00  0.00     0.100 C 
ATOM     10  C   UNL d   1      12.083   8.237  -4.758  0.00  0.00     0.048 C 
ATOM     11  C   UNL d   1      12.726   9.473  -4.803  0.00  0.00     0.008 C 
ATOM     12  C   UNL d   1      12.466  10.314  -5.883  0.00  0.00     0.001 C 
ATOM     13  C   UNL d   1      11.538  10.006  -6.837  0.00  0.00     0.002 C 
ATOM     14  C   UNL d   1      10.953   8.757  -6.872  0.00  0.00     0.025 C 
BRANCH  10  15
ATOM     15  S   UNL d   1      12.575   7.204  -3.435  0.00  0.00    -0.111 SA
ATOM     16  C   UNL d   1      11.065   6.784  -2.625  0.00  0.00     0.074 C 
ENDBRANCH  10  15
ENDBRANCH   8   9
ENDBRANCH   7   8
ENDBRANCH   6   7
ENDBRANCH   1   6
BRANCH   4  17
ATOM     17  N   UNL d   1       9.178   5.429 -12.725  0.00  0.00    -0.185 NA
BRANCH  17  18
ATOM     18  S   UNL d   1       9.172   4.239 -13.965  0.00  0.00     0.281 S 
ATOM     19  O   UNL d   1       9.143   4.936 -15.247  0.00  0.00    -0.199 OA
ATOM     20  O   UNL d   1      10.252   3.281 -13.650  0.00  0.00    -0.199 OA
BRANCH  18  21
ATOM     21  C   UNL d   1       7.594   3.418 -13.763  0.00  0.00     0.106 A 
ATOM     22  C   UNL d   1       7.473   2.062 -14.121  0.00  0.00     0.024 A 
ATOM     23  C   UNL d   1       6.275   1.371 -13.841  0.00  0.00     0.059 A 
ATOM     24  C   UNL d   1       5.221   2.037 -13.193  0.00  0.00     0.011 A 
ATOM     25 CL   UNL d   1       6.104  -0.293 -14.257  0.00  0.00    -0.082 Cl
ATOM     26  C   UNL d   1       5.330   3.401 -12.868  0.00  0.00     0.002 A 
ATOM     27  C   UNL d   1       6.506   4.094 -13.172  0.00  0.00     0.013 A 
ENDBRANCH  18  21
ENDBRANCH  17  18
ENDBRANCH   4  17
TORSDOF 8
