REMARK  5 active torsions:
REMARK  status: ('A' for Active; 'I' for Inactive)
REMARK    1  A    between atoms: C_2  and  C_3 
REMARK    2  A    between atoms: C_3  and  O_4 
REMARK    3  A    between atoms: O_4  and  C_5 
REMARK    4  A    between atoms: C_8  and  C_9 
REMARK    5  A    between atoms: C_9  and  C_10 
ROOT
ATOM      1  C   UNL d   1       9.342   6.184 -11.332  0.00  0.00     0.094 C 
ATOM      2  C   UNL d   1       9.312   6.339 -12.732  0.00  0.00     0.024 C 
ATOM      3  C   UNL d   1       8.580   5.449 -13.527  0.00  0.00    -0.002 C 
ATOM      4  C   UNL d   1       7.724   4.509 -12.906  0.00  0.00    -0.021 C 
ATOM      5  C   UNL d   1       7.682   4.407 -11.506  0.00  0.00    -0.002 C 
ATOM      6  C   UNL d   1       8.534   5.199 -10.714  0.00  0.00     0.024 C 
ENDROOT
BRANCH   1   7
ATOM      7  O   UNL d   1      10.173   7.035 -10.642  0.00  0.00    -0.331 OA
BRANCH   7   8
ATOM      8  C   UNL d   1      10.482   6.730  -9.295  0.00  0.00     0.149 C 
BRANCH   8   9
ATOM      9  C   UNL d   1      11.302   7.873  -8.694  0.00  0.00     0.028 C 
ATOM     10  C   UNL d   1      12.656   8.114  -9.432  0.00  0.00     0.003 C 
ATOM     11  C   UNL d   1      10.474   9.158  -8.813  0.00  0.00     0.002 C 
ATOM     12  C   UNL d   1       9.178   9.096  -7.973  0.00  0.00     0.000 C 
ATOM     13  C   UNL d   1       9.490   8.847  -6.508  0.00  0.00     0.000 C 
ATOM     14  C   UNL d   1      10.315   7.592  -6.291  0.00  0.00     0.000 C 
ATOM     15  C   UNL d   1      11.583   7.634  -7.191  0.00  0.00     0.002 C 
ENDBRANCH   8   9
ENDBRANCH   7   8
ENDBRANCH   1   7
BRANCH   4  16
ATOM     16  C   UNL d   1       6.838   3.635 -13.718  0.00  0.00     0.047 C 
BRANCH  16  17
ATOM     17  C   UNL d   1       7.562   2.341 -14.232  0.00  0.00     0.141 A 
ATOM     18  C   UNL d   1       6.552   1.219 -14.486  0.00  0.00     0.269 A 
ATOM     19  N   UNL d   1       6.601   0.723 -15.727  0.00  0.00    -0.167 NA
ATOM     20  O   UNL d   1       5.722   0.875 -13.649  0.00  0.00    -0.269 OA
ATOM     21  C   UNL d   1       7.538   1.240 -16.518  0.00  0.00     0.309 A 
ATOM     22  S   UNL d   1       8.549   2.416 -15.729  0.00  0.00    -0.043 SA
ATOM     23  O   UNL d   1       7.680   0.963 -17.707  0.00  0.00    -0.258 OA
ENDBRANCH  16  17
ENDBRANCH   4  16
TORSDOF 5
