REMARK  6 active torsions:
REMARK  status: ('A' for Active; 'I' for Inactive)
REMARK       I    between atoms: C_2  and  N_3 
REMARK    1  A    between atoms: C_2  and  C_22 
REMARK    2  A    between atoms: N_3  and  C_4 
REMARK    3  A    between atoms: C_4  and  C_5 
REMARK    4  A    between atoms: C_6  and  C_7 
REMARK    5  A    between atoms: C_7  and  N_8 
REMARK    6  A    between atoms: N_11  and  C_12 
ROOT
ATOM      1  N   UNL d   1       8.958   4.165 -13.373  0.00  0.00     0.145 N 
ATOM      2  C   UNL d   1       9.443   2.922 -13.969  0.00  0.00     0.275 C 
ATOM      3  C   UNL d   1       8.528   2.483 -15.117  0.00  0.00     0.137 C 
ATOM      4  N   UNL d   1       7.149   2.384 -14.649  0.00  0.00    -0.344 N 
ATOM      5  C   UNL d   1       6.634   3.557 -13.924  0.00  0.00     0.137 C 
ATOM      6  C   UNL d   1       7.603   4.012 -12.838  0.00  0.00     0.275 C 
ENDROOT
BRANCH   1   7
ATOM      7  C   UNL d   1       9.923   4.508 -12.324  0.00  0.00     0.276 C 
BRANCH   7   8
ATOM      8  C   UNL d   1       9.478   5.649 -11.442  0.00  0.00     0.006 C 
ATOM      9  C   UNL d   1       9.610   5.651 -10.111  0.00  0.00    -0.003 C 
BRANCH   9  10
ATOM     10  C   UNL d   1       9.137   6.779  -9.235  0.00  0.00     0.155 C 
BRANCH  10  11
ATOM     11  N   UNL d   1       9.965   6.941  -8.057  0.00  0.00    -0.229 NA
ATOM     12  C   UNL d   1      10.578   8.079  -7.695  0.00  0.00     0.275 C 
ATOM     13  O   UNL d   1      10.662   9.076  -8.414  0.00  0.00    -0.266 OA
BRANCH  12  14
ATOM     14  C   UNL d   1      11.044   8.122  -6.268  0.00  0.00     0.058 A 
ATOM     15  C   UNL d   1      11.142   9.367  -5.613  0.00  0.00     0.005 A 
ATOM     16  C   UNL d   1      11.585   9.437  -4.280  0.00  0.00     0.006 A 
ATOM     17  C   UNL d   1      11.952   8.265  -3.599  0.00  0.00     0.030 A 
ATOM     18  C   UNL d   1      11.864   7.017  -4.239  0.00  0.00     0.006 A 
ATOM     19  I   UNL d   1      12.657   8.406  -1.646  0.00  0.00    -0.043 I 
ATOM     20  C   UNL d   1      11.413   6.945  -5.572  0.00  0.00     0.005 A 
ENDBRANCH  12  14
ENDBRANCH  10  11
ENDBRANCH   9  10
ENDBRANCH   7   8
ENDBRANCH   1   7
BRANCH   4  21
ATOM     21  C   UNL d   1       6.348   1.260 -14.888  0.00  0.00     0.068 A 
ATOM     22  C   UNL d   1       6.279   0.585 -16.150  0.00  0.00     0.084 A 
ATOM     23  C   UNL d   1       5.407  -0.527 -16.315  0.00  0.00     0.070 A 
ATOM     24 CL   UNL d   1       7.111   1.159 -17.563  0.00  0.00    -0.080 Cl
ATOM     25  C   UNL d   1       4.584  -0.932 -15.259  0.00  0.00     0.012 A 
ATOM     26 CL   UNL d   1       5.290  -1.344 -17.829  0.00  0.00    -0.081 Cl
ATOM     27  C   UNL d   1       4.595  -0.242 -14.040  0.00  0.00     0.002 A 
ATOM     28  C   UNL d   1       5.498   0.821 -13.849  0.00  0.00     0.018 A 
ENDBRANCH   4  21
TORSDOF 6
