REMARK  9 active torsions:
REMARK  status: ('A' for Active; 'I' for Inactive)
REMARK    1  A    between atoms: C_1  and  C_9 
REMARK    2  A    between atoms: C_2  and  C_3 
REMARK    3  A    between atoms: C_9  and  N_10 
REMARK    4  A    between atoms: N_10  and  C_11 
REMARK    5  A    between atoms: N_10  and  C_20 
REMARK    6  A    between atoms: C_11  and  C_12 
REMARK    7  A    between atoms: C_13  and  C_14 
REMARK    8  A    between atoms: N_23  and  C_24 
REMARK    9  A    between atoms: C_24  and  C_25 
ROOT
ATOM      1  N   UNL d   1       8.640   4.150 -13.104  0.00  0.00     0.144 N 
ENDROOT
BRANCH   1   2
ATOM      2  C   UNL d   1       9.371   2.871 -13.084  0.00  0.00     0.277 C 
BRANCH   2   3
ATOM      3  C   UNL d   1       8.666   1.710 -13.803  0.00  0.00     0.009 C 
ATOM      4  C   UNL d   1       7.335   1.617 -14.046  0.00  0.00    -0.003 C 
BRANCH   4   5
ATOM      5  C   UNL d   1       6.660   0.616 -14.789  0.00  0.00    -0.000 A 
ATOM      6  C   UNL d   1       7.021   0.379 -16.127  0.00  0.00    -0.000 A 
ATOM      7  C   UNL d   1       6.306  -0.585 -16.860  0.00  0.00    -0.000 A 
ATOM      8  C   UNL d   1       5.264  -1.304 -16.235  0.00  0.00    -0.000 A 
ATOM      9  C   UNL d   1       4.896  -1.035 -14.902  0.00  0.00    -0.000 A 
ATOM     10  C   UNL d   1       5.595  -0.060 -14.177  0.00  0.00    -0.000 A 
ENDBRANCH   4   5
ENDBRANCH   2   3
ENDBRANCH   1   2
BRANCH   1  11
ATOM     11  C   UNL d   1       8.137   4.482 -14.420  0.00  0.00     0.277 C 
BRANCH  11  12
ATOM     12  C   UNL d   1       9.177   5.048 -15.389  0.00  0.00     0.009 C 
ATOM     13  C   UNL d   1      10.517   4.832 -15.321  0.00  0.00    -0.003 C 
BRANCH  13  14
ATOM     14  C   UNL d   1      11.454   5.352 -16.297  0.00  0.00    -0.000 A 
ATOM     15  C   UNL d   1      11.045   6.134 -17.410  0.00  0.00    -0.000 A 
ATOM     16  C   UNL d   1      12.016   6.664 -18.264  0.00  0.00    -0.000 A 
ATOM     17  C   UNL d   1      13.373   6.386 -18.015  0.00  0.00    -0.000 A 
ATOM     18  C   UNL d   1      13.779   5.590 -16.922  0.00  0.00    -0.000 A 
ATOM     19  C   UNL d   1      12.805   5.068 -16.062  0.00  0.00    -0.000 A 
ENDBRANCH  13  14
ENDBRANCH  11  12
ENDBRANCH   1  11
BRANCH   1  20
ATOM     20  C   UNL d   1       9.323   5.269 -12.412  0.00  0.00     0.224 C 
ATOM     21  C   UNL d   1       8.539   6.601 -12.518  0.00  0.00     0.069 C 
ATOM     22  C   UNL d   1       9.270   7.751 -11.828  0.00  0.00     0.253 C 
ATOM     23  N   UNL d   1       9.441   7.394 -10.415  0.00  0.00     0.141 N 
ATOM     24  C   UNL d   1      10.257   6.200 -10.302  0.00  0.00     0.253 C 
ATOM     25  C   UNL d   1       9.571   4.992 -10.930  0.00  0.00     0.069 C 
BRANCH  23  26
ATOM     26  C   UNL d   1      10.049   8.521  -9.727  0.00  0.00     0.277 C 
BRANCH  26  27
ATOM     27  C   UNL d   1      10.273   8.304  -8.242  0.00  0.00     0.011 A 
ATOM     28  C   UNL d   1      11.347   8.939  -7.588  0.00  0.00    -0.002 A 
ATOM     29  C   UNL d   1      11.592   8.713  -6.221  0.00  0.00    -0.000 A 
ATOM     30  C   UNL d   1      10.786   7.810  -5.505  0.00  0.00    -0.000 A 
ATOM     31  C   UNL d   1       9.708   7.177  -6.155  0.00  0.00    -0.000 A 
ATOM     32  C   UNL d   1       9.435   7.443  -7.500  0.00  0.00    -0.002 A 
ENDBRANCH  26  27
ENDBRANCH  23  26
ENDBRANCH   1  20
TORSDOF 9
