REMARK  7 active torsions:
REMARK  status: ('A' for Active; 'I' for Inactive)
REMARK    1  A    between atoms: C_4  and  C_5 
REMARK    2  A    between atoms: C_5  and  C_6 
REMARK       I    between atoms: C_6  and  N_8 
REMARK    3  A    between atoms: N_8  and  C_9 
REMARK    4  A    between atoms: C_12  and  C_13 
REMARK    5  A    between atoms: C_13  and  C_14 
REMARK    6  A    between atoms: C_14  and  N_15 
REMARK    7  A    between atoms: C_18  and  C_19 
ROOT
ATOM      1  C   UNL d   1       9.248   5.602 -11.741  0.00  0.00     0.035 C 
ENDROOT
BRANCH   1   2
ATOM      2  C   UNL d   1       9.298   4.349 -12.640  0.00  0.00     0.002 C 
ATOM      3  C   UNL d   1       7.929   4.087 -13.282  0.00  0.00     0.002 C 
ATOM      4  C   UNL d   1       7.991   2.901 -14.253  0.00  0.00     0.024 C 
ATOM      5  C   UNL d   1       9.099   3.101 -15.311  0.00  0.00     0.106 C 
ATOM      6  C   UNL d   1      10.463   3.320 -14.657  0.00  0.00     0.024 C 
ATOM      7  C   UNL d   1      10.398   4.514 -13.703  0.00  0.00     0.002 C 
BRANCH   5   8
ATOM      8  N   UNL d   1       9.166   1.928 -16.179  0.00  0.00    -0.240 NA
ATOM      9  C   UNL d   1       8.662   1.853 -17.419  0.00  0.00     0.258 C 
ATOM     10  O   UNL d   1       8.262   2.825 -18.049  0.00  0.00    -0.270 OA
BRANCH   9  11
ATOM     11  C   UNL d   1       8.541   0.461 -18.029  0.00  0.00     0.143 C 
BRANCH  11  12
ATOM     12  C   UNL d   1       7.194  -0.128 -17.740  0.00  0.00     0.113 A 
ATOM     13  C   UNL d   1       6.286  -0.789 -18.517  0.00  0.00     0.040 A 
ATOM     14  C   UNL d   1       5.217  -1.077 -17.621  0.00  0.00     0.088 A 
ATOM     15  C   UNL d   1       3.941  -1.811 -17.898  0.00  0.00     0.055 C 
ATOM     16  N   UNL d   1       5.457  -0.609 -16.407  0.00  0.00    -0.131 NA
ATOM     17  O   UNL d   1       6.719  -0.011 -16.469  0.00  0.00    -0.215 OA
ENDBRANCH  11  12
ENDBRANCH   9  11
ENDBRANCH   5   8
ENDBRANCH   1   2
BRANCH   1  18
ATOM     18  C   UNL d   1       8.609   5.351 -10.361  0.00  0.00     0.250 C 
BRANCH  18  19
ATOM     19  N   UNL d   1       9.082   6.257  -9.315  0.00  0.00     0.137 N 
ATOM     20  C   UNL d   1       8.560   5.769  -8.040  0.00  0.00     0.251 C 
ATOM     21  C   UNL d   1       8.945   6.741  -6.912  0.00  0.00     0.040 C 
ATOM     22  C   UNL d   1      10.472   6.909  -6.819  0.00  0.00     0.026 C 
ATOM     23  C   UNL d   1      11.028   7.271  -8.188  0.00  0.00     0.040 C 
ATOM     24  C   UNL d   1      10.547   6.274  -9.233  0.00  0.00     0.251 C 
BRANCH  22  25
ATOM     25  C   UNL d   1      10.880   7.947  -5.785  0.00  0.00    -0.024 A 
ATOM     26  C   UNL d   1      11.505   7.604  -4.572  0.00  0.00    -0.001 A 
ATOM     27  C   UNL d   1      11.862   8.547  -3.611  0.00  0.00     0.090 A 
ATOM     28  C   UNL d   1      11.872   6.265  -4.075  0.00  0.00     0.061 A 
ATOM     29  C   UNL d   1      11.577   9.898  -3.820  0.00  0.00     0.024 A 
ATOM     30  O   UNL d   1      12.443   8.003  -2.501  0.00  0.00    -0.331 OA
ATOM     31  C   UNL d   1      10.991  10.280  -5.042  0.00  0.00     0.002 A 
ATOM     32  C   UNL d   1      10.638   9.320  -6.017  0.00  0.00    -0.004 A 
ATOM     33  C   UNL d   1      12.442   6.578  -2.666  0.00  0.00     0.154 A 
ENDBRANCH  22  25
ENDBRANCH  18  19
ENDBRANCH   1  18
TORSDOF 7
