REMARK  7 active torsions:
REMARK  status: ('A' for Active; 'I' for Inactive)
REMARK    1  A    between atoms: C_2  and  C_3 
REMARK    2  A    between atoms: C_3  and  N_4 
REMARK    3  A    between atoms: N_4  and  C_5 
REMARK    4  A    between atoms: N_4  and  C_8 
REMARK    5  A    between atoms: C_5  and  C_6 
REMARK    6  A    between atoms: C_16  and  C_17 
REMARK    7  A    between atoms: C_17  and  C_19 
ROOT
ATOM      1  C   UNL d   1       8.788   4.319 -13.567  0.00  0.00     0.253 C 
ATOM      2  C   UNL d   1      10.309   3.996 -13.588  0.00  0.00     0.182 C 
ATOM      3  O   UNL d   1      10.847   3.869 -14.865  0.00  0.00    -0.329 OA
ATOM      4  C   UNL d   1      10.174   3.099 -15.771  0.00  0.00     0.093 A 
ATOM      5  C   UNL d   1       8.840   2.691 -15.550  0.00  0.00     0.002 A 
ATOM      6  C   UNL d   1       8.168   1.925 -16.518  0.00  0.00    -0.002 A 
ATOM      7  C   UNL d   1       8.821   1.554 -17.694  0.00  0.00    -0.000 A 
ATOM      8  C   UNL d   1      10.150   1.964 -17.926  0.00  0.00     0.005 A 
ATOM      9  C   UNL d   1      10.816   2.770 -16.971  0.00  0.00     0.061 A 
ATOM     10  C   UNL d   1       8.091   3.134 -14.324  0.00  0.00     0.064 C 
ENDROOT
BRANCH   1  11
ATOM     11  N   UNL d   1       8.204   4.512 -12.210  0.00  0.00     0.138 N 
BRANCH  11  12
ATOM     12  C   UNL d   1       7.059   5.429 -12.189  0.00  0.00     0.250 C 
BRANCH  12  13
ATOM     13  C   UNL d   1       5.817   4.884 -12.910  0.00  0.00     0.035 C 
ATOM     14  C   UNL d   1       5.358   3.536 -12.297  0.00  0.00     0.002 C 
ENDBRANCH  12  13
ENDBRANCH  11  12
BRANCH  11  15
ATOM     15  C   UNL d   1       9.194   4.914 -11.196  0.00  0.00     0.250 C 
BRANCH  15  16
ATOM     16  C   UNL d   1       8.708   5.063  -9.749  0.00  0.00     0.035 C 
ATOM     17  C   UNL d   1       9.869   5.300  -8.783  0.00  0.00     0.002 C 
ENDBRANCH  15  16
ENDBRANCH  11  15
ENDBRANCH   1  11
BRANCH   9  18
ATOM     18  C   UNL d   1      12.208   3.222 -17.267  0.00  0.00     0.199 C 
ATOM     19  O   UNL d   1      13.063   2.440 -17.662  0.00  0.00    -0.286 OA
BRANCH  18  20
ATOM     20  C   UNL d   1      12.550   4.667 -17.081  0.00  0.00     0.066 A 
ATOM     21  C   UNL d   1      11.636   5.668 -16.889  0.00  0.00     0.126 A 
ATOM     22  O   UNL d   1      12.242   6.871 -16.723  0.00  0.00    -0.303 OA
ATOM     23  C   UNL d   1      13.574   6.643 -16.843  0.00  0.00     0.123 A 
ATOM     24  C   UNL d   1      13.820   5.314 -17.051  0.00  0.00     0.032 A 
ENDBRANCH  18  20
ENDBRANCH   9  18
TORSDOF 7
