REMARK  2 active torsions:
REMARK  status: ('A' for Active; 'I' for Inactive)
REMARK    1  A    between atoms: O_2  and  C_3 
REMARK    2  A    between atoms: C_8  and  O_9 
ROOT
ATOM      1  C   UNL d   1      11.266   0.118 -18.120  0.00  0.00     0.116 A 
ATOM      2  C   UNL d   1      11.911   1.312 -17.741  0.00  0.00     0.022 A 
ATOM      3  C   UNL d   1      11.300   2.184 -16.834  0.00  0.00    -0.020 A 
ATOM      4  C   UNL d   1      10.022   1.845 -16.318  0.00  0.00     0.007 A 
ATOM      5  C   UNL d   1       9.286   0.686 -16.699  0.00  0.00     0.022 A 
ATOM      6  C   UNL d   1       9.969  -0.170 -17.620  0.00  0.00     0.116 A 
ATOM      7  C   UNL d   1       7.922   0.417 -16.151  0.00  0.00    -0.000 A 
ATOM      8  C   UNL d   1       6.946  -0.405 -16.792  0.00  0.00     0.026 A 
ATOM      9  C   UNL d   1       5.701  -0.595 -16.186  0.00  0.00     0.119 A 
ATOM     10  C   UNL d   1       5.376  -0.027 -14.974  0.00  0.00     0.119 A 
ATOM     11  C   UNL d   1       6.281   0.807 -14.305  0.00  0.00     0.022 A 
ATOM     12  C   UNL d   1       7.540   1.037 -14.921  0.00  0.00    -0.018 A 
ATOM     13  C   UNL d   1       8.511   2.010 -14.277  0.00  0.00     0.064 C 
ATOM     14  C   UNL d   1       9.330   2.801 -15.325  0.00  0.00     0.246 C 
ATOM     15  N   UNL d   1      10.212   3.787 -14.673  0.00  0.00     0.142 N 
ATOM     16  C   UNL d   1       9.456   4.800 -13.934  0.00  0.00     0.286 C 
ATOM     17  C   UNL d   1      10.958   4.471 -15.717  0.00  0.00     0.255 C 
ATOM     18  C   UNL d   1      11.936   3.460 -16.306  0.00  0.00     0.061 C 
ATOM     19  O   UNL d   1       4.114  -0.411 -14.628  0.00  0.00    -0.300 OA
ATOM     20  C   UNL d   1       3.665  -1.239 -15.681  0.00  0.00     0.304 A 
ATOM     21  O   UNL d   1       4.667  -1.332 -16.646  0.00  0.00    -0.300 OA
ENDROOT
BRANCH   1  22
ATOM     22  O   UNL d   1      11.848  -0.811 -18.959  0.00  0.00    -0.326 OA
ATOM     23  C   UNL d   1      13.087  -0.502 -19.581  0.00  0.00     0.181 C 
ENDBRANCH   1  22
BRANCH   6  24
ATOM     24  O   UNL d   1       9.386  -1.351 -18.005  0.00  0.00    -0.326 OA
ATOM     25  C   UNL d   1       8.929  -1.384 -19.351  0.00  0.00     0.181 C 
ENDBRANCH   6  24
TORSDOF 2
