REMARK  4 active torsions:
REMARK  status: ('A' for Active; 'I' for Inactive)
REMARK    1  A    between atoms: C_6  and  N_7 
REMARK    2  A    between atoms: N_10  and  C_11 
REMARK    3  A    between atoms: C_11  and  C_12 
REMARK    4  A    between atoms: C_12  and  C_13 
ROOT
ATOM      1  N   UNL d   1       9.416   3.746 -14.444  0.00  0.00    -0.344 N 
ATOM      2  C   UNL d   1      10.148   3.209 -13.309  0.00  0.00     0.137 C 
ATOM      3  C   UNL d   1       9.636   3.863 -12.004  0.00  0.00     0.274 C 
ATOM      4  N   UNL d   1       9.702   5.319 -12.066  0.00  0.00     0.141 N 
ATOM      5  C   UNL d   1       8.839   5.772 -13.150  0.00  0.00     0.274 C 
ATOM      6  C   UNL d   1       9.342   5.184 -14.488  0.00  0.00     0.137 C 
ENDROOT
BRANCH   4   7
ATOM      7  C   UNL d   1       9.222   5.881 -10.802  0.00  0.00     0.255 C 
BRANCH   7   8
ATOM      8  C   UNL d   1       9.739   7.323 -10.605  0.00  0.00     0.062 C 
BRANCH   8   9
ATOM      9  C   UNL d   1      10.010   7.686  -9.155  0.00  0.00    -0.018 A 
ATOM     10  C   UNL d   1      11.136   8.479  -8.821  0.00  0.00     0.018 A 
ATOM     11  C   UNL d   1      11.337   8.828  -7.476  0.00  0.00     0.124 A 
ATOM     12  C   UNL d   1      10.468   8.419  -6.444  0.00  0.00     0.124 A 
ATOM     13  N   UNL d   1      12.260   9.558  -6.756  0.00  0.00    -0.127 NA
ATOM     14  C   UNL d   1       9.357   7.617  -6.796  0.00  0.00     0.022 A 
ATOM     15  N   UNL d   1      10.897   8.911  -5.227  0.00  0.00    -0.127 NA
ATOM     16  C   UNL d   1       9.138   7.255  -8.136  0.00  0.00    -0.003 A 
ATOM     17  N   UNL d   1      11.985   9.589  -5.429  0.00  0.00    -0.042 NA
ENDBRANCH   8   9
ENDBRANCH   7   8
ENDBRANCH   4   7
BRANCH   1  18
ATOM     18  C   UNL d   1       8.850   2.922 -15.430  0.00  0.00     0.052 A 
ATOM     19  C   UNL d   1       7.965   1.910 -15.004  0.00  0.00     0.017 A 
ATOM     20  C   UNL d   1       7.315   1.070 -15.944  0.00  0.00     0.001 A 
ATOM     21  C   UNL d   1       7.567   1.246 -17.309  0.00  0.00    -0.004 A 
ATOM     22  C   UNL d   1       8.454   2.249 -17.755  0.00  0.00    -0.024 A 
ATOM     23  C   UNL d   1       8.714   2.381 -19.241  0.00  0.00     0.031 C 
ATOM     24  C   UNL d   1       9.098   3.114 -16.815  0.00  0.00    -0.010 A 
ATOM     25  C   UNL d   1      10.056   4.178 -17.370  0.00  0.00     0.032 C 
ENDBRANCH   1  18
TORSDOF 4
