REMARK  6 active torsions:
REMARK  status: ('A' for Active; 'I' for Inactive)
REMARK       I    between atoms: C_2  and  N_3 
REMARK    1  A    between atoms: C_2  and  C_18 
REMARK    2  A    between atoms: N_3  and  CA_4 
REMARK    3  A    between atoms: CA_4  and  C_5 
REMARK    4  A    between atoms: CA_4  and  C_7 
REMARK    5  A    between atoms: C_7  and  C_9 
REMARK    6  A    between atoms: C_12  and  N_13 
ROOT
ATOM      1  C   UNL d   1       9.565   8.114  -7.956  0.00  0.00     0.199 C 
ATOM      2  O   UNL d   1       8.668   9.186  -8.042  0.00  0.00    -0.216 OA
ENDROOT
BRANCH   1   3
ATOM      3  CA  UNL d   1      10.485   8.171  -9.230  0.00  0.00     0.174 C 
BRANCH   3   4
ATOM      4  N   UNL d   1       9.864   7.505 -10.380  0.00  0.00    -0.232 NA
ATOM      5  C   UNL d   1       9.447   6.228 -10.427  0.00  0.00     0.282 C 
ATOM      6  O   UNL d   1       9.631   5.426  -9.511  0.00  0.00    -0.268 OA
BRANCH   5   7
ATOM      7  C   UNL d   1       8.691   5.811 -11.692  0.00  0.00     0.238 C 
ATOM      8 CL   UNL d   1       9.847   5.456 -13.001  0.00  0.00    -0.087 Cl
ATOM      9 CL   UNL d   1       7.640   4.400 -11.395  0.00  0.00    -0.087 Cl
ENDBRANCH   5   7
ENDBRANCH   3   4
BRANCH   3  10
ATOM     10  C   UNL d   1      11.908   7.618  -9.027  0.00  0.00     0.209 C 
ATOM     11  O   UNL d   1      12.812   8.568  -8.488  0.00  0.00    -0.218 OA
ENDBRANCH   3  10
ENDBRANCH   1   3
BRANCH   1  12
ATOM     12  C   UNL d   1      10.306   8.093  -6.631  0.00  0.00     0.010 A 
ATOM     13  C   UNL d   1      10.673   6.859  -6.074  0.00  0.00    -0.000 A 
ATOM     14  C   UNL d   1      11.381   6.794  -4.859  0.00  0.00     0.023 A 
ATOM     15  C   UNL d   1      11.717   7.985  -4.171  0.00  0.00     0.127 A 
ATOM     16  C   UNL d   1      11.354   9.227  -4.738  0.00  0.00     0.023 A 
ATOM     17  C   UNL d   1      10.665   9.286  -5.965  0.00  0.00    -0.000 A 
BRANCH  15  18
ATOM     18  N   UNL d   1      12.396   7.904  -2.868  0.00  0.00    -0.114 N 
ATOM     19  O   UNL d   1      12.657   6.800  -2.417  0.00  0.00    -0.532 OA
ATOM     20  O   UNL d   1      12.646   8.953  -2.285  0.00  0.00    -0.532 OA
ENDBRANCH  15  18
ENDBRANCH   1  12
TORSDOF 6
