REMARK  7 active torsions:
REMARK  status: ('A' for Active; 'I' for Inactive)
REMARK    1  A    between atoms: C_2  and  C_3 
REMARK    2  A    between atoms: C_2  and  C_19 
REMARK    3  A    between atoms: C_3  and  C_4 
REMARK    4  A    between atoms: C_4  and  C_5 
REMARK    5  A    between atoms: C_5  and  C_6 
REMARK    6  A    between atoms: C_6  and  N_7 
REMARK    7  A    between atoms: N_10  and  C_11 
ROOT
ATOM      1  C   UNL d   1       8.608   2.683 -14.570  0.00  0.00     0.036 C 
ENDROOT
BRANCH   1   2
ATOM      2  C   UNL d   1       8.854   2.166 -15.996  0.00  0.00     0.010 C 
BRANCH   2   3
ATOM      3  C   UNL d   1       8.475   0.692 -16.243  0.00  0.00     0.071 C 
BRANCH   3   4
ATOM      4  C   UNL d   1       6.992   0.342 -16.022  0.00  0.00     0.197 C 
ATOM      5  O   UNL d   1       6.391   0.658 -15.001  0.00  0.00    -0.289 OA
BRANCH   4   6
ATOM      6  C   UNL d   1       6.303  -0.487 -17.047  0.00  0.00     0.145 A 
ATOM      7  S   UNL d   1       4.830  -1.332 -16.546  0.00  0.00    -0.064 SA
ATOM      8  C   UNL d   1       4.717  -1.996 -18.164  0.00  0.00     0.049 A 
ATOM      9  C   UNL d   1       5.796  -1.520 -18.961  0.00  0.00     0.088 A 
ATOM     10  C   UNL d   1       3.745  -2.866 -18.681  0.00  0.00     0.008 A 
ATOM     11  N   UNL d   1       6.694  -0.671 -18.315  0.00  0.00    -0.236 NA
ATOM     12  C   UNL d   1       5.855  -1.942 -20.306  0.00  0.00     0.020 A 
ATOM     13  C   UNL d   1       4.877  -2.808 -20.833  0.00  0.00     0.002 A 
ATOM     14  C   UNL d   1       3.832  -3.274 -20.019  0.00  0.00     0.001 A 
ENDBRANCH   4   6
ENDBRANCH   3   4
ENDBRANCH   2   3
ENDBRANCH   1   2
BRANCH   1  15
ATOM     15  C   UNL d   1       9.118   4.111 -14.356  0.00  0.00     0.250 C 
BRANCH  15  16
ATOM     16  N   UNL d   1       8.681   4.597 -13.057  0.00  0.00     0.141 N 
ATOM     17  C   UNL d   1       8.812   6.054 -13.008  0.00  0.00     0.275 C 
ATOM     18  C   UNL d   1       8.388   6.607 -11.643  0.00  0.00     0.155 C 
ATOM     19  N   UNL d   1       9.192   5.997 -10.593  0.00  0.00    -0.179 N 
ATOM     20  C   UNL d   1       9.133   4.548 -10.610  0.00  0.00     0.155 C 
ATOM     21  C   UNL d   1       9.532   4.026 -12.011  0.00  0.00     0.275 C 
BRANCH  19  22
ATOM     22  C   UNL d   1       9.854   6.749  -9.615  0.00  0.00     0.727 A 
ATOM     23  N   UNL d   1      10.265   7.963  -9.975  0.00  0.00    -0.060 NA
ATOM     24  C   UNL d   1      10.935   8.681  -9.064  0.00  0.00     0.120 A 
ATOM     25  C   UNL d   1      11.213   8.177  -7.780  0.00  0.00     0.043 A 
ATOM     26  C   UNL d   1      10.731   6.885  -7.512  0.00  0.00     0.120 A 
ATOM     27  N   UNL d   1      10.075   6.163  -8.438  0.00  0.00    -0.060 NA
ENDBRANCH  19  22
ENDBRANCH  15  16
ENDBRANCH   1  15
TORSDOF 7
