REMARK  5 active torsions:
REMARK  status: ('A' for Active; 'I' for Inactive)
REMARK    1  A    between atoms: C_8  and  S_9 
REMARK    2  A    between atoms: S_9  and  C_12 
REMARK    3  A    between atoms: N_15  and  C_16 
REMARK    4  A    between atoms: C_16  and  C_17 
REMARK    5  A    between atoms: C_17  and  C_18 
ROOT
ATOM      1  N   UNL d   1       6.322   1.364 -14.431  0.00  0.00    -0.191 NA
ATOM      2  C   UNL d   1       7.407   1.755 -14.484  0.00  0.00     0.102 C 
ATOM      3  C   UNL d   1       8.778   2.243 -14.551  0.00  0.00     0.079 A 
ATOM      4  C   UNL d   1       9.708   1.415 -15.219  0.00  0.00     0.011 A 
ATOM      5  C   UNL d   1      11.052   1.803 -15.352  0.00  0.00     0.001 A 
ATOM      6  C   UNL d   1      11.475   3.034 -14.830  0.00  0.00     0.001 A 
ATOM      7  C   UNL d   1      10.560   3.869 -14.167  0.00  0.00     0.012 A 
ATOM      8  C   UNL d   1       9.206   3.486 -14.007  0.00  0.00     0.093 A 
ENDROOT
BRANCH   8   9
ATOM      9  S   UNL d   1       8.126   4.638 -13.113  0.00  0.00     0.190 S 
ATOM     10  O   UNL d   1       8.314   5.960 -13.709  0.00  0.00    -0.222 OA
ATOM     11  O   UNL d   1       6.749   4.111 -12.994  0.00  0.00    -0.222 OA
BRANCH   9  12
ATOM     12  C   UNL d   1       8.857   4.748 -11.439  0.00  0.00     0.116 C 
ATOM     13  C   UNL d   1       9.775   5.967 -11.337  0.00  0.00     0.052 C 
ATOM     14  C   UNL d   1      10.253   6.156  -9.913  0.00  0.00     0.251 C 
ATOM     15  N   UNL d   1       9.129   6.364  -9.011  0.00  0.00     0.137 N 
ATOM     16  C   UNL d   1       8.292   5.161  -9.013  0.00  0.00     0.251 C 
ATOM     17  C   UNL d   1       7.739   4.918 -10.430  0.00  0.00     0.052 C 
BRANCH  15  18
ATOM     18  C   UNL d   1       9.618   6.562  -7.661  0.00  0.00     0.255 C 
BRANCH  18  19
ATOM     19  C   UNL d   1      10.383   7.896  -7.537  0.00  0.00     0.064 C 
BRANCH  19  20
ATOM     20  C   UNL d   1      10.836   8.223  -6.129  0.00  0.00     0.007 A 
ATOM     21  C   UNL d   1      11.457   7.256  -5.310  0.00  0.00     0.138 A 
ATOM     22  C   UNL d   1      11.909   7.596  -4.021  0.00  0.00     0.059 A 
ATOM     23  F   UNL d   1      11.749   6.020  -5.775  0.00  0.00    -0.204 F 
ATOM     24  C   UNL d   1      11.777   8.917  -3.558  0.00  0.00     0.142 A 
ATOM     25  C   UNL d   1      11.174   9.889  -4.380  0.00  0.00     0.029 A 
ATOM     26  F   UNL d   1      12.232   9.243  -2.325  0.00  0.00    -0.204 F 
ATOM     27  C   UNL d   1      10.705   9.548  -5.663  0.00  0.00     0.000 A 
ENDBRANCH  19  20
ENDBRANCH  18  19
ENDBRANCH  15  18
ENDBRANCH   9  12
ENDBRANCH   8   9
TORSDOF 5
