REMARK  7 active torsions:
REMARK  status: ('A' for Active; 'I' for Inactive)
REMARK    1  A    between atoms: C_4  and  C_5 
REMARK    2  A    between atoms: N_13  and  C_14 
REMARK    3  A    between atoms: C_14  and  C_15 
REMARK    4  A    between atoms: C_15  and  C_16 
REMARK    5  A    between atoms: C_16  and  S_17 
REMARK    6  A    between atoms: S_17  and  C_18 
REMARK    7  A    between atoms: C_21  and  C_22 
ROOT
ATOM      1  C   UNL d   1       8.945   2.787 -14.905  0.00  0.00     0.020 A 
ATOM      2  C   UNL d   1       9.991   2.544 -15.824  0.00  0.00     0.001 A 
ATOM      3  C   UNL d   1       9.899   1.485 -16.746  0.00  0.00    -0.004 A 
ATOM      4  C   UNL d   1       8.760   0.653 -16.777  0.00  0.00    -0.024 A 
ATOM      5  C   UNL d   1       7.706   0.883 -15.865  0.00  0.00    -0.024 A 
ATOM      6  C   UNL d   1       7.809   1.949 -14.941  0.00  0.00    -0.003 A 
ATOM      7  C   UNL d   1       6.450   0.022 -15.853  0.00  0.00     0.061 C 
ATOM      8  C   UNL d   1       5.683   0.022 -17.184  0.00  0.00     0.255 C 
ATOM      9  N   UNL d   1       6.253  -0.869 -18.198  0.00  0.00     0.138 N 
ATOM     10  C   UNL d   1       7.509  -0.381 -18.769  0.00  0.00     0.255 C 
ATOM     11  C   UNL d   1       8.701  -0.472 -17.797  0.00  0.00     0.061 C 
ENDROOT
BRANCH   9  12
ATOM     12  C   UNL d   1       5.258  -1.073 -19.254  0.00  0.00     0.251 C 
BRANCH  12  13
ATOM     13  C   UNL d   1       5.546  -2.341 -20.082  0.00  0.00     0.047 C 
BRANCH  13  14
ATOM     14  C   UNL d   1       4.262  -2.998 -20.600  0.00  0.00     0.067 C 
BRANCH  14  15
ATOM     15  S   UNL d   1       4.552  -4.668 -21.240  0.00  0.00    -0.075 SA
BRANCH  15  16
ATOM     16  C   UNL d   1       2.895  -5.052 -21.703  0.00  0.00     0.193 A 
ATOM     17  N   UNL d   1       1.919  -5.358 -20.819  0.00  0.00    -0.292 N 
ATOM     18  C   UNL d   1       0.872  -5.577 -21.645  0.00  0.00     0.143 A 
ATOM     19  C   UNL d   1       1.969  -5.447 -19.365  0.00  0.00     0.134 C 
ATOM     20  N   UNL d   1       1.169  -5.434 -22.939  0.00  0.00    -0.133 NA
ATOM     21  N   UNL d   1       2.498  -5.088 -22.977  0.00  0.00    -0.122 NA
BRANCH  18  22
ATOM     22  C   UNL d   1      -0.497  -5.971 -21.162  0.00  0.00     0.059 C 
ATOM     23  C   UNL d   1      -0.865  -7.398 -21.598  0.00  0.00     0.008 C 
ATOM     24  C   UNL d   1      -1.560  -4.951 -21.595  0.00  0.00     0.008 C 
ENDBRANCH  18  22
ENDBRANCH  15  16
ENDBRANCH  14  15
ENDBRANCH  13  14
ENDBRANCH  12  13
ENDBRANCH   9  12
BRANCH   1  25
ATOM     25  C   UNL d   1       9.014   3.896 -13.942  0.00  0.00     0.110 A 
ATOM     26  C   UNL d   1       8.015   4.351 -13.034  0.00  0.00     0.044 A 
ATOM     27  C   UNL d   1       8.609   5.385 -12.372  0.00  0.00     0.105 A 
ATOM     28  C   UNL d   1       8.149   6.301 -11.295  0.00  0.00     0.061 C 
ATOM     29  O   UNL d   1       9.859   5.586 -12.845  0.00  0.00    -0.215 OA
ATOM     30  N   UNL d   1      10.118   4.633 -13.834  0.00  0.00    -0.127 NA
ENDBRANCH   1  25
TORSDOF 7
