REMARK  4 active torsions:
REMARK  status: ('A' for Active; 'I' for Inactive)
REMARK    1  A    between atoms: C_4  and  C_5 
REMARK    2  A    between atoms: C_5  and  N_6 
REMARK    3  A    between atoms: C_9  and  C_10 
REMARK    4  A    between atoms: C_25  and  C_26 
ROOT
ATOM      1  O   UNL d   1       9.270   8.777 -12.420  0.00  0.00    -0.291 OA
ATOM      2  C   UNL d   1       9.104   7.848 -11.642  0.00  0.00     0.173 C 
ATOM      3  C   UNL d   1       8.071   6.818 -12.065  0.00  0.00     0.071 C 
ATOM      4  C   UNL d   1       8.258   5.449 -11.383  0.00  0.00     0.045 C 
ATOM      5  C   UNL d   1       8.321   5.610  -9.852  0.00  0.00     0.029 C 
ATOM      6  C   UNL d   1       9.337   6.668  -9.409  0.00  0.00    -0.019 A 
ATOM      7  C   UNL d   1       9.718   6.715  -8.045  0.00  0.00    -0.004 A 
ATOM      8  C   UNL d   1      10.560   7.768  -7.575  0.00  0.00    -0.000 A 
ATOM      9  C   UNL d   1      10.978   8.760  -8.482  0.00  0.00     0.000 A 
ATOM     10  C   UNL d   1      10.567   8.727  -9.828  0.00  0.00     0.003 A 
ATOM     11  C   UNL d   1       9.736   7.701 -10.296  0.00  0.00     0.031 A 
ENDROOT
BRANCH   4  12
ATOM     12  C   UNL d   1       7.111   4.510 -11.837  0.00  0.00     0.251 C 
BRANCH  12  13
ATOM     13  N   UNL d   1       7.507   3.612 -12.908  0.00  0.00     0.137 N 
ATOM     14  C   UNL d   1       6.382   2.750 -13.249  0.00  0.00     0.251 C 
ATOM     15  C   UNL d   1       6.878   1.601 -14.168  0.00  0.00     0.041 C 
ATOM     16  C   UNL d   1       7.494   2.179 -15.448  0.00  0.00     0.047 C 
ATOM     17  C   UNL d   1       8.546   3.249 -15.103  0.00  0.00     0.041 C 
ATOM     18  C   UNL d   1       8.026   4.268 -14.110  0.00  0.00     0.251 C 
BRANCH  16  19
ATOM     19  C   UNL d   1       8.033   1.141 -16.385  0.00  0.00     0.087 A 
ATOM     20  C   UNL d   1       7.497   0.648 -17.590  0.00  0.00     0.041 A 
ATOM     21  C   UNL d   1       8.376  -0.300 -18.110  0.00  0.00     0.129 A 
ATOM     22  C   UNL d   1       6.299   0.946 -18.290  0.00  0.00     0.006 A 
ATOM     23  O   UNL d   1       9.430  -0.380 -17.214  0.00  0.00    -0.211 OA
ATOM     24  C   UNL d   1       8.144  -0.991 -19.292  0.00  0.00     0.057 A 
ATOM     25  N   UNL d   1       9.175   0.506 -16.127  0.00  0.00    -0.131 NA
ATOM     26  C   UNL d   1       6.946  -0.718 -19.990  0.00  0.00     0.142 A 
ATOM     27  F   UNL d   1       6.674  -1.385 -21.145  0.00  0.00    -0.204 F 
ATOM     28  C   UNL d   1       6.026   0.251 -19.502  0.00  0.00     0.030 A 
ENDBRANCH  16  19
ENDBRANCH  12  13
ENDBRANCH   4  12
BRANCH   8  29
ATOM     29  C   UNL d   1      11.014   7.812  -6.178  0.00  0.00    -0.000 A 
ATOM     30  C   UNL d   1      11.416   6.609  -5.568  0.00  0.00    -0.000 A 
ATOM     31  C   UNL d   1      11.855   6.588  -4.248  0.00  0.00    -0.000 A 
ATOM     32  C   UNL d   1      11.976   7.777  -3.511  0.00  0.00     0.000 A 
ATOM     33  C   UNL d   1      11.616   8.997  -4.120  0.00  0.00    -0.000 A 
ATOM     34  C   UNL d   1      11.126   9.010  -5.444  0.00  0.00    -0.000 A 
ENDBRANCH   8  29
TORSDOF 4
