REMARK  6 active torsions:
REMARK  status: ('A' for Active; 'I' for Inactive)
REMARK    1  A    between atoms: S_2  and  C_4 
REMARK    2  A    between atoms: S_2  and  N_14 
REMARK    3  A    between atoms: C_17  and  C_18 
REMARK    4  A    between atoms: C_18  and  C_19 
REMARK    5  A    between atoms: C_19  and  N_20 
REMARK    6  A    between atoms: N_23  and  C_24 
ROOT
ATOM      1  N   UNL d   1       7.383   2.880 -14.159  0.00  0.00    -0.275 N 
ATOM      2  C   UNL d   1       6.482   3.930 -13.647  0.00  0.00     0.113 C 
ATOM      3  C   UNL d   1       7.157   4.687 -12.515  0.00  0.00     0.025 C 
ATOM      4  C   UNL d   1       8.565   5.200 -12.879  0.00  0.00     0.006 C 
ATOM      5  C   UNL d   1       9.438   4.031 -13.340  0.00  0.00     0.025 C 
ATOM      6  C   UNL d   1       8.768   3.279 -14.483  0.00  0.00     0.113 C 
ENDROOT
BRANCH   4   7
ATOM      7  C   UNL d   1       9.225   5.971 -11.732  0.00  0.00     0.035 C 
BRANCH   7   8
ATOM      8  C   UNL d   1       9.032   5.360 -10.318  0.00  0.00     0.250 C 
BRANCH   8   9
ATOM      9  N   UNL d   1       9.125   6.386  -9.299  0.00  0.00     0.141 N 
ATOM     10  C   UNL d   1      10.398   7.111  -9.303  0.00  0.00     0.274 C 
ATOM     11  C   UNL d   1      10.392   8.208  -8.229  0.00  0.00     0.137 C 
ATOM     12  N   UNL d   1      10.095   7.629  -6.925  0.00  0.00    -0.344 N 
ATOM     13  C   UNL d   1       8.875   6.824  -6.879  0.00  0.00     0.137 C 
ATOM     14  C   UNL d   1       8.894   5.764  -7.997  0.00  0.00     0.274 C 
BRANCH  12  15
ATOM     15  C   UNL d   1      10.956   7.799  -5.822  0.00  0.00     0.056 A 
ATOM     16  C   UNL d   1      11.734   8.973  -5.678  0.00  0.00     0.017 A 
ATOM     17  C   UNL d   1      12.576   9.128  -4.553  0.00  0.00     0.002 A 
ATOM     18  C   UNL d   1      12.636   8.133  -3.559  0.00  0.00     0.000 A 
ATOM     19  C   UNL d   1      11.865   6.970  -3.696  0.00  0.00     0.002 A 
ATOM     20  C   UNL d   1      11.053   6.804  -4.828  0.00  0.00     0.017 A 
ENDBRANCH  12  15
ENDBRANCH   8   9
ENDBRANCH   7   8
ENDBRANCH   4   7
BRANCH   1  21
ATOM     21  S   UNL d   1       6.887   1.210 -14.201  0.00  0.00     0.264 S 
ATOM     22  O   UNL d   1       5.601   1.132 -13.486  0.00  0.00    -0.200 OA
ATOM     23  O   UNL d   1       8.020   0.389 -13.768  0.00  0.00    -0.200 OA
BRANCH  21  24
ATOM     24  C   UNL d   1       6.667   0.850 -15.959  0.00  0.00     0.105 A 
ATOM     25  C   UNL d   1       5.693  -0.075 -16.434  0.00  0.00     0.030 A 
ATOM     26  C   UNL d   1       5.617  -0.346 -17.840  0.00  0.00     0.082 A 
ATOM     27  C   UNL d   1       4.805  -0.763 -15.576  0.00  0.00     0.004 A 
ATOM     28  C   UNL d   1       6.515   0.290 -18.722  0.00  0.00     0.019 A 
ATOM     29  N   UNL d   1       4.714  -1.198 -18.372  0.00  0.00    -0.244 NA
ATOM     30  C   UNL d   1       7.494   1.174 -18.240  0.00  0.00     0.002 A 
ATOM     31  C   UNL d   1       7.573   1.446 -16.869  0.00  0.00     0.013 A 
ATOM     32  C   UNL d   1       3.850  -1.808 -17.545  0.00  0.00     0.099 A 
ATOM     33  C   UNL d   1       3.845  -1.605 -16.155  0.00  0.00     0.021 A 
ENDBRANCH  21  24
ENDBRANCH   1  21
TORSDOF 6
