REMARK  7 active torsions:
REMARK  status: ('A' for Active; 'I' for Inactive)
REMARK    1  A    between atoms: C_2  and  C_5 
REMARK    2  A    between atoms: C_9  and  N_10 
REMARK    3  A    between atoms: N_13  and  C_14 
REMARK    4  A    between atoms: C_14  and  C_15 
REMARK    5  A    between atoms: C_15  and  C_16 
REMARK    6  A    between atoms: C_19  and  N_20 
REMARK    7  A    between atoms: N_20  and  C_21 
ROOT
ATOM      1  N   UNL d   1       7.307   3.230 -14.034  0.00  0.00    -0.344 N 
ATOM      2  C   UNL d   1       6.607   4.123 -13.120  0.00  0.00     0.137 C 
ATOM      3  C   UNL d   1       7.504   4.467 -11.931  0.00  0.00     0.274 C 
ATOM      4  N   UNL d   1       8.773   5.035 -12.398  0.00  0.00     0.141 N 
ATOM      5  C   UNL d   1       9.482   4.039 -13.210  0.00  0.00     0.274 C 
ATOM      6  C   UNL d   1       8.637   3.680 -14.449  0.00  0.00     0.137 C 
ENDROOT
BRANCH   4   7
ATOM      7  C   UNL d   1       9.613   5.402 -11.268  0.00  0.00     0.250 C 
BRANCH   7   8
ATOM      8  C   UNL d   1       9.028   6.567 -10.465  0.00  0.00     0.035 C 
BRANCH   8   9
ATOM      9  C   UNL d   1      10.005   7.216  -9.476  0.00  0.00     0.002 C 
ATOM     10  C   UNL d   1      10.386   6.231  -8.360  0.00  0.00     0.002 C 
ATOM     11  C   UNL d   1      11.335   6.878  -7.352  0.00  0.00     0.025 C 
ATOM     12  C   UNL d   1      10.697   8.127  -6.726  0.00  0.00     0.122 C 
ATOM     13  C   UNL d   1      10.304   9.129  -7.813  0.00  0.00     0.025 C 
ATOM     14  C   UNL d   1       9.386   8.474  -8.837  0.00  0.00     0.002 C 
BRANCH  12  15
ATOM     15  N   UNL d   1      11.596   8.780  -5.794  0.00  0.00    -0.088 NA
BRANCH  15  16
ATOM     16  C   UNL d   1      11.836   8.334  -4.522  0.00  0.00     0.746 A 
ATOM     17  N   UNL d   1      12.377   9.232  -3.708  0.00  0.00    -0.058 NA
ATOM     18  C   UNL d   1      12.643   8.827  -2.450  0.00  0.00     0.120 A 
ATOM     19  C   UNL d   1      12.421   7.510  -2.040  0.00  0.00     0.043 A 
ATOM     20  C   UNL d   1      11.856   6.649  -2.983  0.00  0.00     0.120 A 
ATOM     21  N   UNL d   1      11.536   7.071  -4.221  0.00  0.00    -0.058 NA
ENDBRANCH  15  16
ENDBRANCH  12  15
ENDBRANCH   8   9
ENDBRANCH   7   8
ENDBRANCH   4   7
BRANCH   1  22
ATOM     22  C   UNL d   1       6.769   1.996 -14.457  0.00  0.00     0.056 A 
ATOM     23  C   UNL d   1       5.865   1.279 -13.640  0.00  0.00     0.017 A 
ATOM     24  C   UNL d   1       5.305   0.066 -14.084  0.00  0.00     0.001 A 
ATOM     25  C   UNL d   1       5.636  -0.451 -15.348  0.00  0.00     0.004 A 
ATOM     26  C   UNL d   1       6.533   0.252 -16.183  0.00  0.00     0.073 A 
ATOM     27  C   UNL d   1       7.089   1.468 -15.728  0.00  0.00     0.021 A 
BRANCH  26  28
ATOM     28  C   UNL d   1       6.895  -0.260 -17.565  0.00  0.00     0.419 C 
ATOM     29  F   UNL d   1       8.212  -0.462 -17.629  0.00  0.00    -0.166 F 
ATOM     30  F   UNL d   1       6.562   0.660 -18.473  0.00  0.00    -0.166 F 
ATOM     31  F   UNL d   1       6.272  -1.398 -17.867  0.00  0.00    -0.166 F 
ENDBRANCH  26  28
ENDBRANCH   1  22
TORSDOF 7
