REMARK  2 active torsions:
REMARK  status: ('A' for Active; 'I' for Inactive)
REMARK    1  A    between atoms: C_5  and  C_6 
REMARK    2  A    between atoms: C_8  and  C_9 
ROOT
ATOM      1  C   UNL d   1      10.303   7.816  -7.931  0.00  0.00     0.104 A 
ATOM      2  C   UNL d   1      11.011   7.174  -6.875  0.00  0.00     0.037 A 
ATOM      3  C   UNL d   1      11.208   8.158  -5.943  0.00  0.00     0.082 A 
ATOM      4  N   UNL d   1      10.661   9.293  -6.479  0.00  0.00    -0.152 NA
ATOM      5  N   UNL d   1      10.110   9.102  -7.685  0.00  0.00    -0.148 NA
ENDROOT
BRANCH   1   6
ATOM      6  C   UNL d   1       9.794   7.225  -9.166  0.00  0.00     0.019 A 
ATOM      7  C   UNL d   1       9.189   5.951  -9.140  0.00  0.00     0.002 A 
ATOM      8  C   UNL d   1       8.677   5.388 -10.328  0.00  0.00     0.011 A 
ATOM      9  C   UNL d   1       8.781   6.092 -11.540  0.00  0.00     0.058 A 
ATOM     10 CL   UNL d   1       8.172   5.394 -12.992  0.00  0.00    -0.082 Cl
ATOM     11  C   UNL d   1       9.380   7.366 -11.571  0.00  0.00     0.011 A 
ATOM     12  C   UNL d   1       9.882   7.932 -10.382  0.00  0.00     0.002 A 
ENDBRANCH   1   6
BRANCH   3  13
ATOM     13  C   UNL d   1      11.893   8.158  -4.605  0.00  0.00     0.046 C 
ATOM     14  C   UNL d   1      11.522   9.326  -3.694  0.00  0.00     0.044 C 
ATOM     15  C   UNL d   1      12.257   9.191  -2.362  0.00  0.00     0.291 C 
ATOM     16  N   UNL d   1      11.891   7.932  -1.749  0.00  0.00     0.339 N 
ATOM     17  C   UNL d   1      12.376   6.796  -2.515  0.00  0.00     0.291 C 
ATOM     18  C   UNL d   1      11.719   6.793  -3.893  0.00  0.00     0.044 C 
ENDBRANCH   3  13
TORSDOF 2
