REMARK  6 active torsions:
REMARK  status: ('A' for Active; 'I' for Inactive)
REMARK    1  A    between atoms: C_2  and  C_3 
REMARK    2  A    between atoms: N_16  and  C_17 
REMARK    3  A    between atoms: C_17  and  C_18 
REMARK    4  A    between atoms: C_18  and  C_19 
REMARK    5  A    between atoms: C_19  and  C_20 
REMARK    6  A    between atoms: C_20  and  C_21 
ROOT
ATOM      1  O   UNL d   1       7.819   0.470 -15.110  0.00  0.00    -0.221 OA
ATOM      2  C   UNL d   1       8.470   1.671 -15.477  0.00  0.00     0.149 C 
ATOM      3  C   UNL d   1       9.988   1.415 -15.276  0.00  0.00     0.068 C 
ATOM      4  C   UNL d   1      10.641   0.594 -16.418  0.00  0.00     0.222 C 
ATOM      5  C   UNL d   1       9.971  -0.757 -16.685  0.00  0.00     0.035 C 
ATOM      6  C   UNL d   1       8.885  -0.442 -17.719  0.00  0.00     0.035 C 
ATOM      7  C   UNL d   1       9.031   1.077 -17.954  0.00  0.00     0.222 C 
ATOM      8  C   UNL d   1       8.173   1.947 -16.977  0.00  0.00     0.068 C 
ATOM      9  N   UNL d   1      10.435   1.363 -17.652  0.00  0.00     0.133 N 
ENDROOT
BRANCH   9  10
ATOM     10  C   UNL d   1      11.334   0.968 -18.751  0.00  0.00     0.250 C 
BRANCH  10  11
ATOM     11  C   UNL d   1      12.769   1.451 -18.505  0.00  0.00     0.036 C 
BRANCH  11  12
ATOM     12  C   UNL d   1      12.956   2.956 -18.718  0.00  0.00     0.009 C 
BRANCH  12  13
ATOM     13  C   UNL d   1      14.241   3.497 -18.077  0.00  0.00     0.053 C 
BRANCH  13  14
ATOM     14  C   UNL d   1      14.421   4.960 -18.278  0.00  0.00     0.088 A 
ATOM     15  S   UNL d   1      13.679   6.149 -17.196  0.00  0.00    -0.071 SA
ATOM     16  C   UNL d   1      14.363   7.424 -18.199  0.00  0.00     0.048 A 
ATOM     17  C   UNL d   1      15.094   6.844 -19.276  0.00  0.00     0.087 A 
ATOM     18  C   UNL d   1      14.259   8.820 -18.047  0.00  0.00     0.008 A 
ATOM     19  N   UNL d   1      15.112   5.454 -19.312  0.00  0.00    -0.243 NA
ATOM     20  C   UNL d   1      15.724   7.720 -20.191  0.00  0.00     0.020 A 
ATOM     21  C   UNL d   1      15.628   9.119 -20.043  0.00  0.00     0.002 A 
ATOM     22  C   UNL d   1      14.899   9.668 -18.973  0.00  0.00     0.001 A 
ENDBRANCH  13  14
ENDBRANCH  12  13
ENDBRANCH  11  12
ENDBRANCH  10  11
ENDBRANCH   9  10
BRANCH   2  23
ATOM     23  C   UNL d   1       7.914   2.799 -14.579  0.00  0.00     0.005 A 
ATOM     24  C   UNL d   1       8.669   3.971 -14.305  0.00  0.00    -0.001 A 
ATOM     25  C   UNL d   1       8.148   4.945 -13.434  0.00  0.00     0.011 A 
ATOM     26  C   UNL d   1       6.872   4.789 -12.883  0.00  0.00     0.058 A 
ATOM     27  C   UNL d   1       6.103   3.652 -13.163  0.00  0.00     0.011 A 
ATOM     28 CL   UNL d   1       6.196   6.043 -11.931  0.00  0.00    -0.082 Cl
ATOM     29  C   UNL d   1       6.619   2.668 -14.034  0.00  0.00    -0.001 A 
ENDBRANCH   2  23
TORSDOF 6
