REMARK  7 active torsions:
REMARK  status: ('A' for Active; 'I' for Inactive)
REMARK    1  A    between atoms: C_2  and  C_3 
REMARK       I    between atoms: C_2  and  N_11 
REMARK    2  A    between atoms: C_14  and  C_16 
REMARK    3  A    between atoms: C_16  and  N_17 
REMARK    4  A    between atoms: N_17  and  C_18 
REMARK    5  A    between atoms: C_18  and  C_19 
REMARK    6  A    between atoms: C_19  and  O_20 
REMARK    7  A    between atoms: O_20  and  C_21 
ROOT
ATOM      1  O   UNL d   1       5.311   1.952 -13.089  0.00  0.00    -0.267 OA
ATOM      2  C   UNL d   1       6.296   2.401 -13.693  0.00  0.00     0.257 C 
ATOM      3  N   UNL d   1       6.835   3.619 -13.404  0.00  0.00    -0.317 N 
ATOM      4  C   UNL d   1       6.306   4.476 -12.309  0.00  0.00     0.107 C 
ATOM      5  C   UNL d   1       7.425   4.872 -11.331  0.00  0.00     0.059 C 
ATOM      6  C   UNL d   1       8.618   5.519 -12.051  0.00  0.00     0.172 C 
ATOM      7  F   UNL d   1       8.236   6.671 -12.612  0.00  0.00    -0.238 F 
ATOM      8  C   UNL d   1       9.105   4.594 -13.177  0.00  0.00     0.059 C 
ATOM      9  C   UNL d   1       7.958   4.245 -14.135  0.00  0.00     0.107 C 
ENDROOT
BRANCH   6  10
ATOM     10  C   UNL d   1       9.764   5.793 -11.069  0.00  0.00     0.323 C 
BRANCH  10  11
ATOM     11  N   UNL d   1       9.466   6.886 -10.158  0.00  0.00     0.345 N 
BRANCH  11  12
ATOM     12  C   UNL d   1      10.063   6.683  -8.852  0.00  0.00     0.323 C 
BRANCH  12  13
ATOM     13  C   UNL d   1       9.069   7.143  -7.768  0.00  0.00     0.187 C 
BRANCH  13  14
ATOM     14  O   UNL d   1       9.582   6.780  -6.488  0.00  0.00    -0.329 OA
BRANCH  14  15
ATOM     15  C   UNL d   1      10.529   7.589  -5.910  0.00  0.00     0.095 A 
ATOM     16  C   UNL d   1      11.087   7.201  -4.662  0.00  0.00     0.036 A 
ATOM     17  C   UNL d   1      11.971   8.069  -3.984  0.00  0.00     0.060 A 
ATOM     18  C   UNL d   1      12.329   9.302  -4.558  0.00  0.00     0.011 A 
ATOM     19 CL   UNL d   1      12.590   7.650  -2.436  0.00  0.00    -0.082 Cl
ATOM     20  C   UNL d   1      11.797   9.668  -5.817  0.00  0.00     0.003 A 
ATOM     21  C   UNL d   1      10.909   8.818  -6.495  0.00  0.00     0.024 A 
ENDBRANCH  14  15
ENDBRANCH  13  14
ENDBRANCH  12  13
ENDBRANCH  11  12
ENDBRANCH  10  11
ENDBRANCH   6  10
BRANCH   2  22
ATOM     22  C   UNL d   1       6.942   1.513 -14.713  0.00  0.00     0.057 A 
ATOM     23  C   UNL d   1       8.341   1.390 -14.783  0.00  0.00     0.018 A 
ATOM     24  C   UNL d   1       8.938   0.655 -15.810  0.00  0.00     0.085 A 
ATOM     25  C   UNL d   1       8.145  -0.026 -16.747  0.00  0.00     0.151 A 
ATOM     26 CL   UNL d   1      10.640   0.657 -15.965  0.00  0.00    -0.080 Cl
ATOM     27  C   UNL d   1       6.745   0.004 -16.632  0.00  0.00     0.031 A 
ATOM     28  F   UNL d   1       8.724  -0.748 -17.754  0.00  0.00    -0.203 F 
ATOM     29  C   UNL d   1       6.152   0.763 -15.604  0.00  0.00     0.007 A 
ENDBRANCH   2  22
TORSDOF 7
