REMARK  8 active torsions:
REMARK  status: ('A' for Active; 'I' for Inactive)
REMARK    1  A    between atoms: N_12  and  C_13 
REMARK    2  A    between atoms: C_13  and  C_14 
REMARK    3  A    between atoms: C_14  and  C_15 
REMARK    4  A    between atoms: C_15  and  C_16 
REMARK    5  A    between atoms: C_16  and  C_17 
REMARK    6  A    between atoms: C_17  and  C_18 
REMARK    7  A    between atoms: C_18  and  N_19 
REMARK    8  A    between atoms: N_22  and  C_23 
ROOT
ATOM      1  C   UNL d   1       8.421   5.326 -12.566  0.00  0.00     0.002 C 
ENDROOT
BRANCH   1   2
ATOM      2  C   UNL d   1       8.839   4.218 -13.549  0.00  0.00     0.002 C 
BRANCH   2   3
ATOM      3  C   UNL d   1      10.149   4.545 -14.280  0.00  0.00     0.025 C 
BRANCH   3   4
ATOM      4  C   UNL d   1      10.459   3.576 -15.436  0.00  0.00     0.122 C 
BRANCH   4   5
ATOM      5  N   UNL d   1      11.692   3.950 -16.156  0.00  0.00    -0.221 N 
ATOM      6  C   UNL d   1      12.346   3.029 -16.990  0.00  0.00     0.271 A 
ATOM      7  O   UNL d   1      12.193   1.810 -16.959  0.00  0.00    -0.266 OA
ATOM      8  C   UNL d   1      13.229   3.760 -17.953  0.00  0.00     0.069 A 
ATOM      9  C   UNL d   1      13.130   5.147 -17.877  0.00  0.00     0.108 A 
ATOM     10  C   UNL d   1      14.098   3.172 -18.892  0.00  0.00     0.005 A 
ATOM     11  C   UNL d   1      13.871   6.015 -18.693  0.00  0.00     0.013 A 
ATOM     12  S   UNL d   1      11.976   5.587 -16.630  0.00  0.00     0.270 S 
ATOM     13  C   UNL d   1      14.744   5.431 -19.636  0.00  0.00     0.001 A 
ATOM     14  C   UNL d   1      14.853   4.021 -19.736  0.00  0.00     0.000 A 
ATOM     15  O   UNL d   1      12.657   6.286 -15.536  0.00  0.00    -0.200 OA
ATOM     16  O   UNL d   1      10.750   6.105 -17.262  0.00  0.00    -0.200 OA
ENDBRANCH   4   5
ENDBRANCH   3   4
ENDBRANCH   2   3
ENDBRANCH   1   2
BRANCH   1  17
ATOM     17  C   UNL d   1       9.191   5.262 -11.238  0.00  0.00     0.035 C 
BRANCH  17  18
ATOM     18  C   UNL d   1       8.816   6.396 -10.293  0.00  0.00     0.250 C 
BRANCH  18  19
ATOM     19  N   UNL d   1       9.533   6.294  -9.022  0.00  0.00     0.141 N 
ATOM     20  C   UNL d   1       8.656   6.767  -7.949  0.00  0.00     0.274 C 
ATOM     21  C   UNL d   1       9.333   6.677  -6.599  0.00  0.00     0.137 C 
ATOM     22  N   UNL d   1      10.587   7.389  -6.619  0.00  0.00    -0.344 N 
ATOM     23  C   UNL d   1      11.479   7.067  -7.707  0.00  0.00     0.137 C 
ATOM     24  C   UNL d   1      10.718   7.160  -9.042  0.00  0.00     0.274 C 
BRANCH  22  25
ATOM     25  C   UNL d   1      10.933   8.287  -5.641  0.00  0.00     0.068 A 
ATOM     26  C   UNL d   1      11.528   7.926  -4.410  0.00  0.00     0.084 A 
ATOM     27  C   UNL d   1      11.819   8.822  -3.402  0.00  0.00     0.070 A 
ATOM     28 CL   UNL d   1      11.896   6.365  -4.070  0.00  0.00    -0.080 Cl
ATOM     29  C   UNL d   1      11.453  10.139  -3.611  0.00  0.00     0.012 A 
ATOM     30 CL   UNL d   1      12.547   8.379  -1.896  0.00  0.00    -0.081 Cl
ATOM     31  C   UNL d   1      10.871  10.540  -4.823  0.00  0.00     0.002 A 
ATOM     32  C   UNL d   1      10.645   9.637  -5.865  0.00  0.00     0.018 A 
ENDBRANCH  22  25
ENDBRANCH  18  19
ENDBRANCH  17  18
ENDBRANCH   1  17
TORSDOF 8
