REMARK  1 active torsions:
REMARK  status: ('A' for Active; 'I' for Inactive)
REMARK    1  A    between atoms: O_2  and  C_3 
ROOT
ATOM      1  C   UNL d   1      11.093   3.294 -15.974  0.00  0.00     0.090 A 
ATOM      2  C   UNL d   1      11.672   2.406 -16.930  0.00  0.00     0.000 A 
ATOM      3  C   UNL d   1      12.787   2.835 -17.888  0.00  0.00     0.033 C 
ATOM      4  C   UNL d   1      11.185   1.089 -17.036  0.00  0.00    -0.003 A 
ATOM      5  C   UNL d   1      10.106   0.663 -16.248  0.00  0.00    -0.004 A 
ATOM      6  C   UNL d   1       9.499   1.558 -15.340  0.00  0.00    -0.018 A 
ATOM      7  C   UNL d   1       9.992   2.878 -15.164  0.00  0.00     0.018 A 
ATOM      8  C   UNL d   1       9.315   3.737 -14.129  0.00  0.00    -0.001 A 
ATOM      9  C   UNL d   1       9.956   4.838 -13.487  0.00  0.00    -0.000 A 
ATOM     10  C   UNL d   1       9.328   5.595 -12.469  0.00  0.00    -0.000 A 
ATOM     11  C   UNL d   1       8.030   5.317 -12.047  0.00  0.00    -0.004 A 
ATOM     12  C   UNL d   1       7.346   4.247 -12.639  0.00  0.00    -0.022 A 
ATOM     13  C   UNL d   1       8.006   3.469 -13.650  0.00  0.00     0.005 A 
ATOM     14  C   UNL d   1       7.283   2.259 -14.299  0.00  0.00     0.246 C 
ATOM     15  C   UNL d   1       8.286   1.097 -14.562  0.00  0.00     0.064 C 
ATOM     16  N   UNL d   1       6.115   1.777 -13.555  0.00  0.00     0.142 N 
ATOM     17  C   UNL d   1       5.339   0.774 -14.273  0.00  0.00     0.286 C 
ATOM     18  C   UNL d   1       5.266   2.917 -13.243  0.00  0.00     0.255 C 
ATOM     19  C   UNL d   1       5.983   3.787 -12.215  0.00  0.00     0.061 C 
ENDROOT
BRANCH   1  20
ATOM     20  O   UNL d   1      11.552   4.590 -15.911  0.00  0.00    -0.328 OA
ATOM     21  C   UNL d   1      12.792   4.787 -15.231  0.00  0.00     0.181 C 
ENDBRANCH   1  20
TORSDOF 1
