REMARK  3 active torsions:
REMARK  status: ('A' for Active; 'I' for Inactive)
REMARK    1  A    between atoms: C_5  and  N_6 
REMARK    2  A    between atoms: N_9  and  C_10 
REMARK    3  A    between atoms: C_10  and  C_11 
ROOT
ATOM      1  N   UNL d   1       9.988   8.008  -6.833  0.00  0.00    -0.344 N 
ATOM      2  C   UNL d   1       9.225   6.816  -7.187  0.00  0.00     0.137 C 
ATOM      3  C   UNL d   1       9.699   6.283  -8.544  0.00  0.00     0.275 C 
ATOM      4  N   UNL d   1       9.602   7.346  -9.548  0.00  0.00     0.147 N 
ATOM      5  C   UNL d   1      10.473   8.468  -9.183  0.00  0.00     0.275 C 
ATOM      6  C   UNL d   1      10.007   9.050  -7.846  0.00  0.00     0.137 C 
ENDROOT
BRANCH   4   7
ATOM      7  C   UNL d   1       9.997   6.838 -10.845  0.00  0.00     0.298 C 
BRANCH   7   8
ATOM      8  C   UNL d   1       9.143   5.850 -11.583  0.00  0.00     0.114 A 
ATOM      9  N   UNL d   1       9.609   5.183 -12.621  0.00  0.00    -0.168 NA
ATOM     10  N   UNL d   1       8.556   4.402 -13.023  0.00  0.00    -0.229 N 
ATOM     11  C   UNL d   1       7.421   4.624 -12.220  0.00  0.00     0.084 A 
ATOM     12  C   UNL d   1       8.572   3.510 -14.054  0.00  0.00     0.100 A 
ATOM     13  C   UNL d   1       7.789   5.556 -11.297  0.00  0.00     0.038 A 
ATOM     14  C   UNL d   1       6.247   3.887 -12.505  0.00  0.00     0.019 A 
ATOM     15  C   UNL d   1       6.260   2.984 -13.545  0.00  0.00     0.003 A 
ATOM     16  C   UNL d   1       7.428   2.788 -14.325  0.00  0.00     0.021 A 
ENDBRANCH   7   8
ENDBRANCH   4   7
BRANCH   1  17
ATOM     17  C   UNL d   1      10.687   8.154  -5.629  0.00  0.00     0.056 A 
ATOM     18  C   UNL d   1      11.216   7.026  -4.954  0.00  0.00     0.018 A 
ATOM     19  C   UNL d   1      11.861   7.186  -3.718  0.00  0.00     0.013 A 
ATOM     20  C   UNL d   1      11.969   8.468  -3.167  0.00  0.00     0.058 A 
ATOM     21 CL   UNL d   1      12.664   8.679  -1.637  0.00  0.00    -0.082 Cl
ATOM     22  C   UNL d   1      11.471   9.593  -3.827  0.00  0.00     0.013 A 
ATOM     23  C   UNL d   1      10.835   9.442  -5.058  0.00  0.00     0.018 A 
ENDBRANCH   1  17
TORSDOF 3
