REMARK  8 active torsions:
REMARK  status: ('A' for Active; 'I' for Inactive)
REMARK    1  A    between atoms: S_2  and  O_5 
REMARK    2  A    between atoms: O_5  and  C_6 
REMARK    3  A    between atoms: N_13  and  C_14 
REMARK    4  A    between atoms: C_14  and  C_15 
REMARK    5  A    between atoms: C_15  and  C_16 
REMARK    6  A    between atoms: C_19  and  N_20 
REMARK       I    between atoms: N_20  and  C_21 
REMARK    7  A    between atoms: C_21  and  C_23 
REMARK    8  A    between atoms: C_24  and  C_25 
ROOT
ATOM      1  C   UNL d   1       8.897   5.352 -12.786  0.00  0.00     0.002 C 
ATOM      2  C   UNL d   1       8.438   6.779 -12.445  0.00  0.00     0.002 C 
ATOM      3  C   UNL d   1       9.080   7.255 -11.143  0.00  0.00     0.024 C 
ATOM      4  C   UNL d   1       8.775   6.289  -9.975  0.00  0.00     0.107 C 
ATOM      5  C   UNL d   1       9.183   4.855 -10.307  0.00  0.00     0.024 C 
ATOM      6  C   UNL d   1       8.579   4.392 -11.637  0.00  0.00     0.002 C 
ENDROOT
BRANCH   1   7
ATOM      7  C   UNL d   1       8.236   4.900 -14.095  0.00  0.00     0.035 C 
BRANCH   7   8
ATOM      8  C   UNL d   1       8.527   3.448 -14.511  0.00  0.00     0.251 C 
BRANCH   8   9
ATOM      9  N   UNL d   1       9.855   3.346 -15.109  0.00  0.00     0.146 N 
ATOM     10  C   UNL d   1      10.106   1.944 -15.459  0.00  0.00     0.277 C 
ATOM     11  C   UNL d   1       9.599   1.833 -16.871  0.00  0.00     0.011 A 
ATOM     12  C   UNL d   1       9.525   3.097 -17.424  0.00  0.00     0.009 A 
ATOM     13  C   UNL d   1       9.261   0.689 -17.578  0.00  0.00     0.023 A 
ATOM     14  C   UNL d   1       9.075   3.303 -18.751  0.00  0.00    -0.001 A 
ATOM     15  C   UNL d   1       9.981   4.084 -16.390  0.00  0.00     0.277 C 
ATOM     16  C   UNL d   1       8.722   2.147 -19.499  0.00  0.00     0.025 A 
ATOM     17  C   UNL d   1       8.824   0.841 -18.929  0.00  0.00     0.113 A 
BRANCH  17  18
ATOM     18  O   UNL d   1       8.482  -0.225 -19.723  0.00  0.00    -0.230 OA
BRANCH  18  19
ATOM     19  S   UNL d   1       8.205  -1.707 -18.970  0.00  0.00     0.285 S 
ATOM     20  C   UNL d   1       6.788  -1.295 -17.881  0.00  0.00     0.172 C 
ATOM     21  O   UNL d   1       9.396  -1.992 -18.159  0.00  0.00    -0.197 OA
ATOM     22  O   UNL d   1       7.753  -2.661 -19.986  0.00  0.00    -0.197 OA
ENDBRANCH  18  19
ENDBRANCH  17  18
ENDBRANCH   8   9
ENDBRANCH   7   8
ENDBRANCH   1   7
BRANCH   4  23
ATOM     23  N   UNL d   1       9.382   6.705  -8.723  0.00  0.00    -0.236 NA
ATOM     24  C   UNL d   1      10.670   7.032  -8.546  0.00  0.00     0.275 C 
ATOM     25  O   UNL d   1      11.431   7.335  -9.457  0.00  0.00    -0.266 OA
BRANCH  24  26
ATOM     26  C   UNL d   1      11.044   6.922  -7.159  0.00  0.00     0.062 C 
ATOM     27  C   UNL d   1      11.171   8.043  -6.436  0.00  0.00     0.005 C 
BRANCH  27  28
ATOM     28  C   UNL d   1      11.563   8.089  -5.034  0.00  0.00     0.000 A 
ATOM     29  C   UNL d   1      11.719   9.356  -4.443  0.00  0.00     0.002 A 
ATOM     30  C   UNL d   1      12.125   9.445  -3.109  0.00  0.00     0.030 A 
ATOM     31  C   UNL d   1      12.403   8.279  -2.383  0.00  0.00     0.140 A 
ATOM     32  C   UNL d   1      12.241   7.008  -2.952  0.00  0.00     0.030 A 
ATOM     33  F   UNL d   1      12.876   8.386  -1.137  0.00  0.00    -0.204 F 
ATOM     34  C   UNL d   1      11.830   6.913  -4.289  0.00  0.00     0.002 A 
ENDBRANCH  27  28
ENDBRANCH  24  26
ENDBRANCH   4  23
TORSDOF 8
