REMARK  8 active torsions:
REMARK  status: ('A' for Active; 'I' for Inactive)
REMARK    1  A    between atoms: C_2  and  O_3 
REMARK    2  A    between atoms: O_3  and  N_4 
REMARK    3  A    between atoms: C_5  and  C_6 
REMARK    4  A    between atoms: C_5  and  C_22 
REMARK    5  A    between atoms: C_6  and  C_7 
REMARK    6  A    between atoms: C_7  and  N_8 
REMARK    7  A    between atoms: N_11  and  C_12 
REMARK    8  A    between atoms: C_16  and  O_17 
ROOT
ATOM      1  N   UNL d   1      10.157   3.487 -14.203  0.00  0.00     0.141 N 
ATOM      2  C   UNL d   1      10.323   2.040 -14.372  0.00  0.00     0.274 C 
ATOM      3  C   UNL d   1      10.857   1.715 -15.778  0.00  0.00     0.137 C 
ATOM      4  N   UNL d   1       9.956   2.272 -16.797  0.00  0.00    -0.344 N 
ATOM      5  C   UNL d   1       9.670   3.697 -16.601  0.00  0.00     0.137 C 
ATOM      6  C   UNL d   1       9.163   3.936 -15.179  0.00  0.00     0.274 C 
ENDROOT
BRANCH   1   7
ATOM      7  C   UNL d   1       9.637   3.724 -12.849  0.00  0.00     0.257 C 
BRANCH   7   8
ATOM      8  C   UNL d   1       9.603   5.241 -12.497  0.00  0.00     0.083 C 
BRANCH   8   9
ATOM      9  C   UNL d   1       8.776   5.583 -11.271  0.00  0.00     0.087 C 
ATOM     10  N   UNL d   1       7.539   5.305 -11.177  0.00  0.00    -0.136 NA
BRANCH  10  11
ATOM     11  O   UNL d   1       6.987   4.772 -12.355  0.00  0.00    -0.237 OA
BRANCH  11  12
ATOM     12  C   UNL d   1       5.717   4.231 -12.013  0.00  0.00     0.176 C 
ATOM     13  C   UNL d   1       5.083   3.588 -13.237  0.00  0.00     0.038 C 
ENDBRANCH  11  12
ENDBRANCH  10  11
BRANCH   9  14
ATOM     14  C   UNL d   1       9.495   6.290 -10.176  0.00  0.00     0.016 A 
ATOM     15  C   UNL d   1      10.197   7.489 -10.435  0.00  0.00     0.001 A 
ATOM     16  C   UNL d   1      10.867   8.179  -9.405  0.00  0.00     0.000 A 
ATOM     17  C   UNL d   1      10.830   7.683  -8.090  0.00  0.00     0.000 A 
ATOM     18  C   UNL d   1      10.124   6.497  -7.812  0.00  0.00     0.000 A 
ATOM     19  C   UNL d   1       9.454   5.808  -8.845  0.00  0.00     0.001 A 
ENDBRANCH   9  14
ENDBRANCH   8   9
ENDBRANCH   7   8
ENDBRANCH   1   7
BRANCH   4  20
ATOM     20  C   UNL d   1       9.445   1.552 -17.874  0.00  0.00     0.058 A 
ATOM     21  C   UNL d   1       9.199   0.154 -17.825  0.00  0.00     0.041 A 
ATOM     22  C   UNL d   1       8.655  -0.547 -18.927  0.00  0.00     0.096 A 
ATOM     23  C   UNL d   1       8.346   0.190 -20.108  0.00  0.00     0.024 A 
ATOM     24  C   UNL d   1       8.582   1.571 -20.178  0.00  0.00     0.004 A 
ATOM     25  C   UNL d   1       9.134   2.246 -19.071  0.00  0.00     0.017 A 
BRANCH  22  26
ATOM     26  O   UNL d   1       8.447  -1.902 -18.806  0.00  0.00    -0.328 OA
ATOM     27  C   UNL d   1       7.867  -2.570 -19.919  0.00  0.00     0.181 C 
ENDBRANCH  22  26
ENDBRANCH   4  20
TORSDOF 8
