REMARK  1 active torsions:
REMARK  status: ('A' for Active; 'I' for Inactive)
REMARK    1  A    between atoms: C_5  and  C_6 
ROOT
ATOM      1  C   UNL d   1       9.069   4.418 -14.618  0.00  0.00     0.068 C 
ATOM      2  C   UNL d   1       9.430   4.870 -13.187  0.00  0.00     0.129 C 
ATOM      3  N   UNL d   1       8.299   5.400 -12.443  0.00  0.00    -0.294 NA
ATOM      4  C   UNL d   1       7.300   4.419 -12.055  0.00  0.00     0.124 C 
ATOM      5  C   UNL d   1       6.469   3.922 -13.250  0.00  0.00     0.053 C 
ATOM      6  C   UNL d   1       7.154   2.792 -14.034  0.00  0.00    -0.011 A 
ATOM      7  C   UNL d   1       8.405   3.029 -14.668  0.00  0.00    -0.017 A 
ATOM      8  C   UNL d   1       9.030   1.957 -15.351  0.00  0.00     0.025 A 
ATOM      9  C   UNL d   1       8.454   0.680 -15.400  0.00  0.00     0.157 A 
ATOM     10  O   UNL d   1       9.111  -0.310 -16.074  0.00  0.00    -0.188 OA
ATOM     11  C   UNL d   1       7.226   0.439 -14.754  0.00  0.00     0.166 A 
ATOM     12  O   UNL d   1       6.651  -0.808 -14.752  0.00  0.00    -0.187 OA
ATOM     13  C   UNL d   1       6.581   1.489 -14.072  0.00  0.00     0.081 A 
ATOM     14 CL   UNL d   1       5.109   1.119 -13.238  0.00  0.00    -0.081 Cl
ENDROOT
BRANCH   1  15
ATOM     15  C   UNL d   1      10.264   4.556 -15.565  0.00  0.00    -0.016 A 
ATOM     16  C   UNL d   1      10.066   5.068 -16.867  0.00  0.00    -0.002 A 
ATOM     17  C   UNL d   1      11.151   5.195 -17.756  0.00  0.00     0.027 A 
ATOM     18  C   UNL d   1      12.442   4.808 -17.349  0.00  0.00     0.131 A 
ATOM     19  O   UNL d   1      13.496   4.922 -18.206  0.00  0.00    -0.190 OA
ATOM     20  C   UNL d   1      12.647   4.296 -16.054  0.00  0.00     0.027 A 
ATOM     21  C   UNL d   1      11.563   4.168 -15.165  0.00  0.00    -0.002 A 
ENDBRANCH   1  15
TORSDOF 1
