REMARK  6 active torsions:
REMARK  status: ('A' for Active; 'I' for Inactive)
REMARK       I    between atoms: C_2  and  N_3 
REMARK    1  A    between atoms: C_2  and  C_27 
REMARK    2  A    between atoms: N_3  and  C_4 
REMARK    3  A    between atoms: C_7  and  C_8 
REMARK    4  A    between atoms: C_8  and  C_9 
REMARK    5  A    between atoms: C_9  and  N_10 
REMARK    6  A    between atoms: N_13  and  C_14 
ROOT
ATOM      1  C   UNL d   1       9.557   4.668 -12.408  0.00  0.00     0.250 C 
ENDROOT
BRANCH   1   2
ATOM      2  C   UNL d   1       9.211   6.087 -11.913  0.00  0.00     0.035 C 
BRANCH   2   3
ATOM      3  C   UNL d   1       9.704   6.360 -10.484  0.00  0.00     0.002 C 
ATOM      4  C   UNL d   1       9.967   7.861 -10.296  0.00  0.00     0.002 C 
ATOM      5  C   UNL d   1      10.449   8.170  -8.880  0.00  0.00     0.024 C 
ATOM      6  C   UNL d   1       9.476   7.621  -7.814  0.00  0.00     0.107 C 
ATOM      7  C   UNL d   1       9.155   6.117  -8.013  0.00  0.00     0.024 C 
ATOM      8  C   UNL d   1       8.708   5.809  -9.437  0.00  0.00     0.002 C 
BRANCH   6   9
ATOM      9  N   UNL d   1       9.980   7.919  -6.477  0.00  0.00    -0.235 NA
ATOM     10  C   UNL d   1      11.071   7.388  -5.905  0.00  0.00     0.292 C 
ATOM     11  O   UNL d   1      11.732   6.465  -6.377  0.00  0.00    -0.264 OA
BRANCH  10  12
ATOM     12  C   UNL d   1      11.460   7.952  -4.616  0.00  0.00     0.139 A 
ATOM     13  N   UNL d   1      11.935   7.117  -3.632  0.00  0.00    -0.239 NA
ATOM     14  C   UNL d   1      12.257   7.850  -2.515  0.00  0.00     0.099 A 
ATOM     15  C   UNL d   1      12.019   9.165  -2.820  0.00  0.00     0.022 A 
ATOM     16  C   UNL d   1      11.500   9.228  -4.147  0.00  0.00     0.026 A 
ENDBRANCH  10  12
ENDBRANCH   6   9
ENDBRANCH   2   3
ENDBRANCH   1   2
BRANCH   1  17
ATOM     17  N   UNL d   1       8.663   4.218 -13.465  0.00  0.00     0.141 N 
ATOM     18  C   UNL d   1       9.220   2.974 -14.021  0.00  0.00     0.274 C 
ATOM     19  C   UNL d   1       8.338   2.479 -15.180  0.00  0.00     0.138 C 
ATOM     20  N   UNL d   1       6.960   2.293 -14.722  0.00  0.00    -0.329 N 
ATOM     21  C   UNL d   1       6.383   3.443 -14.031  0.00  0.00     0.138 C 
ATOM     22  C   UNL d   1       7.312   3.943 -12.936  0.00  0.00     0.274 C 
BRANCH  20  23
ATOM     23  C   UNL d   1       6.264   1.097 -14.896  0.00  0.00     0.148 A 
ATOM     24  C   UNL d   1       6.282   0.334 -16.145  0.00  0.00     0.042 A 
ATOM     25  C   UNL d   1       5.398  -0.771 -16.036  0.00  0.00     0.050 A 
ATOM     26  C   UNL d   1       6.954   0.507 -17.384  0.00  0.00     0.004 A 
ATOM     27  S   UNL d   1       4.652  -0.717 -14.447  0.00  0.00     0.015 SA
ATOM     28  C   UNL d   1       5.207  -1.683 -17.092  0.00  0.00     0.008 A 
ATOM     29  N   UNL d   1       5.462   0.651 -13.940  0.00  0.00    -0.192 NA
ATOM     30  C   UNL d   1       5.908  -1.498 -18.299  0.00  0.00     0.001 A 
ATOM     31  C   UNL d   1       6.778  -0.405 -18.444  0.00  0.00     0.000 A 
ENDBRANCH  20  23
ENDBRANCH   1  17
TORSDOF 6
