REMARK  5 active torsions:
REMARK  status: ('A' for Active; 'I' for Inactive)
REMARK       I    between atoms: C_2  and  N_3 
REMARK    1  A    between atoms: C_2  and  C_18 
REMARK    2  A    between atoms: N_3  and  C_4 
REMARK    3  A    between atoms: N_7  and  C_8 
REMARK    4  A    between atoms: C_8  and  C_9 
REMARK    5  A    between atoms: C_21  and  C_22 
ROOT
ATOM      1  C   UNL d   1       8.342   4.831 -10.750  0.00  0.00     0.142 C 
ATOM      2  C   UNL d   1       7.434   5.740 -11.550  0.00  0.00     0.062 C 
ATOM      3  C   UNL d   1       8.072   5.896 -12.876  0.00  0.00     0.253 C 
ATOM      4  N   UNL d   1       8.680   4.611 -13.069  0.00  0.00     0.143 N 
ATOM      5  C   UNL d   1       9.361   4.372 -11.808  0.00  0.00     0.275 C 
ENDROOT
BRANCH   1   6
ATOM      6  N   UNL d   1       8.991   5.385  -9.553  0.00  0.00    -0.234 NA
ATOM      7  C   UNL d   1       9.659   6.549  -9.484  0.00  0.00     0.275 C 
ATOM      8  O   UNL d   1       9.918   7.273 -10.446  0.00  0.00    -0.266 OA
BRANCH   7   9
ATOM      9  C   UNL d   1      10.093   6.981  -8.133  0.00  0.00     0.058 A 
ATOM     10  C   UNL d   1      10.911   6.144  -7.375  0.00  0.00     0.005 A 
ATOM     11  C   UNL d   1      11.416   6.537  -6.136  0.00  0.00     0.001 A 
ATOM     12  C   UNL d   1      11.074   7.802  -5.625  0.00  0.00     0.006 A 
ATOM     13  C   UNL d   1      10.258   8.663  -6.398  0.00  0.00     0.001 A 
ATOM     14  C   UNL d   1       9.765   8.256  -7.652  0.00  0.00     0.005 A 
BRANCH  12  15
ATOM     15  C   UNL d   1      11.573   8.224  -4.330  0.00  0.00     0.029 A 
ATOM     16  S   UNL d   1      12.188   7.046  -3.186  0.00  0.00    -0.086 SA
ATOM     17  C   UNL d   1      12.543   8.304  -2.049  0.00  0.00     0.035 A 
ATOM     18  C   UNL d   1      12.174   9.521  -2.535  0.00  0.00     0.007 A 
ATOM     19  C   UNL d   1      11.594   9.489  -3.820  0.00  0.00     0.007 A 
ENDBRANCH  12  15
ENDBRANCH   7   9
ENDBRANCH   1   6
BRANCH   4  20
ATOM     20  C   UNL d   1       9.564   4.625 -14.211  0.00  0.00     0.277 C 
BRANCH  20  21
ATOM     21  C   UNL d   1       9.871   3.231 -14.720  0.00  0.00     0.013 A 
ATOM     22  C   UNL d   1       8.947   2.174 -14.531  0.00  0.00     0.030 A 
ATOM     23  C   UNL d   1       9.215   0.897 -15.042  0.00  0.00     0.167 A 
ATOM     24  C   UNL d   1      10.396   0.670 -15.767  0.00  0.00     0.167 A 
ATOM     25  F   UNL d   1       8.325  -0.099 -14.846  0.00  0.00    -0.202 F 
ATOM     26  C   UNL d   1      11.316   1.717 -15.969  0.00  0.00     0.032 A 
ATOM     27  F   UNL d   1      10.657  -0.556 -16.269  0.00  0.00    -0.202 F 
ATOM     28  C   UNL d   1      11.059   2.998 -15.443  0.00  0.00     0.000 A 
ENDBRANCH  20  21
ENDBRANCH   4  20
TORSDOF 5
