REMARK  0 active torsions:
REMARK  status: ('A' for Active; 'I' for Inactive)
ROOT
ATOM      1  O   UNL d   1       9.037   4.240  -8.466  0.00  0.00    -0.191 OA
ATOM      2  C   UNL d   1       9.298   5.407  -9.116  0.00  0.00     0.127 A 
ATOM      3  C   UNL d   1       9.971   6.443  -8.441  0.00  0.00     0.027 A 
ATOM      4  C   UNL d   1      10.262   7.652  -9.106  0.00  0.00     0.002 A 
ATOM      5  C   UNL d   1       9.874   7.816 -10.449  0.00  0.00    -0.003 A 
ATOM      6  C   UNL d   1       9.208   6.769 -11.118  0.00  0.00     0.009 A 
ATOM      7  C   UNL d   1       8.904   5.570 -10.459  0.00  0.00     0.003 A 
ATOM      8  C   UNL d   1       8.217   4.458 -11.233  0.00  0.00     0.066 C 
ATOM      9  C   UNL d   1       7.588   4.859 -12.582  0.00  0.00     0.246 C 
ATOM     10  C   UNL d   1       7.235   3.618 -13.402  0.00  0.00     0.007 A 
ATOM     11  C   UNL d   1       6.078   2.866 -13.081  0.00  0.00     0.024 A 
ATOM     12  C   UNL d   1       5.861   1.663 -13.775  0.00  0.00     0.119 A 
ATOM     13  C   UNL d   1       6.696   1.252 -14.792  0.00  0.00     0.119 A 
ATOM     14  C   UNL d   1       7.838   1.984 -15.151  0.00  0.00     0.022 A 
ATOM     15  C   UNL d   1       8.115   3.173 -14.434  0.00  0.00    -0.020 A 
ATOM     16  C   UNL d   1       9.331   4.009 -14.805  0.00  0.00     0.061 C 
ATOM     17  C   UNL d   1       9.712   5.053 -13.738  0.00  0.00     0.256 C 
ATOM     18  N   UNL d   1       8.496   5.747 -13.302  0.00  0.00     0.144 N 
ATOM     19  C   UNL d   1       8.731   6.972 -12.533  0.00  0.00     0.277 C 
ATOM     20  O   UNL d   1       6.227   0.095 -15.326  0.00  0.00    -0.300 OA
ATOM     21  C   UNL d   1       5.064  -0.219 -14.608  0.00  0.00     0.304 A 
ATOM     22  O   UNL d   1       4.861   0.755 -13.620  0.00  0.00    -0.300 OA
ENDROOT
TORSDOF 0
