REMARK  6 active torsions:
REMARK  status: ('A' for Active; 'I' for Inactive)
REMARK    1  A    between atoms: S_2  and  N_4 
REMARK    2  A    between atoms: S_2  and  C_22 
REMARK    3  A    between atoms: N_4  and  C_5 
REMARK    4  A    between atoms: N_13  and  C_14 
REMARK    5  A    between atoms: C_14  and  C_15 
REMARK    6  A    between atoms: C_25  and  N_26 
ROOT
ATOM      1  C   UNL d   1       9.182   6.279 -10.550  0.00  0.00     0.093 A 
ATOM      2  C   UNL d   1       9.825   7.362 -11.188  0.00  0.00     0.020 A 
ATOM      3  C   UNL d   1      10.696   8.154 -10.429  0.00  0.00    -0.003 A 
ATOM      4  C   UNL d   1      10.964   7.863  -9.089  0.00  0.00    -0.024 A 
ATOM      5  C   UNL d   1      10.325   6.776  -8.483  0.00  0.00    -0.022 A 
ATOM      6  C   UNL d   1       9.411   5.997  -9.207  0.00  0.00     0.015 A 
ATOM      7  C   UNL d   1      10.572   6.385  -7.040  0.00  0.00     0.061 C 
ATOM      8  C   UNL d   1      10.302   7.521  -6.058  0.00  0.00     0.255 C 
ATOM      9  N   UNL d   1      11.452   8.421  -5.967  0.00  0.00     0.144 N 
ATOM     10  C   UNL d   1      11.491   9.362  -7.076  0.00  0.00     0.255 C 
ATOM     11  C   UNL d   1      11.995   8.706  -8.362  0.00  0.00     0.061 C 
ENDROOT
BRANCH   1  12
ATOM     12  N   UNL d   1       8.311   5.411 -11.223  0.00  0.00    -0.158 NA
BRANCH  12  13
ATOM     13  S   UNL d   1       7.509   5.659 -12.698  0.00  0.00     0.287 S 
ATOM     14  O   UNL d   1       6.435   6.634 -12.452  0.00  0.00    -0.198 OA
ATOM     15  O   UNL d   1       8.568   5.874 -13.688  0.00  0.00    -0.198 OA
BRANCH  13  16
ATOM     16  C   UNL d   1       6.800   4.087 -13.019  0.00  0.00     0.124 A 
ATOM     17  C   UNL d   1       7.233   3.349 -14.129  0.00  0.00     0.113 A 
ATOM     18  N   UNL d   1       6.742   2.135 -14.449  0.00  0.00    -0.232 NA
ATOM     19  C   UNL d   1       5.819   1.588 -13.620  0.00  0.00     0.120 A 
ATOM     20  C   UNL d   1       5.354   2.269 -12.469  0.00  0.00     0.032 A 
ATOM     21  C   UNL d   1       5.851   3.547 -12.153  0.00  0.00     0.017 A 
BRANCH  19  22
ATOM     22  N   UNL d   1       5.315   0.307 -13.906  0.00  0.00    -0.233 NA
ATOM     23  C   UNL d   1       3.886   0.274 -14.202  0.00  0.00     0.110 C 
ATOM     24  C   UNL d   1       3.336  -1.132 -14.283  0.00  0.00     0.160 C 
ATOM     25  O   UNL d   1       4.084  -1.814 -15.254  0.00  0.00    -0.351 OA
ATOM     26  C   UNL d   1       5.457  -1.895 -14.904  0.00  0.00     0.160 C 
ATOM     27  C   UNL d   1       6.062  -0.494 -14.870  0.00  0.00     0.110 C 
ENDBRANCH  19  22
ENDBRANCH  13  16
ENDBRANCH  12  13
ENDBRANCH   1  12
BRANCH   9  28
ATOM     28  C   UNL d   1      11.360   9.164  -4.724  0.00  0.00     0.297 C 
BRANCH  28  29
ATOM     29  C   UNL d   1      11.825   8.357  -3.577  0.00  0.00     0.116 A 
ATOM     30  N   UNL d   1      12.272   8.979  -2.440  0.00  0.00    -0.150 NA
ATOM     31  N   UNL d   1      12.657   8.104  -1.508  0.00  0.00    -0.147 NA
ATOM     32  C   UNL d   1      12.426   6.920  -2.040  0.00  0.00     0.123 A 
ATOM     33  C   UNL d   1      11.905   7.003  -3.349  0.00  0.00     0.041 A 
ENDBRANCH  28  29
ENDBRANCH   9  28
TORSDOF 6
