REMARK  4 active torsions:
REMARK  status: ('A' for Active; 'I' for Inactive)
REMARK    1  A    between atoms: C_8  and  N_9 
REMARK    2  A    between atoms: N_9  and  C_10 
REMARK    3  A    between atoms: C_10  and  C_11 
REMARK    4  A    between atoms: C_11  and  N_12 
ROOT
ATOM      1  C   UNL d   1       6.304   6.207 -12.307  0.00  0.00     0.031 C 
ATOM      2  C   UNL d   1       7.300   5.198 -12.837  0.00  0.00    -0.022 A 
ATOM      3  C   UNL d   1       8.683   5.448 -12.751  0.00  0.00    -0.003 A 
ATOM      4  C   UNL d   1       9.597   4.513 -13.274  0.00  0.00     0.019 A 
ATOM      5  C   UNL d   1       9.138   3.344 -13.908  0.00  0.00     0.086 A 
ATOM      6  C   UNL d   1       7.749   3.073 -13.990  0.00  0.00     0.053 A 
ATOM      7  C   UNL d   1       6.839   4.015 -13.444  0.00  0.00     0.000 A 
ATOM      8  C   UNL d   1       7.194   1.768 -14.513  0.00  0.00     0.160 C 
ATOM      9  N   UNL d   1       7.695   1.053 -15.467  0.00  0.00    -0.224 NA
ATOM     10  C   UNL d   1       8.831   1.408 -16.222  0.00  0.00     0.119 A 
ATOM     11  C   UNL d   1       8.807   0.973 -17.561  0.00  0.00     0.024 A 
ATOM     12  C   UNL d   1       9.944   1.152 -18.361  0.00  0.00     0.022 A 
ATOM     13  C   UNL d   1      11.083   1.730 -17.778  0.00  0.00     0.101 A 
ATOM     14  N   UNL d   1      11.126   2.144 -16.490  0.00  0.00    -0.224 NA
ATOM     15  C   UNL d   1      10.019   2.000 -15.735  0.00  0.00     0.180 A 
ATOM     16  N   UNL d   1      10.115   2.509 -14.449  0.00  0.00    -0.225 NA
ENDROOT
BRANCH   8  17
ATOM     17  N   UNL d   1       6.095   1.276 -13.825  0.00  0.00    -0.251 NA
BRANCH  17  18
ATOM     18  C   UNL d   1       5.829  -0.145 -13.556  0.00  0.00     0.163 C 
BRANCH  18  19
ATOM     19  C   UNL d   1       5.470  -0.989 -14.810  0.00  0.00     0.277 C 
BRANCH  19  20
ATOM     20  N   UNL d   1       4.227  -0.533 -15.428  0.00  0.00     0.143 N 
ATOM     21  C   UNL d   1       4.072  -1.242 -16.687  0.00  0.00     0.286 C 
ATOM     22  C   UNL d   1       3.058  -0.783 -14.598  0.00  0.00     0.286 C 
ENDBRANCH  19  20
ENDBRANCH  18  19
ENDBRANCH  17  18
ENDBRANCH   8  17
TORSDOF 4
