REMARK  4 active torsions:
REMARK  status: ('A' for Active; 'I' for Inactive)
REMARK    1  A    between atoms: C_5  and  N_6 
REMARK    2  A    between atoms: N_9  and  C_10 
REMARK    3  A    between atoms: C_10  and  C_12 
REMARK    4  A    between atoms: C_14  and  C_16 
ROOT
ATOM      1  N   UNL d   1      11.067   8.077  -7.498  0.00  0.00    -0.344 N 
ATOM      2  C   UNL d   1      11.507   6.945  -8.255  0.00  0.00     0.137 C 
ATOM      3  C   UNL d   1      10.376   6.442  -9.112  0.00  0.00     0.274 C 
ATOM      4  N   UNL d   1       9.964   7.518 -10.047  0.00  0.00     0.139 N 
ATOM      5  C   UNL d   1       9.451   8.592  -9.189  0.00  0.00     0.274 C 
ATOM      6  C   UNL d   1      10.549   9.154  -8.314  0.00  0.00     0.137 C 
ENDROOT
BRANCH   4   7
ATOM      7  C   UNL d   1       8.891   7.022 -10.919  0.00  0.00     0.220 C 
ATOM      8  C   UNL d   1       8.523   8.091 -12.017  0.00  0.00     0.035 C 
BRANCH   7   9
ATOM      9  C   UNL d   1       9.265   5.739 -11.586  0.00  0.00     0.035 A 
ATOM     10  C   UNL d   1       8.180   4.865 -12.266  0.00  0.00     0.021 A 
ATOM     11  C   UNL d   1       8.906   4.410 -11.006  0.00  0.00     0.006 A 
ATOM     12  C   UNL d   1       6.685   5.179 -12.132  0.00  0.00     0.004 C 
BRANCH  10  13
ATOM     13  C   UNL d   1       8.528   4.206 -13.574  0.00  0.00    -0.023 A 
ATOM     14  C   UNL d   1       7.800   3.085 -14.045  0.00  0.00    -0.004 A 
ATOM     15  C   UNL d   1       8.161   2.461 -15.252  0.00  0.00    -0.000 A 
ATOM     16  C   UNL d   1       9.245   2.945 -16.005  0.00  0.00    -0.000 A 
ATOM     17  C   UNL d   1       9.975   4.056 -15.542  0.00  0.00    -0.000 A 
ATOM     18  C   UNL d   1       9.610   4.685 -14.343  0.00  0.00    -0.004 A 
ENDBRANCH  10  13
ENDBRANCH   7   9
ENDBRANCH   4   7
BRANCH   1  19
ATOM     19  C   UNL d   1      11.341   8.175  -6.115  0.00  0.00     0.052 A 
ATOM     20  C   UNL d   1      11.165   7.019  -5.325  0.00  0.00     0.016 A 
ATOM     21  C   UNL d   1      11.483   7.025  -3.947  0.00  0.00    -0.003 A 
ATOM     22  C   UNL d   1      11.940   8.230  -3.353  0.00  0.00    -0.022 A 
ATOM     23  C   UNL d   1      12.171   8.328  -1.886  0.00  0.00     0.031 C 
ATOM     24  C   UNL d   1      12.135   9.363  -4.141  0.00  0.00    -0.007 A 
ATOM     25  C   UNL d   1      11.851   9.353  -5.521  0.00  0.00    -0.007 A 
ATOM     26  C   UNL d   1      12.329  10.483  -6.382  0.00  0.00     0.033 C 
ENDBRANCH   1  19
TORSDOF 4
