REMARK  7 active torsions:
REMARK  status: ('A' for Active; 'I' for Inactive)
REMARK    1  A    between atoms: O_2  and  C_3 
REMARK    2  A    between atoms: C_9  and  C_10 
REMARK    3  A    between atoms: C_12  and  N_13 
REMARK       I    between atoms: N_13  and  C_14 
REMARK    4  A    between atoms: C_14  and  C_16 
REMARK    5  A    between atoms: C_16  and  C_17 
REMARK    6  A    between atoms: N_27  and  S_28 
REMARK    7  A    between atoms: S_28  and  C_31 
ROOT
ATOM      1  C   UNL d   1      10.923   2.996 -16.941  0.00  0.00     0.094 A 
ATOM      2  C   UNL d   1      11.329   4.202 -16.321  0.00  0.00     0.026 A 
ATOM      3  C   UNL d   1      10.586   4.761 -15.292  0.00  0.00     0.020 A 
ATOM      4  C   UNL d   1       9.403   4.143 -14.841  0.00  0.00     0.075 A 
ATOM      5  C   UNL d   1       8.941   2.923 -15.428  0.00  0.00     0.022 A 
ATOM      6  C   UNL d   1       9.732   2.377 -16.485  0.00  0.00     0.026 A 
ATOM      7  C   UNL d   1       7.712   2.563 -14.755  0.00  0.00     0.039 A 
ATOM      8  C   UNL d   1       7.471   3.543 -13.825  0.00  0.00     0.093 A 
ATOM      9  N   UNL d   1       8.480   4.483 -13.854  0.00  0.00    -0.231 N 
ENDROOT
BRANCH   7  10
ATOM     10  C   UNL d   1       6.892   1.395 -15.046  0.00  0.00     0.115 A 
ATOM     11  C   UNL d   1       5.917   0.767 -14.294  0.00  0.00     0.096 A 
ATOM     12  N   UNL d   1       5.457  -0.292 -15.057  0.00  0.00    -0.062 NA
ATOM     13  C   UNL d   1       5.387   1.045 -12.934  0.00  0.00     0.054 C 
ATOM     14  C   UNL d   1       6.106  -0.231 -16.219  0.00  0.00     0.752 A 
ATOM     15  N   UNL d   1       6.978   0.765 -16.283  0.00  0.00    -0.058 NA
BRANCH  14  16
ATOM     16  N   UNL d   1       5.827  -1.166 -17.239  0.00  0.00    -0.023 NA
ATOM     17  C   UNL d   1       6.407  -1.276 -18.448  0.00  0.00     0.277 C 
ATOM     18  O   UNL d   1       7.279  -0.522 -18.878  0.00  0.00    -0.269 OA
BRANCH  17  19
ATOM     19  C   UNL d   1       5.907  -2.423 -19.332  0.00  0.00     0.117 C 
BRANCH  19  20
ATOM     20  C   UNL d   1       6.189  -3.781 -18.707  0.00  0.00    -0.013 A 
ATOM     21  C   UNL d   1       7.207  -4.604 -19.229  0.00  0.00    -0.004 A 
ATOM     22  C   UNL d   1       7.470  -5.855 -18.637  0.00  0.00    -0.000 A 
ATOM     23  C   UNL d   1       6.725  -6.290 -17.523  0.00  0.00    -0.000 A 
ATOM     24  C   UNL d   1       5.706  -5.475 -17.003  0.00  0.00    -0.000 A 
ATOM     25  C   UNL d   1       5.435  -4.235 -17.604  0.00  0.00    -0.004 A 
ENDBRANCH  19  20
ENDBRANCH  17  19
ENDBRANCH  14  16
ENDBRANCH   7  10
BRANCH   9  26
ATOM     26  S   UNL d   1       8.548   5.816 -12.756  0.00  0.00     0.271 S 
ATOM     27  O   UNL d   1       9.847   6.415 -12.964  0.00  0.00    -0.200 OA
ATOM     28  O   UNL d   1       7.296   6.555 -12.864  0.00  0.00    -0.200 OA
BRANCH  26  29
ATOM     29  C   UNL d   1       8.721   5.151 -11.198  0.00  0.00     0.104 C 
ATOM     30  C   UNL d   1       9.731   4.304 -10.929  0.00  0.00     0.013 C 
ATOM     31  C   UNL d   1       9.881   3.864  -9.587  0.00  0.00     0.001 C 
ATOM     32  C   UNL d   1       9.065   4.277  -8.551  0.00  0.00     0.000 C 
ATOM     33  C   UNL d   1       8.242   5.316  -8.822  0.00  0.00     0.001 C 
ATOM     34  C   UNL d   1       8.004   5.671 -10.159  0.00  0.00     0.013 C 
ENDBRANCH  26  29
ENDBRANCH   9  26
BRANCH   1  35
ATOM     35  O   UNL d   1      11.643   2.402 -17.965  0.00  0.00    -0.328 OA
ATOM     36  C   UNL d   1      12.876   3.026 -18.336  0.00  0.00     0.181 C 
ENDBRANCH   1  35
TORSDOF 7
