REMARK  4 active torsions:
REMARK  status: ('A' for Active; 'I' for Inactive)
REMARK    1  A    between atoms: C_9  and  C_10 
REMARK    2  A    between atoms: C_10  and  N_11 
REMARK    3  A    between atoms: N_11  and  C_12 
REMARK    4  A    between atoms: C_12  and  C_13 
ROOT
ATOM      1  O   UNL d   1      12.080   7.847  -2.740  0.00  0.00    -0.190 OA
ATOM      2  C   UNL d   1      11.879   8.090  -4.066  0.00  0.00     0.133 A 
ATOM      3  C   UNL d   1      12.454   9.225  -4.665  0.00  0.00     0.027 A 
ATOM      4  C   UNL d   1      12.214   9.509  -6.022  0.00  0.00    -0.000 A 
ATOM      5  C   UNL d   1      11.436   8.631  -6.798  0.00  0.00     0.000 A 
ATOM      6  C   UNL d   1      10.861   7.475  -6.203  0.00  0.00     0.092 A 
ATOM      7  C   UNL d   1      11.094   7.212  -4.844  0.00  0.00     0.051 A 
ATOM      8  O   UNL d   1      10.044   6.614  -6.903  0.00  0.00    -0.331 OA
ATOM      9  C   UNL d   1      10.094   6.676  -8.323  0.00  0.00     0.158 C 
ATOM     10  C   UNL d   1      10.027   8.133  -8.818  0.00  0.00     0.037 C 
ATOM     11  C   UNL d   1      11.209   8.928  -8.265  0.00  0.00     0.031 C 
ENDROOT
BRANCH   9  12
ATOM     12  C   UNL d   1       8.938   5.825  -8.868  0.00  0.00     0.320 C 
BRANCH  12  13
ATOM     13  N   UNL d   1       9.120   5.667 -10.296  0.00  0.00     0.346 N 
BRANCH  13  14
ATOM     14  C   UNL d   1       7.923   5.161 -10.939  0.00  0.00     0.317 C 
BRANCH  14  15
ATOM     15  C   UNL d   1       8.190   4.521 -12.294  0.00  0.00     0.014 A 
ATOM     16  C   UNL d   1       9.475   4.532 -12.893  0.00  0.00    -0.002 A 
ATOM     17  C   UNL d   1       9.704   3.865 -14.103  0.00  0.00     0.005 A 
ATOM     18  C   UNL d   1       8.652   3.181 -14.741  0.00  0.00     0.030 A 
ATOM     19  C   UNL d   1       7.372   3.164 -14.153  0.00  0.00     0.005 A 
ATOM     20  I   UNL d   1       8.996   2.233 -16.570  0.00  0.00    -0.043 I 
ATOM     21  C   UNL d   1       7.132   3.853 -12.946  0.00  0.00    -0.002 A 
ENDBRANCH  14  15
ENDBRANCH  13  14
ENDBRANCH  12  13
ENDBRANCH   9  12
TORSDOF 4
