REMARK  11 active torsions:
REMARK  status: ('A' for Active; 'I' for Inactive)
REMARK    1  A    between atoms: O_2  and  C_3 
REMARK    2  A    between atoms: C_8  and  N_9 
REMARK    3  A    between atoms: N_12  and  C_13 
REMARK    4  A    between atoms: C_13  and  C_14 
REMARK    5  A    between atoms: C_14  and  C_15 
REMARK    6  A    between atoms: C_15  and  C_16 
REMARK    7  A    between atoms: C_16  and  N_17 
REMARK       I    between atoms: N_17  and  C_18 
REMARK    8  A    between atoms: C_18  and  C_20 
REMARK    9  A    between atoms: C_23  and  O_24 
REMARK   10  A    between atoms: O_24  and  C_25 
REMARK   11  A    between atoms: C_25  and  C_26 
ROOT
ATOM      1  C   UNL d   1       8.446   4.091 -14.029  0.00  0.00     0.037 C 
ENDROOT
BRANCH   1   2
ATOM      2  C   UNL d   1       8.694   2.603 -14.354  0.00  0.00     0.251 C 
BRANCH   2   3
ATOM      3  N   UNL d   1       7.594   2.038 -15.140  0.00  0.00     0.141 N 
ATOM      4  C   UNL d   1       7.242   0.702 -14.639  0.00  0.00     0.274 C 
ATOM      5  C   UNL d   1       6.057   0.102 -15.425  0.00  0.00     0.137 C 
ATOM      6  N   UNL d   1       6.357   0.092 -16.849  0.00  0.00    -0.343 N 
ATOM      7  C   UNL d   1       6.822   1.359 -17.397  0.00  0.00     0.137 C 
ATOM      8  C   UNL d   1       7.986   1.920 -16.550  0.00  0.00     0.274 C 
BRANCH   6   9
ATOM      9  C   UNL d   1       6.299  -1.093 -17.609  0.00  0.00     0.079 A 
ATOM     10  C   UNL d   1       7.358  -1.466 -18.479  0.00  0.00     0.110 A 
ATOM     11  C   UNL d   1       7.237  -2.654 -19.242  0.00  0.00     0.026 A 
ATOM     12  C   UNL d   1       6.100  -3.474 -19.128  0.00  0.00     0.002 A 
ATOM     13  C   UNL d   1       5.069  -3.118 -18.243  0.00  0.00     0.002 A 
ATOM     14  C   UNL d   1       5.169  -1.936 -17.486  0.00  0.00     0.019 A 
BRANCH  10  15
ATOM     15  O   UNL d   1       8.479  -0.657 -18.517  0.00  0.00    -0.327 OA
ATOM     16  C   UNL d   1       9.602  -1.070 -19.273  0.00  0.00     0.181 C 
ENDBRANCH  10  15
ENDBRANCH   6   9
ENDBRANCH   2   3
ENDBRANCH   1   2
BRANCH   1  17
ATOM     17  C   UNL d   1       9.146   4.515 -12.723  0.00  0.00     0.029 C 
BRANCH  17  18
ATOM     18  C   UNL d   1       8.755   5.920 -12.242  0.00  0.00     0.129 C 
BRANCH  18  19
ATOM     19  N   UNL d   1       9.333   6.205 -10.929  0.00  0.00    -0.234 NA
ATOM     20  C   UNL d   1       9.771   7.406 -10.524  0.00  0.00     0.275 C 
ATOM     21  O   UNL d   1       9.848   8.390 -11.261  0.00  0.00    -0.266 OA
BRANCH  20  22
ATOM     22  C   UNL d   1      10.209   7.504  -9.098  0.00  0.00     0.058 A 
ATOM     23  C   UNL d   1       9.515   6.830  -8.068  0.00  0.00     0.007 A 
ATOM     24  C   UNL d   1       9.925   6.976  -6.727  0.00  0.00     0.024 A 
ATOM     25  C   UNL d   1      11.005   7.823  -6.397  0.00  0.00     0.094 A 
ATOM     26  C   UNL d   1      11.699   8.488  -7.435  0.00  0.00     0.024 A 
ATOM     27  C   UNL d   1      11.293   8.341  -8.770  0.00  0.00     0.007 A 
BRANCH  25  28
ATOM     28  O   UNL d   1      11.322   7.966  -5.066  0.00  0.00    -0.328 OA
BRANCH  28  29
ATOM     29  C   UNL d   1      11.961   9.184  -4.698  0.00  0.00     0.187 C 
BRANCH  29  30
ATOM     30  C   UNL d   1      11.898   9.341  -3.179  0.00  0.00     0.226 C 
ATOM     31  F   UNL d   1      12.662   8.430  -2.578  0.00  0.00    -0.232 F 
ENDBRANCH  29  30
ENDBRANCH  28  29
ENDBRANCH  25  28
ENDBRANCH  20  22
ENDBRANCH  18  19
ENDBRANCH  17  18
ENDBRANCH   1  17
TORSDOF 11
