REMARK  1 active torsions:
REMARK  status: ('A' for Active; 'I' for Inactive)
REMARK    1  A    between atoms: N_5  and  C_6 
ROOT
ATOM      1  C   UNL d   1      10.893   8.717  -7.895  0.00  0.00     0.081 A 
ATOM      2  C   UNL d   1      11.349   9.111  -9.158  0.00  0.00     0.021 A 
ATOM      3  C   UNL d   1      10.988   8.422 -10.326  0.00  0.00     0.031 A 
ATOM      4  C   UNL d   1      10.082   7.365 -10.259  0.00  0.00     0.155 A 
ATOM      5  O   UNL d   1       9.664   6.739 -11.405  0.00  0.00    -0.188 OA
ATOM      6  C   UNL d   1       9.576   6.963  -9.026  0.00  0.00     0.143 A 
ATOM      7  C   UNL d   1      10.004   7.629  -7.820  0.00  0.00     0.134 A 
ATOM      8  O   UNL d   1       9.536   7.229  -6.592  0.00  0.00    -0.325 OA
ATOM      9  C   UNL d   1       8.374   6.436  -6.665  0.00  0.00     0.182 C 
ATOM     10  C   UNL d   1       8.559   5.367  -7.751  0.00  0.00     0.182 C 
ATOM     11  O   UNL d   1       8.669   5.946  -9.021  0.00  0.00    -0.324 OA
ENDROOT
BRANCH   1  12
ATOM     12  N   UNL d   1      11.270   9.458  -6.761  0.00  0.00    -0.343 N 
ATOM     13  C   UNL d   1      12.652   9.648  -6.368  0.00  0.00     0.137 C 
ATOM     14  C   UNL d   1      12.893   9.173  -4.920  0.00  0.00     0.274 C 
ATOM     15  N   UNL d   1      11.971   9.761  -3.971  0.00  0.00     0.143 N 
ATOM     16  C   UNL d   1      12.205   9.242  -2.630  0.00  0.00     0.286 C 
ATOM     17  C   UNL d   1      10.661   9.380  -4.407  0.00  0.00     0.274 C 
ATOM     18  C   UNL d   1      10.325   9.937  -5.786  0.00  0.00     0.137 C 
ENDBRANCH   1  12
TORSDOF 1
