REMARK  5 active torsions:
REMARK  status: ('A' for Active; 'I' for Inactive)
REMARK       I    between atoms: N_2  and  C_4 
REMARK       I    between atoms: C_4  and  N_6 
REMARK    1  A    between atoms: N_6  and  C_7 
REMARK    2  A    between atoms: C_10  and  C_11 
REMARK    3  A    between atoms: C_11  and  C_12 
REMARK    4  A    between atoms: C_12  and  N_13 
REMARK    5  A    between atoms: N_16  and  C_17 
ROOT
ATOM      1  N   UNL d   1       8.002   5.025 -11.989  0.00  0.00     0.141 N 
ATOM      2  C   UNL d   1       6.700   4.353 -11.904  0.00  0.00     0.274 C 
ATOM      3  C   UNL d   1       6.188   3.986 -13.304  0.00  0.00     0.138 C 
ATOM      4  N   UNL d   1       7.184   3.203 -14.039  0.00  0.00    -0.329 N 
ATOM      5  C   UNL d   1       8.519   3.794 -14.036  0.00  0.00     0.138 C 
ATOM      6  C   UNL d   1       8.967   4.122 -12.616  0.00  0.00     0.274 C 
ENDROOT
BRANCH   1   7
ATOM      7  C   UNL d   1       8.424   5.381 -10.636  0.00  0.00     0.250 C 
BRANCH   7   8
ATOM      8  C   UNL d   1       9.573   6.409 -10.637  0.00  0.00     0.035 C 
BRANCH   8   9
ATOM      9  C   UNL d   1      10.139   6.701  -9.243  0.00  0.00     0.002 C 
ATOM     10  C   UNL d   1      11.349   7.655  -9.312  0.00  0.00     0.002 C 
ATOM     11  C   UNL d   1      11.893   7.943  -7.906  0.00  0.00     0.025 C 
ATOM     12  C   UNL d   1      10.799   8.483  -6.965  0.00  0.00     0.108 C 
ATOM     13  C   UNL d   1       9.538   7.601  -6.941  0.00  0.00     0.025 C 
ATOM     14  C   UNL d   1       9.059   7.313  -8.343  0.00  0.00     0.002 C 
BRANCH  12  15
ATOM     15  N   UNL d   1      11.292   8.696  -5.611  0.00  0.00    -0.221 NA
ATOM     16  C   UNL d   1      11.656   7.784  -4.693  0.00  0.00     0.342 C 
ATOM     17  N   UNL d   1      11.970   8.315  -3.498  0.00  0.00    -0.297 N 
ATOM     18  O   UNL d   1      11.770   6.581  -4.923  0.00  0.00    -0.245 OA
ATOM     19  C   UNL d   1      11.697   9.687  -3.096  0.00  0.00     0.130 C 
ATOM     20  C   UNL d   1      12.437   7.423  -2.450  0.00  0.00     0.130 C 
ENDBRANCH  12  15
ENDBRANCH   8   9
ENDBRANCH   7   8
ENDBRANCH   1   7
BRANCH   4  21
ATOM     21  C   UNL d   1       6.900   1.952 -14.614  0.00  0.00     0.148 A 
ATOM     22  C   UNL d   1       7.493   1.517 -15.881  0.00  0.00     0.042 A 
ATOM     23  C   UNL d   1       6.954   0.245 -16.236  0.00  0.00     0.050 A 
ATOM     24  C   UNL d   1       8.411   2.097 -16.796  0.00  0.00     0.004 A 
ATOM     25  S   UNL d   1       5.829  -0.237 -14.977  0.00  0.00     0.015 SA
ATOM     26  C   UNL d   1       7.327  -0.416 -17.418  0.00  0.00     0.008 A 
ATOM     27  N   UNL d   1       6.016   1.145 -14.056  0.00  0.00    -0.192 NA
ATOM     28  C   UNL d   1       8.263   0.178 -18.286  0.00  0.00     0.001 A 
ATOM     29  C   UNL d   1       8.803   1.436 -17.970  0.00  0.00     0.000 A 
ENDBRANCH   4  21
TORSDOF 5
