REMARK  5 active torsions:
REMARK  status: ('A' for Active; 'I' for Inactive)
REMARK       I    between atoms: C_2  and  N_4 
REMARK    1  A    between atoms: N_4  and  C_5 
REMARK    2  A    between atoms: C_10  and  C_11 
REMARK    3  A    between atoms: C_11  and  C_12 
REMARK    4  A    between atoms: C_12  and  N_13 
REMARK    5  A    between atoms: N_16  and  C_17 
ROOT
ATOM      1  N   UNL d   1       9.075   5.888 -11.457  0.00  0.00     0.141 N 
ATOM      2  C   UNL d   1       9.837   5.271 -12.552  0.00  0.00     0.274 C 
ATOM      3  C   UNL d   1       8.924   5.068 -13.776  0.00  0.00     0.138 C 
ATOM      4  N   UNL d   1       7.887   4.122 -13.418  0.00  0.00    -0.329 N 
ATOM      5  C   UNL d   1       7.107   4.582 -12.251  0.00  0.00     0.138 C 
ATOM      6  C   UNL d   1       8.047   4.918 -11.064  0.00  0.00     0.274 C 
ENDROOT
BRANCH   1   7
ATOM      7  C   UNL d   1       9.952   6.212 -10.328  0.00  0.00     0.255 C 
BRANCH   7   8
ATOM      8  C   UNL d   1       9.251   7.177  -9.350  0.00  0.00     0.062 C 
BRANCH   8   9
ATOM      9  C   UNL d   1      10.052   7.456  -8.096  0.00  0.00    -0.021 A 
ATOM     10  C   UNL d   1      10.711   8.688  -7.881  0.00  0.00    -0.009 A 
ATOM     11  C   UNL d   1      11.372   8.875  -6.657  0.00  0.00    -0.025 A 
ATOM     12  C   UNL d   1      12.136  10.077  -6.213  0.00  0.00     0.028 C 
ATOM     13  C   UNL d   1      11.401   7.905  -5.672  0.00  0.00    -0.004 A 
ATOM     14  C   UNL d   1      12.495   9.791  -4.749  0.00  0.00     0.034 C 
ATOM     15  C   UNL d   1      12.210   8.326  -4.460  0.00  0.00     0.129 C 
ATOM     16  C   UNL d   1      10.743   6.691  -5.875  0.00  0.00    -0.003 A 
ATOM     17  C   UNL d   1      10.074   6.469  -7.093  0.00  0.00    -0.004 A 
BRANCH  15  18
ATOM     18  N   UNL d   1      11.552   8.169  -3.187  0.00  0.00    -0.235 NA
ATOM     19  C   UNL d   1      11.529   7.019  -2.483  0.00  0.00     0.252 C 
ATOM     20  C   UNL d   1      12.604   5.997  -2.703  0.00  0.00     0.100 C 
ATOM     21  O   UNL d   1      10.663   6.798  -1.684  0.00  0.00    -0.271 OA
ENDBRANCH  15  18
ENDBRANCH   8   9
ENDBRANCH   7   8
ENDBRANCH   1   7
BRANCH   4  22
ATOM     22  C   UNL d   1       7.675   2.889 -14.058  0.00  0.00     0.148 A 
ATOM     23  C   UNL d   1       8.717   2.135 -14.770  0.00  0.00     0.042 A 
ATOM     24  C   UNL d   1       8.118   0.959 -15.345  0.00  0.00     0.050 A 
ATOM     25  C   UNL d   1      10.111   2.292 -15.000  0.00  0.00     0.004 A 
ATOM     26  S   UNL d   1       6.445   0.887 -14.842  0.00  0.00     0.015 SA
ATOM     27  C   UNL d   1       8.845   0.056 -16.141  0.00  0.00     0.008 A 
ATOM     28  N   UNL d   1       6.463   2.358 -14.044  0.00  0.00    -0.192 NA
ATOM     29  C   UNL d   1      10.207   0.275 -16.396  0.00  0.00     0.001 A 
ATOM     30  C   UNL d   1      10.831   1.406 -15.827  0.00  0.00     0.000 A 
ENDBRANCH   4  22
TORSDOF 5
