REMARK  6 active torsions:
REMARK  status: ('A' for Active; 'I' for Inactive)
REMARK    1  A    between atoms: N_5  and  C_6 
REMARK    2  A    between atoms: N_15  and  C_16 
REMARK    3  A    between atoms: C_16  and  C_17 
REMARK    4  A    between atoms: C_17  and  C_18 
REMARK    5  A    between atoms: C_18  and  C_19 
REMARK    6  A    between atoms: C_19  and  C_20 
ROOT
ATOM      1  O   UNL d   1      10.437   1.542 -15.191  0.00  0.00    -0.269 OA
ATOM      2  C   UNL d   1      10.945   2.193 -16.101  0.00  0.00     0.271 A 
ATOM      3  N   UNL d   1      11.425   1.663 -17.221  0.00  0.00    -0.211 NA
ATOM      4  C   UNL d   1      11.964   2.662 -18.128  0.00  0.00     0.234 A 
ATOM      5  N   UNL d   1      11.815   3.929 -17.407  0.00  0.00    -0.323 N 
ATOM      6  C   UNL d   1      11.143   3.711 -16.118  0.00  0.00     0.142 A 
ATOM      7  C   UNL d   1       9.786   4.449 -16.038  0.00  0.00     0.065 C 
ATOM      8  C   UNL d   1       9.170   4.421 -14.624  0.00  0.00     0.253 C 
ATOM      9  N   UNL d   1      10.115   4.963 -13.640  0.00  0.00     0.137 N 
ATOM     10  C   UNL d   1      11.312   4.125 -13.599  0.00  0.00     0.253 C 
ATOM     11  C   UNL d   1      12.031   4.178 -14.938  0.00  0.00     0.065 C 
ENDROOT
BRANCH   9  12
ATOM     12  C   UNL d   1       9.493   4.951 -12.318  0.00  0.00     0.250 C 
BRANCH  12  13
ATOM     13  C   UNL d   1       8.890   6.320 -11.961  0.00  0.00     0.036 C 
BRANCH  13  14
ATOM     14  C   UNL d   1       9.572   6.956 -10.740  0.00  0.00     0.009 C 
BRANCH  14  15
ATOM     15  C   UNL d   1       9.116   6.343  -9.404  0.00  0.00     0.053 C 
BRANCH  15  16
ATOM     16  C   UNL d   1       9.701   7.038  -8.219  0.00  0.00     0.088 A 
ATOM     17  S   UNL d   1       9.597   8.790  -8.011  0.00  0.00    -0.071 SA
ATOM     18  C   UNL d   1      10.483   8.633  -6.502  0.00  0.00     0.048 A 
ATOM     19  C   UNL d   1      10.770   7.260  -6.257  0.00  0.00     0.087 A 
ATOM     20  C   UNL d   1      10.891   9.636  -5.603  0.00  0.00     0.008 A 
ATOM     21  N   UNL d   1      10.342   6.381  -7.246  0.00  0.00    -0.243 NA
ATOM     22  C   UNL d   1      11.459   6.931  -5.071  0.00  0.00     0.020 A 
ATOM     23  C   UNL d   1      11.862   7.929  -4.158  0.00  0.00     0.002 A 
ATOM     24  C   UNL d   1      11.575   9.281  -4.428  0.00  0.00     0.001 A 
ENDBRANCH  15  16
ENDBRANCH  14  15
ENDBRANCH  13  14
ENDBRANCH  12  13
ENDBRANCH   9  12
BRANCH   5  25
ATOM     25  C   UNL d   1      12.815   4.921 -17.504  0.00  0.00     0.058 A 
ATOM     26  C   UNL d   1      12.415   6.273 -17.518  0.00  0.00     0.017 A 
ATOM     27  C   UNL d   1      13.369   7.300 -17.544  0.00  0.00     0.002 A 
ATOM     28  C   UNL d   1      14.737   6.989 -17.561  0.00  0.00     0.000 A 
ATOM     29  C   UNL d   1      15.152   5.646 -17.524  0.00  0.00     0.002 A 
ATOM     30  C   UNL d   1      14.198   4.611 -17.492  0.00  0.00     0.017 A 
ENDBRANCH   5  25
TORSDOF 6
