REMARK  8 active torsions:
REMARK  status: ('A' for Active; 'I' for Inactive)
REMARK    1  A    between atoms: C_6  and  C_7 
REMARK    2  A    between atoms: C_10  and  S_11 
REMARK    3  A    between atoms: S_11  and  C_12 
REMARK    4  A    between atoms: C_12  and  C_13 
REMARK    5  A    between atoms: C_13  and  C_14 
REMARK    6  A    between atoms: C_14  and  C_15 
REMARK    7  A    between atoms: C_15  and  N_16 
REMARK    8  A    between atoms: N_29  and  C_30 
ROOT
ATOM      1  C   UNL d   1      10.147   3.990 -20.768  0.00  0.00     0.014 C 
ENDROOT
BRANCH   1   2
ATOM      2  C   UNL d   1      11.513   4.349 -21.384  0.00  0.00     0.065 C 
BRANCH   2   3
ATOM      3  S   UNL d   1      12.564   5.406 -20.311  0.00  0.00    -0.076 SA
BRANCH   3   4
ATOM      4  C   UNL d   1      12.362   4.644 -18.722  0.00  0.00     0.193 A 
ATOM      5  N   UNL d   1      13.229   3.795 -18.181  0.00  0.00    -0.122 NA
ATOM      6  N   UNL d   1      12.664   3.396 -16.985  0.00  0.00    -0.128 NA
ATOM      7  C   UNL d   1      11.513   4.063 -16.908  0.00  0.00     0.167 A 
ATOM      8  N   UNL d   1      11.253   4.867 -17.965  0.00  0.00    -0.289 N 
ATOM      9  C   UNL d   1      10.085   5.764 -18.261  0.00  0.00     0.134 C 
BRANCH   7  10
ATOM     10  C   UNL d   1      10.588   3.911 -15.795  0.00  0.00     0.037 A 
ATOM     11  C   UNL d   1       9.579   2.895 -15.752  0.00  0.00     0.021 A 
ATOM     12  C   UNL d   1       9.426   1.964 -16.810  0.00  0.00     0.003 A 
ATOM     13  C   UNL d   1       8.705   2.799 -14.642  0.00  0.00     0.081 A 
ATOM     14  C   UNL d   1       8.433   0.972 -16.703  0.00  0.00     0.015 A 
ATOM     15  C   UNL d   1       7.628   0.947 -15.550  0.00  0.00     0.059 A 
ATOM     16  C   UNL d   1       6.551  -0.102 -15.374  0.00  0.00     0.052 C 
ATOM     17  N   UNL d   1       7.754   1.840 -14.549  0.00  0.00    -0.250 NA
ATOM     18  C   UNL d   1       8.836   3.737 -13.594  0.00  0.00     0.019 A 
ATOM     19  C   UNL d   1       9.801   4.758 -13.646  0.00  0.00     0.002 A 
ATOM     20  C   UNL d   1      10.664   4.845 -14.741  0.00  0.00     0.003 A 
ENDBRANCH   7  10
ENDBRANCH   3   4
ENDBRANCH   2   3
ENDBRANCH   1   2
BRANCH   1  21
ATOM     21  C   UNL d   1       9.386   2.860 -21.407  0.00  0.00     0.036 C 
BRANCH  21  22
ATOM     22  C   UNL d   1       8.206   2.411 -20.497  0.00  0.00     0.250 C 
BRANCH  22  23
ATOM     23  N   UNL d   1       7.590   1.185 -20.985  0.00  0.00     0.138 N 
ATOM     24  C   UNL d   1       8.474   0.041 -20.727  0.00  0.00     0.255 C 
ATOM     25  C   UNL d   1       8.098  -1.206 -21.534  0.00  0.00     0.061 C 
ATOM     26  C   UNL d   1       6.996  -2.022 -20.890  0.00  0.00    -0.024 A 
ATOM     27  C   UNL d   1       5.712  -1.458 -20.662  0.00  0.00    -0.024 A 
ATOM     28  C   UNL d   1       7.274  -3.360 -20.513  0.00  0.00    -0.000 A 
ATOM     29  C   UNL d   1       5.403  -0.027 -21.070  0.00  0.00     0.061 C 
ATOM     30  C   UNL d   1       4.691  -2.231 -20.053  0.00  0.00    -0.007 A 
ATOM     31  C   UNL d   1       6.276   1.023 -20.364  0.00  0.00     0.255 C 
ATOM     32  C   UNL d   1       4.999  -3.552 -19.686  0.00  0.00     0.004 A 
ATOM     33  C   UNL d   1       4.131  -4.591 -19.029  0.00  0.00     0.131 A 
ATOM     34  C   UNL d   1       6.239  -4.095 -19.906  0.00  0.00     0.053 A 
ATOM     35  N   UNL d   1       5.040  -5.753 -18.920  0.00  0.00    -0.314 N 
ATOM     36  C   UNL d   1       6.279  -5.497 -19.419  0.00  0.00     0.257 A 
ATOM     37  O   UNL d   1       7.244  -6.247 -19.489  0.00  0.00    -0.267 OA
BRANCH  35  38
ATOM     38  C   UNL d   1       4.595  -7.049 -18.394  0.00  0.00     0.085 C 
ATOM     39  C   UNL d   1       3.154  -7.372 -18.829  0.00  0.00     0.024 C 
ATOM     40  C   UNL d   1       4.766  -7.122 -16.869  0.00  0.00     0.024 C 
ENDBRANCH  35  38
ENDBRANCH  22  23
ENDBRANCH  21  22
ENDBRANCH   1  21
TORSDOF 8
