REMARK  4 active torsions:
REMARK  status: ('A' for Active; 'I' for Inactive)
REMARK    1  A    between atoms: C_3  and  C_4 
REMARK    2  A    between atoms: C_4  and  N_5 
REMARK    3  A    between atoms: C_8  and  C_9 
REMARK    4  A    between atoms: C_14  and  C_15 
ROOT
ATOM      1  N   UNL d   1       8.965   5.584 -12.094  0.00  0.00     0.145 N 
ATOM      2  C   UNL d   1       8.063   5.415 -13.233  0.00  0.00     0.251 C 
ATOM      3  C   UNL d   1       8.815   4.670 -14.341  0.00  0.00     0.040 C 
ATOM      4  C   UNL d   1       9.348   3.302 -13.903  0.00  0.00     0.026 C 
ATOM      5  C   UNL d   1      10.024   3.454 -12.556  0.00  0.00     0.040 C 
ATOM      6  C   UNL d   1       9.254   4.269 -11.542  0.00  0.00     0.251 C 
ENDROOT
BRANCH   1   7
ATOM      7  C   UNL d   1       8.264   6.364 -11.092  0.00  0.00     0.313 C 
BRANCH   7   8
ATOM      8  C   UNL d   1       9.131   6.752  -9.932  0.00  0.00     0.154 A 
ATOM      9  N   UNL d   1       9.919   7.841  -9.981  0.00  0.00    -0.312 N 
ATOM     10  C   UNL d   1      10.098   8.765 -11.079  0.00  0.00     0.132 C 
ATOM     11  C   UNL d   1      10.527   7.932  -8.734  0.00  0.00     0.079 A 
ATOM     12  C   UNL d   1       9.995   6.826  -8.015  0.00  0.00     0.099 A 
ATOM     13  C   UNL d   1      11.446   8.802  -8.166  0.00  0.00     0.019 A 
ATOM     14  N   UNL d   1       9.134   6.076  -8.777  0.00  0.00    -0.229 NA
ATOM     15  C   UNL d   1      10.437   6.675  -6.681  0.00  0.00     0.021 A 
ATOM     16  C   UNL d   1      11.354   7.543  -6.092  0.00  0.00     0.002 A 
ATOM     17  C   UNL d   1      11.868   8.624  -6.833  0.00  0.00     0.002 A 
ENDBRANCH   7   8
ENDBRANCH   1   7
BRANCH   4  18
ATOM     18  C   UNL d   1      10.277   2.694 -14.966  0.00  0.00    -0.018 A 
ATOM     19  C   UNL d   1      11.462   3.317 -15.503  0.00  0.00     0.068 A 
ATOM     20  C   UNL d   1      12.199   2.609 -16.468  0.00  0.00     0.004 A 
ATOM     21  C   UNL d   1      11.809   1.342 -16.935  0.00  0.00    -0.000 A 
ATOM     22  C   UNL d   1      10.655   0.733 -16.426  0.00  0.00    -0.000 A 
ATOM     23  C   UNL d   1       9.895   1.400 -15.450  0.00  0.00    -0.004 A 
BRANCH  19  24
ATOM     24  C   UNL d   1      12.066   4.697 -15.140  0.00  0.00     0.418 C 
ATOM     25  F   UNL d   1      13.280   4.863 -15.666  0.00  0.00    -0.166 F 
ATOM     26  F   UNL d   1      11.366   5.733 -15.621  0.00  0.00    -0.166 F 
ATOM     27  F   UNL d   1      12.284   4.789 -13.854  0.00  0.00    -0.166 F 
ENDBRANCH  19  24
ENDBRANCH   4  18
TORSDOF 4
