REMARK  5 active torsions:
REMARK  status: ('A' for Active; 'I' for Inactive)
REMARK    1  A    between atoms: C_2  and  C_3 
REMARK    2  A    between atoms: C_3  and  N_4 
REMARK    3  A    between atoms: N_4  and  C_5 
REMARK    4  A    between atoms: N_4  and  C_8 
REMARK    5  A    between atoms: C_5  and  C_6 
ROOT
ATOM      1  C   UNL d   1      10.671   7.674  -8.277  0.00  0.00     0.224 C 
ATOM      2  C   UNL d   1      10.172   7.202  -6.863  0.00  0.00     0.059 C 
ATOM      3  C   UNL d   1      11.027   7.586  -5.706  0.00  0.00    -0.022 A 
ATOM      4  C   UNL d   1      10.922   6.779  -4.563  0.00  0.00    -0.004 A 
ATOM      5  C   UNL d   1      11.607   7.081  -3.395  0.00  0.00     0.002 A 
ATOM      6  C   UNL d   1      12.436   8.205  -3.418  0.00  0.00     0.027 A 
ATOM      7  C   UNL d   1      12.575   8.970  -4.585  0.00  0.00     0.127 A 
ATOM      8  O   UNL d   1      13.507   9.907  -4.665  0.00  0.00    -0.191 OA
ATOM      9  C   UNL d   1      11.829   8.667  -5.764  0.00  0.00    -0.001 A 
ATOM     10  C   UNL d   1      12.069   9.420  -7.067  0.00  0.00     0.030 C 
ATOM     11  C   UNL d   1      10.981   9.178  -8.140  0.00  0.00     0.036 C 
ATOM     12  C   UNL d   1      11.399   9.809  -9.465  0.00  0.00     0.002 C 
ENDROOT
BRANCH   1  13
ATOM     13  N   UNL d   1       9.665   7.421  -9.337  0.00  0.00     0.135 N 
BRANCH  13  14
ATOM     14  C   UNL d   1       8.683   6.380  -9.013  0.00  0.00     0.250 C 
BRANCH  14  15
ATOM     15  C   UNL d   1       9.367   4.987  -8.884  0.00  0.00     0.035 C 
ATOM     16  C   UNL d   1       8.376   3.937  -8.535  0.00  0.00     0.002 C 
ENDBRANCH  14  15
ENDBRANCH  13  14
BRANCH  13  17
ATOM     17  C   UNL d   1      10.236   7.185 -10.677  0.00  0.00     0.250 C 
BRANCH  17  18
ATOM     18  C   UNL d   1       9.199   7.255 -11.813  0.00  0.00     0.035 C 
ATOM     19  C   UNL d   1       8.696   8.670 -12.045  0.00  0.00     0.002 C 
ENDBRANCH  17  18
ENDBRANCH  13  17
ENDBRANCH   1  13
TORSDOF 5
