REMARK  12 active torsions:
REMARK  status: ('A' for Active; 'I' for Inactive)
REMARK    1  A    between atoms: C_2  and  C_3 
REMARK    2  A    between atoms: C_3  and  N_4 
REMARK    3  A    between atoms: N_4  and  C_5 
REMARK    4  A    between atoms: N_4  and  C_21 
REMARK    5  A    between atoms: C_5  and  C_6 
REMARK    6  A    between atoms: C_6  and  C_7 
REMARK    7  A    between atoms: C_7  and  S_8 
REMARK    8  A    between atoms: S_8  and  C_9 
REMARK    9  A    between atoms: C_12  and  C_13 
REMARK   10  A    between atoms: C_21  and  C_22 
REMARK   11  A    between atoms: C_24  and  C_25 
REMARK   12  A    between atoms: C_31  and  O_32 
ROOT
ATOM      1  N   UNL d   1       8.592   2.986 -14.678  0.00  0.00     0.137 N 
ENDROOT
BRANCH   1   2
ATOM      2  C   UNL d   1       9.977   2.515 -14.780  0.00  0.00     0.250 C 
BRANCH   2   3
ATOM      3  C   UNL d   1      10.240   1.935 -16.172  0.00  0.00     0.035 C 
ATOM      4  C   UNL d   1      11.663   1.409 -16.335  0.00  0.00     0.002 C 
ENDBRANCH   2   3
ENDBRANCH   1   2
BRANCH   1   5
ATOM      5  C   UNL d   1       8.406   3.910 -13.561  0.00  0.00     0.251 C 
BRANCH   5   6
ATOM      6  C   UNL d   1       9.261   5.189 -13.656  0.00  0.00     0.047 C 
BRANCH   6   7
ATOM      7  C   UNL d   1       8.829   6.288 -12.679  0.00  0.00     0.067 C 
BRANCH   7   8
ATOM      8  S   UNL d   1       8.635   5.596 -11.002  0.00  0.00    -0.075 SA
BRANCH   8   9
ATOM      9  C   UNL d   1       9.473   6.773  -9.988  0.00  0.00     0.193 A 
ATOM     10  N   UNL d   1       9.491   6.646  -8.649  0.00  0.00    -0.289 N 
ATOM     11  C   UNL d   1      10.321   7.649  -8.284  0.00  0.00     0.167 A 
ATOM     12  C   UNL d   1       8.811   5.655  -7.835  0.00  0.00     0.134 C 
ATOM     13  N   UNL d   1      10.758   8.365  -9.323  0.00  0.00    -0.128 NA
ATOM     14  N   UNL d   1      10.197   7.794 -10.435  0.00  0.00    -0.122 NA
BRANCH  11  15
ATOM     15  C   UNL d   1      10.748   7.954  -6.923  0.00  0.00     0.036 A 
ATOM     16  C   UNL d   1      10.850   9.300  -6.524  0.00  0.00     0.003 A 
ATOM     17  C   UNL d   1      11.256   9.624  -5.217  0.00  0.00     0.000 A 
ATOM     18  C   UNL d   1      11.566   8.594  -4.304  0.00  0.00     0.000 A 
ATOM     19  C   UNL d   1      11.469   7.245  -4.701  0.00  0.00     0.000 A 
ATOM     20  C   UNL d   1      11.076   6.927  -6.015  0.00  0.00     0.003 A 
ENDBRANCH  11  15
ENDBRANCH   8   9
ENDBRANCH   7   8
ENDBRANCH   6   7
ENDBRANCH   5   6
ENDBRANCH   1   5
BRANCH   1  21
ATOM     21  C   UNL d   1       7.681   1.859 -14.452  0.00  0.00     0.251 C 
BRANCH  21  22
ATOM     22  C   UNL d   1       6.860   1.576 -15.689  0.00  0.00     0.038 A 
ATOM     23  C   UNL d   1       6.970   0.266 -16.441  0.00  0.00     0.026 A 
ATOM     24  C   UNL d   1       5.767   0.527 -15.568  0.00  0.00     0.007 A 
BRANCH  23  25
ATOM     25  C   UNL d   1       6.859   0.252 -17.941  0.00  0.00     0.002 A 
ATOM     26  C   UNL d   1       5.842  -0.496 -18.570  0.00  0.00     0.090 A 
ATOM     27  C   UNL d   1       5.751  -0.479 -19.986  0.00  0.00     0.026 A 
ATOM     28  C   UNL d   1       6.670   0.261 -20.755  0.00  0.00     0.032 A 
ATOM     29  C   UNL d   1       7.690   0.986 -20.118  0.00  0.00     0.140 A 
ATOM     30  C   UNL d   1       7.778   0.991 -18.716  0.00  0.00     0.027 A 
ATOM     31  F   UNL d   1       8.577   1.712 -20.850  0.00  0.00    -0.204 F 
BRANCH  26  32
ATOM     32  O   UNL d   1       4.989  -1.221 -17.763  0.00  0.00    -0.328 OA
ATOM     33  C   UNL d   1       3.887  -1.883 -18.356  0.00  0.00     0.181 C 
ENDBRANCH  26  32
ENDBRANCH  23  25
ENDBRANCH  21  22
ENDBRANCH   1  21
TORSDOF 12
