REMARK  12 active torsions:
REMARK  status: ('A' for Active; 'I' for Inactive)
REMARK    1  A    between atoms: O_2  and  C_3 
REMARK    2  A    between atoms: C_5  and  C_6 
REMARK    3  A    between atoms: C_6  and  C_7 
REMARK    4  A    between atoms: C_7  and  N_8 
REMARK    5  A    between atoms: N_8  and  C_9 
REMARK    6  A    between atoms: C_9  and  C_10 
REMARK    7  A    between atoms: C_10  and  C_12 
REMARK    8  A    between atoms: C_22  and  O_23 
REMARK    9  A    between atoms: O_23  and  C_24 
REMARK   10  A    between atoms: C_24  and  C_25 
REMARK   11  A    between atoms: C_25  and  C_26 
REMARK   12  A    between atoms: C_26  and  C_27 
ROOT
ATOM      1  C   UNL d   1       9.665   2.677 -15.145  0.00  0.00     0.116 A 
ATOM      2  C   UNL d   1       9.148   2.814 -13.825  0.00  0.00     0.022 A 
ATOM      3  C   UNL d   1       8.683   4.073 -13.364  0.00  0.00    -0.018 A 
ATOM      4  C   UNL d   1       8.770   5.169 -14.218  0.00  0.00    -0.002 A 
ATOM      5  C   UNL d   1       9.293   5.060 -15.504  0.00  0.00     0.026 A 
ATOM      6  C   UNL d   1       9.716   3.805 -16.008  0.00  0.00     0.116 A 
ENDROOT
BRANCH   3   7
ATOM      7  C   UNL d   1       8.100   4.391 -11.985  0.00  0.00     0.065 C 
BRANCH   7   8
ATOM      8  C   UNL d   1       9.213   4.840 -11.015  0.00  0.00     0.295 C 
BRANCH   8   9
ATOM      9  N   UNL d   1       8.652   5.487  -9.843  0.00  0.00     0.343 N 
BRANCH   9  10
ATOM     10  C   UNL d   1       9.638   6.006  -8.903  0.00  0.00     0.327 C 
BRANCH  10  11
ATOM     11  C   UNL d   1       8.964   6.865  -7.826  0.00  0.00     0.211 C 
ATOM     12  O   UNL d   1       8.065   6.033  -7.144  0.00  0.00    -0.216 OA
BRANCH  11  13
ATOM     13  C   UNL d   1       9.965   7.547  -6.906  0.00  0.00     0.012 A 
ATOM     14  C   UNL d   1      10.322   8.895  -7.093  0.00  0.00     0.028 A 
ATOM     15  C   UNL d   1      11.258   9.492  -6.217  0.00  0.00     0.156 A 
ATOM     16  C   UNL d   1      11.823   8.745  -5.164  0.00  0.00     0.156 A 
ATOM     17  O   UNL d   1      11.642  10.786  -6.397  0.00  0.00    -0.188 OA
ATOM     18  C   UNL d   1      11.454   7.407  -4.974  0.00  0.00     0.029 A 
ATOM     19  O   UNL d   1      12.773   9.292  -4.364  0.00  0.00    -0.188 OA
ATOM     20  C   UNL d   1      10.543   6.823  -5.849  0.00  0.00     0.001 A 
ENDBRANCH  11  13
ENDBRANCH  10  11
ENDBRANCH   9  10
ENDBRANCH   8   9
ENDBRANCH   7   8
ENDBRANCH   3   7
BRANCH   1  21
ATOM     21  O   UNL d   1      10.086   1.477 -15.672  0.00  0.00    -0.326 OA
ATOM     22  C   UNL d   1      10.253   0.390 -14.783  0.00  0.00     0.181 C 
ENDBRANCH   1  21
BRANCH   6  23
ATOM     23  O   UNL d   1      10.105   3.639 -17.321  0.00  0.00    -0.329 OA
BRANCH  23  24
ATOM     24  C   UNL d   1      10.363   4.779 -18.143  0.00  0.00     0.149 C 
BRANCH  24  25
ATOM     25  C   UNL d   1      11.768   5.315 -17.820  0.00  0.00     0.037 C 
BRANCH  25  26
ATOM     26  C   UNL d   1      12.185   6.474 -18.747  0.00  0.00     0.029 C 
BRANCH  26  27
ATOM     27  C   UNL d   1      13.664   6.840 -18.671  0.00  0.00    -0.022 A 
ATOM     28  C   UNL d   1      14.056   8.198 -18.592  0.00  0.00    -0.004 A 
ATOM     29  C   UNL d   1      15.424   8.546 -18.523  0.00  0.00    -0.000 A 
ATOM     30  C   UNL d   1      16.405   7.537 -18.529  0.00  0.00    -0.000 A 
ATOM     31  C   UNL d   1      16.021   6.188 -18.618  0.00  0.00    -0.000 A 
ATOM     32  C   UNL d   1      14.658   5.841 -18.712  0.00  0.00    -0.004 A 
ENDBRANCH  26  27
ENDBRANCH  25  26
ENDBRANCH  24  25
ENDBRANCH  23  24
ENDBRANCH   6  23
TORSDOF 12
