REMARK  6 active torsions:
REMARK  status: ('A' for Active; 'I' for Inactive)
REMARK    1  A    between atoms: O_2  and  C_3 
REMARK    2  A    between atoms: C_12  and  C_13 
REMARK    3  A    between atoms: C_13  and  C_14 
REMARK    4  A    between atoms: C_14  and  C_15 
REMARK    5  A    between atoms: C_15  and  N_16 
REMARK    6  A    between atoms: N_19  and  C_20 
ROOT
ATOM      1  C   UNL d   1       9.266   5.215 -11.832  0.00  0.00     0.036 C 
ENDROOT
BRANCH   1   2
ATOM      2  C   UNL d   1       9.133   3.921 -12.650  0.00  0.00     0.006 C 
BRANCH   2   3
ATOM      3  C   UNL d   1       9.498   4.036 -14.152  0.00  0.00     0.022 C 
ATOM      4  C   UNL d   1       9.497   2.672 -14.871  0.00  0.00    -0.025 A 
ATOM      5  C   UNL d   1       8.504   1.724 -14.542  0.00  0.00    -0.004 A 
ATOM      6  C   UNL d   1      10.457   2.351 -15.876  0.00  0.00    -0.004 A 
ATOM      7  C   UNL d   1       8.473   0.477 -15.174  0.00  0.00     0.002 A 
ATOM      8  C   UNL d   1       9.412   0.160 -16.166  0.00  0.00     0.024 A 
ATOM      9  C   UNL d   1      10.413   1.092 -16.530  0.00  0.00     0.090 A 
ATOM     10  C   UNL d   1      11.553   3.350 -16.270  0.00  0.00     0.028 C 
ATOM     11  C   UNL d   1      11.280   4.787 -15.803  0.00  0.00     0.005 C 
ATOM     12  C   UNL d   1      10.812   4.811 -14.359  0.00  0.00     0.005 C 
BRANCH   9  13
ATOM     13  O   UNL d   1      11.356   0.830 -17.501  0.00  0.00    -0.328 OA
ATOM     14  C   UNL d   1      11.187  -0.340 -18.294  0.00  0.00     0.181 C 
ENDBRANCH   9  13
ENDBRANCH   2   3
ENDBRANCH   1   2
BRANCH   1  15
ATOM     15  C   UNL d   1       8.977   4.996 -10.337  0.00  0.00     0.250 C 
BRANCH  15  16
ATOM     16  N   UNL d   1       9.229   6.216  -9.572  0.00  0.00     0.141 N 
ATOM     17  C   UNL d   1       8.529   6.127  -8.287  0.00  0.00     0.274 C 
ATOM     18  C   UNL d   1       8.730   7.421  -7.466  0.00  0.00     0.137 C 
ATOM     19  N   UNL d   1      10.149   7.699  -7.314  0.00  0.00    -0.344 N 
ATOM     20  C   UNL d   1      10.929   7.705  -8.534  0.00  0.00     0.137 C 
ATOM     21  C   UNL d   1      10.659   6.412  -9.317  0.00  0.00     0.274 C 
BRANCH  19  22
ATOM     22  C   UNL d   1      10.735   7.950  -6.071  0.00  0.00     0.056 A 
ATOM     23  C   UNL d   1      10.819   9.269  -5.584  0.00  0.00     0.018 A 
ATOM     24  C   UNL d   1      11.415   9.519  -4.328  0.00  0.00     0.013 A 
ATOM     25  C   UNL d   1      11.934   8.456  -3.565  0.00  0.00     0.058 A 
ATOM     26  C   UNL d   1      11.855   7.141  -4.051  0.00  0.00     0.013 A 
ATOM     27 CL   UNL d   1      12.656   8.756  -2.039  0.00  0.00    -0.082 Cl
ATOM     28  C   UNL d   1      11.255   6.888  -5.303  0.00  0.00     0.018 A 
ENDBRANCH  19  22
ENDBRANCH  15  16
ENDBRANCH   1  15
TORSDOF 6
