REMARK  3 active torsions:
REMARK  status: ('A' for Active; 'I' for Inactive)
REMARK    1  A    between atoms: N_2  and  C_4 
REMARK    2  A    between atoms: N_7  and  C_8 
REMARK    3  A    between atoms: C_10  and  C_11 
ROOT
ATOM      1  C   UNL d   1       8.661   3.190 -14.047  0.00  0.00     0.145 A 
ATOM      2  C   UNL d   1       7.557   2.395 -14.335  0.00  0.00     0.056 A 
ATOM      3  C   UNL d   1       7.661   1.405 -15.335  0.00  0.00     0.086 A 
ATOM      4  N   UNL d   1       8.776   1.206 -16.047  0.00  0.00    -0.227 NA
ATOM      5  C   UNL d   1       9.838   1.995 -15.788  0.00  0.00     0.167 A 
ATOM      6  C   UNL d   1      11.092   2.069 -16.336  0.00  0.00     0.061 A 
ATOM      7  C   UNL d   1      11.725   3.122 -15.631  0.00  0.00     0.124 A 
ATOM      8  N   UNL d   1      10.973   3.692 -14.726  0.00  0.00    -0.161 NA
ATOM      9  N   UNL d   1       9.790   2.989 -14.799  0.00  0.00    -0.197 N 
ENDROOT
BRANCH   1  10
ATOM     10  N   UNL d   1       8.630   4.195 -13.067  0.00  0.00    -0.332 N 
ATOM     11  C   UNL d   1       7.492   5.065 -12.883  0.00  0.00     0.105 C 
ATOM     12  C   UNL d   1       7.728   5.745 -11.551  0.00  0.00     0.059 C 
ATOM     13  C   UNL d   1       9.263   5.682 -11.338  0.00  0.00     0.243 C 
ATOM     14  C   UNL d   1       9.661   4.381 -12.045  0.00  0.00     0.136 C 
BRANCH  13  15
ATOM     15  N   UNL d   1       9.752   5.742  -9.954  0.00  0.00     0.141 N 
ATOM     16  C   UNL d   1       8.778   5.346  -8.939  0.00  0.00     0.285 C 
ATOM     17  C   UNL d   1      10.241   7.074  -9.613  0.00  0.00     0.285 C 
ENDBRANCH  13  15
ENDBRANCH   1  10
BRANCH   3  18
ATOM     18  C   UNL d   1       6.531   0.493 -15.666  0.00  0.00     0.018 A 
ATOM     19  C   UNL d   1       5.635   0.046 -14.664  0.00  0.00     0.002 A 
ATOM     20  C   UNL d   1       4.566  -0.820 -14.981  0.00  0.00     0.000 A 
ATOM     21  C   UNL d   1       4.379  -1.258 -16.304  0.00  0.00     0.000 A 
ATOM     22  C   UNL d   1       5.260  -0.828 -17.310  0.00  0.00     0.000 A 
ATOM     23  C   UNL d   1       6.322   0.041 -16.990  0.00  0.00     0.002 A 
ENDBRANCH   3  18
TORSDOF 3
