REMARK  9 active torsions:
REMARK  status: ('A' for Active; 'I' for Inactive)
REMARK    1  A    between atoms: C_8  and  O_9 
REMARK    2  A    between atoms: O_9  and  C_10 
REMARK    3  A    between atoms: C_10  and  C_11 
REMARK    4  A    between atoms: C_11  and  C_12 
REMARK    5  A    between atoms: C_12  and  C_13 
REMARK    6  A    between atoms: C_13  and  N_14 
REMARK    7  A    between atoms: N_14  and  C_15 
REMARK    8  A    between atoms: C_15  and  C_16 
REMARK    9  A    between atoms: C_18  and  C_19 
ROOT
ATOM      1  C   UNL d   1       8.981   6.414  -9.965  0.00  0.00     0.290 C 
ENDROOT
BRANCH   1   2
ATOM      2  C   UNL d   1       8.175   5.604 -10.987  0.00  0.00     0.041 C 
BRANCH   2   3
ATOM      3  C   UNL d   1       8.497   6.029 -12.433  0.00  0.00     0.035 C 
BRANCH   3   4
ATOM      4  C   UNL d   1       7.869   5.048 -13.422  0.00  0.00     0.149 C 
BRANCH   4   5
ATOM      5  O   UNL d   1       8.505   5.253 -14.685  0.00  0.00    -0.331 OA
BRANCH   5   6
ATOM      6  C   UNL d   1       9.405   4.367 -15.246  0.00  0.00     0.096 A 
ATOM      7  C   UNL d   1       9.743   3.151 -14.622  0.00  0.00     0.024 A 
ATOM      8  C   UNL d   1      10.620   2.265 -15.255  0.00  0.00    -0.001 A 
ATOM      9  C   UNL d   1      11.168   2.579 -16.487  0.00  0.00    -0.004 A 
ATOM     10  C   UNL d   1      12.096   1.618 -17.175  0.00  0.00     0.038 C 
ATOM     11  C   UNL d   1      10.858   3.803 -17.139  0.00  0.00     0.082 A 
ATOM     12  C   UNL d   1      13.129   2.344 -18.044  0.00  0.00     0.095 C 
ATOM     13  C   UNL d   1      12.492   3.435 -18.910  0.00  0.00     0.256 C 
ATOM     14  O   UNL d   1      12.948   3.689 -20.014  0.00  0.00    -0.270 OA
ATOM     15  N   UNL d   1      11.437   4.108 -18.386  0.00  0.00    -0.212 NA
ATOM     16  C   UNL d   1       9.945   4.699 -16.505  0.00  0.00     0.043 A 
ENDBRANCH   5   6
ENDBRANCH   4   5
ENDBRANCH   3   4
ENDBRANCH   2   3
ENDBRANCH   1   2
BRANCH   1  17
ATOM     17  N   UNL d   1       8.780   5.822  -8.624  0.00  0.00     0.339 N 
BRANCH  17  18
ATOM     18  C   UNL d   1       9.532   6.595  -7.668  0.00  0.00     0.290 C 
BRANCH  18  19
ATOM     19  C   UNL d   1      10.952   6.199  -7.806  0.00  0.00     0.041 A 
ATOM     20  C   UNL d   1      12.057   7.001  -7.157  0.00  0.00     0.024 A 
ATOM     21  C   UNL d   1      11.742   5.646  -6.651  0.00  0.00     0.007 A 
BRANCH  20  22
ATOM     22  C   UNL d   1      11.743   8.142  -6.304  0.00  0.00    -0.022 A 
ATOM     23  C   UNL d   1      11.829   8.200  -4.881  0.00  0.00    -0.004 A 
ATOM     24  C   UNL d   1      11.490   9.373  -4.205  0.00  0.00    -0.000 A 
ATOM     25  C   UNL d   1      12.256   7.112  -4.069  0.00  0.00    -0.000 A 
ATOM     26  C   UNL d   1      11.024  10.458  -4.932  0.00  0.00    -0.000 A 
ATOM     27  C   UNL d   1      11.626   9.470  -2.839  0.00  0.00    -0.000 A 
ATOM     28  C   UNL d   1      11.008  10.373  -6.315  0.00  0.00    -0.000 A 
ATOM     29  C   UNL d   1      11.353   9.240  -7.042  0.00  0.00    -0.004 A 
ATOM     30  C   UNL d   1      12.054   8.377  -2.044  0.00  0.00    -0.000 A 
ATOM     31  C   UNL d   1      12.373   7.177  -2.681  0.00  0.00    -0.000 A 
ENDBRANCH  20  22
ENDBRANCH  18  19
ENDBRANCH  17  18
ENDBRANCH   1  17
TORSDOF 9
