REMARK  3 active torsions:
REMARK  status: ('A' for Active; 'I' for Inactive)
REMARK    1  A    between atoms: C_2  and  N_3 
REMARK    2  A    between atoms: C_7  and  C_8 
REMARK    3  A    between atoms: C_14  and  S_15 
ROOT
ATOM      1  C   UNL d   1       8.805   5.154 -10.544  0.00  0.00     0.038 C 
ATOM      2  C   UNL d   1       7.994   4.395  -9.756  0.00  0.00     0.100 C 
ATOM      3  N   UNL d   1       8.260   4.651  -8.440  0.00  0.00    -0.244 NA
ATOM      4  C   UNL d   1       9.090   5.684  -8.302  0.00  0.00     0.082 A 
ATOM      5  C   UNL d   1       9.552   6.392  -7.174  0.00  0.00     0.020 A 
ATOM      6  C   UNL d   1      10.574   7.335  -7.349  0.00  0.00     0.015 A 
ATOM      7  C   UNL d   1      11.048   7.524  -8.657  0.00  0.00     0.107 A 
ATOM      8  C   UNL d   1      10.488   6.922  -9.797  0.00  0.00     0.015 A 
ATOM      9  C   UNL d   1       9.497   5.975  -9.632  0.00  0.00     0.021 A 
ENDROOT
BRANCH   1  10
ATOM     10  C   UNL d   1       8.880   5.028 -11.970  0.00  0.00     0.082 A 
ATOM     11  N   UNL d   1       7.887   5.471 -12.830  0.00  0.00    -0.309 N 
ATOM     12  C   UNL d   1       8.383   5.174 -14.041  0.00  0.00     0.179 A 
ATOM     13  N   UNL d   1       9.564   4.569 -14.057  0.00  0.00    -0.223 NA
ATOM     14  C   UNL d   1       9.852   4.449 -12.710  0.00  0.00     0.118 A 
BRANCH  11  15
ATOM     15  C   UNL d   1       6.607   6.106 -12.529  0.00  0.00     0.108 C 
ATOM     16  C   UNL d   1       6.653   7.633 -12.658  0.00  0.00     0.027 C 
ENDBRANCH  11  15
ENDBRANCH   1  10
BRANCH   7  17
ATOM     17  S   UNL d   1      12.235   8.710  -8.960  0.00  0.00     0.302 S 
ATOM     18  N   UNL d   1      13.478   7.857  -9.766  0.00  0.00    -0.043 N 
ATOM     19  O   UNL d   1      11.551   9.587  -9.924  0.00  0.00    -0.197 OA
ATOM     20  O   UNL d   1      12.708   9.187  -7.634  0.00  0.00    -0.197 OA
ENDBRANCH   7  17
TORSDOF 3
