REMARK  3 active torsions:
REMARK  status: ('A' for Active; 'I' for Inactive)
REMARK    1  A    between atoms: N_2  and  C_4 
REMARK    2  A    between atoms: C_4  and  C_5 
REMARK    3  A    between atoms: C_5  and  C_6 
ROOT
ATOM      1  C   UNL d   1       6.313   2.020 -14.002  0.00  0.00    -0.024 C 
ATOM      2  C   UNL d   1       7.481   2.658 -14.275  0.00  0.00    -0.003 C 
ATOM      3  C   UNL d   1       7.779   3.934 -13.557  0.00  0.00    -0.002 A 
ATOM      4  C   UNL d   1       6.696   4.669 -12.997  0.00  0.00    -0.000 A 
ATOM      5  C   UNL d   1       6.886   5.869 -12.296  0.00  0.00    -0.000 A 
ATOM      6  C   UNL d   1       8.175   6.389 -12.150  0.00  0.00    -0.000 A 
ATOM      7  C   UNL d   1       9.265   5.685 -12.682  0.00  0.00    -0.002 A 
ATOM      8  C   UNL d   1       9.096   4.462 -13.370  0.00  0.00     0.008 A 
ATOM      9  C   UNL d   1      10.376   3.824 -13.904  0.00  0.00     0.175 C 
ATOM     10  O   UNL d   1      10.350   2.416 -14.050  0.00  0.00    -0.326 OA
ATOM     11  C   UNL d   1       9.756   2.020 -15.207  0.00  0.00     0.094 A 
ATOM     12  C   UNL d   1      10.568   1.460 -16.223  0.00  0.00     0.024 A 
ATOM     13  C   UNL d   1       9.998   1.043 -17.439  0.00  0.00     0.002 A 
ATOM     14  C   UNL d   1       8.615   1.206 -17.644  0.00  0.00     0.000 A 
ATOM     15  C   UNL d   1       7.814   1.801 -16.645  0.00  0.00     0.002 A 
ATOM     16  C   UNL d   1       8.357   2.183 -15.391  0.00  0.00     0.022 A 
ENDROOT
BRANCH   1  17
ATOM     17  C   UNL d   1       5.809   0.764 -14.663  0.00  0.00     0.061 C 
BRANCH  17  18
ATOM     18  C   UNL d   1       4.743   0.036 -13.835  0.00  0.00     0.255 C 
BRANCH  18  19
ATOM     19  N   UNL d   1       4.305  -1.214 -14.465  0.00  0.00     0.142 N 
ATOM     20  C   UNL d   1       5.417  -2.067 -14.849  0.00  0.00     0.285 C 
ATOM     21  C   UNL d   1       3.456  -0.990 -15.628  0.00  0.00     0.285 C 
ENDBRANCH  18  19
ENDBRANCH  17  18
ENDBRANCH   1  17
TORSDOF 3
