REMARK  8 active torsions:
REMARK  status: ('A' for Active; 'I' for Inactive)
REMARK    1  A    between atoms: C_6  and  C_7 
REMARK    2  A    between atoms: C_10  and  S_11 
REMARK    3  A    between atoms: S_11  and  C_12 
REMARK    4  A    between atoms: C_12  and  C_13 
REMARK    5  A    between atoms: C_13  and  C_14 
REMARK    6  A    between atoms: C_14  and  N_15 
REMARK    7  A    between atoms: C_23  and  C_24 
REMARK    8  A    between atoms: C_24  and  C_27 
ROOT
ATOM      1  N   UNL d   1      10.733   3.620 -17.236  0.00  0.00     0.138 N 
ATOM      2  C   UNL d   1       9.982   4.228 -16.131  0.00  0.00     0.255 C 
ATOM      3  C   UNL d   1       9.760   3.284 -14.946  0.00  0.00     0.061 C 
ATOM      4  C   UNL d   1       8.563   2.379 -15.122  0.00  0.00    -0.022 A 
ATOM      5  C   UNL d   1       7.487   2.487 -14.210  0.00  0.00    -0.002 A 
ATOM      6  C   UNL d   1       6.362   1.655 -14.332  0.00  0.00     0.026 A 
ATOM      7  C   UNL d   1       6.331   0.739 -15.393  0.00  0.00     0.119 A 
ATOM      8  O   UNL d   1       5.328  -0.143 -15.738  0.00  0.00    -0.287 OA
ATOM      9  C   UNL d   1       5.822  -0.754 -16.859  0.00  0.00     0.230 A 
ATOM     10  N   UNL d   1       7.039  -0.353 -17.258  0.00  0.00    -0.219 NA
ATOM     11  C   UNL d   1       7.381   0.612 -16.330  0.00  0.00     0.102 A 
ATOM     12  C   UNL d   1       8.515   1.448 -16.188  0.00  0.00    -0.004 A 
ATOM     13  C   UNL d   1       9.663   1.345 -17.183  0.00  0.00     0.063 C 
ATOM     14  C   UNL d   1       9.925   2.642 -17.973  0.00  0.00     0.255 C 
ENDROOT
BRANCH   1  15
ATOM     15  C   UNL d   1      11.174   4.652 -18.180  0.00  0.00     0.251 C 
BRANCH  15  16
ATOM     16  C   UNL d   1      12.294   5.546 -17.610  0.00  0.00     0.047 C 
BRANCH  16  17
ATOM     17  C   UNL d   1      12.590   6.765 -18.484  0.00  0.00     0.067 C 
BRANCH  17  18
ATOM     18  S   UNL d   1      13.607   7.960 -17.581  0.00  0.00    -0.075 SA
BRANCH  18  19
ATOM     19  C   UNL d   1      15.178   7.205 -17.797  0.00  0.00     0.193 A 
ATOM     20  N   UNL d   1      15.532   6.045 -17.247  0.00  0.00    -0.122 NA
ATOM     21  N   UNL d   1      16.836   5.855 -17.618  0.00  0.00    -0.126 NA
ATOM     22  C   UNL d   1      17.184   6.924 -18.337  0.00  0.00     0.191 A 
ATOM     23  N   UNL d   1      16.162   7.796 -18.490  0.00  0.00    -0.287 N 
ATOM     24  C   UNL d   1      16.144   9.093 -19.163  0.00  0.00     0.134 C 
BRANCH  22  25
ATOM     25  C   UNL d   1      18.527   7.055 -18.892  0.00  0.00     0.151 A 
ATOM     26  C   UNL d   1      19.513   8.009 -18.804  0.00  0.00     0.087 A 
ATOM     27  C   UNL d   1      19.575   9.312 -18.051  0.00  0.00     0.054 C 
ATOM     28  N   UNL d   1      20.597   7.575 -19.547  0.00  0.00    -0.221 NA
ATOM     29  C   UNL d   1      20.234   6.398 -20.044  0.00  0.00     0.225 A 
ATOM     30  O   UNL d   1      18.989   6.017 -19.658  0.00  0.00    -0.282 OA
ENDBRANCH  22  25
ENDBRANCH  18  19
ENDBRANCH  17  18
ENDBRANCH  16  17
ENDBRANCH  15  16
ENDBRANCH   1  15
BRANCH   9  31
ATOM     31  C   UNL d   1       4.976  -1.786 -17.538  0.00  0.00     0.404 C 
ATOM     32  F   UNL d   1       5.649  -2.937 -17.625  0.00  0.00    -0.186 F 
ATOM     33  F   UNL d   1       3.869  -2.012 -16.825  0.00  0.00    -0.186 F 
BRANCH  31  34
ATOM     34  C   UNL d   1       4.544  -1.351 -18.953  0.00  0.00     0.463 C 
ATOM     35  F   UNL d   1       3.784  -2.289 -19.518  0.00  0.00    -0.165 F 
ATOM     36  F   UNL d   1       3.858  -0.211 -18.889  0.00  0.00    -0.165 F 
ATOM     37  F   UNL d   1       5.606  -1.149 -19.731  0.00  0.00    -0.165 F 
ENDBRANCH  31  34
ENDBRANCH   9  31
TORSDOF 8
