REMARK  4 active torsions:
REMARK  status: ('A' for Active; 'I' for Inactive)
REMARK    1  A    between atoms: C_2  and  C_3 
REMARK    2  A    between atoms: C_3  and  C_4 
REMARK    3  A    between atoms: C_4  and  N_5 
REMARK    4  A    between atoms: C_8  and  C_9 
ROOT
ATOM      1  N   UNL d   1      10.888   8.997  -6.488  0.00  0.00     0.137 N 
ATOM      2  C   UNL d   1      11.966   8.860  -7.441  0.00  0.00     0.251 C 
ATOM      3  C   UNL d   1      11.278   8.896  -8.805  0.00  0.00     0.042 C 
ATOM      4  C   UNL d   1       9.857   8.390  -8.537  0.00  0.00     0.058 C 
ATOM      5  C   UNL d   1       9.816   8.178  -7.022  0.00  0.00     0.255 C 
ENDROOT
BRANCH   4   6
ATOM      6  C   UNL d   1       9.481   7.119  -9.328  0.00  0.00    -0.018 A 
ATOM      7  C   UNL d   1       9.644   7.130 -10.727  0.00  0.00     0.023 A 
ATOM      8  C   UNL d   1       9.308   5.991 -11.490  0.00  0.00     0.131 A 
ATOM      9  C   UNL d   1       8.816   4.837 -10.858  0.00  0.00     0.027 A 
ATOM     10  O   UNL d   1       9.456   6.013 -12.838  0.00  0.00    -0.190 OA
ATOM     11  C   UNL d   1       8.659   4.812  -9.471  0.00  0.00     0.002 A 
ATOM     12  C   UNL d   1       8.962   5.964  -8.708  0.00  0.00    -0.004 A 
ENDBRANCH   4   6
BRANCH   1  13
ATOM     13  C   UNL d   1      11.264   8.595  -5.113  0.00  0.00     0.250 C 
BRANCH  13  14
ATOM     14  C   UNL d   1      11.561   7.088  -4.923  0.00  0.00     0.035 C 
BRANCH  14  15
ATOM     15  C   UNL d   1      12.325   6.793  -3.642  0.00  0.00     0.002 C 
ATOM     16  C   UNL d   1      11.471   7.014  -2.413  0.00  0.00     0.000 C 
ENDBRANCH  14  15
ENDBRANCH  13  14
ENDBRANCH   1  13
TORSDOF 4
