REMARK  7 active torsions:
REMARK  status: ('A' for Active; 'I' for Inactive)
REMARK       I    between atoms: C_2  and  N_3 
REMARK    1  A    between atoms: C_2  and  C_27 
REMARK    2  A    between atoms: N_3  and  C_4 
REMARK    3  A    between atoms: C_7  and  C_8 
REMARK    4  A    between atoms: C_8  and  C_9 
REMARK    5  A    between atoms: C_9  and  N_10 
REMARK    6  A    between atoms: C_13  and  C_14 
REMARK    7  A    between atoms: C_27  and  C_29 
ROOT
ATOM      1  C   UNL d   1       8.477   6.099 -11.945  0.00  0.00     0.035 C 
ENDROOT
BRANCH   1   2
ATOM      2  C   UNL d   1       8.185   5.148 -13.120  0.00  0.00     0.002 C 
ATOM      3  C   UNL d   1       9.454   4.391 -13.568  0.00  0.00     0.002 C 
ATOM      4  C   UNL d   1       9.166   3.477 -14.758  0.00  0.00     0.024 C 
ATOM      5  C   UNL d   1       8.027   2.481 -14.437  0.00  0.00     0.106 C 
ATOM      6  C   UNL d   1       6.746   3.210 -13.977  0.00  0.00     0.024 C 
ATOM      7  C   UNL d   1       7.029   4.174 -12.814  0.00  0.00     0.002 C 
BRANCH   5   8
ATOM      8  N   UNL d   1       7.728   1.648 -15.590  0.00  0.00    -0.238 NA
ATOM      9  C   UNL d   1       8.527   0.701 -16.097  0.00  0.00     0.291 C 
ATOM     10  O   UNL d   1       9.603   0.388 -15.589  0.00  0.00    -0.268 OA
BRANCH   9  11
ATOM     11  C   UNL d   1       8.016   0.001 -17.362  0.00  0.00     0.325 C 
ATOM     12  O   UNL d   1       7.194   0.887 -18.118  0.00  0.00    -0.204 OA
BRANCH  11  13
ATOM     13  C   UNL d   1       9.140  -0.574 -18.260  0.00  0.00     0.434 C 
ATOM     14  F   UNL d   1       9.933   0.393 -18.728  0.00  0.00    -0.167 F 
ATOM     15  F   UNL d   1       9.898  -1.450 -17.597  0.00  0.00    -0.167 F 
ATOM     16  F   UNL d   1       8.579  -1.217 -19.284  0.00  0.00    -0.167 F 
ENDBRANCH  11  13
ENDBRANCH   9  11
ENDBRANCH   5   8
ENDBRANCH   1   2
BRANCH   1  17
ATOM     17  C   UNL d   1       8.762   5.380 -10.604  0.00  0.00     0.250 C 
BRANCH  17  18
ATOM     18  N   UNL d   1       9.120   6.301  -9.537  0.00  0.00     0.137 N 
ATOM     19  C   UNL d   1       9.057   5.589  -8.260  0.00  0.00     0.251 C 
ATOM     20  C   UNL d   1       9.345   6.557  -7.099  0.00  0.00     0.040 C 
ATOM     21  C   UNL d   1      10.728   7.208  -7.257  0.00  0.00     0.028 C 
ATOM     22  C   UNL d   1      10.821   7.834  -8.659  0.00  0.00     0.040 C 
ATOM     23  C   UNL d   1      10.464   6.825  -9.749  0.00  0.00     0.251 C 
BRANCH  21  24
ATOM     24  C   UNL d   1      10.986   8.218  -6.171  0.00  0.00     0.004 A 
ATOM     25  C   UNL d   1      11.462   7.974  -4.839  0.00  0.00     0.021 A 
ATOM     26  C   UNL d   1      11.495   9.239  -4.200  0.00  0.00     0.100 A 
ATOM     27  C   UNL d   1      11.848   6.857  -4.072  0.00  0.00     0.002 A 
ATOM     28  O   UNL d   1      11.058  10.210  -5.069  0.00  0.00    -0.305 OA
ATOM     29  C   UNL d   1      11.902   9.416  -2.872  0.00  0.00     0.025 A 
ATOM     30  C   UNL d   1      10.787   9.575  -6.241  0.00  0.00     0.118 A 
ATOM     31  C   UNL d   1      12.291   8.286  -2.132  0.00  0.00     0.002 A 
ATOM     32  C   UNL d   1      12.257   7.006  -2.729  0.00  0.00     0.000 A 
ENDBRANCH  21  24
ENDBRANCH  17  18
ENDBRANCH   1  17
TORSDOF 7
