REMARK  9 active torsions:
REMARK  status: ('A' for Active; 'I' for Inactive)
REMARK    1  A    between atoms: C_2  and  N_3 
REMARK    2  A    between atoms: N_3  and  C_4 
REMARK    3  A    between atoms: N_3  and  C_11 
REMARK    4  A    between atoms: C_4  and  C_5 
REMARK    5  A    between atoms: C_11  and  C_12 
REMARK    6  A    between atoms: C_15  and  C_16 
REMARK    7  A    between atoms: C_18  and  S_19 
REMARK    8  A    between atoms: S_19  and  C_22 
REMARK    9  A    between atoms: C_26  and  O_27 
ROOT
ATOM      1  C   UNL d   1       8.639   5.512 -11.138  0.00  0.00     0.092 A 
ATOM      2  C   UNL d   1       7.309   5.741 -11.321  0.00  0.00     0.018 A 
ATOM      3  C   UNL d   1       6.876   5.066 -12.488  0.00  0.00     0.020 A 
ATOM      4  C   UNL d   1       7.976   4.438 -13.013  0.00  0.00     0.083 A 
ATOM      5  N   UNL d   1       9.047   4.722 -12.191  0.00  0.00    -0.248 NA
ENDROOT
BRANCH   4   6
ATOM      6  C   UNL d   1       8.172   3.591 -14.165  0.00  0.00     0.041 A 
ATOM      7  C   UNL d   1       7.251   2.559 -14.465  0.00  0.00     0.096 A 
ATOM      8  C   UNL d   1       7.465   1.787 -15.632  0.00  0.00     0.025 A 
ATOM      9  C   UNL d   1       8.568   2.035 -16.465  0.00  0.00     0.013 A 
ATOM     10  C   UNL d   1       9.483   3.052 -16.140  0.00  0.00     0.084 A 
ATOM     11  C   UNL d   1       9.283   3.834 -14.994  0.00  0.00     0.015 A 
BRANCH   7  12
ATOM     12  O   UNL d   1       6.168   2.388 -13.634  0.00  0.00    -0.328 OA
ATOM     13  C   UNL d   1       5.493   1.140 -13.665  0.00  0.00     0.181 C 
ENDBRANCH   7  12
BRANCH  10  14
ATOM     14  S   UNL d   1      10.858   3.417 -17.218  0.00  0.00     0.190 S 
ATOM     15  O   UNL d   1      11.953   3.945 -16.385  0.00  0.00    -0.222 OA
ATOM     16  O   UNL d   1      11.092   2.244 -18.070  0.00  0.00    -0.222 OA
BRANCH  14  17
ATOM     17  C   UNL d   1      10.252   4.786 -18.291  0.00  0.00     0.127 C 
ATOM     18  C   UNL d   1      11.345   5.264 -19.255  0.00  0.00     0.018 C 
ENDBRANCH  14  17
ENDBRANCH  10  14
ENDBRANCH   4   6
BRANCH   1  19
ATOM     19  C   UNL d   1       9.563   5.993 -10.069  0.00  0.00     0.296 C 
BRANCH  19  20
ATOM     20  N   UNL d   1       9.376   5.374  -8.745  0.00  0.00     0.147 N 
BRANCH  20  21
ATOM     21  C   UNL d   1       9.314   3.909  -8.850  0.00  0.00     0.251 C 
ATOM     22  C   UNL d   1       7.878   3.486  -8.630  0.00  0.00     0.037 C 
ENDBRANCH  20  21
BRANCH  20  23
ATOM     23  C   UNL d   1      10.461   5.790  -7.854  0.00  0.00     0.277 C 
BRANCH  23  24
ATOM     24  C   UNL d   1      10.647   7.257  -7.549  0.00  0.00     0.011 C 
ATOM     25  C   UNL d   1      11.042   8.146  -8.563  0.00  0.00    -0.002 C 
ATOM     26  C   UNL d   1      11.116   9.505  -8.272  0.00  0.00    -0.000 C 
ATOM     27  C   UNL d   1      11.002   9.976  -6.936  0.00  0.00    -0.000 C 
ATOM     28  C   UNL d   1      10.681   9.084  -5.911  0.00  0.00    -0.000 C 
ATOM     29  C   UNL d   1      10.486   7.715  -6.212  0.00  0.00    -0.002 C 
ENDBRANCH  23  24
ENDBRANCH  20  23
ENDBRANCH  19  20
ENDBRANCH   1  19
TORSDOF 9
