REMARK  8 active torsions:
REMARK  status: ('A' for Active; 'I' for Inactive)
REMARK    1  A    between atoms: C_3  and  S_4 
REMARK    2  A    between atoms: S_4  and  C_5 
REMARK    3  A    between atoms: C_5  and  C_6 
REMARK    4  A    between atoms: C_6  and  C_7 
REMARK    5  A    between atoms: C_7  and  N_8 
REMARK    6  A    between atoms: N_13  and  C_14 
REMARK    7  A    between atoms: C_17  and  C_18 
REMARK    8  A    between atoms: C_28  and  C_29 
ROOT
ATOM      1  N   UNL d   1      10.171   3.307 -14.233  0.00  0.00     0.139 N 
ATOM      2  C   UNL d   1       9.120   3.857 -15.088  0.00  0.00     0.252 C 
ATOM      3  C   UNL d   1       8.268   4.689 -14.129  0.00  0.00     0.058 C 
ATOM      4  C   UNL d   1       7.146   3.956 -13.385  0.00  0.00     0.028 C 
ATOM      5  C   UNL d   1       7.226   4.549 -11.972  0.00  0.00     0.102 C 
ATOM      6  N   UNL d   1       8.642   4.811 -11.765  0.00  0.00    -0.348 N 
ATOM      7  C   UNL d   1       9.235   5.148 -13.058  0.00  0.00     0.117 C 
ATOM      8  C   UNL d   1      10.540   4.393 -13.336  0.00  0.00     0.272 C 
ENDROOT
BRANCH   1   9
ATOM      9  C   UNL d   1      11.336   2.792 -14.941  0.00  0.00     0.251 C 
BRANCH   9  10
ATOM     10  C   UNL d   1      10.949   1.536 -15.760  0.00  0.00     0.047 C 
BRANCH  10  11
ATOM     11  C   UNL d   1      11.714   1.464 -17.093  0.00  0.00     0.067 C 
BRANCH  11  12
ATOM     12  S   UNL d   1      11.188   0.040 -18.085  0.00  0.00    -0.075 SA
BRANCH  12  13
ATOM     13  C   UNL d   1       9.459   0.367 -18.170  0.00  0.00     0.193 A 
ATOM     14  N   UNL d   1       8.543  -0.606 -18.413  0.00  0.00    -0.287 N 
ATOM     15  C   UNL d   1       8.782  -2.004 -18.755  0.00  0.00     0.134 C 
ATOM     16  C   UNL d   1       7.373   0.064 -18.279  0.00  0.00     0.185 A 
ATOM     17  N   UNL d   1       7.563   1.375 -18.004  0.00  0.00    -0.127 NA
ATOM     18  N   UNL d   1       8.925   1.567 -17.941  0.00  0.00    -0.122 NA
BRANCH  16  19
ATOM     19  C   UNL d   1       6.033  -0.490 -18.431  0.00  0.00     0.120 A 
ATOM     20  N   UNL d   1       5.137   0.285 -19.077  0.00  0.00    -0.221 NA
ATOM     21  C   UNL d   1       3.908  -0.200 -19.240  0.00  0.00     0.199 A 
ATOM     22  N   UNL d   1       3.465  -1.391 -18.849  0.00  0.00    -0.223 NA
ATOM     23  C   UNL d   1       4.341  -2.181 -18.196  0.00  0.00     0.102 A 
ATOM     24  C   UNL d   1       5.670  -1.768 -17.953  0.00  0.00     0.043 A 
ENDBRANCH  16  19
ENDBRANCH  12  13
ENDBRANCH  11  12
ENDBRANCH  10  11
ENDBRANCH   9  10
ENDBRANCH   1   9
BRANCH   6  25
ATOM     25  C   UNL d   1       9.024   5.564 -10.641  0.00  0.00     0.056 A 
ATOM     26  C   UNL d   1       8.585   5.190  -9.351  0.00  0.00     0.017 A 
ATOM     27  C   UNL d   1       8.946   5.946  -8.214  0.00  0.00     0.005 A 
ATOM     28  C   UNL d   1       9.779   7.081  -8.353  0.00  0.00     0.072 A 
ATOM     29  C   UNL d   1      10.245   7.436  -9.633  0.00  0.00     0.005 A 
ATOM     30  C   UNL d   1       9.863   6.699 -10.763  0.00  0.00     0.017 A 
BRANCH  28  31
ATOM     31  C   UNL d   1      10.176   7.904  -7.144  0.00  0.00     0.419 C 
ATOM     32  F   UNL d   1      10.763   9.050  -7.497  0.00  0.00    -0.166 F 
ATOM     33  F   UNL d   1       9.092   8.198  -6.431  0.00  0.00    -0.166 F 
ATOM     34  F   UNL d   1      11.027   7.197  -6.398  0.00  0.00    -0.166 F 
ENDBRANCH  28  31
ENDBRANCH   6  25
TORSDOF 8
