REMARK  7 active torsions:
REMARK  status: ('A' for Active; 'I' for Inactive)
REMARK    1  A    between atoms: C_6  and  C_7 
REMARK    2  A    between atoms: C_10  and  S_11 
REMARK    3  A    between atoms: S_11  and  C_12 
REMARK    4  A    between atoms: C_12  and  C_13 
REMARK    5  A    between atoms: C_13  and  C_14 
REMARK    6  A    between atoms: C_14  and  N_16 
REMARK    7  A    between atoms: C_23  and  C_24 
ROOT
ATOM      1  C   UNL d   1      12.104   4.010 -18.595  0.00  0.00     0.220 C 
ATOM      2  C   UNL d   1      10.767   4.507 -19.200  0.00  0.00     0.035 C 
ENDROOT
BRANCH   1   3
ATOM      3  C   UNL d   1      11.832   2.611 -17.974  0.00  0.00     0.045 C 
BRANCH   3   4
ATOM      4  C   UNL d   1      11.901   1.422 -18.957  0.00  0.00     0.067 C 
BRANCH   4   5
ATOM      5  S   UNL d   1      10.998  -0.072 -18.401  0.00  0.00    -0.075 SA
BRANCH   5   6
ATOM      6  C   UNL d   1      10.288   0.454 -16.881  0.00  0.00     0.193 A 
ATOM      7  N   UNL d   1      11.057   0.795 -15.805  0.00  0.00    -0.122 NA
ATOM      8  N   UNL d   1      10.162   1.188 -14.849  0.00  0.00    -0.128 NA
ATOM      9  C   UNL d   1       8.940   1.091 -15.395  0.00  0.00     0.167 A 
ATOM     10  N   UNL d   1       9.000   0.614 -16.662  0.00  0.00    -0.289 N 
ATOM     11  C   UNL d   1       7.886   0.286 -17.570  0.00  0.00     0.134 C 
BRANCH   9  12
ATOM     12  C   UNL d   1       7.728   1.417 -14.663  0.00  0.00     0.037 A 
ATOM     13  C   UNL d   1       7.480   2.682 -14.062  0.00  0.00     0.021 A 
ATOM     14  C   UNL d   1       8.408   3.756 -14.129  0.00  0.00     0.003 A 
ATOM     15  C   UNL d   1       6.272   2.907 -13.327  0.00  0.00     0.081 A 
ATOM     16  C   UNL d   1       8.120   4.960 -13.476  0.00  0.00     0.015 A 
ATOM     17  C   UNL d   1       6.899   5.080 -12.786  0.00  0.00     0.059 A 
ATOM     18  C   UNL d   1       6.536   6.362 -12.082  0.00  0.00     0.052 C 
ATOM     19  N   UNL d   1       5.992   4.078 -12.724  0.00  0.00    -0.250 NA
ATOM     20  C   UNL d   1       5.362   1.834 -13.213  0.00  0.00     0.019 A 
ATOM     21  C   UNL d   1       5.593   0.594 -13.821  0.00  0.00     0.002 A 
ATOM     22  C   UNL d   1       6.774   0.387 -14.538  0.00  0.00     0.003 A 
ENDBRANCH   9  12
ENDBRANCH   5   6
ENDBRANCH   4   5
ENDBRANCH   3   4
ENDBRANCH   1   3
BRANCH   1  23
ATOM     23  N   UNL d   1      12.586   4.942 -17.546  0.00  0.00     0.136 N 
ATOM     24  C   UNL d   1      12.548   6.369 -17.876  0.00  0.00     0.255 C 
ATOM     25  C   UNL d   1      13.429   6.748 -19.084  0.00  0.00     0.061 C 
ATOM     26  C   UNL d   1      14.899   6.975 -18.726  0.00  0.00    -0.026 A 
ATOM     27  C   UNL d   1      15.662   5.923 -18.149  0.00  0.00    -0.023 A 
ATOM     28  C   UNL d   1      15.511   8.237 -18.959  0.00  0.00    -0.002 A 
ATOM     29  C   UNL d   1      15.062   4.558 -17.869  0.00  0.00     0.061 C 
ATOM     30  C   UNL d   1      17.018   6.121 -17.800  0.00  0.00     0.017 A 
ATOM     31  C   UNL d   1      13.866   4.604 -16.905  0.00  0.00     0.255 C 
ATOM     32  C   UNL d   1      17.636   7.359 -18.041  0.00  0.00     0.105 A 
ATOM     33  C   UNL d   1      16.870   8.387 -18.614  0.00  0.00     0.115 A 
ATOM     34  N   UNL d   1      18.918   7.804 -17.790  0.00  0.00    -0.217 NA
ATOM     35  O   UNL d   1      17.675   9.501 -18.730  0.00  0.00    -0.285 OA
ATOM     36  C   UNL d   1      18.879   9.069 -18.228  0.00  0.00     0.256 A 
ATOM     37  C   UNL d   1      14.756   9.416 -19.555  0.00  0.00     0.033 C 
BRANCH  36  38
ATOM     38  C   UNL d   1      20.018  10.037 -18.215  0.00  0.00     0.458 C 
ATOM     39  F   UNL d   1      19.681  11.127 -18.865  0.00  0.00    -0.163 F 
ATOM     40  F   UNL d   1      20.345  10.360 -16.961  0.00  0.00    -0.163 F 
ATOM     41  F   UNL d   1      21.086   9.520 -18.829  0.00  0.00    -0.163 F 
ENDBRANCH  36  38
ENDBRANCH   1  23
TORSDOF 7
