REMARK  2 active torsions:
REMARK  status: ('A' for Active; 'I' for Inactive)
REMARK    1  A    between atoms: N_2  and  C_5 
REMARK    2  A    between atoms: C_5  and  C_6 
ROOT
ATOM      1  C   UNL d   1      10.511   6.759  -6.145  0.00  0.00     0.250 C 
ATOM      2  N   UNL d   1       9.756   7.255  -7.324  0.00  0.00     0.002 N 
ATOM      3  C   UNL d   1       8.895   6.166  -7.862  0.00  0.00     0.250 C 
ATOM      4  C   UNL d   1       8.907   8.375  -6.860  0.00  0.00     0.250 C 
ENDROOT
BRANCH   2   5
ATOM      5  C   UNL d   1      10.743   7.705  -8.349  0.00  0.00     0.252 C 
BRANCH   5   6
ATOM      6  C   UNL d   1      10.150   8.332  -9.627  0.00  0.00     0.215 C 
ATOM      7  O   UNL d   1      11.211   8.788 -10.437  0.00  0.00    -0.219 OA
ENDBRANCH   5   6
ENDBRANCH   2   5
TORSDOF 2
