REMARK  3 active torsions:
REMARK  status: ('A' for Active; 'I' for Inactive)
REMARK    1  A    between atoms: C_2  and  C_3 
REMARK    2  A    between atoms: C_3  and  N_4 
REMARK    3  A    between atoms: N_7  and  C_8 
ROOT
ATOM      1  N   UNL d   1       5.418  -1.035 -16.084  0.00  0.00     0.141 N 
ATOM      2  C   UNL d   1       4.987  -0.674 -14.727  0.00  0.00     0.274 C 
ATOM      3  C   UNL d   1       6.159  -0.072 -13.923  0.00  0.00     0.137 C 
ATOM      4  N   UNL d   1       6.734   1.049 -14.648  0.00  0.00    -0.344 N 
ATOM      5  C   UNL d   1       7.082   0.786 -16.032  0.00  0.00     0.137 C 
ATOM      6  C   UNL d   1       5.888   0.174 -16.773  0.00  0.00     0.274 C 
ENDROOT
BRANCH   4   7
ATOM      7  C   UNL d   1       6.937   2.310 -14.053  0.00  0.00     0.068 A 
ATOM      8  C   UNL d   1       8.186   2.989 -14.135  0.00  0.00     0.084 A 
ATOM      9  C   UNL d   1       8.344   4.245 -13.515  0.00  0.00     0.070 A 
ATOM     10 CL   UNL d   1       9.558   2.285 -14.936  0.00  0.00    -0.080 Cl
ATOM     11  C   UNL d   1       7.277   4.824 -12.807  0.00  0.00     0.012 A 
ATOM     12 CL   UNL d   1       9.859   5.067 -13.582  0.00  0.00    -0.081 Cl
ATOM     13  C   UNL d   1       6.046   4.155 -12.709  0.00  0.00     0.002 A 
ATOM     14  C   UNL d   1       5.879   2.902 -13.321  0.00  0.00     0.018 A 
ENDBRANCH   4   7
BRANCH   1  15
ATOM     15  C   UNL d   1       4.297  -1.630 -16.802  0.00  0.00     0.250 C 
BRANCH  15  16
ATOM     16  C   UNL d   1       4.734  -2.295 -18.123  0.00  0.00     0.035 C 
ATOM     17  C   UNL d   1       3.539  -2.734 -18.968  0.00  0.00     0.002 C 
ENDBRANCH  15  16
ENDBRANCH   1  15
TORSDOF 3
