REMARK  5 active torsions:
REMARK  status: ('A' for Active; 'I' for Inactive)
REMARK    1  A    between atoms: C_6  and  N_7 
REMARK    2  A    between atoms: N_7  and  C_8 
REMARK    3  A    between atoms: C_13  and  S_14 
REMARK    4  A    between atoms: S_14  and  C_15 
REMARK    5  A    between atoms: C_15  and  C_16 
ROOT
ATOM      1  C   UNL d   1       6.743   1.126 -15.193  0.00  0.00     0.167 A 
ATOM      2  C   UNL d   1       5.663   0.684 -14.410  0.00  0.00     0.070 A 
ATOM      3  C   UNL d   1       4.863  -0.338 -14.954  0.00  0.00     0.144 A 
ATOM      4 CL   UNL d   1       3.451  -0.808 -14.102  0.00  0.00    -0.061 Cl
ATOM      5  N   UNL d   1       5.141  -0.906 -16.146  0.00  0.00    -0.210 NA
ATOM      6  C   UNL d   1       6.222  -0.451 -16.772  0.00  0.00     0.193 A 
ATOM      7  N   UNL d   1       7.032   0.533 -16.371  0.00  0.00    -0.202 NA
ENDROOT
BRANCH   1   8
ATOM      8  N   UNL d   1       7.595   2.178 -14.829  0.00  0.00    -0.227 NA
BRANCH   8   9
ATOM      9  C   UNL d   1       7.413   3.237 -13.920  0.00  0.00     0.079 A 
ATOM     10  C   UNL d   1       6.136   3.524 -13.383  0.00  0.00     0.019 A 
ATOM     11  C   UNL d   1       5.977   4.535 -12.414  0.00  0.00     0.001 A 
ATOM     12  C   UNL d   1       7.061   5.321 -12.012  0.00  0.00    -0.004 A 
ATOM     13  C   UNL d   1       8.325   5.096 -12.576  0.00  0.00    -0.024 A 
ATOM     14  C   UNL d   1       9.465   6.005 -12.146  0.00  0.00     0.031 C 
ATOM     15  C   UNL d   1       8.517   4.055 -13.527  0.00  0.00    -0.008 A 
ATOM     16  C   UNL d   1       9.917   3.845 -14.110  0.00  0.00     0.032 C 
ENDBRANCH   8   9
ENDBRANCH   1   8
BRANCH   6  17
ATOM     17  S   UNL d   1       6.659  -1.268 -18.286  0.00  0.00    -0.064 SA
BRANCH  17  18
ATOM     18  C   UNL d   1       6.337   0.085 -19.436  0.00  0.00     0.162 C 
BRANCH  18  19
ATOM     19  C   UNL d   1       4.984  -0.060 -20.120  0.00  0.00     0.197 C 
ATOM     20  O   UNL d   1       3.938   0.376 -19.647  0.00  0.00    -0.647 OA
ATOM     21  O   UNL d   1       5.099  -0.728 -21.298  0.00  0.00    -0.647 OA
ENDBRANCH  18  19
ENDBRANCH  17  18
ENDBRANCH   6  17
TORSDOF 5
