REMARK  9 active torsions:
REMARK  status: ('A' for Active; 'I' for Inactive)
REMARK    1  A    between atoms: C_3  and  C_4 
REMARK    2  A    between atoms: C_4  and  C_5 
REMARK    3  A    between atoms: C_5  and  N_6 
REMARK    4  A    between atoms: N_6  and  C_7 
REMARK    5  A    between atoms: N_6  and  C_22 
REMARK    6  A    between atoms: C_7  and  C_8 
REMARK    7  A    between atoms: C_8  and  C_9 
REMARK    8  A    between atoms: C_9  and  N_10 
REMARK    9  A    between atoms: N_13  and  C_14 
ROOT
ATOM      1  N   UNL d   1      12.687   4.796 -14.838  0.00  0.00    -0.196 NA
ATOM      2  C   UNL d   1      12.132   3.835 -15.134  0.00  0.00     0.074 C 
ATOM      3  C   UNL d   1      11.404   2.611 -15.503  0.00  0.00     0.107 C 
ENDROOT
BRANCH   3   4
ATOM      4  C   UNL d   1       9.881   2.749 -15.472  0.00  0.00     0.051 C 
BRANCH   4   5
ATOM      5  C   UNL d   1       9.374   3.323 -14.125  0.00  0.00     0.251 C 
BRANCH   5   6
ATOM      6  N   UNL d   1       7.912   3.478 -14.056  0.00  0.00     0.135 N 
BRANCH   6   7
ATOM      7  C   UNL d   1       7.503   4.312 -12.890  0.00  0.00     0.252 C 
BRANCH   7   8
ATOM      8  C   UNL d   1       8.662   5.062 -12.216  0.00  0.00     0.071 C 
BRANCH   8   9
ATOM      9  C   UNL d   1       8.243   5.864 -10.987  0.00  0.00     0.253 C 
BRANCH   9  10
ATOM     10  N   UNL d   1       9.441   6.016 -10.153  0.00  0.00     0.141 N 
ATOM     11  C   UNL d   1       9.075   5.691  -8.780  0.00  0.00     0.274 C 
ATOM     12  C   UNL d   1      10.292   5.823  -7.859  0.00  0.00     0.137 C 
ATOM     13  N   UNL d   1      10.879   7.157  -7.971  0.00  0.00    -0.344 N 
ATOM     14  C   UNL d   1      11.154   7.583  -9.346  0.00  0.00     0.137 C 
ATOM     15  C   UNL d   1       9.910   7.400 -10.227  0.00  0.00     0.274 C 
BRANCH  13  16
ATOM     16  C   UNL d   1      11.087   7.966  -6.848  0.00  0.00     0.056 A 
ATOM     17  C   UNL d   1      11.232   7.413  -5.552  0.00  0.00     0.017 A 
ATOM     18  C   UNL d   1      11.459   8.243  -4.437  0.00  0.00     0.002 A 
ATOM     19  C   UNL d   1      11.537   9.633  -4.594  0.00  0.00     0.000 A 
ATOM     20  C   UNL d   1      11.405  10.197  -5.873  0.00  0.00     0.002 A 
ATOM     21  C   UNL d   1      11.175   9.367  -6.987  0.00  0.00     0.017 A 
ENDBRANCH  13  16
ENDBRANCH   9  10
ENDBRANCH   8   9
ENDBRANCH   7   8
ENDBRANCH   6   7
BRANCH   6  22
ATOM     22  C   UNL d   1       7.221   2.161 -14.162  0.00  0.00     0.224 C 
ATOM     23  C   UNL d   1       7.069   1.747 -15.695  0.00  0.00     0.059 C 
ATOM     24  C   UNL d   1       6.284   0.471 -15.874  0.00  0.00    -0.022 A 
ATOM     25  C   UNL d   1       5.420  -0.058 -14.884  0.00  0.00    -0.026 A 
ATOM     26  C   UNL d   1       6.464  -0.217 -17.091  0.00  0.00     0.023 A 
ATOM     27  C   UNL d   1       5.271   0.631 -13.543  0.00  0.00     0.028 C 
ATOM     28  C   UNL d   1       4.696  -1.234 -15.155  0.00  0.00    -0.003 A 
ATOM     29  C   UNL d   1       5.826   2.066 -13.503  0.00  0.00     0.038 C 
ATOM     30  C   UNL d   1       4.849  -1.889 -16.390  0.00  0.00     0.027 A 
ATOM     31  C   UNL d   1       5.742  -1.395 -17.362  0.00  0.00     0.131 A 
ATOM     32  O   UNL d   1       5.896  -2.029 -18.555  0.00  0.00    -0.190 OA
ENDBRANCH   6  22
ENDBRANCH   5   6
ENDBRANCH   4   5
ENDBRANCH   3   4
TORSDOF 9
