REMARK  6 active torsions:
REMARK  status: ('A' for Active; 'I' for Inactive)
REMARK    1  A    between atoms: O_2  and  C_3 
REMARK    2  A    between atoms: C_6  and  O_7 
REMARK    3  A    between atoms: O_7  and  C_8 
REMARK    4  A    between atoms: C_8  and  C_9 
REMARK    5  A    between atoms: C_9  and  N_10 
REMARK       I    between atoms: N_13  and  C_14 
REMARK    6  A    between atoms: C_14  and  C_16 
ROOT
ATOM      1  N   UNL d   1       9.444   5.596 -11.586  0.00  0.00     0.144 N 
ATOM      2  C   UNL d   1       8.719   6.868 -11.637  0.00  0.00     0.274 C 
ATOM      3  C   UNL d   1       9.549   8.018 -11.006  0.00  0.00     0.140 C 
ATOM      4  N   UNL d   1       9.965   7.653  -9.629  0.00  0.00    -0.311 N 
ATOM      5  C   UNL d   1       9.748   8.439  -8.552  0.00  0.00     0.275 C 
ATOM      6  O   UNL d   1       9.097   9.464  -8.621  0.00  0.00    -0.266 OA
ATOM      7  C   UNL d   1      10.667   6.348  -9.588  0.00  0.00     0.140 C 
ATOM      8  C   UNL d   1       9.726   5.287 -10.192  0.00  0.00     0.274 C 
ENDROOT
BRANCH   1   9
ATOM      9  C   UNL d   1       8.661   4.505 -12.134  0.00  0.00     0.283 C 
BRANCH   9  10
ATOM     10  C   UNL d   1       8.421   4.693 -13.649  0.00  0.00     0.184 C 
BRANCH  10  11
ATOM     11  O   UNL d   1       8.437   3.451 -14.328  0.00  0.00    -0.329 OA
BRANCH  11  12
ATOM     12  C   UNL d   1       7.405   2.568 -14.117  0.00  0.00     0.094 A 
ATOM     13  C   UNL d   1       7.538   1.292 -14.698  0.00  0.00     0.026 A 
ATOM     14  C   UNL d   1       6.542   0.318 -14.531  0.00  0.00     0.026 A 
ATOM     15  C   UNL d   1       5.381   0.600 -13.779  0.00  0.00     0.094 A 
ATOM     16  C   UNL d   1       5.276   1.858 -13.155  0.00  0.00     0.026 A 
ATOM     17  C   UNL d   1       6.250   2.850 -13.344  0.00  0.00     0.026 A 
BRANCH  15  18
ATOM     18  O   UNL d   1       4.335  -0.290 -13.653  0.00  0.00    -0.328 OA
ATOM     19  C   UNL d   1       4.015  -1.064 -14.810  0.00  0.00     0.181 C 
ENDBRANCH  15  18
ENDBRANCH  11  12
ENDBRANCH  10  11
ENDBRANCH   9  10
ENDBRANCH   1   9
BRANCH   5  20
ATOM     20  C   UNL d   1      10.381   8.155  -7.230  0.00  0.00     0.139 A 
ATOM     21  N   UNL d   1      10.701   9.237  -6.405  0.00  0.00    -0.222 NA
ATOM     22  C   UNL d   1      11.249   8.816  -5.216  0.00  0.00     0.163 A 
ATOM     23  C   UNL d   1      11.268   7.396  -5.318  0.00  0.00     0.037 A 
ATOM     24  N   UNL d   1      11.670   9.565  -4.150  0.00  0.00    -0.225 NA
ATOM     25  C   UNL d   1      10.672   7.007  -6.529  0.00  0.00     0.027 A 
ATOM     26  C   UNL d   1      11.828   6.702  -4.223  0.00  0.00     0.005 A 
ATOM     27  C   UNL d   1      12.287   7.423  -3.103  0.00  0.00     0.021 A 
ATOM     28  C   UNL d   1      12.171   8.828  -3.126  0.00  0.00     0.101 A 
ENDBRANCH   5  20
TORSDOF 6
