REMARK  7 active torsions:
REMARK  status: ('A' for Active; 'I' for Inactive)
REMARK    1  A    between atoms: C_2  and  C_3 
REMARK    2  A    between atoms: C_2  and  C_11 
REMARK    3  A    between atoms: C_3  and  O_4 
REMARK    4  A    between atoms: O_4  and  C_5 
REMARK    5  A    between atoms: C_5  and  C_6 
REMARK    6  A    between atoms: C_11  and  N_12 
REMARK    7  A    between atoms: N_15  and  C_16 
ROOT
ATOM      1  N   UNL d   1       9.602   6.724  -8.539  0.00  0.00     0.144 N 
ATOM      2  C   UNL d   1      10.603   5.954  -7.809  0.00  0.00     0.274 C 
ATOM      3  C   UNL d   1      11.690   6.827  -7.179  0.00  0.00     0.137 C 
ATOM      4  N   UNL d   1      11.069   7.847  -6.338  0.00  0.00    -0.343 N 
ATOM      5  C   UNL d   1      10.011   8.616  -6.977  0.00  0.00     0.137 C 
ATOM      6  C   UNL d   1       8.989   7.662  -7.596  0.00  0.00     0.274 C 
ENDROOT
BRANCH   1   7
ATOM      7  C   UNL d   1       8.597   5.832  -9.107  0.00  0.00     0.286 C 
BRANCH   7   8
ATOM      8  C   UNL d   1       8.954   5.212 -10.456  0.00  0.00     0.215 C 
ATOM      9  O   UNL d   1       7.813   4.414 -10.697  0.00  0.00    -0.219 OA
BRANCH   8  10
ATOM     10  C   UNL d   1       9.181   6.230 -11.609  0.00  0.00     0.177 C 
BRANCH  10  11
ATOM     11  O   UNL d   1       9.828   5.567 -12.685  0.00  0.00    -0.349 OA
BRANCH  11  12
ATOM     12  C   UNL d   1       8.979   4.713 -13.453  0.00  0.00     0.172 C 
BRANCH  12  13
ATOM     13  C   UNL d   1       9.782   3.478 -13.864  0.00  0.00     0.145 C 
ATOM     14  O   UNL d   1       8.878   2.525 -14.395  0.00  0.00    -0.354 OA
ATOM     15  C   UNL d   1       9.642   1.594 -15.139  0.00  0.00     0.142 C 
ATOM     16  C   UNL d   1      10.656   2.471 -15.867  0.00  0.00     0.035 C 
ATOM     17  C   UNL d   1      10.779   3.715 -14.987  0.00  0.00     0.035 C 
ENDBRANCH  12  13
ENDBRANCH  11  12
ENDBRANCH  10  11
ENDBRANCH   8  10
ENDBRANCH   7   8
ENDBRANCH   1   7
BRANCH   4  18
ATOM     18  C   UNL d   1      11.460   8.073  -5.009  0.00  0.00     0.084 A 
ATOM     19  C   UNL d   1      11.461   9.385  -4.466  0.00  0.00     0.155 A 
ATOM     20  C   UNL d   1      11.859   9.592  -3.134  0.00  0.00     0.031 A 
ATOM     21  F   UNL d   1      11.086  10.460  -5.196  0.00  0.00    -0.203 F 
ATOM     22  C   UNL d   1      12.266   8.506  -2.332  0.00  0.00     0.002 A 
ATOM     23  C   UNL d   1      12.260   7.207  -2.854  0.00  0.00     0.002 A 
ATOM     24  C   UNL d   1      11.858   6.998  -4.192  0.00  0.00     0.019 A 
ENDBRANCH   4  18
TORSDOF 7
