REMARK  8 active torsions:
REMARK  status: ('A' for Active; 'I' for Inactive)
REMARK    1  A    between atoms: N_4  and  C_5 
REMARK    2  A    between atoms: C_5  and  C_6 
REMARK    3  A    between atoms: C_6  and  C_7 
REMARK    4  A    between atoms: C_7  and  C_8 
REMARK    5  A    between atoms: C_8  and  N_9 
REMARK    6  A    between atoms: N_12  and  C_13 
REMARK    7  A    between atoms: C_15  and  C_16 
REMARK    8  A    between atoms: C_21  and  C_22 
ROOT
ATOM      1  N   UNL d   1       9.479   4.626 -12.070  0.00  0.00     0.141 N 
ATOM      2  C   UNL d   1      10.166   5.077 -13.273  0.00  0.00     0.274 C 
ATOM      3  C   UNL d   1      10.610   3.926 -14.180  0.00  0.00     0.138 C 
ATOM      4  N   UNL d   1       9.407   3.251 -14.581  0.00  0.00    -0.330 N 
ATOM      5  C   UNL d   1       8.551   2.859 -13.484  0.00  0.00     0.138 C 
ATOM      6  C   UNL d   1       8.232   4.038 -12.528  0.00  0.00     0.274 C 
ENDROOT
BRANCH   1   7
ATOM      7  C   UNL d   1       9.277   5.779 -11.184  0.00  0.00     0.251 C 
BRANCH   7   8
ATOM      8  C   UNL d   1       8.858   5.328  -9.772  0.00  0.00     0.037 C 
BRANCH   8   9
ATOM      9  C   UNL d   1       9.141   6.372  -8.677  0.00  0.00     0.027 C 
BRANCH   9  10
ATOM     10  C   UNL d   1      10.645   6.454  -8.384  0.00  0.00     0.111 C 
BRANCH  10  11
ATOM     11  N   UNL d   1      10.972   7.235  -7.225  0.00  0.00    -0.280 N 
ATOM     12  C   UNL d   1      11.255   6.662  -6.004  0.00  0.00     0.080 A 
ATOM     13  C   UNL d   1      11.517   7.369  -4.872  0.00  0.00     0.052 A 
ATOM     14  C   UNL d   1      11.808   6.710  -3.544  0.00  0.00     0.038 C 
ATOM     15  C   UNL d   1      11.528   8.821  -4.928  0.00  0.00     0.262 A 
ATOM     16  N   UNL d   1      11.278   9.370  -6.205  0.00  0.00    -0.247 N 
ATOM     17  O   UNL d   1      11.748   9.538  -3.946  0.00  0.00    -0.267 OA
ATOM     18  C   UNL d   1      10.983   8.627  -7.365  0.00  0.00     0.334 A 
ATOM     19  C   UNL d   1      11.295  10.789  -6.321  0.00  0.00     0.138 C 
ATOM     20  O   UNL d   1      10.755   9.178  -8.443  0.00  0.00    -0.246 OA
ENDBRANCH  10  11
ENDBRANCH   9  10
ENDBRANCH   8   9
ENDBRANCH   7   8
ENDBRANCH   1   7
BRANCH   4  21
ATOM     21  C   UNL d   1       9.100   2.949 -15.915  0.00  0.00     0.143 A 
ATOM     22  N   UNL d   1       8.297   1.899 -16.124  0.00  0.00    -0.214 NA
ATOM     23  C   UNL d   1       7.889   1.671 -17.372  0.00  0.00     0.140 A 
ATOM     24  N   UNL d   1       8.246   2.394 -18.438  0.00  0.00    -0.227 NA
ATOM     25  C   UNL d   1       9.090   3.429 -18.248  0.00  0.00     0.157 A 
ATOM     26  C   UNL d   1       9.531   3.776 -16.958  0.00  0.00     0.060 A 
BRANCH  23  27
ATOM     27  C   UNL d   1       6.961   0.473 -17.615  0.00  0.00     0.052 C 
ATOM     28  C   UNL d   1       5.786   0.924 -18.498  0.00  0.00     0.008 C 
ATOM     29  C   UNL d   1       6.357  -0.050 -16.290  0.00  0.00     0.008 C 
ATOM     30  C   UNL d   1       7.715  -0.678 -18.307  0.00  0.00     0.008 C 
ENDBRANCH  23  27
BRANCH  25  31
ATOM     31  C   UNL d   1       9.465   4.290 -19.445  0.00  0.00     0.435 C 
ATOM     32  F   UNL d   1       9.337   3.607 -20.583  0.00  0.00    -0.165 F 
ATOM     33  F   UNL d   1       8.671   5.358 -19.489  0.00  0.00    -0.165 F 
ATOM     34  F   UNL d   1      10.727   4.711 -19.343  0.00  0.00    -0.165 F 
ENDBRANCH  25  31
ENDBRANCH   4  21
TORSDOF 8
