REMARK  10 active torsions:
REMARK  status: ('A' for Active; 'I' for Inactive)
REMARK    1  A    between atoms: C_1  and  C_31 
REMARK    2  A    between atoms: C_2  and  C_3 
REMARK    3  A    between atoms: C_5  and  C_6 
REMARK    4  A    between atoms: C_6  and  C_7 
REMARK    5  A    between atoms: C_7  and  C_8 
REMARK    6  A    between atoms: C_8  and  C_9 
REMARK    7  A    between atoms: C_9  and  N_10 
REMARK    8  A    between atoms: N_13  and  C_14 
REMARK    9  A    between atoms: C_14  and  C_15 
REMARK   10  A    between atoms: C_14  and  C_21 
ROOT
ATOM      1  N   UNL d   1       9.090   0.579 -17.099  0.00  0.00     0.141 N 
ATOM      2  C   UNL d   1       9.564  -0.464 -18.008  0.00  0.00     0.285 C 
ATOM      3  C   UNL d   1      10.545   0.108 -19.038  0.00  0.00     0.286 C 
ATOM      4  N   UNL d   1      11.710   0.769 -18.439  0.00  0.00     0.147 N 
ATOM      5  C   UNL d   1      11.229   1.767 -17.494  0.00  0.00     0.286 C 
ATOM      6  C   UNL d   1      10.276   1.174 -16.440  0.00  0.00     0.285 C 
ENDROOT
BRANCH   1   7
ATOM      7  C   UNL d   1       8.126   0.025 -16.147  0.00  0.00     0.250 C 
BRANCH   7   8
ATOM      8  C   UNL d   1       7.210   1.017 -15.404  0.00  0.00     0.036 C 
BRANCH   8   9
ATOM      9  C   UNL d   1       7.958   2.062 -14.546  0.00  0.00     0.009 C 
BRANCH   9  10
ATOM     10  C   UNL d   1       7.056   3.074 -13.844  0.00  0.00     0.054 C 
BRANCH  10  11
ATOM     11  C   UNL d   1       7.866   4.085 -13.093  0.00  0.00     0.104 A 
ATOM     12  C   UNL d   1       7.768   4.556 -11.821  0.00  0.00     0.044 A 
ATOM     13  C   UNL d   1       8.821   5.508 -11.714  0.00  0.00     0.110 A 
ATOM     14  N   UNL d   1       9.540   5.566 -12.824  0.00  0.00    -0.127 NA
ATOM     15  O   UNL d   1       8.916   4.692 -13.727  0.00  0.00    -0.215 OA
BRANCH  13  16
ATOM     16  C   UNL d   1       9.043   6.213 -10.452  0.00  0.00     0.021 C 
ATOM     17  C   UNL d   1      10.195   6.844 -10.131  0.00  0.00     0.002 C 
BRANCH  17  18
ATOM     18  C   UNL d   1      10.459   7.598  -8.898  0.00  0.00     0.000 A 
ATOM     19  C   UNL d   1       9.466   7.854  -7.926  0.00  0.00     0.000 A 
ATOM     20  C   UNL d   1       9.767   8.584  -6.763  0.00  0.00     0.000 A 
ATOM     21  C   UNL d   1      11.073   9.061  -6.551  0.00  0.00     0.000 A 
ATOM     22  C   UNL d   1      12.068   8.800  -7.505  0.00  0.00     0.000 A 
ATOM     23  C   UNL d   1      11.767   8.080  -8.674  0.00  0.00     0.000 A 
ENDBRANCH  17  18
ENDBRANCH  13  16
ENDBRANCH  10  11
ENDBRANCH   9  10
ENDBRANCH   8   9
ENDBRANCH   7   8
ENDBRANCH   1   7
BRANCH   4  24
ATOM     24  C   UNL d   1      12.673   1.350 -19.390  0.00  0.00     0.264 C 
BRANCH  24  25
ATOM     25  C   UNL d   1      12.111   2.499 -20.245  0.00  0.00     0.013 A 
ATOM     26  C   UNL d   1      12.309   3.840 -19.838  0.00  0.00    -0.002 A 
ATOM     27  C   UNL d   1      11.748   4.900 -20.580  0.00  0.00    -0.000 A 
ATOM     28  C   UNL d   1      10.986   4.636 -21.735  0.00  0.00    -0.000 A 
ATOM     29  C   UNL d   1      10.769   3.309 -22.137  0.00  0.00    -0.000 A 
ATOM     30  C   UNL d   1      11.322   2.258 -21.395  0.00  0.00    -0.002 A 
ENDBRANCH  24  25
BRANCH  24  31
ATOM     31  C   UNL d   1      13.452   0.300 -20.208  0.00  0.00     0.013 A 
ATOM     32  C   UNL d   1      14.853   0.204 -20.036  0.00  0.00    -0.002 A 
ATOM     33  C   UNL d   1      15.589  -0.748 -20.768  0.00  0.00    -0.000 A 
ATOM     34  C   UNL d   1      14.936  -1.629 -21.654  0.00  0.00    -0.000 A 
ATOM     35  C   UNL d   1      13.547  -1.552 -21.819  0.00  0.00    -0.000 A 
ATOM     36  C   UNL d   1      12.819  -0.587 -21.118  0.00  0.00    -0.002 A 
ENDBRANCH  24  31
ENDBRANCH   4  24
TORSDOF 10
