REMARK  4 active torsions:
REMARK  status: ('A' for Active; 'I' for Inactive)
REMARK    1  A    between atoms: N_4  and  C_5 
REMARK    2  A    between atoms: C_5  and  C_6 
REMARK    3  A    between atoms: N_15  and  C_17 
REMARK    4  A    between atoms: C_17  and  C_18 
REMARK       I    between atoms: C_18  and  N_20 
ROOT
ATOM      1  C   UNL d   1      13.017   2.843 -18.215  0.00  0.00     0.035 C 
ATOM      2  C   UNL d   1      11.806   3.815 -18.205  0.00  0.00     0.222 C 
ATOM      3  C   UNL d   1      11.910   4.832 -19.340  0.00  0.00     0.281 C 
ATOM      4  N   UNL d   1      10.697   5.645 -19.425  0.00  0.00     0.145 N 
ATOM      5  C   UNL d   1      10.545   6.385 -18.173  0.00  0.00     0.283 C 
ATOM      6  C   UNL d   1      10.390   5.387 -17.001  0.00  0.00     0.253 C 
ATOM      7  N   UNL d   1      11.559   4.445 -16.866  0.00  0.00     0.006 N 
ATOM      8  C   UNL d   1      12.764   5.211 -16.380  0.00  0.00     0.250 C 
ENDROOT
BRANCH   7   9
ATOM      9  C   UNL d   1      11.216   3.312 -15.918  0.00  0.00     0.304 C 
BRANCH   9  10
ATOM     10  C   UNL d   1      10.720   3.741 -14.520  0.00  0.00     0.269 C 
ATOM     11  O   UNL d   1      11.472   4.432 -13.820  0.00  0.00    -0.270 OA
ATOM     12  N   UNL d   1       9.525   3.285 -14.117  0.00  0.00    -0.298 N 
ATOM     13  C   UNL d   1       8.619   4.074 -13.397  0.00  0.00     0.058 A 
ATOM     14  C   UNL d   1       8.825   2.117 -14.723  0.00  0.00     0.114 A 
ATOM     15  C   UNL d   1       7.339   3.585 -13.564  0.00  0.00    -0.004 A 
ATOM     16  C   UNL d   1       8.847   5.268 -12.670  0.00  0.00     0.017 A 
ATOM     17  C   UNL d   1       7.333   2.288 -14.343  0.00  0.00     0.052 A 
ATOM     18  C   UNL d   1       6.208   4.294 -13.108  0.00  0.00    -0.003 A 
ATOM     19  C   UNL d   1       6.416   5.519 -12.421  0.00  0.00    -0.000 A 
ATOM     20  C   UNL d   1       7.729   5.989 -12.194  0.00  0.00     0.002 A 
ENDBRANCH   9  10
ENDBRANCH   7   9
BRANCH   4  21
ATOM     21  C   UNL d   1      10.826   6.597 -20.536  0.00  0.00     0.277 C 
BRANCH  21  22
ATOM     22  C   UNL d   1       9.500   7.202 -20.962  0.00  0.00     0.011 A 
ATOM     23  C   UNL d   1       8.356   6.387 -21.121  0.00  0.00    -0.002 A 
ATOM     24  C   UNL d   1       7.133   6.954 -21.531  0.00  0.00     0.011 A 
ATOM     25  C   UNL d   1       7.045   8.335 -21.786  0.00  0.00     0.058 A 
ATOM     26  C   UNL d   1       8.187   9.145 -21.643  0.00  0.00     0.011 A 
ATOM     27 CL   UNL d   1       5.545   9.034 -22.271  0.00  0.00    -0.082 Cl
ATOM     28  C   UNL d   1       9.413   8.580 -21.238  0.00  0.00    -0.002 A 
ENDBRANCH  21  22
ENDBRANCH   4  21
TORSDOF 4
