REMARK  5 active torsions:
REMARK  status: ('A' for Active; 'I' for Inactive)
REMARK    1  A    between atoms: C_5  and  N_6 
REMARK    2  A    between atoms: N_9  and  C_10 
REMARK    3  A    between atoms: C_10  and  C_11 
REMARK    4  A    between atoms: C_11  and  C_12 
REMARK    5  A    between atoms: C_12  and  C_13 
ROOT
ATOM      1  N   UNL d   1       7.701   4.608 -12.777  0.00  0.00    -0.343 N 
ATOM      2  C   UNL d   1       7.301   4.579 -11.376  0.00  0.00     0.137 C 
ATOM      3  C   UNL d   1       8.474   5.020 -10.480  0.00  0.00     0.274 C 
ATOM      4  N   UNL d   1       8.969   6.337 -10.898  0.00  0.00     0.141 N 
ATOM      5  C   UNL d   1       9.458   6.250 -12.273  0.00  0.00     0.274 C 
ATOM      6  C   UNL d   1       8.314   5.846 -13.222  0.00  0.00     0.137 C 
ENDROOT
BRANCH   1   7
ATOM      7  C   UNL d   1       7.606   3.475 -13.599  0.00  0.00     0.080 A 
ATOM      8  C   UNL d   1       8.713   3.007 -14.351  0.00  0.00     0.126 A 
ATOM      9  O   UNL d   1       9.931   3.636 -14.242  0.00  0.00    -0.321 OA
ATOM     10  C   UNL d   1       8.603   1.849 -15.162  0.00  0.00     0.086 A 
ATOM     11  C   UNL d   1      10.786   3.584 -15.385  0.00  0.00     0.200 C 
ATOM     12  C   UNL d   1      10.359   4.647 -16.410  0.00  0.00     0.043 C 
ATOM     13  C   UNL d   1      10.844   2.182 -16.010  0.00  0.00     0.265 C 
ATOM     14  N   UNL d   1       9.758   1.382 -15.867  0.00  0.00    -0.293 N 
ATOM     15  O   UNL d   1      11.850   1.858 -16.646  0.00  0.00    -0.269 OA
ATOM     16  C   UNL d   1       9.740   0.052 -16.490  0.00  0.00     0.134 C 
ATOM     17  C   UNL d   1       7.365   1.169 -15.216  0.00  0.00     0.019 A 
ATOM     18  C   UNL d   1       6.268   1.617 -14.452  0.00  0.00     0.003 A 
ATOM     19  C   UNL d   1       6.390   2.768 -13.648  0.00  0.00     0.019 A 
ENDBRANCH   1   7
BRANCH   4  20
ATOM     20  C   UNL d   1      10.038   6.776 -10.012  0.00  0.00     0.251 C 
BRANCH  20  21
ATOM     21  C   UNL d   1       9.499   7.195  -8.627  0.00  0.00     0.040 C 
BRANCH  21  22
ATOM     22  C   UNL d   1      10.489   6.838  -7.487  0.00  0.00     0.030 C 
BRANCH  22  23
ATOM     23  C   UNL d   1      10.797   7.963  -6.545  0.00  0.00    -0.002 A 
ATOM     24  C   UNL d   1      11.289   7.858  -5.191  0.00  0.00     0.015 A 
ATOM     25  C   UNL d   1      11.457   9.176  -4.676  0.00  0.00     0.081 A 
ATOM     26  C   UNL d   1      11.610   6.787  -4.326  0.00  0.00     0.001 A 
ATOM     27  N   UNL d   1      11.082  10.022  -5.696  0.00  0.00    -0.244 NA
ATOM     28  C   UNL d   1      11.908   9.417  -3.364  0.00  0.00     0.019 A 
ATOM     29  C   UNL d   1      10.713   9.302  -6.818  0.00  0.00     0.095 A 
ATOM     30  C   UNL d   1      12.234   8.331  -2.534  0.00  0.00     0.002 A 
ATOM     31  C   UNL d   1      12.080   7.014  -3.012  0.00  0.00     0.000 A 
ENDBRANCH  22  23
ENDBRANCH  21  22
ENDBRANCH  20  21
ENDBRANCH   4  20
TORSDOF 5
