REMARK  1 active torsions:
REMARK  status: ('A' for Active; 'I' for Inactive)
REMARK    1  A    between atoms: C_9  and  C_10 
ROOT
ATOM      1  C   UNL d   1       6.585   5.686 -12.070  0.00  0.00     0.031 C 
ATOM      2  C   UNL d   1       7.488   4.679 -12.749  0.00  0.00    -0.020 A 
ATOM      3  C   UNL d   1       8.873   4.671 -12.487  0.00  0.00    -0.003 A 
ATOM      4  C   UNL d   1       9.703   3.736 -13.131  0.00  0.00     0.020 A 
ATOM      5  C   UNL d   1       9.164   2.804 -14.042  0.00  0.00     0.099 A 
ATOM      6  C   UNL d   1       7.764   2.796 -14.304  0.00  0.00     0.099 A 
ATOM      7  C   UNL d   1       6.945   3.731 -13.640  0.00  0.00     0.016 A 
ATOM      8  N   UNL d   1       7.100   1.849 -15.082  0.00  0.00    -0.244 NA
ATOM      9  C   UNL d   1       7.548   1.261 -16.130  0.00  0.00     0.079 C 
ATOM     10  C   UNL d   1       8.843   1.630 -16.803  0.00  0.00     0.035 A 
ATOM     11  C   UNL d   1       8.893   1.703 -18.216  0.00  0.00    -0.001 A 
ATOM     12  C   UNL d   1      10.119   1.897 -18.899  0.00  0.00    -0.022 A 
ATOM     13  C   UNL d   1      10.128   1.931 -20.411  0.00  0.00     0.031 C 
ATOM     14  C   UNL d   1      11.310   2.033 -18.162  0.00  0.00    -0.003 A 
ATOM     15  C   UNL d   1      11.269   2.010 -16.756  0.00  0.00     0.019 A 
ATOM     16  C   UNL d   1      10.041   1.845 -16.083  0.00  0.00     0.083 A 
ATOM     17  N   UNL d   1      10.051   1.948 -14.692  0.00  0.00    -0.244 NA
ENDROOT
BRANCH   9  18
ATOM     18  C   UNL d   1       6.672   0.184 -16.699  0.00  0.00    -0.005 C 
ATOM     19  C   UNL d   1       5.285  -0.057 -16.102  0.00  0.00     0.063 C 
ATOM     20  C   UNL d   1       4.697  -1.437 -16.459  0.00  0.00     0.255 C 
ATOM     21  N   UNL d   1       4.835  -1.669 -17.891  0.00  0.00     0.141 N 
ATOM     22  C   UNL d   1       6.241  -1.788 -18.264  0.00  0.00     0.241 C 
ATOM     23  C   UNL d   1       4.102  -2.892 -18.240  0.00  0.00     0.286 C 
ATOM     24  C   UNL d   1       7.098  -0.689 -17.639  0.00  0.00     0.004 C 
ATOM     25  C   UNL d   1       6.441  -1.746 -19.794  0.00  0.00     0.040 C 
ENDBRANCH   9  18
TORSDOF 1
