REMARK  11 active torsions:
REMARK  status: ('A' for Active; 'I' for Inactive)
REMARK    1  A    between atoms: C_2  and  N_3 
REMARK    2  A    between atoms: N_3  and  C_4 
REMARK    3  A    between atoms: N_3  and  C_20 
REMARK    4  A    between atoms: C_4  and  C_5 
REMARK    5  A    between atoms: C_5  and  C_6 
REMARK    6  A    between atoms: C_6  and  C_7 
REMARK    7  A    between atoms: C_7  and  N_8 
REMARK       I    between atoms: N_8  and  C_9 
REMARK    8  A    between atoms: C_9  and  C_11 
REMARK    9  A    between atoms: C_20  and  C_21 
REMARK   10  A    between atoms: C_23  and  C_24 
REMARK   11  A    between atoms: C_30  and  O_31 
ROOT
ATOM      1  N   UNL d   1       7.007   3.955 -13.727  0.00  0.00     0.137 N 
ENDROOT
BRANCH   1   2
ATOM      2  C   UNL d   1       5.603   4.394 -13.772  0.00  0.00     0.250 C 
ATOM      3  C   UNL d   1       4.658   3.594 -12.851  0.00  0.00     0.037 C 
ENDBRANCH   1   2
BRANCH   1   4
ATOM      4  C   UNL d   1       7.650   4.208 -12.452  0.00  0.00     0.250 C 
BRANCH   4   5
ATOM      5  C   UNL d   1       7.995   5.696 -12.336  0.00  0.00     0.037 C 
BRANCH   5   6
ATOM      6  C   UNL d   1       8.633   5.866 -10.977  0.00  0.00     0.029 C 
BRANCH   6   7
ATOM      7  C   UNL d   1       9.374   7.186 -10.796  0.00  0.00     0.129 C 
BRANCH   7   8
ATOM      8  N   UNL d   1       9.842   7.414  -9.439  0.00  0.00    -0.233 NA
ATOM      9  C   UNL d   1      10.068   6.529  -8.450  0.00  0.00     0.293 C 
ATOM     10  O   UNL d   1       9.970   5.309  -8.566  0.00  0.00    -0.264 OA
BRANCH   9  11
ATOM     11  C   UNL d   1      10.557   7.130  -7.199  0.00  0.00     0.139 A 
ATOM     12  N   UNL d   1      10.223   8.434  -6.845  0.00  0.00    -0.241 NA
ATOM     13  C   UNL d   1      10.798   8.758  -5.632  0.00  0.00     0.082 A 
ATOM     14  C   UNL d   1      11.464   7.575  -5.189  0.00  0.00     0.019 A 
ATOM     15  C   UNL d   1      10.803   9.925  -4.862  0.00  0.00     0.019 A 
ATOM     16  C   UNL d   1      11.339   6.602  -6.215  0.00  0.00     0.025 A 
ATOM     17  C   UNL d   1      12.132   7.588  -3.940  0.00  0.00     0.002 A 
ATOM     18  C   UNL d   1      12.145   8.766  -3.169  0.00  0.00     0.000 A 
ATOM     19  C   UNL d   1      11.456   9.911  -3.609  0.00  0.00     0.002 A 
ENDBRANCH   9  11
ENDBRANCH   7   8
ENDBRANCH   6   7
ENDBRANCH   5   6
ENDBRANCH   4   5
ENDBRANCH   1   4
BRANCH   1  20
ATOM     20  C   UNL d   1       7.074   2.557 -14.130  0.00  0.00     0.251 C 
BRANCH  20  21
ATOM     21  C   UNL d   1       8.460   1.963 -14.354  0.00  0.00     0.038 A 
ATOM     22  C   UNL d   1       8.586   0.714 -15.196  0.00  0.00     0.026 A 
ATOM     23  C   UNL d   1       9.189   2.030 -15.689  0.00  0.00     0.007 A 
BRANCH  22  24
ATOM     24  C   UNL d   1       7.401   0.093 -15.894  0.00  0.00     0.002 A 
ATOM     25  C   UNL d   1       6.200  -0.298 -15.227  0.00  0.00     0.090 A 
ATOM     26  C   UNL d   1       5.110  -0.775 -15.982  0.00  0.00     0.026 A 
ATOM     27  C   UNL d   1       5.211  -0.935 -17.373  0.00  0.00     0.032 A 
ATOM     28  C   UNL d   1       6.416  -0.621 -18.026  0.00  0.00     0.140 A 
ATOM     29  C   UNL d   1       7.497  -0.100 -17.290  0.00  0.00     0.027 A 
ATOM     30  F   UNL d   1       6.529  -0.796 -19.367  0.00  0.00    -0.204 F 
BRANCH  25  31
ATOM     31  O   UNL d   1       5.958  -0.162 -13.876  0.00  0.00    -0.328 OA
ATOM     32  C   UNL d   1       6.860  -0.798 -12.974  0.00  0.00     0.181 C 
ENDBRANCH  25  31
ENDBRANCH  22  24
ENDBRANCH  20  21
ENDBRANCH   1  20
TORSDOF 11
