REMARK  0 active torsions:
REMARK  status: ('A' for Active; 'I' for Inactive)
ROOT
ATOM      1  C   UNL d   1      10.177   9.008  -7.328  0.00  0.00     0.052 C 
ATOM      2  C   UNL d   1      10.839   8.473  -6.061  0.00  0.00     0.065 A 
ATOM      3  C   UNL d   1      11.059   9.273  -4.912  0.00  0.00     0.168 A 
ATOM      4  O   UNL d   1      10.671  10.576  -4.893  0.00  0.00    -0.187 OA
ATOM      5  C   UNL d   1      11.700   8.725  -3.779  0.00  0.00     0.159 A 
ATOM      6  O   UNL d   1      11.917   9.481  -2.663  0.00  0.00    -0.188 OA
ATOM      7  C   UNL d   1      12.088   7.375  -3.795  0.00  0.00     0.048 A 
ATOM      8  C   UNL d   1      11.833   6.616  -4.950  0.00  0.00     0.078 A 
ATOM      9  N   UNL d   1      11.237   7.172  -6.045  0.00  0.00    -0.326 N 
ATOM     10  C   UNL d   1      11.048   6.342  -7.248  0.00  0.00     0.130 C 
ENDROOT
TORSDOF 0
