REMARK  3 active torsions:
REMARK  status: ('A' for Active; 'I' for Inactive)
REMARK    1  A    between atoms: S_2  and  C_4 
REMARK    2  A    between atoms: S_2  and  N_10 
REMARK    3  A    between atoms: C_12  and  C_13 
ROOT
ATOM      1  N   UNL d   1       9.790   3.564 -14.138  0.00  0.00    -0.231 N 
ATOM      2  C   UNL d   1      10.276   4.458 -13.204  0.00  0.00     0.093 A 
ATOM      3  C   UNL d   1       9.293   4.801 -12.308  0.00  0.00     0.039 A 
ATOM      4  C   UNL d   1       8.116   4.107 -12.742  0.00  0.00     0.020 A 
ATOM      5  C   UNL d   1       6.780   4.036 -12.278  0.00  0.00     0.002 A 
ATOM      6  C   UNL d   1       5.843   3.199 -12.911  0.00  0.00     0.000 A 
ATOM      7  C   UNL d   1       6.218   2.422 -14.021  0.00  0.00     0.002 A 
ATOM      8  C   UNL d   1       7.524   2.487 -14.521  0.00  0.00     0.018 A 
ATOM      9  C   UNL d   1       8.460   3.317 -13.883  0.00  0.00     0.075 A 
ENDROOT
BRANCH   1  10
ATOM     10  S   UNL d   1      10.730   2.899 -15.413  0.00  0.00     0.271 S 
ATOM     11  O   UNL d   1      10.372   1.474 -15.491  0.00  0.00    -0.200 OA
ATOM     12  O   UNL d   1      12.112   3.326 -15.147  0.00  0.00    -0.200 OA
BRANCH  10  13
ATOM     13  C   UNL d   1      10.143   3.776 -16.854  0.00  0.00     0.104 A 
ATOM     14  C   UNL d   1      10.262   5.180 -16.907  0.00  0.00     0.013 A 
ATOM     15  C   UNL d   1       9.794   5.875 -18.039  0.00  0.00     0.001 A 
ATOM     16  C   UNL d   1       9.214   5.167 -19.110  0.00  0.00     0.000 A 
ATOM     17  C   UNL d   1       9.107   3.764 -19.056  0.00  0.00     0.001 A 
ATOM     18  C   UNL d   1       9.567   3.063 -17.924  0.00  0.00     0.013 A 
ENDBRANCH  10  13
ENDBRANCH   1  10
BRANCH   3  19
ATOM     19  C   UNL d   1       9.353   5.662 -11.128  0.00  0.00     0.119 A 
ATOM     20  N   UNL d   1       8.955   5.254  -9.854  0.00  0.00    -0.059 NA
ATOM     21  C   UNL d   1       9.165   6.249  -8.997  0.00  0.00     0.735 A 
ATOM     22  N   UNL d   1       9.698   7.259  -9.691  0.00  0.00    -0.136 N 
ATOM     23  N   UNL d   1       8.933   6.258  -7.683  0.00  0.00    -0.059 NA
ATOM     24  C   UNL d   1       9.842   6.943 -11.025  0.00  0.00     0.118 A 
ATOM     25  C   UNL d   1      10.010   8.458  -9.084  0.00  0.00     0.100 A 
ATOM     26  C   UNL d   1       9.760   8.554  -7.730  0.00  0.00     0.041 A 
ATOM     27  C   UNL d   1       9.197   7.420  -7.083  0.00  0.00     0.119 A 
ENDBRANCH   3  19
TORSDOF 3
