REMARK  3 active torsions:
REMARK  status: ('A' for Active; 'I' for Inactive)
REMARK    1  A    between atoms: C_7  and  C_8 
REMARK    2  A    between atoms: N_12  and  C_13 
REMARK    3  A    between atoms: C_13  and  C_14 
ROOT
ATOM      1  C   UNL d   1       6.108   3.142 -13.636  0.00  0.00    -0.009 C 
ATOM      2  C   UNL d   1       7.177   2.769 -14.082  0.00  0.00    -0.051 C 
ATOM      3  C   UNL d   1       8.473   2.356 -14.600  0.00  0.00     0.042 A 
ATOM      4  C   UNL d   1       8.754   0.991 -14.839  0.00  0.00     0.008 A 
ATOM      5  C   UNL d   1      10.021   0.627 -15.344  0.00  0.00     0.000 A 
ATOM      6  C   UNL d   1      10.989   1.597 -15.606  0.00  0.00    -0.004 A 
ATOM      7  C   UNL d   1      10.718   2.996 -15.367  0.00  0.00    -0.020 A 
ATOM      8  C   UNL d   1       9.429   3.318 -14.858  0.00  0.00     0.004 A 
ENDROOT
BRANCH   7   9
ATOM      9  C   UNL d   1      11.744   4.050 -15.680  0.00  0.00     0.056 C 
ATOM     10  C   UNL d   1      12.275   3.917 -17.105  0.00  0.00     0.255 C 
ATOM     11  N   UNL d   1      13.314   4.848 -17.425  0.00  0.00     0.137 N 
ATOM     12  C   UNL d   1      12.771   6.232 -17.367  0.00  0.00     0.250 C 
ATOM     13  C   UNL d   1      12.283   6.503 -15.931  0.00  0.00     0.036 C 
ATOM     14  C   UNL d   1      11.235   5.489 -15.483  0.00  0.00     0.008 C 
BRANCH  11  15
ATOM     15  C   UNL d   1      13.850   4.605 -18.770  0.00  0.00     0.250 C 
BRANCH  15  16
ATOM     16  C   UNL d   1      14.723   3.317 -18.860  0.00  0.00     0.035 C 
ATOM     17  C   UNL d   1      13.979   1.956 -18.938  0.00  0.00     0.002 C 
ENDBRANCH  15  16
ENDBRANCH  11  15
ENDBRANCH   7   9
TORSDOF 3
