REMARK  3 active torsions:
REMARK  status: ('A' for Active; 'I' for Inactive)
REMARK    1  A    between atoms: N_5  and  C_6 
REMARK    2  A    between atoms: N_12  and  S_13 
REMARK    3  A    between atoms: S_13  and  C_16 
ROOT
ATOM      1  C   UNL d   1       8.629   1.792 -14.872  0.00  0.00     0.058 A 
ATOM      2  C   UNL d   1       7.398   1.100 -14.822  0.00  0.00     0.017 A 
ATOM      3  C   UNL d   1       6.286   1.654 -14.154  0.00  0.00     0.003 A 
ATOM      4  C   UNL d   1       6.364   2.925 -13.540  0.00  0.00     0.018 A 
ATOM      5  C   UNL d   1       5.453   3.718 -12.776  0.00  0.00     0.021 A 
ATOM      6  C   UNL d   1       6.136   4.848 -12.410  0.00  0.00     0.092 A 
ATOM      7  N   UNL d   1       7.440   4.780 -12.877  0.00  0.00    -0.231 N 
ATOM      8  C   UNL d   1       7.619   3.604 -13.589  0.00  0.00     0.076 A 
ATOM      9  C   UNL d   1       8.727   3.046 -14.243  0.00  0.00     0.035 A 
ENDROOT
BRANCH   7  10
ATOM     10  S   UNL d   1       8.608   5.999 -12.546  0.00  0.00     0.271 S 
ATOM     11  O   UNL d   1       9.843   5.638 -13.257  0.00  0.00    -0.200 OA
ATOM     12  O   UNL d   1       7.901   7.252 -12.831  0.00  0.00    -0.200 OA
BRANCH  10  13
ATOM     13  C   UNL d   1       8.971   5.876 -10.807  0.00  0.00     0.104 A 
ATOM     14  C   UNL d   1       8.405   4.845 -10.036  0.00  0.00     0.013 A 
ATOM     15  C   UNL d   1       8.686   4.778  -8.662  0.00  0.00     0.001 A 
ATOM     16  C   UNL d   1       9.549   5.718  -8.073  0.00  0.00     0.000 A 
ATOM     17  C   UNL d   1      10.157   6.722  -8.857  0.00  0.00     0.001 A 
ATOM     18  C   UNL d   1       9.865   6.802 -10.233  0.00  0.00     0.013 A 
ENDBRANCH  10  13
ENDBRANCH   7  10
BRANCH   1  19
ATOM     19  N   UNL d   1       9.755   1.259 -15.527  0.00  0.00    -0.344 N 
ATOM     20  C   UNL d   1      10.786   2.100 -16.134  0.00  0.00     0.137 C 
ATOM     21  C   UNL d   1      11.016   1.668 -17.593  0.00  0.00     0.274 C 
ATOM     22  N   UNL d   1      11.346   0.238 -17.655  0.00  0.00     0.143 N 
ATOM     23  C   UNL d   1      11.573  -0.145 -19.037  0.00  0.00     0.286 C 
ATOM     24  C   UNL d   1      10.230  -0.543 -17.109  0.00  0.00     0.274 C 
ATOM     25  C   UNL d   1       9.995  -0.170 -15.636  0.00  0.00     0.137 C 
ENDBRANCH   1  19
TORSDOF 3
