REMARK  11 active torsions:
REMARK  status: ('A' for Active; 'I' for Inactive)
REMARK    1  A    between atoms: S_2  and  C_3 
REMARK    2  A    between atoms: S_2  and  C_22 
REMARK    3  A    between atoms: C_3  and  C_4 
REMARK    4  A    between atoms: C_4  and  N_5 
REMARK    5  A    between atoms: N_5  and  C_6 
REMARK    6  A    between atoms: N_9  and  C_10 
REMARK    7  A    between atoms: C_10  and  C_11 
REMARK    8  A    between atoms: C_11  and  C_13 
REMARK    9  A    between atoms: C_13  and  C_14 
REMARK   10  A    between atoms: C_22  and  C_23 
REMARK   11  A    between atoms: C_22  and  C_30 
ROOT
ATOM      1  C   UNL d   1       9.006   2.864 -16.565  0.00  0.00     0.131 C 
ENDROOT
BRANCH   1   2
ATOM      2  S   UNL d   1      10.746   2.267 -16.823  0.00  0.00     0.051 S 
ATOM      3  O   UNL d   1      11.653   3.417 -16.385  0.00  0.00    -0.256 OA
BRANCH   2   4
ATOM      4  C   UNL d   1      10.746   2.243 -18.687  0.00  0.00     0.124 C 
BRANCH   4   5
ATOM      5  C   UNL d   1       9.514   1.525 -19.234  0.00  0.00    -0.006 A 
ATOM      6  C   UNL d   1       8.676   2.179 -20.166  0.00  0.00    -0.001 A 
ATOM      7  C   UNL d   1       7.529   1.536 -20.670  0.00  0.00     0.029 A 
ATOM      8  C   UNL d   1       7.215   0.223 -20.259  0.00  0.00     0.140 A 
ATOM      9  C   UNL d   1       8.037  -0.432 -19.328  0.00  0.00     0.029 A 
ATOM     10  F   UNL d   1       6.117  -0.397 -20.747  0.00  0.00    -0.204 F 
ATOM     11  C   UNL d   1       9.163   0.222 -18.798  0.00  0.00    -0.001 A 
ENDBRANCH   4   5
BRANCH   4  12
ATOM     12  C   UNL d   1      12.068   1.672 -19.206  0.00  0.00    -0.006 A 
ATOM     13  C   UNL d   1      12.977   2.510 -19.886  0.00  0.00    -0.001 A 
ATOM     14  C   UNL d   1      14.188   1.992 -20.392  0.00  0.00     0.029 A 
ATOM     15  C   UNL d   1      14.496   0.625 -20.231  0.00  0.00     0.140 A 
ATOM     16  C   UNL d   1      13.596  -0.218 -19.562  0.00  0.00     0.029 A 
ATOM     17  F   UNL d   1      15.662   0.126 -20.708  0.00  0.00    -0.204 F 
ATOM     18  C   UNL d   1      12.404   0.304 -19.032  0.00  0.00    -0.001 A 
ENDBRANCH   4  12
ENDBRANCH   2   4
ENDBRANCH   1   2
BRANCH   1  19
ATOM     19  C   UNL d   1       8.711   2.863 -15.059  0.00  0.00     0.304 C 
BRANCH  19  20
ATOM     20  N   UNL d   1       8.936   4.183 -14.522  0.00  0.00     0.338 N 
BRANCH  20  21
ATOM     21  C   UNL d   1       8.698   4.194 -13.067  0.00  0.00     0.261 C 
ATOM     22  C   UNL d   1       9.957   4.708 -12.385  0.00  0.00     0.071 C 
ATOM     23  C   UNL d   1       9.720   4.866 -10.867  0.00  0.00     0.252 C 
ATOM     24  N   UNL d   1       8.599   5.724 -10.583  0.00  0.00     0.140 N 
ATOM     25  C   UNL d   1       7.383   5.219 -11.196  0.00  0.00     0.252 C 
ATOM     26  C   UNL d   1       7.514   5.102 -12.731  0.00  0.00     0.071 C 
BRANCH  24  27
ATOM     27  C   UNL d   1       8.461   5.903  -9.123  0.00  0.00     0.283 C 
BRANCH  27  28
ATOM     28  C   UNL d   1       9.528   6.793  -8.468  0.00  0.00     0.190 C 
ATOM     29  O   UNL d   1       9.467   8.056  -9.146  0.00  0.00    -0.221 OA
BRANCH  28  30
ATOM     30  C   UNL d   1       9.307   7.005  -6.956  0.00  0.00     0.061 C 
BRANCH  30  31
ATOM     31  C   UNL d   1      10.408   7.773  -6.236  0.00  0.00    -0.020 A 
ATOM     32  C   UNL d   1      10.785   9.044  -6.716  0.00  0.00    -0.004 A 
ATOM     33  C   UNL d   1      11.796   9.784  -6.062  0.00  0.00    -0.000 A 
ATOM     34  C   UNL d   1      12.399   9.283  -4.899  0.00  0.00    -0.000 A 
ATOM     35  C   UNL d   1      12.008   8.027  -4.388  0.00  0.00    -0.000 A 
ATOM     36  C   UNL d   1      11.041   7.264  -5.076  0.00  0.00    -0.004 A 
ENDBRANCH  30  31
ENDBRANCH  28  30
ENDBRANCH  27  28
ENDBRANCH  24  27
ENDBRANCH  20  21
ENDBRANCH  19  20
ENDBRANCH   1  19
TORSDOF 11
