REMARK  6 active torsions:
REMARK  status: ('A' for Active; 'I' for Inactive)
REMARK       I    between atoms: C_2  and  N_3 
REMARK    1  A    between atoms: C_2  and  C_22 
REMARK    2  A    between atoms: N_3  and  C_4 
REMARK    3  A    between atoms: C_4  and  C_5 
REMARK    4  A    between atoms: C_6  and  C_7 
REMARK    5  A    between atoms: C_7  and  N_8 
REMARK    6  A    between atoms: N_11  and  C_12 
ROOT
ATOM      1  N   UNL d   1       8.208   5.259 -11.520  0.00  0.00     0.145 N 
ATOM      2  C   UNL d   1       9.311   4.472 -12.084  0.00  0.00     0.275 C 
ATOM      3  C   UNL d   1       9.069   4.197 -13.578  0.00  0.00     0.137 C 
ATOM      4  N   UNL d   1       7.776   3.566 -13.787  0.00  0.00    -0.344 N 
ATOM      5  C   UNL d   1       6.651   4.241 -13.134  0.00  0.00     0.137 C 
ATOM      6  C   UNL d   1       6.957   4.517 -11.649  0.00  0.00     0.275 C 
ENDROOT
BRANCH   1   7
ATOM      7  C   UNL d   1       8.460   5.525 -10.104  0.00  0.00     0.276 C 
BRANCH   7   8
ATOM      8  C   UNL d   1       9.575   6.527  -9.878  0.00  0.00     0.006 C 
ATOM      9  C   UNL d   1       9.501   7.538  -9.007  0.00  0.00    -0.003 C 
BRANCH   9  10
ATOM     10  C   UNL d   1      10.628   8.506  -8.738  0.00  0.00     0.155 C 
BRANCH  10  11
ATOM     11  N   UNL d   1      10.946   8.588  -7.312  0.00  0.00    -0.229 NA
ATOM     12  C   UNL d   1      11.068   7.575  -6.441  0.00  0.00     0.277 C 
ATOM     13  O   UNL d   1      10.955   6.395  -6.758  0.00  0.00    -0.265 OA
BRANCH  12  14
ATOM     14  C   UNL d   1      11.457   7.959  -5.037  0.00  0.00     0.085 A 
ATOM     15  C   UNL d   1      11.458   9.306  -4.571  0.00  0.00     0.145 A 
ATOM     16  C   UNL d   1      11.856   9.587  -3.251  0.00  0.00     0.030 A 
ATOM     17  F   UNL d   1      11.071  10.341  -5.359  0.00  0.00    -0.204 F 
ATOM     18  C   UNL d   1      12.259   8.563  -2.385  0.00  0.00     0.002 A 
ATOM     19  C   UNL d   1      12.257   7.230  -2.829  0.00  0.00     0.000 A 
ATOM     20  C   UNL d   1      11.860   6.937  -4.145  0.00  0.00     0.007 A 
ENDBRANCH  12  14
ENDBRANCH  10  11
ENDBRANCH   9  10
ENDBRANCH   7   8
ENDBRANCH   1   7
BRANCH   4  21
ATOM     21  C   UNL d   1       7.615   2.384 -14.544  0.00  0.00     0.068 A 
ATOM     22  C   UNL d   1       8.337   2.132 -15.740  0.00  0.00     0.084 A 
ATOM     23  C   UNL d   1       8.122   0.921 -16.455  0.00  0.00     0.070 A 
ATOM     24 CL   UNL d   1       9.449   3.269 -16.436  0.00  0.00    -0.080 Cl
ATOM     25  C   UNL d   1       7.186  -0.010 -15.985  0.00  0.00     0.012 A 
ATOM     26 CL   UNL d   1       8.975   0.583 -17.915  0.00  0.00    -0.081 Cl
ATOM     27  C   UNL d   1       6.472   0.226 -14.812  0.00  0.00     0.002 A 
ATOM     28  C   UNL d   1       6.687   1.425 -14.092  0.00  0.00     0.018 A 
ENDBRANCH   4  21
TORSDOF 6
