REMARK  4 active torsions:
REMARK  status: ('A' for Active; 'I' for Inactive)
REMARK    1  A    between atoms: C_2  and  C_3 
REMARK    2  A    between atoms: C_3  and  N_4 
REMARK    3  A    between atoms: N_4  and  C_5 
REMARK    4  A    between atoms: C_11  and  O_12 
ROOT
ATOM      1  C   UNL d   1       9.746   6.675  -8.663  0.00  0.00     0.103 C 
ATOM      2  C   UNL d   1       9.627   8.156  -9.032  0.00  0.00     0.029 C 
ATOM      3  C   UNL d   1      10.836   8.932  -8.507  0.00  0.00     0.028 C 
ATOM      4  C   UNL d   1      11.143   8.653  -7.046  0.00  0.00    -0.026 A 
ATOM      5  C   UNL d   1      11.940   9.544  -6.315  0.00  0.00    -0.003 A 
ATOM      6  C   UNL d   1      12.275   9.267  -4.974  0.00  0.00     0.024 A 
ATOM      7  C   UNL d   1      11.852   8.079  -4.354  0.00  0.00     0.094 A 
ATOM      8  C   UNL d   1      11.030   7.183  -5.097  0.00  0.00     0.020 A 
ATOM      9  C   UNL d   1      10.659   7.493  -6.423  0.00  0.00    -0.022 A 
ATOM     10  C   UNL d   1       9.731   6.540  -7.143  0.00  0.00     0.050 C 
ENDROOT
BRANCH   1  11
ATOM     11  N   UNL d   1       8.705   5.825  -9.240  0.00  0.00    -0.297 NA
BRANCH  11  12
ATOM     12  C   UNL d   1       8.504   5.964 -10.684  0.00  0.00     0.120 C 
BRANCH  12  13
ATOM     13  C   UNL d   1       9.722   5.400 -11.410  0.00  0.00     0.026 C 
ATOM     14  C   UNL d   1       9.609   5.472 -12.925  0.00  0.00     0.002 C 
ENDBRANCH  12  13
ENDBRANCH  11  12
ENDBRANCH   1  11
BRANCH   7  15
ATOM     15  O   UNL d   1      12.258   7.856  -3.062  0.00  0.00    -0.328 OA
ATOM     16  C   UNL d   1      11.968   6.598  -2.484  0.00  0.00     0.181 C 
ENDBRANCH   7  15
TORSDOF 4
