REMARK  9 active torsions:
REMARK  status: ('A' for Active; 'I' for Inactive)
REMARK    1  A    between atoms: O_2  and  C_3 
REMARK    2  A    between atoms: C_8  and  N_9 
REMARK    3  A    between atoms: N_12  and  C_13 
REMARK    4  A    between atoms: C_13  and  C_14 
REMARK    5  A    between atoms: C_14  and  C_15 
REMARK    6  A    between atoms: C_15  and  C_16 
REMARK    7  A    between atoms: C_16  and  N_17 
REMARK    8  A    between atoms: N_17  and  S_18 
REMARK    9  A    between atoms: S_18  and  C_21 
ROOT
ATOM      1  C   UNL d   1       8.071   5.813 -10.966  0.00  0.00     0.037 C 
ENDROOT
BRANCH   1   2
ATOM      2  C   UNL d   1       7.337   4.514 -11.366  0.00  0.00     0.251 C 
BRANCH   2   3
ATOM      3  N   UNL d   1       7.331   4.347 -12.798  0.00  0.00     0.141 N 
ATOM      4  C   UNL d   1       6.307   3.342 -13.115  0.00  0.00     0.274 C 
ATOM      5  C   UNL d   1       6.265   3.040 -14.591  0.00  0.00     0.137 C 
ATOM      6  N   UNL d   1       7.614   2.741 -15.101  0.00  0.00    -0.343 N 
ATOM      7  C   UNL d   1       8.633   3.741 -14.784  0.00  0.00     0.137 C 
ATOM      8  C   UNL d   1       8.669   3.901 -13.264  0.00  0.00     0.274 C 
BRANCH   6   9
ATOM      9  C   UNL d   1       7.847   1.651 -15.963  0.00  0.00     0.079 A 
ATOM     10  C   UNL d   1       9.022   0.873 -15.852  0.00  0.00     0.110 A 
ATOM     11  C   UNL d   1       9.265  -0.210 -16.728  0.00  0.00     0.026 A 
ATOM     12  C   UNL d   1       8.313  -0.574 -17.691  0.00  0.00     0.002 A 
ATOM     13  C   UNL d   1       7.130   0.167 -17.796  0.00  0.00     0.002 A 
ATOM     14  C   UNL d   1       6.911   1.285 -16.971  0.00  0.00     0.019 A 
BRANCH  10  15
ATOM     15  O   UNL d   1       9.866   1.178 -14.817  0.00  0.00    -0.327 OA
ATOM     16  C   UNL d   1      11.230   1.047 -15.082  0.00  0.00     0.181 C 
ENDBRANCH  10  15
ENDBRANCH   6   9
ENDBRANCH   2   3
ENDBRANCH   1   2
BRANCH   1  17
ATOM     17  C   UNL d   1       8.427   5.876  -9.445  0.00  0.00     0.029 C 
BRANCH  17  18
ATOM     18  C   UNL d   1       9.231   7.118  -9.038  0.00  0.00     0.139 C 
BRANCH  18  19
ATOM     19  N   UNL d   1      10.552   6.975  -9.592  0.00  0.00    -0.185 NA
BRANCH  19  20
ATOM     20  S   UNL d   1      11.699   8.145  -9.132  0.00  0.00     0.281 S 
ATOM     21  O   UNL d   1      12.992   7.760  -9.720  0.00  0.00    -0.199 OA
ATOM     22  O   UNL d   1      11.104   9.472  -9.392  0.00  0.00    -0.199 OA
BRANCH  20  23
ATOM     23  C   UNL d   1      11.742   7.872  -7.359  0.00  0.00     0.105 A 
ATOM     24  C   UNL d   1      11.731   8.965  -6.487  0.00  0.00     0.013 A 
ATOM     25  C   UNL d   1      11.754   8.737  -5.097  0.00  0.00     0.001 A 
ATOM     26  C   UNL d   1      11.830   7.422  -4.565  0.00  0.00     0.000 A 
ATOM     27  C   UNL d   1      11.689   9.782  -4.209  0.00  0.00     0.000 C 
ATOM     28  C   UNL d   1      11.825   6.369  -5.444  0.00  0.00     0.001 A 
ATOM     29  C   UNL d   1      11.898   7.147  -3.183  0.00  0.00     0.000 C 
ATOM     30  C   UNL d   1      11.748   6.552  -6.830  0.00  0.00     0.013 A 
ATOM     31  C   UNL d   1      11.918   8.239  -2.312  0.00  0.00     0.000 C 
ATOM     32  C   UNL d   1      11.873   9.550  -2.833  0.00  0.00     0.000 C 
ENDBRANCH  20  23
ENDBRANCH  19  20
ENDBRANCH  18  19
ENDBRANCH  17  18
ENDBRANCH   1  17
TORSDOF 9
