REMARK  2 active torsions:
REMARK  status: ('A' for Active; 'I' for Inactive)
REMARK    1  A    between atoms: O_2  and  C_3 
REMARK    2  A    between atoms: C_9  and  C_10 
ROOT
ATOM      1  C   UNL d   1      10.012   1.897 -19.047  0.00  0.00     0.094 A 
ATOM      2  C   UNL d   1      11.211   2.013 -18.338  0.00  0.00     0.026 A 
ATOM      3  C   UNL d   1      11.223   1.978 -16.933  0.00  0.00     0.021 A 
ATOM      4  C   UNL d   1      10.017   1.779 -16.221  0.00  0.00     0.083 A 
ATOM      5  C   UNL d   1       8.810   1.544 -16.913  0.00  0.00     0.037 A 
ATOM      6  C   UNL d   1       8.810   1.645 -18.319  0.00  0.00     0.027 A 
ATOM      7  C   UNL d   1       7.542   1.139 -16.235  0.00  0.00     0.079 C 
ATOM      8  N   UNL d   1       7.088   1.706 -15.184  0.00  0.00    -0.244 NA
ATOM      9  C   UNL d   1       7.738   2.667 -14.410  0.00  0.00     0.099 A 
ATOM     10  C   UNL d   1       6.904   3.582 -13.734  0.00  0.00     0.016 A 
ATOM     11  C   UNL d   1       7.434   4.530 -12.839  0.00  0.00    -0.020 A 
ATOM     12  C   UNL d   1       6.513   5.503 -12.136  0.00  0.00     0.031 C 
ATOM     13  C   UNL d   1       8.820   4.549 -12.591  0.00  0.00    -0.003 A 
ATOM     14  C   UNL d   1       9.667   3.637 -13.251  0.00  0.00     0.020 A 
ATOM     15  C   UNL d   1       9.139   2.705 -14.165  0.00  0.00     0.099 A 
ATOM     16  N   UNL d   1      10.041   1.877 -14.834  0.00  0.00    -0.244 NA
ENDROOT
BRANCH   7  17
ATOM     17  C   UNL d   1       6.685   0.044 -16.814  0.00  0.00    -0.005 C 
ATOM     18  C   UNL d   1       5.316  -0.251 -16.194  0.00  0.00     0.063 C 
ATOM     19  C   UNL d   1       4.759  -1.639 -16.554  0.00  0.00     0.255 C 
ATOM     20  N   UNL d   1       4.877  -1.842 -17.988  0.00  0.00     0.144 N 
ATOM     21  C   UNL d   1       6.275  -1.915 -18.376  0.00  0.00     0.276 C 
ATOM     22  C   UNL d   1       4.212  -3.074 -18.387  0.00  0.00     0.286 C 
ATOM     23  C   UNL d   1       7.109  -0.799 -17.781  0.00  0.00     0.006 C 
ENDBRANCH   7  17
BRANCH   1  24
ATOM     24  O   UNL d   1      10.042   1.985 -20.417  0.00  0.00    -0.328 OA
ATOM     25  C   UNL d   1       8.923   2.628 -21.036  0.00  0.00     0.181 C 
ENDBRANCH   1  24
TORSDOF 2
