REMARK  6 active torsions:
REMARK  status: ('A' for Active; 'I' for Inactive)
REMARK    1  A    between atoms: O_2  and  N_3 
REMARK    2  A    between atoms: C_4  and  C_5 
REMARK    3  A    between atoms: C_4  and  C_12 
REMARK    4  A    between atoms: C_12  and  C_14 
REMARK    5  A    between atoms: C_14  and  N_15 
REMARK    6  A    between atoms: N_18  and  C_19 
ROOT
ATOM      1  C   UNL d   1       8.659   5.866 -11.762  0.00  0.00     0.227 C 
ATOM      2  O   UNL d   1       7.650   6.822 -12.040  0.00  0.00    -0.215 OA
ENDROOT
BRANCH   1   3
ATOM      3  C   UNL d   1       9.123   5.123 -13.034  0.00  0.00     0.118 C 
ATOM      4  N   UNL d   1      10.199   5.499 -13.613  0.00  0.00    -0.133 NA
BRANCH   4   5
ATOM      5  O   UNL d   1      10.484   4.875 -14.836  0.00  0.00    -0.234 OA
ATOM      6  C   UNL d   1      11.722   5.368 -15.311  0.00  0.00     0.211 C 
ENDBRANCH   4   5
BRANCH   3   7
ATOM      7  C   UNL d   1       8.303   3.946 -13.462  0.00  0.00     0.018 A 
ATOM      8  C   UNL d   1       8.899   2.782 -14.016  0.00  0.00     0.002 A 
ATOM      9  C   UNL d   1       8.119   1.693 -14.441  0.00  0.00     0.011 A 
ATOM     10  C   UNL d   1       6.725   1.730 -14.270  0.00  0.00     0.058 A 
ATOM     11  C   UNL d   1       6.121   2.860 -13.692  0.00  0.00     0.011 A 
ATOM     12 CL   UNL d   1       5.777   0.357 -14.720  0.00  0.00    -0.082 Cl
ATOM     13  C   UNL d   1       6.896   3.967 -13.304  0.00  0.00     0.002 A 
ENDBRANCH   3   7
ENDBRANCH   1   3
BRANCH   1  14
ATOM     14  C   UNL d   1       9.801   6.618 -11.060  0.00  0.00     0.289 C 
BRANCH  14  15
ATOM     15  N   UNL d   1       9.511   7.202  -9.770  0.00  0.00     0.144 N 
ATOM     16  C   UNL d   1       9.458   6.206  -8.695  0.00  0.00     0.274 C 
ATOM     17  C   UNL d   1       9.105   6.839  -7.339  0.00  0.00     0.138 C 
ATOM     18  N   UNL d   1      10.017   7.944  -7.054  0.00  0.00    -0.330 N 
ATOM     19  C   UNL d   1      10.169   8.934  -8.108  0.00  0.00     0.138 C 
ATOM     20  C   UNL d   1      10.502   8.224  -9.427  0.00  0.00     0.274 C 
BRANCH  18  21
ATOM     21  C   UNL d   1      10.741   8.040  -5.843  0.00  0.00     0.140 A 
ATOM     22  N   UNL d   1      11.001   9.279  -5.373  0.00  0.00    -0.227 NA
ATOM     23  C   UNL d   1      11.672   9.385  -4.204  0.00  0.00     0.101 A 
ATOM     24  C   UNL d   1      12.126   8.283  -3.461  0.00  0.00     0.021 A 
ATOM     25  C   UNL d   1      11.865   6.998  -3.960  0.00  0.00     0.005 A 
ATOM     26  C   UNL d   1      11.159   6.878  -5.171  0.00  0.00     0.037 A 
ENDBRANCH  18  21
ENDBRANCH  14  15
ENDBRANCH   1  14
TORSDOF 6
