REMARK  12 active torsions:
REMARK  status: ('A' for Active; 'I' for Inactive)
REMARK    1  A    between atoms: N_2  and  C_4 
REMARK    2  A    between atoms: C_4  and  C_5 
REMARK    3  A    between atoms: C_8  and  C_9 
REMARK    4  A    between atoms: C_9  and  N_10 
REMARK       I    between atoms: N_10  and  C_11 
REMARK    5  A    between atoms: C_11  and  C_13 
REMARK    6  A    between atoms: C_13  and  C_14 
REMARK    7  A    between atoms: C_14  and  C_15 
REMARK    8  A    between atoms: C_15  and  C_16 
REMARK    9  A    between atoms: C_16  and  C_17 
REMARK   10  A    between atoms: C_17  and  N_18 
REMARK   11  A    between atoms: N_21  and  C_22 
REMARK   12  A    between atoms: C_27  and  C_28 
ROOT
ATOM      1  C   UNL d   1       7.678   2.667 -14.158  0.00  0.00     0.250 C 
ENDROOT
BRANCH   1   2
ATOM      2  C   UNL d   1       6.354   2.737 -13.350  0.00  0.00     0.035 C 
BRANCH   2   3
ATOM      3  C   UNL d   1       6.402   3.843 -12.287  0.00  0.00     0.003 C 
BRANCH   3   4
ATOM      4  C   UNL d   1       6.562   5.238 -12.901  0.00  0.00     0.010 C 
BRANCH   4   5
ATOM      5  C   UNL d   1       7.107   6.296 -11.951  0.00  0.00     0.090 C 
BRANCH   5   6
ATOM      6  C   UNL d   1       8.628   6.245 -11.703  0.00  0.00     0.252 C 
ATOM      7  N   UNL d   1       9.067   7.063 -10.750  0.00  0.00    -0.233 NA
ATOM      8  O   UNL d   1       9.389   5.528 -12.385  0.00  0.00    -0.271 OA
BRANCH   7   9
ATOM      9  C   UNL d   1      10.444   7.325 -10.376  0.00  0.00     0.155 C 
BRANCH   9  10
ATOM     10  C   UNL d   1      10.634   7.828  -8.961  0.00  0.00     0.002 A 
ATOM     11  C   UNL d   1       9.598   7.743  -8.008  0.00  0.00    -0.003 A 
ATOM     12  C   UNL d   1       9.779   8.238  -6.711  0.00  0.00    -0.003 A 
ATOM     13  C   UNL d   1      11.013   8.812  -6.332  0.00  0.00     0.011 A 
ATOM     14  C   UNL d   1      12.057   8.881  -7.273  0.00  0.00    -0.003 A 
ATOM     15  C   UNL d   1      11.876   8.389  -8.581  0.00  0.00    -0.003 A 
BRANCH  13  16
ATOM     16  C   UNL d   1      11.214   9.318  -4.922  0.00  0.00     0.277 C 
BRANCH  16  17
ATOM     17  N   UNL d   1      12.256   8.627  -4.172  0.00  0.00     0.146 N 
ATOM     18  C   UNL d   1      12.005   7.195  -4.061  0.00  0.00     0.286 C 
ATOM     19  C   UNL d   1      12.342   9.186  -2.832  0.00  0.00     0.286 C 
ENDBRANCH  16  17
ENDBRANCH  13  16
ENDBRANCH   9  10
ENDBRANCH   7   9
ENDBRANCH   5   6
ENDBRANCH   4   5
ENDBRANCH   3   4
ENDBRANCH   2   3
ENDBRANCH   1   2
BRANCH   1  20
ATOM     20  N   UNL d   1       7.830   1.427 -14.911  0.00  0.00     0.141 N 
ATOM     21  C   UNL d   1       9.199   1.328 -15.423  0.00  0.00     0.274 C 
ATOM     22  C   UNL d   1       9.376   0.013 -16.212  0.00  0.00     0.137 C 
ATOM     23  N   UNL d   1       8.393  -0.079 -17.289  0.00  0.00    -0.344 N 
ATOM     24  C   UNL d   1       7.026   0.168 -16.849  0.00  0.00     0.137 C 
ATOM     25  C   UNL d   1       6.931   1.455 -16.051  0.00  0.00     0.274 C 
BRANCH  23  26
ATOM     26  C   UNL d   1       8.741  -0.370 -18.647  0.00  0.00     0.056 A 
ATOM     27  C   UNL d   1       7.896  -1.071 -19.548  0.00  0.00     0.015 A 
ATOM     28  C   UNL d   1       8.327  -1.276 -20.891  0.00  0.00     0.001 A 
ATOM     29  C   UNL d   1       9.580  -0.818 -21.330  0.00  0.00     0.000 A 
ATOM     30  C   UNL d   1      10.417  -0.143 -20.439  0.00  0.00     0.002 A 
ATOM     31  C   UNL d   1       9.996   0.085 -19.109  0.00  0.00     0.017 A 
BRANCH  27  32
ATOM     32  C   UNL d   1       6.573  -1.640 -19.205  0.00  0.00     0.001 A 
ATOM     33  C   UNL d   1       6.471  -2.831 -18.469  0.00  0.00     0.000 A 
ATOM     34  C   UNL d   1       5.213  -3.323 -18.058  0.00  0.00     0.000 A 
ATOM     35  C   UNL d   1       4.045  -2.612 -18.387  0.00  0.00     0.000 A 
ATOM     36  C   UNL d   1       4.133  -1.420 -19.126  0.00  0.00     0.000 A 
ATOM     37  C   UNL d   1       5.385  -0.948 -19.557  0.00  0.00     0.000 A 
ENDBRANCH  27  32
ENDBRANCH  23  26
ENDBRANCH   1  20
TORSDOF 12
