REMARK  8 active torsions:
REMARK  status: ('A' for Active; 'I' for Inactive)
REMARK    1  A    between atoms: C_2  and  C_4 
REMARK    2  A    between atoms: C_4  and  N_5 
REMARK    3  A    between atoms: N_9  and  C_10 
REMARK    4  A    between atoms: C_10  and  C_11 
REMARK    5  A    between atoms: C_11  and  S_12 
REMARK    6  A    between atoms: S_12  and  C_13 
REMARK    7  A    between atoms: C_13  and  C_14 
REMARK    8  A    between atoms: C_13  and  C_21 
ROOT
ATOM      1  S   UNL d   1       9.748   3.684 -14.201  0.00  0.00    -0.130 SA
ENDROOT
BRANCH   1   2
ATOM      2  C   UNL d   1       8.171   4.271 -13.493  0.00  0.00     0.093 C 
BRANCH   2   3
ATOM      3  C   UNL d   1       8.292   5.712 -12.986  0.00  0.00     0.262 C 
BRANCH   3   4
ATOM      4  N   UNL d   1       9.167   5.892 -11.828  0.00  0.00     0.142 N 
ATOM      5  C   UNL d   1       8.508   5.452 -10.600  0.00  0.00     0.283 C 
ATOM      6  C   UNL d   1       9.380   5.642  -9.337  0.00  0.00     0.253 C 
ATOM      7  N   UNL d   1       9.806   7.040  -9.146  0.00  0.00     0.140 N 
ATOM      8  C   UNL d   1       8.566   5.139  -8.150  0.00  0.00     0.037 C 
ATOM      9  C   UNL d   1      10.426   7.504 -10.389  0.00  0.00     0.253 C 
ATOM     10  C   UNL d   1       9.510   7.297 -11.633  0.00  0.00     0.283 C 
ATOM     11  C   UNL d   1      10.854   8.964 -10.326  0.00  0.00     0.037 C 
BRANCH   7  12
ATOM     12  C   UNL d   1      10.716   7.257  -7.998  0.00  0.00     0.283 C 
BRANCH  12  13
ATOM     13  C   UNL d   1      10.401   8.558  -7.236  0.00  0.00     0.186 C 
ATOM     14  C   UNL d   1      11.574   8.948  -6.341  0.00  0.00     0.038 C 
ATOM     15  O   UNL d   1       9.256   8.333  -6.441  0.00  0.00    -0.221 OA
ENDBRANCH  12  13
ENDBRANCH   7  12
ENDBRANCH   3   4
ENDBRANCH   2   3
ENDBRANCH   1   2
BRANCH   1  16
ATOM     16  C   UNL d   1       9.178   2.946 -15.771  0.00  0.00     0.092 C 
BRANCH  16  17
ATOM     17  C   UNL d   1       8.143   1.828 -15.557  0.00  0.00    -0.008 A 
ATOM     18  C   UNL d   1       7.146   1.588 -16.549  0.00  0.00    -0.001 A 
ATOM     19  C   UNL d   1       6.204   0.556 -16.382  0.00  0.00     0.029 A 
ATOM     20  C   UNL d   1       6.215  -0.241 -15.219  0.00  0.00     0.140 A 
ATOM     21  C   UNL d   1       7.200  -0.015 -14.240  0.00  0.00     0.029 A 
ATOM     22  F   UNL d   1       5.291  -1.215 -15.040  0.00  0.00    -0.204 F 
ATOM     23  C   UNL d   1       8.165   0.993 -14.437  0.00  0.00    -0.001 A 
ENDBRANCH  16  17
BRANCH  16  24
ATOM     24  C   UNL d   1      10.374   2.521 -16.615  0.00  0.00    -0.008 A 
ATOM     25  C   UNL d   1      11.058   3.498 -17.366  0.00  0.00    -0.001 A 
ATOM     26  C   UNL d   1      12.142   3.139 -18.189  0.00  0.00     0.029 A 
ATOM     27  C   UNL d   1      12.544   1.794 -18.267  0.00  0.00     0.140 A 
ATOM     28  C   UNL d   1      11.860   0.810 -17.528  0.00  0.00     0.029 A 
ATOM     29  F   UNL d   1      13.596   1.447 -19.046  0.00  0.00    -0.204 F 
ATOM     30  C   UNL d   1      10.788   1.168 -16.693  0.00  0.00    -0.001 A 
ENDBRANCH  16  24
ENDBRANCH   1  16
TORSDOF 8
