REMARK  7 active torsions:
REMARK  status: ('A' for Active; 'I' for Inactive)
REMARK    1  A    between atoms: S_2  and  C_4 
REMARK    2  A    between atoms: S_2  and  C_23 
REMARK    3  A    between atoms: C_4  and  C_5 
REMARK    4  A    between atoms: N_8  and  C_9 
REMARK    5  A    between atoms: C_9  and  C_10 
REMARK    6  A    between atoms: C_10  and  C_11 
REMARK    7  A    between atoms: C_11  and  C_12 
ROOT
ATOM      1  C   UNL d   1       7.609   2.814 -14.188  0.00  0.00     0.052 C 
ATOM      2  C   UNL d   1       6.221   2.836 -13.520  0.00  0.00     0.038 C 
ATOM      3  C   UNL d   1       6.331   3.902 -12.447  0.00  0.00     0.250 C 
ATOM      4  N   UNL d   1       7.333   4.808 -12.993  0.00  0.00     0.137 N 
ATOM      5  C   UNL d   1       8.380   3.905 -13.449  0.00  0.00     0.251 C 
ENDROOT
BRANCH   4   6
ATOM      6  C   UNL d   1       7.808   5.645 -11.913  0.00  0.00     0.251 C 
BRANCH   6   7
ATOM      7  C   UNL d   1       8.992   6.559 -12.325  0.00  0.00     0.042 C 
BRANCH   7   8
ATOM      8  C   UNL d   1       9.444   7.563 -11.255  0.00  0.00     0.050 C 
BRANCH   8   9
ATOM      9  C   UNL d   1       9.771   6.954  -9.897  0.00  0.00     0.088 A 
ATOM     10  C   UNL d   1      10.206   7.556  -8.691  0.00  0.00     0.041 A 
ATOM     11  C   UNL d   1      10.267   6.576  -7.688  0.00  0.00     0.129 A 
ATOM     12  C   UNL d   1      10.574   8.882  -8.374  0.00  0.00     0.006 A 
ATOM     13  O   UNL d   1       9.903   5.396  -8.306  0.00  0.00    -0.211 OA
ATOM     14  C   UNL d   1      10.676   6.838  -6.369  0.00  0.00     0.057 A 
ATOM     15  N   UNL d   1       9.673   5.643  -9.671  0.00  0.00    -0.131 NA
ATOM     16  C   UNL d   1      11.064   8.156  -6.052  0.00  0.00     0.142 A 
ATOM     17  F   UNL d   1      11.505   8.447  -4.803  0.00  0.00    -0.204 F 
ATOM     18  C   UNL d   1      11.016   9.174  -7.057  0.00  0.00     0.030 A 
ENDBRANCH   8   9
ENDBRANCH   7   8
ENDBRANCH   6   7
ENDBRANCH   4   6
BRANCH   1  19
ATOM     19  C   UNL d   1       8.373   1.465 -14.191  0.00  0.00     0.129 C 
BRANCH  19  20
ATOM     20  S   UNL d   1       8.545   0.755 -15.887  0.00  0.00     0.190 S 
ATOM     21  O   UNL d   1       8.769   1.847 -16.841  0.00  0.00    -0.222 OA
ATOM     22  O   UNL d   1       9.544  -0.325 -15.793  0.00  0.00    -0.222 OA
BRANCH  20  23
ATOM     23  C   UNL d   1       6.953   0.007 -16.295  0.00  0.00     0.085 A 
ATOM     24  C   UNL d   1       5.933  -0.133 -15.324  0.00  0.00     0.022 A 
ATOM     25  C   UNL d   1       4.704  -0.728 -15.661  0.00  0.00     0.058 A 
ATOM     26  C   UNL d   1       4.489  -1.216 -16.965  0.00  0.00     0.011 A 
ATOM     27 CL   UNL d   1       3.473  -0.813 -14.456  0.00  0.00    -0.082 Cl
ATOM     28  C   UNL d   1       5.509  -1.086 -17.937  0.00  0.00     0.002 A 
ATOM     29  C   UNL d   1       6.743  -0.473 -17.607  0.00  0.00     0.011 A 
ENDBRANCH  20  23
ENDBRANCH  19  20
ENDBRANCH   1  19
TORSDOF 7
