REMARK  12 active torsions:
REMARK  status: ('A' for Active; 'I' for Inactive)
REMARK    1  A    between atoms: C_2  and  O_3 
REMARK    2  A    between atoms: O_3  and  C_4 
REMARK    3  A    between atoms: C_10  and  C_11 
REMARK    4  A    between atoms: C_13  and  C_14 
REMARK    5  A    between atoms: C_14  and  N_15 
REMARK    6  A    between atoms: N_15  and  C_16 
REMARK    7  A    between atoms: N_15  and  C_18 
REMARK    8  A    between atoms: C_18  and  C_19 
REMARK    9  A    between atoms: C_19  and  C_20 
REMARK   10  A    between atoms: C_20  and  S_21 
REMARK   11  A    between atoms: S_21  and  C_22 
REMARK   12  A    between atoms: C_25  and  C_26 
ROOT
ATOM      1  N   UNL d   1      11.476   4.696 -15.057  0.00  0.00     0.137 N 
ENDROOT
BRANCH   1   2
ATOM      2  C   UNL d   1      11.067   3.685 -16.030  0.00  0.00     0.251 C 
BRANCH   2   3
ATOM      3  C   UNL d   1      10.280   4.264 -17.219  0.00  0.00     0.038 A 
ATOM      4  C   UNL d   1       9.696   3.323 -18.244  0.00  0.00     0.026 A 
ATOM      5  C   UNL d   1      10.860   4.223 -18.615  0.00  0.00     0.007 A 
BRANCH   4   6
ATOM      6  C   UNL d   1       9.896   1.845 -18.066  0.00  0.00     0.002 A 
ATOM      7  C   UNL d   1       9.210   1.145 -17.040  0.00  0.00     0.090 A 
ATOM      8  C   UNL d   1       9.481  -0.236 -16.871  0.00  0.00     0.026 A 
ATOM      9  C   UNL d   1      10.395  -0.897 -17.708  0.00  0.00     0.032 A 
ATOM     10  C   UNL d   1      11.067  -0.190 -18.719  0.00  0.00     0.140 A 
ATOM     11  F   UNL d   1      11.974  -0.814 -19.506  0.00  0.00    -0.204 F 
ATOM     12  C   UNL d   1      10.815   1.177 -18.899  0.00  0.00     0.027 A 
BRANCH   7  13
ATOM     13  O   UNL d   1       8.330   1.847 -16.232  0.00  0.00    -0.331 OA
BRANCH  13  14
ATOM     14  C   UNL d   1       7.610   1.137 -15.233  0.00  0.00     0.149 C 
ATOM     15  C   UNL d   1       6.900   2.142 -14.335  0.00  0.00     0.035 C 
ENDBRANCH  13  14
ENDBRANCH   7  13
ENDBRANCH   4   6
ENDBRANCH   2   3
ENDBRANCH   1   2
BRANCH   1  16
ATOM     16  C   UNL d   1      12.241   5.783 -15.687  0.00  0.00     0.250 C 
ATOM     17  C   UNL d   1      13.537   5.283 -16.353  0.00  0.00     0.037 C 
ENDBRANCH   1  16
BRANCH   1  18
ATOM     18  C   UNL d   1      10.312   5.191 -14.321  0.00  0.00     0.251 C 
BRANCH  18  19
ATOM     19  C   UNL d   1       9.874   4.252 -13.183  0.00  0.00     0.047 C 
BRANCH  19  20
ATOM     20  C   UNL d   1       8.586   4.724 -12.480  0.00  0.00     0.067 C 
BRANCH  20  21
ATOM     21  S   UNL d   1       8.655   6.467 -11.989  0.00  0.00    -0.075 SA
BRANCH  21  22
ATOM     22  C   UNL d   1       9.303   6.346 -10.357  0.00  0.00     0.193 A 
ATOM     23  N   UNL d   1       9.797   7.422  -9.707  0.00  0.00    -0.289 N 
ATOM     24  C   UNL d   1      10.156   6.899  -8.511  0.00  0.00     0.167 A 
ATOM     25  C   UNL d   1       9.849   8.789 -10.200  0.00  0.00     0.134 C 
ATOM     26  N   UNL d   1       9.883   5.592  -8.428  0.00  0.00    -0.128 NA
ATOM     27  N   UNL d   1       9.343   5.227  -9.642  0.00  0.00    -0.122 NA
BRANCH  24  28
ATOM     28  C   UNL d   1      10.761   7.614  -7.381  0.00  0.00     0.036 A 
ATOM     29  C   UNL d   1      11.506   8.796  -7.578  0.00  0.00     0.003 A 
ATOM     30  C   UNL d   1      12.021   9.500  -6.463  0.00  0.00     0.000 A 
ATOM     31  C   UNL d   1      11.860   9.000  -5.157  0.00  0.00     0.000 A 
ATOM     32  C   UNL d   1      11.172   7.783  -4.963  0.00  0.00     0.000 A 
ATOM     33  C   UNL d   1      10.606   7.115  -6.069  0.00  0.00     0.003 A 
ENDBRANCH  24  28
ENDBRANCH  21  22
ENDBRANCH  20  21
ENDBRANCH  19  20
ENDBRANCH  18  19
ENDBRANCH   1  18
TORSDOF 12
