REMARK  7 active torsions:
REMARK  status: ('A' for Active; 'I' for Inactive)
REMARK    1  A    between atoms: S_2  and  C_5 
REMARK    2  A    between atoms: C_5  and  C_6 
REMARK       I    between atoms: C_6  and  N_8 
REMARK    3  A    between atoms: N_8  and  C_9 
REMARK    4  A    between atoms: C_12  and  C_13 
REMARK    5  A    between atoms: C_13  and  C_14 
REMARK    6  A    between atoms: C_14  and  N_15 
REMARK    7  A    between atoms: C_18  and  C_19 
ROOT
ATOM      1  C   UNL d   1       8.745   6.221 -11.023  0.00  0.00     0.250 C 
ENDROOT
BRANCH   1   2
ATOM      2  C   UNL d   1      10.060   6.936 -10.696  0.00  0.00     0.035 C 
BRANCH   2   3
ATOM      3  C   UNL d   1      10.047   7.810  -9.448  0.00  0.00     0.002 C 
ATOM      4  C   UNL d   1       9.470   7.032  -8.247  0.00  0.00     0.002 C 
ATOM      5  C   UNL d   1       9.495   7.877  -6.982  0.00  0.00     0.024 C 
ATOM      6  C   UNL d   1      10.932   8.342  -6.691  0.00  0.00     0.106 C 
ATOM      7  C   UNL d   1      11.540   9.111  -7.864  0.00  0.00     0.024 C 
ATOM      8  C   UNL d   1      11.487   8.308  -9.158  0.00  0.00     0.002 C 
BRANCH   6   9
ATOM      9  N   UNL d   1      10.902   9.214  -5.530  0.00  0.00    -0.239 NA
ATOM     10  C   UNL d   1      11.456   8.938  -4.314  0.00  0.00     0.268 C 
ATOM     11  O   UNL d   1      11.488   9.796  -3.469  0.00  0.00    -0.269 OA
BRANCH  10  12
ATOM     12  C   UNL d   1      12.009   7.538  -4.093  0.00  0.00     0.212 C 
BRANCH  12  13
ATOM     13  S   UNL d   1      12.035   7.045  -2.353  0.00  0.00     0.180 S 
ATOM     14  C   UNL d   1      12.841   8.427  -1.474  0.00  0.00     0.140 C 
ATOM     15  O   UNL d   1      13.008   5.954  -2.311  0.00  0.00    -0.225 OA
ATOM     16  O   UNL d   1      10.668   6.804  -1.863  0.00  0.00    -0.225 OA
ENDBRANCH  12  13
ENDBRANCH  10  12
ENDBRANCH   6   9
ENDBRANCH   2   3
ENDBRANCH   1   2
BRANCH   1  17
ATOM     17  N   UNL d   1       8.794   5.469 -12.271  0.00  0.00     0.137 N 
ATOM     18  C   UNL d   1       9.431   4.175 -12.050  0.00  0.00     0.251 C 
ATOM     19  C   UNL d   1       9.560   3.420 -13.368  0.00  0.00     0.040 C 
ATOM     20  C   UNL d   1       8.179   3.208 -13.993  0.00  0.00     0.028 C 
ATOM     21  C   UNL d   1       7.418   4.535 -14.026  0.00  0.00     0.040 C 
ATOM     22  C   UNL d   1       7.409   5.233 -12.675  0.00  0.00     0.251 C 
BRANCH  20  23
ATOM     23  C   UNL d   1       8.303   2.586 -15.371  0.00  0.00     0.002 A 
ATOM     24  C   UNL d   1       7.535   1.468 -15.744  0.00  0.00     0.115 A 
ATOM     25  C   UNL d   1       7.628   0.913 -17.003  0.00  0.00     0.119 A 
ATOM     26  O   UNL d   1       6.614   0.782 -15.016  0.00  0.00    -0.300 OA
ATOM     27  C   UNL d   1       8.501   1.433 -17.976  0.00  0.00     0.026 A 
ATOM     28  O   UNL d   1       6.777  -0.138 -17.105  0.00  0.00    -0.300 OA
ATOM     29  C   UNL d   1       9.284   2.558 -17.631  0.00  0.00     0.002 A 
ATOM     30  C   UNL d   1       9.183   3.130 -16.345  0.00  0.00    -0.002 A 
ATOM     31  C   UNL d   1       6.135  -0.236 -15.861  0.00  0.00     0.304 A 
ENDBRANCH  20  23
ENDBRANCH   1  17
TORSDOF 7
