REMARK  6 active torsions:
REMARK  status: ('A' for Active; 'I' for Inactive)
REMARK    1  A    between atoms: N_12  and  C_13 
REMARK    2  A    between atoms: C_13  and  C_14 
REMARK    3  A    between atoms: C_14  and  C_15 
REMARK    4  A    between atoms: C_15  and  C_16 
REMARK    5  A    between atoms: C_16  and  N_17 
REMARK    6  A    between atoms: N_20  and  C_21 
ROOT
ATOM      1  C   UNL d   1       3.915  -1.566 -16.675  0.00  0.00     0.251 C 
ENDROOT
BRANCH   1   2
ATOM      2  C   UNL d   1       4.436  -2.495 -17.811  0.00  0.00     0.037 C 
BRANCH   2   3
ATOM      3  C   UNL d   1       3.874  -2.111 -19.210  0.00  0.00     0.027 C 
BRANCH   3   4
ATOM      4  C   UNL d   1       4.905  -2.166 -20.364  0.00  0.00     0.112 C 
BRANCH   4   5
ATOM      5  N   UNL d   1       6.021  -1.215 -20.209  0.00  0.00    -0.263 N 
ATOM      6  C   UNL d   1       5.977   0.079 -20.627  0.00  0.00     0.263 A 
ATOM      7  O   UNL d   1       5.060   0.682 -21.178  0.00  0.00    -0.267 OA
ATOM      8  C   UNL d   1       7.277   0.682 -20.243  0.00  0.00     0.062 A 
ATOM      9  C   UNL d   1       8.013  -0.284 -19.597  0.00  0.00     0.071 A 
ATOM     10  C   UNL d   1       7.758   1.987 -20.433  0.00  0.00     0.005 A 
ATOM     11  C   UNL d   1       9.278  -0.009 -19.046  0.00  0.00     0.062 A 
ATOM     12  C   UNL d   1       7.208  -1.532 -19.630  0.00  0.00     0.264 A 
ATOM     13  C   UNL d   1       9.788   1.298 -19.218  0.00  0.00     0.012 A 
ATOM     14 CL   UNL d   1      10.181  -1.185 -18.156  0.00  0.00    -0.082 Cl
ATOM     15  C   UNL d   1       9.041   2.286 -19.913  0.00  0.00     0.001 A 
ATOM     16  O   UNL d   1       7.587  -2.634 -19.224  0.00  0.00    -0.267 OA
ENDBRANCH   4   5
ENDBRANCH   3   4
ENDBRANCH   2   3
ENDBRANCH   1   2
BRANCH   1  17
ATOM     17  N   UNL d   1       5.034  -1.068 -15.881  0.00  0.00     0.141 N 
ATOM     18  C   UNL d   1       5.737  -0.017 -16.630  0.00  0.00     0.274 C 
ATOM     19  C   UNL d   1       6.949   0.483 -15.835  0.00  0.00     0.137 C 
ATOM     20  N   UNL d   1       6.540   0.957 -14.521  0.00  0.00    -0.344 N 
ATOM     21  C   UNL d   1       5.730   0.004 -13.771  0.00  0.00     0.137 C 
ATOM     22  C   UNL d   1       4.542  -0.498 -14.625  0.00  0.00     0.274 C 
BRANCH  20  23
ATOM     23  C   UNL d   1       6.873   2.230 -14.041  0.00  0.00     0.057 A 
ATOM     24  C   UNL d   1       8.174   2.775 -14.242  0.00  0.00     0.022 A 
ATOM     25  C   UNL d   1       8.429   4.080 -13.706  0.00  0.00     0.031 A 
ATOM     26  C   UNL d   1       9.364   2.233 -14.886  0.00  0.00     0.009 A 
ATOM     27  C   UNL d   1       7.440   4.792 -13.008  0.00  0.00     0.007 A 
ATOM     28  S   UNL d   1      10.085   4.590 -14.020  0.00  0.00    -0.086 SA
ATOM     29  C   UNL d   1       6.167   4.244 -12.828  0.00  0.00     0.002 A 
ATOM     30  C   UNL d   1       5.881   2.972 -13.345  0.00  0.00     0.017 A 
ATOM     31  C   UNL d   1      10.419   3.103 -14.853  0.00  0.00     0.035 A 
ENDBRANCH  20  23
ENDBRANCH   1  17
TORSDOF 6
