REMARK  12 active torsions:
REMARK  status: ('A' for Active; 'I' for Inactive)
REMARK    1  A    between atoms: C_2  and  C_3 
REMARK       I    between atoms: C_2  and  N_20 
REMARK    2  A    between atoms: C_3  and  C_4 
REMARK    3  A    between atoms: C_4  and  C_5 
REMARK    4  A    between atoms: C_5  and  C_6 
REMARK    5  A    between atoms: N_8  and  C_9 
REMARK    6  A    between atoms: C_12  and  N_13 
REMARK    7  A    between atoms: N_20  and  C_21 
REMARK    8  A    between atoms: C_21  and  C_22 
REMARK    9  A    between atoms: C_22  and  C_23 
REMARK   10  A    between atoms: C_23  and  C_24 
REMARK   11  A    between atoms: C_24  and  N_25 
REMARK   12  A    between atoms: N_28  and  C_29 
ROOT
ATOM      1  O   UNL d   1       9.000   1.779 -15.751  0.00  0.00    -0.271 OA
ATOM      2  C   UNL d   1       7.840   1.375 -15.598  0.00  0.00     0.251 C 
ATOM      3  N   UNL d   1       7.261   0.586 -16.517  0.00  0.00    -0.238 NA
ENDROOT
BRANCH   2   4
ATOM      4  C   UNL d   1       6.971   1.790 -14.383  0.00  0.00     0.090 C 
BRANCH   4   5
ATOM      5  C   UNL d   1       7.251   3.187 -13.763  0.00  0.00     0.016 C 
BRANCH   5   6
ATOM      6  C   UNL d   1       8.732   3.533 -13.482  0.00  0.00     0.050 C 
BRANCH   6   7
ATOM      7  C   UNL d   1       8.891   4.716 -12.593  0.00  0.00     0.101 A 
ATOM      8  N   UNL d   1       8.592   5.992 -13.050  0.00  0.00    -0.133 NA
ATOM      9  N   UNL d   1       8.885   6.850 -12.127  0.00  0.00    -0.060 NA
ATOM     10  N   UNL d   1       9.374   6.155 -11.070  0.00  0.00    -0.209 N 
ATOM     11  C   UNL d   1       9.406   4.801 -11.335  0.00  0.00     0.119 A 
BRANCH  10  12
ATOM     12  C   UNL d   1       9.785   6.813  -9.897  0.00  0.00     0.085 A 
ATOM     13  C   UNL d   1      10.270   8.136  -9.943  0.00  0.00     0.021 A 
ATOM     14  C   UNL d   1      10.669   8.782  -8.759  0.00  0.00     0.025 A 
ATOM     15  C   UNL d   1      10.581   8.118  -7.512  0.00  0.00     0.127 A 
ATOM     16  C   UNL d   1      10.096   6.792  -7.477  0.00  0.00     0.025 A 
ATOM     17  C   UNL d   1       9.702   6.141  -8.661  0.00  0.00     0.021 A 
BRANCH  15  18
ATOM     18  N   UNL d   1      10.994   8.801  -6.271  0.00  0.00    -0.114 N 
ATOM     19  O   UNL d   1      11.266   9.994  -6.324  0.00  0.00    -0.532 OA
ATOM     20  O   UNL d   1      11.054   8.139  -5.238  0.00  0.00    -0.532 OA
ENDBRANCH  15  18
ENDBRANCH  10  12
ENDBRANCH   6   7
ENDBRANCH   5   6
ENDBRANCH   4   5
ENDBRANCH   2   4
BRANCH   3  21
ATOM     21  C   UNL d   1       7.958   0.187 -17.741  0.00  0.00     0.129 C 
BRANCH  21  22
ATOM     22  C   UNL d   1       8.002   1.290 -18.819  0.00  0.00     0.029 C 
BRANCH  22  23
ATOM     23  C   UNL d   1       8.823   2.539 -18.420  0.00  0.00     0.037 C 
BRANCH  23  24
ATOM     24  C   UNL d   1       9.033   3.533 -19.580  0.00  0.00     0.251 C 
BRANCH  24  25
ATOM     25  N   UNL d   1       9.628   4.769 -19.073  0.00  0.00     0.141 N 
ATOM     26  C   UNL d   1       9.439   5.823 -20.069  0.00  0.00     0.274 C 
ATOM     27  C   UNL d   1      10.036   7.158 -19.580  0.00  0.00     0.137 C 
ATOM     28  N   UNL d   1      11.450   6.989 -19.222  0.00  0.00    -0.344 N 
ATOM     29  C   UNL d   1      11.695   5.885 -18.302  0.00  0.00     0.137 C 
ATOM     30  C   UNL d   1      11.064   4.587 -18.821  0.00  0.00     0.274 C 
BRANCH  28  31
ATOM     31  C   UNL d   1      12.447   7.804 -19.720  0.00  0.00     0.068 A 
ATOM     32  C   UNL d   1      13.494   8.345 -18.897  0.00  0.00     0.084 A 
ATOM     33  C   UNL d   1      14.490   9.157 -19.470  0.00  0.00     0.070 A 
ATOM     34 CL   UNL d   1      13.530   8.092 -17.182  0.00  0.00    -0.080 Cl
ATOM     35  C   UNL d   1      14.473   9.460 -20.839  0.00  0.00     0.012 A 
ATOM     36 CL   UNL d   1      15.753   9.828 -18.491  0.00  0.00    -0.081 Cl
ATOM     37  C   UNL d   1      13.452   8.948 -21.657  0.00  0.00     0.002 A 
ATOM     38  C   UNL d   1      12.456   8.134 -21.100  0.00  0.00     0.018 A 
ENDBRANCH  28  31
ENDBRANCH  24  25
ENDBRANCH  23  24
ENDBRANCH  22  23
ENDBRANCH  21  22
ENDBRANCH   3  21
TORSDOF 12
