REMARK  6 active torsions:
REMARK  status: ('A' for Active; 'I' for Inactive)
REMARK       I    between atoms: N_10  and  C_11 
REMARK    1  A    between atoms: C_11  and  C_13 
REMARK    2  A    between atoms: C_13  and  N_14 
REMARK    3  A    between atoms: N_17  and  C_18 
REMARK    4  A    between atoms: C_18  and  C_19 
REMARK    5  A    between atoms: C_23  and  O_24 
REMARK    6  A    between atoms: O_24  and  C_25 
ROOT
ATOM      1  N   UNL d   1       9.543   4.166 -13.645  0.00  0.00     0.151 N 
ATOM      2  C   UNL d   1       9.997   2.802 -13.463  0.00  0.00     0.286 C 
ATOM      3  C   UNL d   1      10.889   2.295 -14.601  0.00  0.00     0.286 C 
ATOM      4  N   UNL d   1      10.178   2.341 -15.876  0.00  0.00     0.146 N 
ATOM      5  C   UNL d   1       9.701   3.717 -16.067  0.00  0.00     0.286 C 
ATOM      6  C   UNL d   1       8.820   4.211 -14.912  0.00  0.00     0.286 C 
ENDROOT
BRANCH   1   7
ATOM      7  C   UNL d   1       8.748   4.588 -12.485  0.00  0.00     0.337 C 
BRANCH   7   8
ATOM      8  C   UNL d   1       8.478   6.102 -12.395  0.00  0.00     0.271 C 
ATOM      9  N   UNL d   1       9.129   6.835 -11.469  0.00  0.00    -0.299 N 
ATOM     10  C   UNL d   1       9.484   8.248 -11.643  0.00  0.00     0.093 A 
ATOM     11  C   UNL d   1       9.429   6.462 -10.123  0.00  0.00     0.058 A 
ATOM     12  C   UNL d   1       8.436   9.227 -12.213  0.00  0.00     0.025 C 
ATOM     13  C   UNL d   1      10.132   8.738 -10.305  0.00  0.00     0.051 A 
ATOM     14  C   UNL d   1      10.033   7.520  -9.456  0.00  0.00    -0.004 A 
ATOM     15  C   UNL d   1      10.386   7.458  -8.072  0.00  0.00    -0.003 A 
ATOM     16  C   UNL d   1      10.087   6.250  -7.441  0.00  0.00    -0.000 A 
ATOM     17  C   UNL d   1       9.409   5.218  -8.105  0.00  0.00     0.002 A 
ATOM     18  C   UNL d   1       9.016   5.315  -9.455  0.00  0.00     0.017 A 
ATOM     19  O   UNL d   1       7.680   6.593 -13.187  0.00  0.00    -0.270 OA
ENDBRANCH   7   8
ENDBRANCH   1   7
BRANCH   4  20
ATOM     20  C   UNL d   1      11.041   1.867 -16.957  0.00  0.00     0.277 C 
BRANCH  20  21
ATOM     21  C   UNL d   1      10.460   2.062 -18.348  0.00  0.00     0.013 A 
ATOM     22  C   UNL d   1       9.711   1.028 -18.953  0.00  0.00     0.022 A 
ATOM     23  C   UNL d   1       9.113   1.224 -20.221  0.00  0.00     0.102 A 
ATOM     24  C   UNL d   1       9.273   2.469 -20.871  0.00  0.00     0.025 A 
ATOM     25  C   UNL d   1      10.019   3.504 -20.270  0.00  0.00     0.002 A 
ATOM     26  C   UNL d   1      10.619   3.289 -19.013  0.00  0.00    -0.002 A 
BRANCH  23  27
ATOM     27  O   UNL d   1       8.305   0.282 -20.832  0.00  0.00    -0.254 OA
BRANCH  27  28
ATOM     28  C   UNL d   1       8.572  -1.048 -20.721  0.00  0.00     0.530 C 
ATOM     29  F   UNL d   1       7.716  -1.748 -21.510  0.00  0.00    -0.144 F 
ATOM     30  F   UNL d   1       9.825  -1.342 -21.148  0.00  0.00    -0.144 F 
ATOM     31  F   UNL d   1       8.408  -1.510 -19.455  0.00  0.00    -0.144 F 
ENDBRANCH  27  28
ENDBRANCH  23  27
ENDBRANCH  20  21
ENDBRANCH   4  20
TORSDOF 6
