REMARK  10 active torsions:
REMARK  status: ('A' for Active; 'I' for Inactive)
REMARK    1  A    between atoms: C_2  and  C_3 
REMARK    2  A    between atoms: C_3  and  C_5 
REMARK    3  A    between atoms: C_5  and  C_6 
REMARK    4  A    between atoms: C_5  and  C_17 
REMARK    5  A    between atoms: C_6  and  O_8 
REMARK    6  A    between atoms: O_8  and  C_9 
REMARK    7  A    between atoms: C_9  and  C_10 
REMARK    8  A    between atoms: C_10  and  N_11 
REMARK    9  A    between atoms: N_11  and  C_13 
REMARK   10  A    between atoms: N_11  and  C_15 
ROOT
ATOM      1  C   UNL d   1       7.600   5.659 -11.708  0.00  0.00     0.109 C 
ENDROOT
BRANCH   1   2
ATOM      2  C   UNL d   1       7.950   6.918 -12.603  0.00  0.00     0.013 C 
ATOM      3  C   UNL d   1       9.177   7.745 -12.173  0.00  0.00     0.001 C 
BRANCH   2   4
ATOM      4  C   UNL d   1       6.777   7.922 -12.737  0.00  0.00     0.001 C 
ATOM      5  C   UNL d   1       5.401   7.461 -12.302  0.00  0.00     0.000 C 
ENDBRANCH   2   4
ENDBRANCH   1   2
BRANCH   1   6
ATOM      6  C   UNL d   1       8.698   5.218 -10.732  0.00  0.00     0.276 C 
ATOM      7  O   UNL d   1       9.807   4.855 -11.110  0.00  0.00    -0.264 OA
BRANCH   6   8
ATOM      8  O   UNL d   1       8.286   5.308  -9.470  0.00  0.00    -0.299 OA
BRANCH   8   9
ATOM      9  C   UNL d   1       9.206   5.435  -8.406  0.00  0.00     0.185 C 
BRANCH   9  10
ATOM     10  C   UNL d   1       8.995   6.825  -7.744  0.00  0.00     0.249 C 
BRANCH  10  11
ATOM     11  N   UNL d   1      10.261   7.635  -7.509  0.00  0.00    -0.002 N 
ATOM     12  C   UNL d   1      10.892   7.913  -8.833  0.00  0.00     0.250 C 
BRANCH  11  13
ATOM     13  C   UNL d   1       9.859   8.951  -6.913  0.00  0.00     0.217 C 
ATOM     14  C   UNL d   1      11.050   9.849  -6.439  0.00  0.00     0.035 C 
ENDBRANCH  11  13
BRANCH  11  15
ATOM     15  C   UNL d   1      11.186   6.873  -6.641  0.00  0.00     0.217 C 
ATOM     16  C   UNL d   1      10.806   6.804  -5.135  0.00  0.00     0.035 C 
ENDBRANCH  11  15
ENDBRANCH  10  11
ENDBRANCH   9  10
ENDBRANCH   8   9
ENDBRANCH   6   8
ENDBRANCH   1   6
BRANCH   1  17
ATOM     17  C   UNL d   1       7.155   4.458 -12.564  0.00  0.00    -0.013 A 
ATOM     18  C   UNL d   1       5.900   3.876 -12.294  0.00  0.00    -0.004 A 
ATOM     19  C   UNL d   1       5.465   2.749 -13.028  0.00  0.00    -0.000 A 
ATOM     20  C   UNL d   1       6.291   2.211 -14.048  0.00  0.00    -0.000 A 
ATOM     21  C   UNL d   1       7.533   2.812 -14.331  0.00  0.00    -0.000 A 
ATOM     22  C   UNL d   1       7.958   3.925 -13.593  0.00  0.00    -0.004 A 
ENDBRANCH   1  17
TORSDOF 10
