REMARK  4 active torsions:
REMARK  status: ('A' for Active; 'I' for Inactive)
REMARK       I    between atoms: C_2  and  N_4 
REMARK    1  A    between atoms: N_4  and  C_5 
REMARK    2  A    between atoms: C_9  and  C_10 
REMARK    3  A    between atoms: N_12  and  S_13 
REMARK    4  A    between atoms: S_13  and  C_16 
ROOT
ATOM      1  C   UNL d   1       9.771   3.980 -14.597  0.00  0.00     0.039 A 
ATOM      2  C   UNL d   1       9.831   5.191 -13.946  0.00  0.00     0.093 A 
ATOM      3  N   UNL d   1       8.676   5.406 -13.215  0.00  0.00    -0.231 N 
ATOM      4  C   UNL d   1       7.791   4.361 -13.394  0.00  0.00     0.075 A 
ATOM      5  C   UNL d   1       6.495   4.109 -12.893  0.00  0.00     0.018 A 
ATOM      6  C   UNL d   1       5.849   2.909 -13.205  0.00  0.00     0.002 A 
ATOM      7  C   UNL d   1       6.480   1.985 -14.051  0.00  0.00     0.000 A 
ATOM      8  C   UNL d   1       7.762   2.253 -14.566  0.00  0.00     0.002 A 
ATOM      9  C   UNL d   1       8.472   3.437 -14.250  0.00  0.00     0.020 A 
ENDROOT
BRANCH   3  10
ATOM     10  S   UNL d   1       8.441   6.823 -12.316  0.00  0.00     0.271 S 
ATOM     11  O   UNL d   1       9.440   7.753 -12.824  0.00  0.00    -0.200 OA
ATOM     12  O   UNL d   1       6.983   7.105 -12.460  0.00  0.00    -0.200 OA
BRANCH  10  13
ATOM     13  C   UNL d   1       8.907   6.389 -10.639  0.00  0.00     0.104 A 
ATOM     14  C   UNL d   1       9.745   7.221  -9.814  0.00  0.00     0.012 A 
ATOM     15  C   UNL d   1      10.033   6.774  -8.508  0.00  0.00     0.001 A 
ATOM     16  C   UNL d   1      10.270   8.488 -10.178  0.00  0.00     0.001 A 
ATOM     17  C   UNL d   1       9.486   5.573  -8.048  0.00  0.00     0.000 A 
ATOM     18  C   UNL d   1      10.835   7.512  -7.615  0.00  0.00     0.000 A 
ATOM     19  C   UNL d   1       8.674   4.761  -8.851  0.00  0.00     0.001 A 
ATOM     20  C   UNL d   1       8.394   5.170 -10.154  0.00  0.00     0.013 A 
ATOM     21  C   UNL d   1      11.393   8.738  -8.013  0.00  0.00     0.000 A 
ATOM     22  C   UNL d   1      11.089   9.206  -9.299  0.00  0.00     0.000 A 
ENDBRANCH  10  13
ENDBRANCH   3  10
BRANCH   1  23
ATOM     23  C   UNL d   1      10.815   3.459 -15.460  0.00  0.00     0.115 A 
ATOM     24  C   UNL d   1      12.073   3.883 -15.889  0.00  0.00     0.096 A 
ATOM     25  N   UNL d   1      12.628   2.958 -16.788  0.00  0.00    -0.062 NA
ATOM     26  C   UNL d   1      12.803   5.115 -15.508  0.00  0.00     0.054 C 
ATOM     27  C   UNL d   1      11.675   2.004 -16.847  0.00  0.00     0.752 A 
ATOM     28  N   UNL d   1      10.624   2.273 -16.092  0.00  0.00    -0.058 NA
BRANCH  27  29
ATOM     29  N   UNL d   1      11.748   0.808 -17.613  0.00  0.00    -0.023 NA
ATOM     30  C   UNL d   1      10.828  -0.188 -17.760  0.00  0.00     0.273 C 
ATOM     31  C   UNL d   1       9.451  -0.135 -17.074  0.00  0.00     0.101 C 
ATOM     32  O   UNL d   1      11.099  -1.167 -18.447  0.00  0.00    -0.270 OA
ENDBRANCH  27  29
ENDBRANCH   1  23
TORSDOF 4
