REMARK  7 active torsions:
REMARK  status: ('A' for Active; 'I' for Inactive)
REMARK    1  A    between atoms: C_3  and  S_4 
REMARK    2  A    between atoms: S_4  and  C_5 
REMARK    3  A    between atoms: C_5  and  C_6 
REMARK    4  A    between atoms: C_6  and  C_7 
REMARK    5  A    between atoms: C_7  and  N_8 
REMARK    6  A    between atoms: C_13  and  C_14 
REMARK    7  A    between atoms: C_23  and  C_24 
ROOT
ATOM      1  C   UNL d   1       8.030   1.645 -16.955  0.00  0.00     0.047 C 
ENDROOT
BRANCH   1   2
ATOM      2  C   UNL d   1       9.152   1.244 -17.929  0.00  0.00     0.067 C 
BRANCH   2   3
ATOM      3  S   UNL d   1       9.398   2.437 -19.283  0.00  0.00    -0.075 SA
BRANCH   3   4
ATOM      4  C   UNL d   1      10.152   3.788 -18.435  0.00  0.00     0.193 A 
ATOM      5  N   UNL d   1      11.153   4.520 -18.980  0.00  0.00    -0.289 N 
ATOM      6  C   UNL d   1      11.816   4.338 -20.269  0.00  0.00     0.134 C 
ATOM      7  C   UNL d   1      11.364   5.455 -18.025  0.00  0.00     0.168 A 
ATOM      8  N   UNL d   1      10.566   5.290 -16.955  0.00  0.00    -0.128 NA
ATOM      9  N   UNL d   1       9.791   4.219 -17.237  0.00  0.00    -0.122 NA
BRANCH   7  10
ATOM     10  C   UNL d   1      12.317   6.547 -18.074  0.00  0.00     0.055 A 
ATOM     11  C   UNL d   1      12.978   6.970 -16.893  0.00  0.00     0.102 A 
ATOM     12  N   UNL d   1      13.865   7.984 -16.870  0.00  0.00    -0.242 NA
ATOM     13  C   UNL d   1      14.143   8.603 -18.031  0.00  0.00     0.099 A 
ATOM     14  C   UNL d   1      13.534   8.276 -19.261  0.00  0.00     0.021 A 
ATOM     15  C   UNL d   1      12.585   7.241 -19.273  0.00  0.00     0.006 A 
ENDBRANCH   7  10
ENDBRANCH   3   4
ENDBRANCH   2   3
ENDBRANCH   1   2
BRANCH   1  16
ATOM     16  C   UNL d   1       7.869   0.674 -15.774  0.00  0.00     0.251 C 
BRANCH  16  17
ATOM     17  N   UNL d   1       6.710   1.077 -14.983  0.00  0.00     0.137 N 
ATOM     18  C   UNL d   1       6.922   2.382 -14.377  0.00  0.00     0.251 C 
ATOM     19  C   UNL d   1       5.903   2.491 -13.266  0.00  0.00     0.037 A 
ATOM     20  C   UNL d   1       5.597   1.046 -12.927  0.00  0.00     0.038 C 
ATOM     21  C   UNL d   1       5.973   3.596 -12.236  0.00  0.00     0.024 A 
ATOM     22  C   UNL d   1       4.860   3.589 -13.231  0.00  0.00     0.007 A 
ATOM     23  C   UNL d   1       6.534   0.221 -13.812  0.00  0.00     0.250 C 
BRANCH  21  24
ATOM     24  C   UNL d   1       7.053   4.642 -12.281  0.00  0.00    -0.022 A 
ATOM     25  C   UNL d   1       8.419   4.278 -12.323  0.00  0.00    -0.004 A 
ATOM     26  C   UNL d   1       9.414   5.251 -12.481  0.00  0.00    -0.000 A 
ATOM     27  C   UNL d   1       9.060   6.611 -12.518  0.00  0.00    -0.000 A 
ATOM     28  C   UNL d   1       7.710   6.988 -12.427  0.00  0.00    -0.000 A 
ATOM     29  C   UNL d   1       6.701   6.004 -12.312  0.00  0.00    -0.004 A 
ENDBRANCH  21  24
ENDBRANCH  16  17
ENDBRANCH   1  16
TORSDOF 7
