REMARK  4 active torsions:
REMARK  status: ('A' for Active; 'I' for Inactive)
REMARK    1  A    between atoms: C_4  and  C_5 
REMARK    2  A    between atoms: C_5  and  N_6 
REMARK    3  A    between atoms: C_9  and  C_10 
REMARK    4  A    between atoms: C_10  and  C_12 
ROOT
ATOM      1  N   UNL d   1       9.411   6.188 -10.708  0.00  0.00     0.137 N 
ATOM      2  C   UNL d   1       8.677   5.708  -9.531  0.00  0.00     0.251 C 
ATOM      3  C   UNL d   1       9.608   5.593  -8.341  0.00  0.00     0.043 C 
ATOM      4  C   UNL d   1      10.221   6.957  -7.994  0.00  0.00     0.066 C 
ATOM      5  C   UNL d   1      10.887   7.535  -9.256  0.00  0.00     0.043 C 
ATOM      6  C   UNL d   1       9.885   7.546 -10.413  0.00  0.00     0.251 C 
ENDROOT
BRANCH   1   7
ATOM      7  C   UNL d   1       8.514   6.267 -11.853  0.00  0.00     0.251 C 
BRANCH   7   8
ATOM      8  C   UNL d   1       8.121   4.880 -12.410  0.00  0.00     0.047 C 
ATOM      9  C   UNL d   1       6.590   4.792 -12.569  0.00  0.00     0.072 C 
ATOM     10  C   UNL d   1       6.136   3.446 -13.160  0.00  0.00     0.176 C 
ATOM     11  O   UNL d   1       5.055   2.960 -12.817  0.00  0.00    -0.291 OA
ATOM     12  C   UNL d   1       7.049   2.809 -14.134  0.00  0.00     0.068 A 
ATOM     13  C   UNL d   1       8.336   3.322 -14.406  0.00  0.00     0.065 A 
ATOM     14  C   UNL d   1       6.676   1.655 -14.851  0.00  0.00     0.105 A 
ATOM     15  C   UNL d   1       8.864   4.567 -13.719  0.00  0.00     0.049 C 
ATOM     16  N   UNL d   1       9.149   2.758 -15.327  0.00  0.00    -0.228 NA
ATOM     17  C   UNL d   1       8.679   1.676 -15.955  0.00  0.00     0.199 A 
ATOM     18  N   UNL d   1       7.489   1.099 -15.773  0.00  0.00    -0.223 NA
ENDBRANCH   7   8
ENDBRANCH   1   7
BRANCH   4  19
ATOM     19  C   UNL d   1      11.245   6.835  -6.865  0.00  0.00     0.173 C 
ATOM     20  O   UNL d   1      12.033   5.909  -6.832  0.00  0.00    -0.291 OA
BRANCH  19  21
ATOM     21  C   UNL d   1      11.267   7.832  -5.801  0.00  0.00     0.035 A 
ATOM     22  C   UNL d   1      10.909   9.169  -6.064  0.00  0.00     0.005 A 
ATOM     23  C   UNL d   1      11.061  10.128  -5.046  0.00  0.00     0.030 A 
ATOM     24  C   UNL d   1      11.577   9.717  -3.807  0.00  0.00     0.140 A 
ATOM     25  C   UNL d   1      11.955   8.418  -3.539  0.00  0.00     0.030 A 
ATOM     26  F   UNL d   1      11.808  10.594  -2.838  0.00  0.00    -0.204 F 
ATOM     27  C   UNL d   1      11.804   7.458  -4.544  0.00  0.00     0.005 A 
ENDBRANCH  19  21
ENDBRANCH   4  19
TORSDOF 4
