REMARK  8 active torsions:
REMARK  status: ('A' for Active; 'I' for Inactive)
REMARK    1  A    between atoms: C_2  and  C_3 
REMARK    2  A    between atoms: C_7  and  N_8 
REMARK    3  A    between atoms: N_11  and  C_12 
REMARK    4  A    between atoms: C_12  and  C_13 
REMARK    5  A    between atoms: C_13  and  C_15 
REMARK    6  A    between atoms: C_15  and  C_16 
REMARK    7  A    between atoms: C_16  and  N_17 
REMARK       I    between atoms: N_17  and  C_18 
REMARK    8  A    between atoms: C_18  and  C_20 
ROOT
ATOM      1  C   UNL d   1       7.631   2.418 -15.390  0.00  0.00     0.285 C 
ENDROOT
BRANCH   1   2
ATOM      2  N   UNL d   1       7.919   2.836 -14.024  0.00  0.00     0.144 N 
ATOM      3  C   UNL d   1       7.031   3.943 -13.654  0.00  0.00     0.274 C 
ATOM      4  C   UNL d   1       7.269   4.397 -12.200  0.00  0.00     0.137 C 
ATOM      5  N   UNL d   1       8.674   4.713 -12.025  0.00  0.00    -0.344 N 
ATOM      6  C   UNL d   1       9.636   3.715 -12.453  0.00  0.00     0.137 C 
ATOM      7  C   UNL d   1       9.321   3.265 -13.891  0.00  0.00     0.274 C 
BRANCH   5   8
ATOM      8  C   UNL d   1       9.065   5.910 -11.416  0.00  0.00     0.067 A 
ATOM      9  C   UNL d   1       9.046   7.077 -12.198  0.00  0.00     0.018 A 
ATOM     10  C   UNL d   1       9.455   8.295 -11.642  0.00  0.00     0.001 A 
ATOM     11  C   UNL d   1       9.867   8.364 -10.303  0.00  0.00    -0.003 A 
ATOM     12  C   UNL d   1       9.881   7.205  -9.494  0.00  0.00    -0.010 A 
ATOM     13  C   UNL d   1       9.465   5.969 -10.060  0.00  0.00     0.069 A 
ATOM     14 CL   UNL d   1       9.423   4.527  -9.098  0.00  0.00    -0.081 Cl
BRANCH  12  15
ATOM     15  C   UNL d   1      10.318   7.341  -8.041  0.00  0.00     0.027 C 
ATOM     16  C   UNL d   1      11.648   8.096  -7.872  0.00  0.00     0.005 C 
ENDBRANCH  12  15
ENDBRANCH   5   8
ENDBRANCH   1   2
BRANCH   1  17
ATOM     17  C   UNL d   1       7.831   0.908 -15.613  0.00  0.00     0.196 C 
ATOM     18  F   UNL d   1       6.942   0.278 -14.849  0.00  0.00    -0.235 F 
BRANCH  17  19
ATOM     19  C   UNL d   1       7.565   0.506 -17.078  0.00  0.00     0.064 C 
BRANCH  19  20
ATOM     20  C   UNL d   1       8.782   0.629 -18.016  0.00  0.00     0.132 C 
BRANCH  20  21
ATOM     21  N   UNL d   1       9.459   1.911 -17.866  0.00  0.00    -0.233 NA
ATOM     22  C   UNL d   1       9.414   2.955 -18.707  0.00  0.00     0.293 C 
ATOM     23  O   UNL d   1       8.740   2.966 -19.736  0.00  0.00    -0.264 OA
BRANCH  22  24
ATOM     24  C   UNL d   1      10.266   4.109 -18.338  0.00  0.00     0.139 A 
ATOM     25  N   UNL d   1      10.820   4.205 -17.063  0.00  0.00    -0.241 NA
ATOM     26  C   UNL d   1      11.601   5.331 -16.948  0.00  0.00     0.082 A 
ATOM     27  C   UNL d   1      11.524   5.989 -18.209  0.00  0.00     0.019 A 
ATOM     28  C   UNL d   1      12.363   5.838 -15.882  0.00  0.00     0.019 A 
ATOM     29  C   UNL d   1      10.665   5.209 -19.059  0.00  0.00     0.025 A 
ATOM     30  C   UNL d   1      12.261   7.188 -18.357  0.00  0.00     0.002 A 
ATOM     31  C   UNL d   1      13.022   7.711 -17.290  0.00  0.00     0.000 A 
ATOM     32  C   UNL d   1      13.065   7.045 -16.051  0.00  0.00     0.002 A 
ENDBRANCH  22  24
ENDBRANCH  20  21
ENDBRANCH  19  20
ENDBRANCH  17  19
ENDBRANCH   1  17
TORSDOF 8
