REMARK  2 active torsions:
REMARK  status: ('A' for Active; 'I' for Inactive)
REMARK    1  A    between atoms: N_2  and  C_4 
REMARK    2  A    between atoms: C_4  and  C_5 
ROOT
ATOM      1  C   UNL d   1       9.724   4.484 -13.606  0.00  0.00     0.149 C 
ATOM      2  C   UNL d   1       9.685   2.990 -13.919  0.00  0.00     0.039 C 
ATOM      3  C   UNL d   1      10.877   2.746 -14.844  0.00  0.00     0.058 C 
ATOM      4  C   UNL d   1      10.474   2.126 -16.178  0.00  0.00     0.003 A 
ATOM      5  C   UNL d   1      10.788   0.777 -16.451  0.00  0.00    -0.002 A 
ATOM      6  C   UNL d   1      10.380   0.179 -17.661  0.00  0.00    -0.000 A 
ATOM      7  C   UNL d   1       9.643   0.926 -18.600  0.00  0.00     0.002 A 
ATOM      8  C   UNL d   1       9.323   2.271 -18.332  0.00  0.00     0.024 A 
ATOM      9  C   UNL d   1       9.742   2.867 -17.126  0.00  0.00     0.096 A 
ATOM     10  O   UNL d   1       9.459   4.178 -16.884  0.00  0.00    -0.308 OA
ATOM     11  C   UNL d   1      10.523   5.018 -17.021  0.00  0.00     0.098 A 
ATOM     12  C   UNL d   1      10.537   5.903 -18.117  0.00  0.00     0.025 A 
ATOM     13  C   UNL d   1      11.631   6.764 -18.323  0.00  0.00     0.013 A 
ATOM     14  C   UNL d   1      12.707   6.744 -17.420  0.00  0.00     0.058 A 
ATOM     15 CL   UNL d   1      14.053   7.799 -17.649  0.00  0.00    -0.082 Cl
ATOM     16  C   UNL d   1      12.691   5.864 -16.323  0.00  0.00     0.011 A 
ATOM     17  C   UNL d   1      11.602   4.990 -16.105  0.00  0.00     0.029 A 
ATOM     18  C   UNL d   1      11.628   4.103 -14.854  0.00  0.00     0.143 C 
ATOM     19  O   UNL d   1      11.108   4.787 -13.718  0.00  0.00    -0.352 OA
ENDROOT
BRANCH   1  20
ATOM     20  C   UNL d   1       9.214   4.833 -12.197  0.00  0.00     0.280 C 
BRANCH  20  21
ATOM     21  N   UNL d   1       9.102   6.265 -11.932  0.00  0.00     0.144 N 
ATOM     22  C   UNL d   1       9.087   6.532 -10.500  0.00  0.00     0.286 C 
ATOM     23  C   UNL d   1       7.914   6.849 -12.552  0.00  0.00     0.286 C 
ENDBRANCH  20  21
ENDBRANCH   1  20
TORSDOF 2
