REMARK  0 active torsions:
REMARK  status: ('A' for Active; 'I' for Inactive)
ROOT
ATOM      1  C   UNL d   1       4.726  -1.951 -15.608  0.00  0.00     0.058 C 
ATOM      2  C   UNL d   1       5.326  -0.681 -15.113  0.00  0.00     0.078 A 
ATOM      3  C   UNL d   1       4.827   0.303 -14.294  0.00  0.00     0.022 A 
ATOM      4  C   UNL d   1       5.867   1.283 -14.176  0.00  0.00     0.024 A 
ATOM      5  C   UNL d   1       6.032   2.537 -13.545  0.00  0.00     0.004 A 
ATOM      6  C   UNL d   1       7.248   3.254 -13.646  0.00  0.00     0.019 A 
ATOM      7  C   UNL d   1       7.471   4.545 -12.976  0.00  0.00    -0.015 A 
ATOM      8  C   UNL d   1       6.353   5.146 -12.143  0.00  0.00     0.031 C 
ATOM      9  C   UNL d   1       8.655   5.170 -13.111  0.00  0.00     0.065 A 
ATOM     10  C   UNL d   1       9.764   4.607 -13.914  0.00  0.00     0.300 A 
ATOM     11  O   UNL d   1      10.840   5.188 -14.039  0.00  0.00    -0.259 OA
ATOM     12  O   UNL d   1       9.521   3.406 -14.517  0.00  0.00    -0.273 OA
ATOM     13  C   UNL d   1       8.323   2.731 -14.410  0.00  0.00     0.101 A 
ATOM     14  C   UNL d   1       8.178   1.490 -15.068  0.00  0.00     0.024 A 
ATOM     15  C   UNL d   1       9.316   0.911 -15.892  0.00  0.00     0.035 C 
ATOM     16  C   UNL d   1       6.957   0.800 -14.944  0.00  0.00     0.098 A 
ATOM     17  O   UNL d   1       6.604  -0.407 -15.515  0.00  0.00    -0.312 OA
ENDROOT
TORSDOF 0
