REMARK  3 active torsions:
REMARK  status: ('A' for Active; 'I' for Inactive)
REMARK    1  A    between atoms: CA_2  and  C_3 
REMARK    2  A    between atoms: CA_2  and  C_12 
REMARK    3  A    between atoms: C_3  and  N_4 
ROOT
ATOM      1  N   UNL d   1      11.149   7.744  -6.703  0.00  0.00    -0.321 N 
ATOM      2  C   UNL d   1      11.125   9.097  -6.776  0.00  0.00     0.078 A 
ATOM      3  C   UNL d   1      11.350   9.882  -5.622  0.00  0.00     0.048 A 
ATOM      4  C   UNL d   1      11.599   9.240  -4.391  0.00  0.00     0.159 A 
ATOM      5  O   UNL d   1      11.780   9.958  -3.241  0.00  0.00    -0.188 OA
ATOM      6  C   UNL d   1      11.642   7.827  -4.357  0.00  0.00     0.173 A 
ATOM      7  O   UNL d   1      11.892   7.148  -3.201  0.00  0.00    -0.186 OA
ATOM      8  C   UNL d   1      11.392   7.100  -5.533  0.00  0.00     0.106 A 
ENDROOT
BRANCH   1   9
ATOM      9  C   UNL d   1      10.887   6.939  -7.909  0.00  0.00     0.157 C 
BRANCH   9  10
ATOM     10  CA  UNL d   1       9.370   6.816  -8.218  0.00  0.00     0.409 C 
ATOM     11  N   UNL d   1       8.600   6.475  -7.032  0.00  0.00     0.630 N 
BRANCH  10  12
ATOM     12  C   UNL d   1       9.104   5.750  -9.290  0.00  0.00     0.226 C 
ATOM     13  O   UNL d   1       9.747   4.708  -9.292  0.00  0.00    -0.646 OA
ATOM     14  OXT UNL d   1       8.101   5.978 -10.180  0.00  0.00    -0.646 OA
ENDBRANCH  10  12
ENDBRANCH   9  10
ENDBRANCH   1   9
TORSDOF 3
