REMARK  4 active torsions:
REMARK  status: ('A' for Active; 'I' for Inactive)
REMARK    1  A    between atoms: C_4  and  C_5 
REMARK    2  A    between atoms: C_5  and  C_6 
REMARK    3  A    between atoms: C_6  and  N_7 
REMARK    4  A    between atoms: N_7  and  C_8 
ROOT
ATOM      1  C   UNL d   1      10.758   9.405  -7.641  0.00  0.00     0.098 C 
ATOM      2  C   UNL d   1      11.384   8.004  -7.768  0.00  0.00     0.022 C 
ATOM      3  C   UNL d   1      11.479   7.539  -9.265  0.00  0.00     0.002 C 
ATOM      4  C   UNL d   1      10.901   8.590 -10.238  0.00  0.00     0.000 C 
ATOM      5  C   UNL d   1       9.479   8.681  -9.737  0.00  0.00     0.002 A 
ATOM      6  C   UNL d   1       9.154   7.237  -9.304  0.00  0.00     0.000 A 
ATOM      7  C   UNL d   1      10.420   6.405  -9.301  0.00  0.00     0.000 C 
ATOM      8  C   UNL d   1      10.464   5.790  -7.901  0.00  0.00     0.000 C 
ATOM      9  C   UNL d   1      10.218   7.093  -7.202  0.00  0.00     0.002 C 
ATOM     10  C   UNL d   1       9.030   7.709  -7.863  0.00  0.00     0.002 A 
ATOM     11  C   UNL d   1       9.378   9.140  -8.258  0.00  0.00     0.022 A 
ENDROOT
BRANCH   1  12
ATOM     12  N   UNL d   1      10.657   9.814  -6.251  0.00  0.00    -0.297 NA
BRANCH  12  13
ATOM     13  C   UNL d   1      11.770  10.617  -5.757  0.00  0.00     0.124 C 
BRANCH  13  14
ATOM     14  C   UNL d   1      12.917   9.711  -5.265  0.00  0.00     0.052 C 
BRANCH  14  15
ATOM     15  C   UNL d   1      12.443   8.677  -4.240  0.00  0.00    -0.020 A 
ATOM     16  C   UNL d   1      12.587   8.969  -2.864  0.00  0.00    -0.004 A 
ATOM     17  C   UNL d   1      12.216   8.005  -1.889  0.00  0.00    -0.000 A 
ATOM     18  C   UNL d   1      11.611   6.792  -2.314  0.00  0.00    -0.000 A 
ATOM     19  C   UNL d   1      11.470   6.538  -3.691  0.00  0.00    -0.000 A 
ATOM     20  C   UNL d   1      11.929   7.432  -4.655  0.00  0.00    -0.004 A 
ENDBRANCH  14  15
ENDBRANCH  13  14
ENDBRANCH  12  13
ENDBRANCH   1  12
TORSDOF 4
