REMARK  8 active torsions:
REMARK  status: ('A' for Active; 'I' for Inactive)
REMARK    1  A    between atoms: S_2  and  N_4 
REMARK    2  A    between atoms: S_2  and  C_25 
REMARK    3  A    between atoms: N_4  and  C_5 
REMARK    4  A    between atoms: C_5  and  C_6 
REMARK    5  A    between atoms: C_6  and  C_7 
REMARK    6  A    between atoms: C_7  and  C_8 
REMARK    7  A    between atoms: C_8  and  N_9 
REMARK    8  A    between atoms: C_12  and  C_13 
ROOT
ATOM      1  C   UNL d   1       7.415   3.309 -13.663  0.00  0.00     0.037 C 
ENDROOT
BRANCH   1   2
ATOM      2  C   UNL d   1       6.243   2.341 -13.838  0.00  0.00     0.029 C 
BRANCH   2   3
ATOM      3  C   UNL d   1       6.688   1.020 -14.476  0.00  0.00     0.139 C 
BRANCH   3   4
ATOM      4  N   UNL d   1       5.707   0.554 -15.462  0.00  0.00    -0.185 NA
BRANCH   4   5
ATOM      5  S   UNL d   1       4.977  -0.986 -15.338  0.00  0.00     0.281 S 
ATOM      6  O   UNL d   1       5.835  -1.719 -14.372  0.00  0.00    -0.199 OA
ATOM      7  O   UNL d   1       3.559  -0.768 -15.054  0.00  0.00    -0.199 OA
BRANCH   5   8
ATOM      8  C   UNL d   1       5.127  -1.659 -17.026  0.00  0.00     0.105 A 
ATOM      9  C   UNL d   1       5.333  -3.038 -17.321  0.00  0.00     0.012 A 
ATOM     10  C   UNL d   1       5.409  -3.463 -18.678  0.00  0.00     0.001 A 
ATOM     11  C   UNL d   1       5.459  -4.031 -16.319  0.00  0.00     0.001 A 
ATOM     12  C   UNL d   1       5.274  -2.529 -19.727  0.00  0.00     0.000 A 
ATOM     13  C   UNL d   1       5.603  -4.827 -18.990  0.00  0.00     0.000 A 
ATOM     14  C   UNL d   1       5.071  -1.169 -19.439  0.00  0.00     0.001 A 
ATOM     15  C   UNL d   1       4.995  -0.737 -18.099  0.00  0.00     0.013 A 
ATOM     16  C   UNL d   1       5.736  -5.787 -17.968  0.00  0.00     0.000 A 
ATOM     17  C   UNL d   1       5.668  -5.383 -16.630  0.00  0.00     0.000 A 
ENDBRANCH   5   8
ENDBRANCH   4   5
ENDBRANCH   3   4
ENDBRANCH   2   3
ENDBRANCH   1   2
BRANCH   1  18
ATOM     18  C   UNL d   1       6.950   4.595 -12.961  0.00  0.00     0.250 C 
BRANCH  18  19
ATOM     19  N   UNL d   1       8.060   5.309 -12.322  0.00  0.00     0.137 N 
ATOM     20  C   UNL d   1       7.729   6.715 -12.124  0.00  0.00     0.251 C 
ATOM     21  C   UNL d   1       8.898   7.424 -11.402  0.00  0.00     0.041 C 
ATOM     22  C   UNL d   1       9.199   6.770 -10.031  0.00  0.00     0.047 C 
ATOM     23  C   UNL d   1       9.357   5.267 -10.203  0.00  0.00     0.041 C 
ATOM     24  C   UNL d   1       8.191   4.696 -11.012  0.00  0.00     0.251 C 
BRANCH  22  25
ATOM     25  C   UNL d   1      10.399   7.416  -9.408  0.00  0.00     0.087 A 
ATOM     26  C   UNL d   1      10.557   8.087  -8.200  0.00  0.00     0.041 A 
ATOM     27  C   UNL d   1      11.893   8.483  -8.075  0.00  0.00     0.129 A 
ATOM     28  C   UNL d   1       9.638   8.400  -7.185  0.00  0.00     0.006 A 
ATOM     29  O   UNL d   1      12.529   8.033  -9.211  0.00  0.00    -0.211 OA
ATOM     30  C   UNL d   1      12.369   9.190  -6.971  0.00  0.00     0.057 A 
ATOM     31  N   UNL d   1      11.564   7.412 -10.034  0.00  0.00    -0.131 NA
ATOM     32  C   UNL d   1      11.470   9.473  -5.944  0.00  0.00     0.142 A 
ATOM     33  F   UNL d   1      11.852  10.059  -4.796  0.00  0.00    -0.204 F 
ATOM     34  C   UNL d   1      10.129   9.124  -6.071  0.00  0.00     0.030 A 
ENDBRANCH  22  25
ENDBRANCH  18  19
ENDBRANCH   1  18
TORSDOF 8
