REMARK  8 active torsions:
REMARK  status: ('A' for Active; 'I' for Inactive)
REMARK    1  A    between atoms: C_2  and  C_3 
REMARK    2  A    between atoms: C_3  and  N_4 
REMARK    3  A    between atoms: N_4  and  C_5 
REMARK    4  A    between atoms: N_4  and  C_23 
REMARK    5  A    between atoms: C_5  and  C_6 
REMARK    6  A    between atoms: C_6  and  N_7 
REMARK    7  A    between atoms: N_10  and  C_11 
REMARK    8  A    between atoms: C_31  and  O_32 
ROOT
ATOM      1  C   UNL d   1      13.130   2.292 -18.642  0.00  0.00     0.285 C 
ENDROOT
BRANCH   1   2
ATOM      2  N   UNL d   1      14.386   2.779 -19.232  0.00  0.00     0.137 N 
BRANCH   2   3
ATOM      3  C   UNL d   1      14.638   2.068 -20.497  0.00  0.00     0.250 C 
BRANCH   3   4
ATOM      4  C   UNL d   1      14.842   0.535 -20.420  0.00  0.00     0.035 C 
ATOM      5  C   UNL d   1      16.204   0.144 -19.846  0.00  0.00     0.002 C 
ENDBRANCH   3   4
ENDBRANCH   2   3
BRANCH   2   6
ATOM      6  C   UNL d   1      14.501   4.254 -19.429  0.00  0.00     0.224 C 
ATOM      7  C   UNL d   1      13.520   4.867 -20.446  0.00  0.00     0.059 C 
ATOM      8  C   UNL d   1      13.649   6.391 -20.581  0.00  0.00    -0.022 A 
ATOM      9  C   UNL d   1      14.297   7.183 -19.599  0.00  0.00    -0.004 A 
ATOM     10  C   UNL d   1      13.103   6.990 -21.730  0.00  0.00    -0.004 A 
ATOM     11  C   UNL d   1      14.967   6.555 -18.380  0.00  0.00     0.030 C 
ATOM     12  C   UNL d   1      14.348   8.589 -19.765  0.00  0.00     0.090 A 
ATOM     13  C   UNL d   1      14.501   5.122 -18.134  0.00  0.00     0.038 C 
ATOM     14  C   UNL d   1      13.789   9.175 -20.927  0.00  0.00     0.024 A 
ATOM     15  C   UNL d   1      13.178   8.379 -21.899  0.00  0.00     0.002 A 
BRANCH  12  16
ATOM     16  O   UNL d   1      14.964   9.323 -18.765  0.00  0.00    -0.328 OA
ATOM     17  C   UNL d   1      14.964  10.740 -18.893  0.00  0.00     0.181 C 
ENDBRANCH  12  16
ENDBRANCH   2   6
ENDBRANCH   1   2
BRANCH   1  18
ATOM     18  C   UNL d   1      12.668   2.896 -17.323  0.00  0.00     0.286 C 
BRANCH  18  19
ATOM     19  N   UNL d   1      11.783   2.074 -16.548  0.00  0.00     0.143 N 
ATOM     20  C   UNL d   1      10.457   2.034 -17.176  0.00  0.00     0.274 C 
ATOM     21  C   UNL d   1       9.441   1.214 -16.377  0.00  0.00     0.137 C 
ATOM     22  N   UNL d   1       9.385   1.736 -15.020  0.00  0.00    -0.344 N 
ATOM     23  C   UNL d   1      10.664   1.872 -14.328  0.00  0.00     0.137 C 
ATOM     24  C   UNL d   1      11.640   2.667 -15.220  0.00  0.00     0.274 C 
BRANCH  22  25
ATOM     25  C   UNL d   1       8.152   2.108 -14.439  0.00  0.00     0.059 A 
ATOM     26  C   UNL d   1       7.920   3.364 -13.790  0.00  0.00     0.033 A 
ATOM     27  C   UNL d   1       6.658   3.596 -13.198  0.00  0.00     0.083 A 
ATOM     28  C   UNL d   1       8.922   4.373 -13.728  0.00  0.00     0.003 A 
ATOM     29  N   UNL d   1       5.663   2.686 -13.228  0.00  0.00    -0.244 NA
ATOM     30  C   UNL d   1       6.433   4.841 -12.531  0.00  0.00     0.019 A 
ATOM     31  C   UNL d   1       5.892   1.505 -13.851  0.00  0.00     0.100 A 
ATOM     32  C   UNL d   1       7.096   1.176 -14.474  0.00  0.00     0.038 A 
ATOM     33  C   UNL d   1       7.444   5.822 -12.444  0.00  0.00     0.002 A 
ATOM     34  C   UNL d   1       8.683   5.578 -13.046  0.00  0.00     0.000 A 
ENDBRANCH  22  25
ENDBRANCH  18  19
ENDBRANCH   1  18
TORSDOF 8
