REMARK  4 active torsions:
REMARK  status: ('A' for Active; 'I' for Inactive)
REMARK    1  A    between atoms: C_6  and  N_7 
REMARK    2  A    between atoms: N_10  and  C_11 
REMARK    3  A    between atoms: C_11  and  C_12 
REMARK    4  A    between atoms: C_12  and  C_13 
ROOT
ATOM      1  N   UNL d   1       8.724   4.412 -12.397  0.00  0.00    -0.330 N 
ATOM      2  C   UNL d   1       9.804   3.876 -11.616  0.00  0.00     0.138 C 
ATOM      3  C   UNL d   1       9.707   4.376 -10.127  0.00  0.00     0.274 C 
ATOM      4  N   UNL d   1       9.642   5.829 -10.053  0.00  0.00     0.141 N 
ATOM      5  C   UNL d   1       8.434   6.198 -10.800  0.00  0.00     0.274 C 
ATOM      6  C   UNL d   1       8.487   5.824 -12.275  0.00  0.00     0.138 C 
ENDROOT
BRANCH   4   7
ATOM      7  C   UNL d   1       9.509   6.232  -8.639  0.00  0.00     0.253 C 
BRANCH   7   8
ATOM      8  C   UNL d   1      10.545   7.307  -8.290  0.00  0.00     0.064 C 
BRANCH   8   9
ATOM      9  C   UNL d   1      10.176   8.166  -7.056  0.00  0.00     0.131 A 
ATOM     10  C   UNL d   1      10.985   7.896  -5.804  0.00  0.00     0.005 A 
ATOM     11  C   UNL d   1      11.728   9.002  -5.457  0.00  0.00     0.055 A 
ATOM     12  C   UNL d   1      11.033   6.761  -5.007  0.00  0.00    -0.002 A 
ATOM     13  C   UNL d   1      11.454  10.064  -6.431  0.00  0.00     0.275 A 
ATOM     14  C   UNL d   1      12.568   9.048  -4.332  0.00  0.00     0.004 A 
ATOM     15  N   UNL d   1      10.568   9.550  -7.295  0.00  0.00    -0.232 NA
ATOM     16  O   UNL d   1      11.901  11.194  -6.440  0.00  0.00    -0.266 OA
ATOM     17  C   UNL d   1      12.634   7.893  -3.531  0.00  0.00     0.000 A 
ATOM     18  C   UNL d   1      11.854   6.755  -3.866  0.00  0.00    -0.000 A 
ENDBRANCH   8   9
ENDBRANCH   7   8
ENDBRANCH   4   7
BRANCH   1  19
ATOM     19  C   UNL d   1       7.942   3.611 -13.230  0.00  0.00     0.140 A 
ATOM     20  N   UNL d   1       6.625   3.662 -12.958  0.00  0.00    -0.227 NA
ATOM     21  C   UNL d   1       5.845   2.799 -13.624  0.00  0.00     0.100 A 
ATOM     22  C   UNL d   1       6.313   1.926 -14.617  0.00  0.00     0.017 A 
ATOM     23  C   UNL d   1       7.678   1.940 -14.947  0.00  0.00    -0.017 A 
ATOM     24  C   UNL d   1       8.219   1.086 -16.068  0.00  0.00     0.031 C 
ATOM     25  C   UNL d   1       8.528   2.788 -14.196  0.00  0.00     0.033 A 
ENDBRANCH   1  19
TORSDOF 4
