REMARK  9 active torsions:
REMARK  status: ('A' for Active; 'I' for Inactive)
REMARK    1  A    between atoms: O_2  and  C_3 
REMARK    2  A    between atoms: C_6  and  C_7 
REMARK    3  A    between atoms: C_7  and  C_8 
REMARK    4  A    between atoms: C_8  and  N_10 
REMARK    5  A    between atoms: N_10  and  C_11 
REMARK    6  A    between atoms: C_11  and  C_12 
REMARK    7  A    between atoms: C_12  and  C_14 
REMARK    8  A    between atoms: C_19  and  N_20 
REMARK    9  A    between atoms: N_20  and  C_21 
ROOT
ATOM      1  C   UNL d   1       9.327   6.779 -10.395  0.00  0.00     0.157 C 
ENDROOT
BRANCH   1   2
ATOM      2  N   UNL d   1      10.701   7.179 -10.122  0.00  0.00    -0.294 NA
BRANCH   2   3
ATOM      3  C   UNL d   1      10.925   7.939  -8.896  0.00  0.00     0.102 C 
ATOM      4  C   UNL d   1      12.389   8.412  -8.863  0.00  0.00     0.026 C 
BRANCH   3   5
ATOM      5  C   UNL d   1      10.520   7.133  -7.637  0.00  0.00     0.050 C 
BRANCH   5   6
ATOM      6  C   UNL d   1      10.876   7.820  -6.326  0.00  0.00    -0.020 A 
ATOM      7  C   UNL d   1      10.655   9.202  -6.161  0.00  0.00    -0.002 A 
ATOM      8  C   UNL d   1      11.017   9.845  -4.966  0.00  0.00     0.024 A 
ATOM      9  C   UNL d   1      11.592   9.115  -3.911  0.00  0.00     0.094 A 
ATOM     10  C   UNL d   1      11.822   7.725  -4.073  0.00  0.00     0.024 A 
ATOM     11  C   UNL d   1      11.453   7.083  -5.273  0.00  0.00    -0.002 A 
BRANCH   9  12
ATOM     12  O   UNL d   1      11.859   9.813  -2.760  0.00  0.00    -0.328 OA
ATOM     13  C   UNL d   1      12.476   9.118  -1.691  0.00  0.00     0.181 C 
ENDBRANCH   9  12
ENDBRANCH   5   6
ENDBRANCH   3   5
ENDBRANCH   2   3
ENDBRANCH   1   2
BRANCH   1  14
ATOM     14  C   UNL d   1       8.963   6.955 -11.894  0.00  0.00     0.198 C 
ATOM     15  O   UNL d   1       8.260   8.163 -12.067  0.00  0.00    -0.216 OA
BRANCH  14  16
ATOM     16  C   UNL d   1       8.210   5.750 -12.447  0.00  0.00     0.011 A 
ATOM     17  C   UNL d   1       8.947   4.775 -13.149  0.00  0.00     0.020 A 
ATOM     18  C   UNL d   1       8.316   3.645 -13.717  0.00  0.00     0.110 A 
ATOM     19  C   UNL d   1       6.919   3.493 -13.543  0.00  0.00     0.149 A 
ATOM     20  C   UNL d   1       6.178   4.460 -12.835  0.00  0.00     0.029 A 
ATOM     21  O   UNL d   1       6.283   2.390 -14.039  0.00  0.00    -0.189 OA
ATOM     22  C   UNL d   1       6.818   5.591 -12.290  0.00  0.00     0.001 A 
BRANCH  18  23
ATOM     23  N   UNL d   1       9.014   2.636 -14.445  0.00  0.00    -0.202 NA
BRANCH  23  24
ATOM     24  C   UNL d   1      10.322   2.528 -14.755  0.00  0.00     0.337 C 
ATOM     25  O   UNL d   1      11.214   3.322 -14.457  0.00  0.00    -0.260 OA
ENDBRANCH  23  24
ENDBRANCH  18  23
ENDBRANCH  14  16
ENDBRANCH   1  14
TORSDOF 9
