REMARK  6 active torsions:
REMARK  status: ('A' for Active; 'I' for Inactive)
REMARK       I    between atoms: N_10  and  C_11 
REMARK    1  A    between atoms: C_11  and  C_13 
REMARK    2  A    between atoms: C_13  and  N_14 
REMARK    3  A    between atoms: N_17  and  C_18 
REMARK    4  A    between atoms: C_18  and  C_19 
REMARK    5  A    between atoms: C_22  and  O_23 
REMARK    6  A    between atoms: O_23  and  C_24 
ROOT
ATOM      1  N   UNL d   1      10.344   3.161 -15.234  0.00  0.00     0.151 N 
ATOM      2  C   UNL d   1      10.867   3.169 -13.862  0.00  0.00     0.286 C 
ATOM      3  C   UNL d   1       9.797   3.617 -12.864  0.00  0.00     0.286 C 
ATOM      4  N   UNL d   1       9.261   4.933 -13.218  0.00  0.00     0.146 N 
ATOM      5  C   UNL d   1       8.664   4.847 -14.546  0.00  0.00     0.286 C 
ATOM      6  C   UNL d   1       9.714   4.441 -15.588  0.00  0.00     0.286 C 
ENDROOT
BRANCH   1   7
ATOM      7  C   UNL d   1      11.328   2.698 -16.224  0.00  0.00     0.337 C 
BRANCH   7   8
ATOM      8  C   UNL d   1      12.467   3.684 -16.557  0.00  0.00     0.271 C 
ATOM      9  N   UNL d   1      13.042   3.673 -17.783  0.00  0.00    -0.299 N 
ATOM     10  C   UNL d   1      12.590   2.846 -18.931  0.00  0.00     0.093 C 
ATOM     11  C   UNL d   1      14.112   4.526 -18.191  0.00  0.00     0.058 A 
ATOM     12  C   UNL d   1      12.917   1.343 -18.715  0.00  0.00     0.025 C 
ATOM     13  C   UNL d   1      13.354   3.409 -20.161  0.00  0.00     0.051 C 
ATOM     14  C   UNL d   1      14.311   4.412 -19.550  0.00  0.00    -0.004 A 
ATOM     15  C   UNL d   1      15.309   5.143 -20.206  0.00  0.00    -0.003 A 
ATOM     16  C   UNL d   1      16.133   6.016 -19.451  0.00  0.00    -0.000 A 
ATOM     17  C   UNL d   1      15.937   6.125 -18.052  0.00  0.00     0.002 A 
ATOM     18  C   UNL d   1      14.941   5.384 -17.412  0.00  0.00     0.017 A 
ATOM     19  O   UNL d   1      12.841   4.455 -15.666  0.00  0.00    -0.270 OA
ENDBRANCH   7   8
ENDBRANCH   1   7
BRANCH   4  20
ATOM     20  C   UNL d   1       8.284   5.387 -12.244  0.00  0.00     0.277 C 
BRANCH  20  21
ATOM     21  C   UNL d   1       8.899   5.799 -10.922  0.00  0.00     0.011 A 
ATOM     22  C   UNL d   1       8.662   5.055  -9.753  0.00  0.00    -0.000 A 
ATOM     23  C   UNL d   1       9.213   5.468  -8.531  0.00  0.00     0.024 A 
ATOM     24  C   UNL d   1      10.002   6.634  -8.440  0.00  0.00     0.102 A 
ATOM     25  C   UNL d   1      10.232   7.386  -9.617  0.00  0.00     0.024 A 
ATOM     26  C   UNL d   1       9.687   6.968 -10.846  0.00  0.00    -0.000 A 
BRANCH  24  27
ATOM     27  O   UNL d   1      10.506   6.951  -7.195  0.00  0.00    -0.253 OA
BRANCH  27  28
ATOM     28  C   UNL d   1      11.094   8.152  -6.962  0.00  0.00     0.530 C 
ATOM     29  F   UNL d   1      11.447   8.237  -5.655  0.00  0.00    -0.144 F 
ATOM     30  F   UNL d   1      12.230   8.315  -7.687  0.00  0.00    -0.144 F 
ATOM     31  F   UNL d   1      10.250   9.187  -7.208  0.00  0.00    -0.144 F 
ENDBRANCH  27  28
ENDBRANCH  24  27
ENDBRANCH  20  21
ENDBRANCH   4  20
TORSDOF 6
