REMARK  3 active torsions:
REMARK  status: ('A' for Active; 'I' for Inactive)
REMARK    1  A    between atoms: C_2  and  C_3 
REMARK    2  A    between atoms: C_3  and  N_4 
REMARK    3  A    between atoms: C_7  and  N_8 
ROOT
ATOM      1  N   UNL d   1       9.725   7.342  -9.332  0.00  0.00    -0.281 N 
ATOM      2  C   UNL d   1      10.257   8.279 -10.150  0.00  0.00     0.350 A 
ATOM      3  O   UNL d   1      11.038   9.178  -9.839  0.00  0.00    -0.244 OA
ATOM      4  N   UNL d   1       9.855   8.017 -11.399  0.00  0.00    -0.191 NA
ATOM      5  C   UNL d   1       9.178   6.815 -11.438  0.00  0.00     0.103 A 
ATOM      6  C   UNL d   1       8.651   6.101 -12.524  0.00  0.00     0.032 A 
ATOM      7  C   UNL d   1       7.953   4.910 -12.231  0.00  0.00     0.059 A 
ATOM      8 CL   UNL d   1       7.234   3.989 -13.501  0.00  0.00    -0.082 Cl
ATOM      9  C   UNL d   1       7.815   4.487 -10.889  0.00  0.00     0.013 A 
ATOM     10  C   UNL d   1       8.403   5.191  -9.811  0.00  0.00     0.020 A 
ATOM     11  C   UNL d   1       9.089   6.372 -10.133  0.00  0.00     0.082 A 
ENDROOT
BRANCH   1  12
ATOM     12  C   UNL d   1       9.820   7.278  -7.865  0.00  0.00     0.094 C 
ATOM     13  C   UNL d   1       9.606   8.656  -7.209  0.00  0.00     0.058 C 
ATOM     14  C   UNL d   1       9.872   8.574  -5.721  0.00  0.00     0.252 C 
ATOM     15  N   UNL d   1      11.222   8.111  -5.416  0.00  0.00     0.137 N 
ATOM     16  C   UNL d   1      11.341   6.741  -5.897  0.00  0.00     0.252 C 
ATOM     17  C   UNL d   1      11.174   6.702  -7.421  0.00  0.00     0.058 C 
BRANCH  15  18
ATOM     18  C   UNL d   1      11.420   8.134  -3.973  0.00  0.00     0.250 C 
BRANCH  18  19
ATOM     19  C   UNL d   1      12.861   8.420  -3.607  0.00  0.00     0.035 C 
ATOM     20  C   UNL d   1      13.009   8.618  -2.091  0.00  0.00     0.002 C 
ENDBRANCH  18  19
ENDBRANCH  15  18
ENDBRANCH   1  12
TORSDOF 3
