REMARK  0 active torsions:
REMARK  status: ('A' for Active; 'I' for Inactive)
ROOT
ATOM      1  C   UNL d   1      11.944   1.874 -16.612  0.00  0.00     0.285 C 
ATOM      2  N   UNL d   1      10.858   1.216 -15.902  0.00  0.00     0.140 N 
ATOM      3  C   UNL d   1       9.977   0.483 -16.808  0.00  0.00     0.255 C 
ATOM      4  C   UNL d   1       8.669   0.433 -16.020  0.00  0.00     0.064 C 
ATOM      5  C   UNL d   1       7.409  -0.005 -16.743  0.00  0.00     0.003 A 
ATOM      6  C   UNL d   1       7.367  -0.284 -18.126  0.00  0.00    -0.002 A 
ATOM      7  C   UNL d   1       6.152  -0.670 -18.727  0.00  0.00    -0.000 A 
ATOM      8  C   UNL d   1       4.984  -0.787 -17.948  0.00  0.00     0.002 A 
ATOM      9  C   UNL d   1       5.032  -0.521 -16.566  0.00  0.00     0.024 A 
ATOM     10  C   UNL d   1       6.243  -0.126 -15.965  0.00  0.00     0.096 A 
ATOM     11  O   UNL d   1       6.304   0.093 -14.614  0.00  0.00    -0.308 OA
ATOM     12  C   UNL d   1       6.432   1.384 -14.162  0.00  0.00     0.096 A 
ATOM     13  C   UNL d   1       5.464   1.831 -13.237  0.00  0.00     0.025 A 
ATOM     14  C   UNL d   1       5.522   3.131 -12.710  0.00  0.00     0.013 A 
ATOM     15  C   UNL d   1       6.567   3.992 -13.081  0.00  0.00     0.058 A 
ATOM     16 CL   UNL d   1       6.647   5.586 -12.430  0.00  0.00    -0.082 Cl
ATOM     17  C   UNL d   1       7.547   3.554 -13.990  0.00  0.00     0.009 A 
ATOM     18  C   UNL d   1       7.502   2.251 -14.538  0.00  0.00     0.004 A 
ATOM     19  C   UNL d   1       8.588   1.871 -15.546  0.00  0.00     0.064 C 
ATOM     20  C   UNL d   1      10.037   2.156 -15.130  0.00  0.00     0.255 C 
ENDROOT
TORSDOF 0
