REMARK  9 active torsions:
REMARK  status: ('A' for Active; 'I' for Inactive)
REMARK    1  A    between atoms: O_2  and  C_3 
REMARK    2  A    between atoms: C_8  and  N_9 
REMARK    3  A    between atoms: N_12  and  C_13 
REMARK    4  A    between atoms: C_13  and  C_14 
REMARK    5  A    between atoms: C_14  and  C_15 
REMARK    6  A    between atoms: C_15  and  C_16 
REMARK    7  A    between atoms: C_16  and  N_17 
REMARK       I    between atoms: N_17  and  C_18 
REMARK    8  A    between atoms: C_18  and  C_20 
REMARK    9  A    between atoms: C_21  and  C_22 
ROOT
ATOM      1  C   UNL d   1       9.411   4.746 -13.078  0.00  0.00     0.037 C 
ENDROOT
BRANCH   1   2
ATOM      2  C   UNL d   1       9.893   3.383 -13.617  0.00  0.00     0.251 C 
BRANCH   2   3
ATOM      3  N   UNL d   1      10.864   3.497 -14.714  0.00  0.00     0.141 N 
ATOM      4  C   UNL d   1      11.811   4.605 -14.528  0.00  0.00     0.274 C 
ATOM      5  C   UNL d   1      12.843   4.675 -15.658  0.00  0.00     0.137 C 
ATOM      6  N   UNL d   1      12.161   4.726 -16.942  0.00  0.00    -0.343 N 
ATOM      7  C   UNL d   1      11.177   3.675 -17.156  0.00  0.00     0.137 C 
ATOM      8  C   UNL d   1      10.162   3.648 -15.991  0.00  0.00     0.274 C 
BRANCH   6   9
ATOM      9  C   UNL d   1      12.376   5.782 -17.848  0.00  0.00     0.079 A 
ATOM     10  C   UNL d   1      11.302   6.418 -18.528  0.00  0.00     0.110 A 
ATOM     11  C   UNL d   1      11.588   7.451 -19.461  0.00  0.00     0.026 A 
ATOM     12  C   UNL d   1      12.912   7.855 -19.707  0.00  0.00     0.002 A 
ATOM     13  C   UNL d   1      13.970   7.236 -19.021  0.00  0.00     0.002 A 
ATOM     14  C   UNL d   1      13.698   6.205 -18.099  0.00  0.00     0.019 A 
BRANCH  10  15
ATOM     15  O   UNL d   1      10.016   6.019 -18.220  0.00  0.00    -0.327 OA
ATOM     16  C   UNL d   1       8.943   6.520 -18.997  0.00  0.00     0.181 C 
ENDBRANCH  10  15
ENDBRANCH   6   9
ENDBRANCH   2   3
ENDBRANCH   1   2
BRANCH   1  17
ATOM     17  C   UNL d   1       8.315   4.634 -12.027  0.00  0.00     0.029 C 
BRANCH  17  18
ATOM     18  C   UNL d   1       8.013   6.001 -11.404  0.00  0.00     0.129 C 
BRANCH  18  19
ATOM     19  N   UNL d   1       9.107   6.484 -10.564  0.00  0.00    -0.234 NA
ATOM     20  C   UNL d   1       9.331   6.078  -9.304  0.00  0.00     0.275 C 
ATOM     21  O   UNL d   1       8.869   5.034  -8.839  0.00  0.00    -0.266 OA
BRANCH  20  22
ATOM     22  C   UNL d   1      10.123   7.052  -8.571  0.00  0.00     0.062 C 
ATOM     23  C   UNL d   1      10.319   6.909  -7.245  0.00  0.00     0.007 C 
BRANCH  23  24
ATOM     24  C   UNL d   1      11.046   7.838  -6.368  0.00  0.00     0.025 A 
ATOM     25  C   UNL d   1      11.351   7.458  -5.048  0.00  0.00     0.119 A 
ATOM     26  C   UNL d   1      12.063   8.259  -4.189  0.00  0.00     0.119 A 
ATOM     27  O   UNL d   1      11.054   6.313  -4.399  0.00  0.00    -0.300 OA
ATOM     28  C   UNL d   1      12.554   9.493  -4.588  0.00  0.00     0.026 A 
ATOM     29  O   UNL d   1      12.238   7.647  -2.993  0.00  0.00    -0.300 OA
ATOM     30  C   UNL d   1      12.249   9.939  -5.899  0.00  0.00     0.002 A 
ATOM     31  C   UNL d   1      11.509   9.112  -6.786  0.00  0.00     0.002 A 
ATOM     32  C   UNL d   1      11.604   6.408  -3.115  0.00  0.00     0.304 A 
ENDBRANCH  23  24
ENDBRANCH  20  22
ENDBRANCH  18  19
ENDBRANCH  17  18
ENDBRANCH   1  17
TORSDOF 9
