REMARK  3 active torsions:
REMARK  status: ('A' for Active; 'I' for Inactive)
REMARK    1  A    between atoms: N_14  and  C_15 
REMARK    2  A    between atoms: C_15  and  C_16 
REMARK    3  A    between atoms: C_16  and  C_17 
ROOT
ATOM      1  O   UNL d   1      12.539   8.225  -8.242  0.00  0.00    -0.223 OA
ATOM      2  C   UNL d   1      11.196   8.364  -7.777  0.00  0.00     0.156 C 
ATOM      3  C   UNL d   1      10.991   9.761  -7.294  0.00  0.00     0.038 C 
ATOM      4  C   UNL d   1      11.902  10.130  -6.127  0.00  0.00     0.029 C 
ATOM      5  C   UNL d   1      11.934   9.070  -5.029  0.00  0.00    -0.026 A 
ATOM      6  C   UNL d   1      12.559   9.376  -3.798  0.00  0.00    -0.005 A 
ATOM      7  C   UNL d   1      12.663   8.420  -2.778  0.00  0.00    -0.000 A 
ATOM      8  C   UNL d   1      12.166   7.132  -2.973  0.00  0.00    -0.000 A 
ATOM      9  C   UNL d   1      11.536   6.815  -4.199  0.00  0.00    -0.004 A 
ATOM     10  C   UNL d   1      11.455   7.761  -5.263  0.00  0.00    -0.024 A 
ATOM     11  C   UNL d   1      10.864   7.349  -6.626  0.00  0.00     0.051 C 
ATOM     12  C   UNL d   1       9.323   7.206  -6.469  0.00  0.00     0.042 C 
ATOM     13  C   UNL d   1       8.649   6.634  -7.710  0.00  0.00     0.251 C 
ATOM     14  N   UNL d   1       9.239   5.374  -8.064  0.00  0.00     0.137 N 
ATOM     15  C   UNL d   1      10.682   5.444  -8.255  0.00  0.00     0.251 C 
ATOM     16  C   UNL d   1      11.459   5.987  -7.047  0.00  0.00     0.042 C 
ENDROOT
BRANCH  14  17
ATOM     17  C   UNL d   1       8.586   4.799  -9.234  0.00  0.00     0.255 C 
BRANCH  17  18
ATOM     18  C   UNL d   1       8.996   5.456 -10.580  0.00  0.00     0.062 C 
BRANCH  18  19
ATOM     19  C   UNL d   1       8.390   4.791 -11.782  0.00  0.00    -0.020 A 
ATOM     20  C   UNL d   1       9.220   4.060 -12.666  0.00  0.00    -0.004 A 
ATOM     21  C   UNL d   1       8.668   3.450 -13.797  0.00  0.00    -0.000 A 
ATOM     22  C   UNL d   1       7.281   3.552 -14.036  0.00  0.00    -0.000 A 
ATOM     23  C   UNL d   1       6.455   4.303 -13.166  0.00  0.00    -0.000 A 
ATOM     24  C   UNL d   1       7.011   4.921 -12.041  0.00  0.00    -0.004 A 
ENDBRANCH  18  19
ENDBRANCH  17  18
ENDBRANCH  14  17
TORSDOF 3
