REMARK  11 active torsions:
REMARK  status: ('A' for Active; 'I' for Inactive)
REMARK    1  A    between atoms: O_2  and  C_3 
REMARK    2  A    between atoms: C_6  and  N_7 
REMARK    3  A    between atoms: N_7  and  C_8 
REMARK    4  A    between atoms: N_7  and  N_16 
REMARK    5  A    between atoms: C_8  and  C_9 
REMARK       I    between atoms: N_16  and  C_17 
REMARK       I    between atoms: C_17  and  N_19 
REMARK    6  A    between atoms: N_19  and  C_20 
REMARK    7  A    between atoms: C_20  and  C_21 
REMARK    8  A    between atoms: C_21  and  C_22 
REMARK    9  A    between atoms: C_22  and  N_23 
REMARK   10  A    between atoms: N_26  and  C_27 
REMARK   11  A    between atoms: C_32  and  O_33 
ROOT
ATOM      1  N   UNL d   1      10.755   1.605 -15.643  0.00  0.00    -0.110 NA
ATOM      2  C   UNL d   1       9.681   2.417 -15.569  0.00  0.00     0.381 C 
ATOM      3  O   UNL d   1       9.163   2.949 -16.549  0.00  0.00    -0.241 OA
ATOM      4  N   UNL d   1       9.237   2.589 -14.313  0.00  0.00    -0.216 NA
ENDROOT
BRANCH   1   5
ATOM      5  N   UNL d   1      11.437   1.329 -16.859  0.00  0.00    -0.243 N 
BRANCH   5   6
ATOM      6  C   UNL d   1      12.373   2.280 -17.405  0.00  0.00     0.079 A 
ATOM      7  C   UNL d   1      12.648   3.467 -16.666  0.00  0.00     0.021 A 
ATOM      8  C   UNL d   1      13.577   4.424 -17.169  0.00  0.00     0.026 A 
ATOM      9  C   UNL d   1      14.287   4.207 -18.390  0.00  0.00     0.094 A 
ATOM     10  C   UNL d   1      14.015   3.025 -19.091  0.00  0.00     0.026 A 
ATOM     11  C   UNL d   1      13.068   2.113 -18.639  0.00  0.00     0.021 A 
BRANCH   9  12
ATOM     12  O   UNL d   1      15.207   5.081 -18.946  0.00  0.00    -0.328 OA
ATOM     13  C   UNL d   1      15.363   6.278 -18.245  0.00  0.00     0.181 C 
ENDBRANCH   9  12
ENDBRANCH   5   6
BRANCH   5  14
ATOM     14  C   UNL d   1      10.770   0.230 -17.575  0.00  0.00     0.154 C 
BRANCH  14  15
ATOM     15  C   UNL d   1      11.339  -0.202 -18.920  0.00  0.00     0.004 A 
ATOM     16  C   UNL d   1      10.703   0.174 -20.123  0.00  0.00     0.027 A 
ATOM     17  C   UNL d   1      11.338  -0.048 -21.356  0.00  0.00     0.140 A 
ATOM     18  C   UNL d   1      12.592  -0.686 -21.404  0.00  0.00     0.030 A 
ATOM     19  F   UNL d   1      10.772   0.415 -22.495  0.00  0.00    -0.204 F 
ATOM     20  C   UNL d   1      13.207  -1.128 -20.227  0.00  0.00     0.002 A 
ATOM     21  C   UNL d   1      12.575  -0.884 -18.986  0.00  0.00    -0.002 A 
ENDBRANCH  14  15
ENDBRANCH   5  14
ENDBRANCH   1   5
BRANCH   4  22
ATOM     22  C   UNL d   1       8.062   3.385 -13.954  0.00  0.00     0.133 C 
BRANCH  22  23
ATOM     23  C   UNL d   1       8.459   4.705 -13.268  0.00  0.00     0.062 C 
BRANCH  23  24
ATOM     24  C   UNL d   1       9.104   4.465 -11.894  0.00  0.00     0.253 C 
BRANCH  24  25
ATOM     25  N   UNL d   1       8.899   5.592 -10.990  0.00  0.00     0.141 N 
ATOM     26  C   UNL d   1       9.118   5.172  -9.595  0.00  0.00     0.274 C 
ATOM     27  C   UNL d   1       8.870   6.351  -8.616  0.00  0.00     0.137 C 
ATOM     28  N   UNL d   1       9.719   7.462  -9.020  0.00  0.00    -0.343 N 
ATOM     29  C   UNL d   1       9.618   7.897 -10.416  0.00  0.00     0.137 C 
ATOM     30  C   UNL d   1       9.823   6.685 -11.319  0.00  0.00     0.274 C 
BRANCH  28  31
ATOM     31  C   UNL d   1      10.539   8.126  -8.106  0.00  0.00     0.079 A 
ATOM     32  C   UNL d   1      11.888   8.347  -8.454  0.00  0.00     0.110 A 
ATOM     33  C   UNL d   1      12.685   9.009  -7.535  0.00  0.00     0.026 A 
ATOM     34  C   UNL d   1      12.241   9.453  -6.290  0.00  0.00     0.002 A 
ATOM     35  C   UNL d   1      10.888   9.212  -5.934  0.00  0.00     0.002 A 
ATOM     36  C   UNL d   1      10.056   8.547  -6.841  0.00  0.00     0.019 A 
BRANCH  32  37
ATOM     37  O   UNL d   1      12.339   7.891  -9.674  0.00  0.00    -0.327 OA
ATOM     38  C   UNL d   1      13.734   7.827  -9.919  0.00  0.00     0.181 C 
ENDBRANCH  32  37
ENDBRANCH  28  31
ENDBRANCH  24  25
ENDBRANCH  23  24
ENDBRANCH  22  23
ENDBRANCH   4  22
TORSDOF 11
