REMARK  7 active torsions:
REMARK  status: ('A' for Active; 'I' for Inactive)
REMARK    1  A    between atoms: C_8  and  O_9 
REMARK    2  A    between atoms: O_9  and  C_10 
REMARK    3  A    between atoms: C_10  and  C_11 
REMARK    4  A    between atoms: C_11  and  C_12 
REMARK    5  A    between atoms: C_12  and  C_13 
REMARK    6  A    between atoms: C_13  and  N_14 
REMARK    7  A    between atoms: N_18  and  C_19 
ROOT
ATOM      1  N   UNL d   1       8.754   4.903 -12.360  0.00  0.00     0.139 N 
ATOM      2  C   UNL d   1       9.680   3.764 -12.388  0.00  0.00     0.252 C 
ATOM      3  C   UNL d   1      10.123   3.380 -13.791  0.00  0.00     0.059 C 
ATOM      4  C   UNL d   1       9.201   2.364 -14.480  0.00  0.00     0.103 C 
ATOM      5  N   UNL d   1       7.790   2.739 -14.465  0.00  0.00    -0.346 N 
ATOM      6  C   UNL d   1       7.369   4.107 -14.226  0.00  0.00     0.137 C 
ATOM      7  C   UNL d   1       7.406   4.520 -12.763  0.00  0.00     0.274 C 
ENDROOT
BRANCH   1   8
ATOM      8  C   UNL d   1       8.666   5.465 -11.017  0.00  0.00     0.250 C 
BRANCH   8   9
ATOM      9  C   UNL d   1       9.746   6.532 -10.839  0.00  0.00     0.038 C 
BRANCH   9  10
ATOM     10  C   UNL d   1       9.625   7.227  -9.487  0.00  0.00     0.035 C 
BRANCH  10  11
ATOM     11  C   UNL d   1      10.653   8.376  -9.299  0.00  0.00     0.149 C 
BRANCH  11  12
ATOM     12  O   UNL d   1      10.467   9.087  -8.082  0.00  0.00    -0.331 OA
BRANCH  12  13
ATOM     13  C   UNL d   1      10.894   8.482  -6.922  0.00  0.00     0.096 A 
ATOM     14  C   UNL d   1      11.195   7.104  -6.845  0.00  0.00     0.024 A 
ATOM     15  C   UNL d   1      11.580   6.536  -5.650  0.00  0.00    -0.001 A 
ATOM     16  C   UNL d   1      11.791   7.315  -4.523  0.00  0.00    -0.004 A 
ATOM     17  C   UNL d   1      12.361   6.687  -3.276  0.00  0.00     0.038 C 
ATOM     18  C   UNL d   1      11.555   8.705  -4.581  0.00  0.00     0.082 A 
ATOM     19  C   UNL d   1      11.882   7.419  -2.059  0.00  0.00     0.095 C 
ATOM     20  C   UNL d   1      12.049   8.927  -2.232  0.00  0.00     0.256 C 
ATOM     21  O   UNL d   1      12.257   9.588  -1.238  0.00  0.00    -0.270 OA
ATOM     22  N   UNL d   1      11.844   9.479  -3.445  0.00  0.00    -0.212 NA
ATOM     23  C   UNL d   1      11.076   9.294  -5.776  0.00  0.00     0.043 A 
ENDBRANCH  12  13
ENDBRANCH  11  12
ENDBRANCH  10  11
ENDBRANCH   9  10
ENDBRANCH   8   9
ENDBRANCH   1   8
BRANCH   5  24
ATOM     24  C   UNL d   1       6.812   1.715 -14.593  0.00  0.00     0.058 A 
ATOM     25  C   UNL d   1       6.763   0.871 -15.730  0.00  0.00     0.035 A 
ATOM     26  C   UNL d   1       5.799  -0.161 -15.806  0.00  0.00     0.111 A 
ATOM     27  C   UNL d   1       7.638   0.994 -16.904  0.00  0.00     0.008 A 
ATOM     28  C   UNL d   1       4.868  -0.353 -14.770  0.00  0.00     0.149 A 
ATOM     29  N   UNL d   1       5.746  -0.997 -16.953  0.00  0.00    -0.206 NA
ATOM     30  C   UNL d   1       4.919   0.474 -13.639  0.00  0.00     0.030 A 
ATOM     31  O   UNL d   1       3.891  -1.297 -14.877  0.00  0.00    -0.189 OA
ATOM     32  C   UNL d   1       5.863   1.519 -13.566  0.00  0.00     0.019 A 
ATOM     33  C   UNL d   1       6.575  -0.923 -18.014  0.00  0.00     0.279 A 
ATOM     34  O   UNL d   1       6.484  -1.697 -18.957  0.00  0.00    -0.265 OA
ATOM     35  C   UNL d   1       7.567   0.151 -17.946  0.00  0.00     0.063 A 
ENDBRANCH   5  24
TORSDOF 7
