REMARK  1 active torsions:
REMARK  status: ('A' for Active; 'I' for Inactive)
REMARK    1  A    between atoms: O_2  and  C_3 
ROOT
ATOM      1  C   UNL d   1       8.201   4.026 -13.460  0.00  0.00     0.090 A 
ATOM      2  C   UNL d   1       6.824   4.154 -13.151  0.00  0.00     0.024 A 
ATOM      3  C   UNL d   1       5.923   3.130 -13.473  0.00  0.00     0.002 A 
ATOM      4  C   UNL d   1       6.383   1.968 -14.110  0.00  0.00    -0.004 A 
ATOM      5  C   UNL d   1       7.746   1.810 -14.445  0.00  0.00    -0.022 A 
ATOM      6  C   UNL d   1       8.668   2.853 -14.112  0.00  0.00     0.001 A 
ATOM      7  C   UNL d   1      10.168   2.754 -14.404  0.00  0.00     0.054 C 
ATOM      8  C   UNL d   1      10.727   3.767 -15.415  0.00  0.00    -0.022 A 
ATOM      9  C   UNL d   1      11.716   4.668 -14.960  0.00  0.00    -0.004 A 
ATOM     10  C   UNL d   1      12.295   5.610 -15.830  0.00  0.00    -0.000 A 
ATOM     11  C   UNL d   1      11.895   5.660 -17.176  0.00  0.00    -0.000 A 
ATOM     12  C   UNL d   1      10.915   4.768 -17.647  0.00  0.00    -0.004 A 
ATOM     13  C   UNL d   1      10.324   3.821 -16.782  0.00  0.00    -0.024 A 
ATOM     14  C   UNL d   1       9.259   2.898 -17.351  0.00  0.00     0.061 C 
ATOM     15  C   UNL d   1       9.753   1.442 -17.490  0.00  0.00     0.255 C 
ATOM     16  N   UNL d   1       8.696   0.443 -17.644  0.00  0.00     0.140 N 
ATOM     17  C   UNL d   1       8.102   0.511 -18.973  0.00  0.00     0.285 C 
ATOM     18  C   UNL d   1       7.636   0.477 -16.629  0.00  0.00     0.255 C 
ATOM     19  C   UNL d   1       8.118   0.507 -15.155  0.00  0.00     0.061 C 
ENDROOT
BRANCH   1  20
ATOM     20  O   UNL d   1       9.130   5.000 -13.149  0.00  0.00    -0.328 OA
ATOM     21  C   UNL d   1       8.693   6.167 -12.467  0.00  0.00     0.181 C 
ENDBRANCH   1  20
TORSDOF 1
