REMARK  7 active torsions:
REMARK  status: ('A' for Active; 'I' for Inactive)
REMARK    1  A    between atoms: C_5  and  C_6 
REMARK    2  A    between atoms: N_14  and  C_15 
REMARK    3  A    between atoms: C_15  and  C_16 
REMARK    4  A    between atoms: C_18  and  C_19 
REMARK    5  A    between atoms: C_19  and  C_20 
REMARK    6  A    between atoms: C_20  and  N_21 
REMARK       I    between atoms: N_21  and  C_22 
REMARK    7  A    between atoms: C_22  and  C_24 
ROOT
ATOM      1  C   UNL d   1       8.755   5.405 -12.424  0.00  0.00     0.034 A 
ATOM      2  C   UNL d   1       7.703   6.500 -12.445  0.00  0.00     0.002 A 
ATOM      3  C   UNL d   1       9.048   6.762 -11.845  0.00  0.00     0.004 A 
ENDROOT
BRANCH   1   4
ATOM      4  C   UNL d   1       9.435   5.013 -13.730  0.00  0.00     0.250 C 
BRANCH   4   5
ATOM      5  N   UNL d   1       9.949   3.644 -13.730  0.00  0.00     0.140 N 
ATOM      6  C   UNL d   1      10.829   3.371 -14.863  0.00  0.00     0.249 C 
ATOM      7  C   UNL d   1      11.591   2.054 -14.700  0.00  0.00     0.038 C 
ATOM      8  C   UNL d   1      10.082   3.378 -16.199  0.00  0.00     0.176 C 
ATOM      9  O   UNL d   1       9.060   2.380 -16.150  0.00  0.00    -0.348 OA
ATOM     10  C   UNL d   1       8.145   2.530 -15.059  0.00  0.00     0.172 C 
ATOM     11  C   UNL d   1       8.875   2.660 -13.713  0.00  0.00     0.284 C 
BRANCH  10  12
ATOM     12  C   UNL d   1       7.071   1.463 -15.045  0.00  0.00     0.026 A 
ATOM     13  C   UNL d   1       6.939   0.551 -16.100  0.00  0.00     0.098 A 
ATOM     14  N   UNL d   1       5.976  -0.388 -16.141  0.00  0.00    -0.230 NA
ATOM     15  C   UNL d   1       5.122  -0.461 -15.098  0.00  0.00     0.151 A 
ATOM     16  C   UNL d   1       5.169   0.395 -13.998  0.00  0.00     0.033 A 
ATOM     17  N   UNL d   1       4.148  -1.449 -15.175  0.00  0.00    -0.080 NA
ATOM     18  C   UNL d   1       6.144   1.406 -13.984  0.00  0.00     0.002 A 
ENDBRANCH  10  12
ENDBRANCH   4   5
ENDBRANCH   1   4
BRANCH   3  19
ATOM     19  C   UNL d   1       9.144   6.971 -10.359  0.00  0.00     0.026 C 
BRANCH  19  20
ATOM     20  C   UNL d   1      10.457   6.491  -9.772  0.00  0.00     0.129 C 
BRANCH  20  21
ATOM     21  N   UNL d   1      10.629   6.887  -8.387  0.00  0.00    -0.233 NA
ATOM     22  C   UNL d   1      10.700   8.142  -7.914  0.00  0.00     0.293 C 
ATOM     23  O   UNL d   1      10.556   9.156  -8.600  0.00  0.00    -0.264 OA
BRANCH  22  24
ATOM     24  C   UNL d   1      11.028   8.276  -6.489  0.00  0.00     0.139 A 
ATOM     25  N   UNL d   1      11.270   7.154  -5.704  0.00  0.00    -0.241 NA
ATOM     26  C   UNL d   1      11.624   7.531  -4.434  0.00  0.00     0.082 A 
ATOM     27  C   UNL d   1      11.562   8.954  -4.410  0.00  0.00     0.019 A 
ATOM     28  C   UNL d   1      11.987   6.775  -3.314  0.00  0.00     0.019 A 
ATOM     29  C   UNL d   1      11.181   9.398  -5.719  0.00  0.00     0.025 A 
ATOM     30  C   UNL d   1      11.867   9.592  -3.190  0.00  0.00     0.002 A 
ATOM     31  C   UNL d   1      12.265   8.840  -2.070  0.00  0.00     0.000 A 
ATOM     32  C   UNL d   1      12.301   7.436  -2.118  0.00  0.00     0.002 A 
ENDBRANCH  22  24
ENDBRANCH  20  21
ENDBRANCH  19  20
ENDBRANCH   3  19
TORSDOF 7
