REMARK  6 active torsions:
REMARK  status: ('A' for Active; 'I' for Inactive)
REMARK    1  A    between atoms: C_8  and  O_9 
REMARK    2  A    between atoms: O_9  and  C_10 
REMARK    3  A    between atoms: C_10  and  C_11 
REMARK    4  A    between atoms: C_11  and  C_12 
REMARK    5  A    between atoms: C_12  and  N_13 
REMARK    6  A    between atoms: N_16  and  C_17 
ROOT
ATOM      1  N   UNL d   1       7.907   5.129 -12.094  0.00  0.00     0.141 N 
ATOM      2  C   UNL d   1       8.793   4.101 -12.660  0.00  0.00     0.274 C 
ATOM      3  C   UNL d   1       8.267   3.653 -14.029  0.00  0.00     0.137 C 
ATOM      4  N   UNL d   1       6.899   3.179 -13.929  0.00  0.00    -0.344 N 
ATOM      5  C   UNL d   1       5.978   4.091 -13.256  0.00  0.00     0.137 C 
ATOM      6  C   UNL d   1       6.571   4.551 -11.906  0.00  0.00     0.274 C 
ENDROOT
BRANCH   1   7
ATOM      7  C   UNL d   1       8.418   5.554 -10.790  0.00  0.00     0.253 C 
BRANCH   7   8
ATOM      8  C   UNL d   1       9.652   6.459 -10.933  0.00  0.00     0.068 C 
BRANCH   8   9
ATOM      9  C   UNL d   1      10.536   6.418  -9.687  0.00  0.00     0.151 C 
BRANCH   9  10
ATOM     10  O   UNL d   1       9.949   7.247  -8.699  0.00  0.00    -0.329 OA
BRANCH  10  11
ATOM     11  C   UNL d   1      10.587   7.341  -7.483  0.00  0.00     0.121 A 
ATOM     12  C   UNL d   1      11.291   6.278  -6.869  0.00  0.00     0.026 A 
ATOM     13  C   UNL d   1      11.843   6.392  -5.574  0.00  0.00    -0.000 A 
ATOM     14  C   UNL d   1      11.714   7.607  -4.915  0.00  0.00     0.009 A 
ATOM     15  C   UNL d   1      12.275   8.039  -3.583  0.00  0.00     0.156 A 
ATOM     16  C   UNL d   1      11.062   8.654  -5.515  0.00  0.00     0.085 A 
ATOM     17  N   UNL d   1      11.852   9.437  -3.534  0.00  0.00    -0.229 NA
ATOM     18  C   UNL d   1      11.143   9.809  -4.614  0.00  0.00     0.277 A 
ATOM     19  O   UNL d   1      10.659  10.896  -4.838  0.00  0.00    -0.266 OA
ATOM     20  C   UNL d   1      10.488   8.561  -6.794  0.00  0.00     0.167 A 
ATOM     21  F   UNL d   1       9.862   9.584  -7.390  0.00  0.00    -0.202 F 
ENDBRANCH  10  11
ENDBRANCH   9  10
ENDBRANCH   8   9
ENDBRANCH   7   8
ENDBRANCH   1   7
BRANCH   4  22
ATOM     22  C   UNL d   1       6.502   1.909 -14.421  0.00  0.00     0.056 A 
ATOM     23  C   UNL d   1       6.992   1.388 -15.645  0.00  0.00     0.015 A 
ATOM     24  C   UNL d   1       6.536   0.093 -16.077  0.00  0.00     0.001 A 
ATOM     25  C   UNL d   1       7.896   2.073 -16.518  0.00  0.00     0.001 A 
ATOM     26  C   UNL d   1       5.601  -0.624 -15.304  0.00  0.00     0.000 A 
ATOM     27  C   UNL d   1       7.010  -0.467 -17.285  0.00  0.00     0.000 A 
ATOM     28  C   UNL d   1       5.104  -0.084 -14.114  0.00  0.00     0.002 A 
ATOM     29  C   UNL d   1       5.568   1.176 -13.661  0.00  0.00     0.017 A 
ATOM     30  C   UNL d   1       7.947   0.211 -18.091  0.00  0.00     0.000 A 
ATOM     31  C   UNL d   1       8.380   1.490 -17.697  0.00  0.00     0.000 A 
ENDBRANCH   4  22
TORSDOF 6
