REMARK  7 active torsions:
REMARK  status: ('A' for Active; 'I' for Inactive)
REMARK       I    between atoms: C_2  and  N_3 
REMARK    1  A    between atoms: C_2  and  C_27 
REMARK    2  A    between atoms: N_3  and  C_4 
REMARK    3  A    between atoms: C_7  and  C_8 
REMARK    4  A    between atoms: C_8  and  C_9 
REMARK    5  A    between atoms: C_9  and  N_10 
REMARK    6  A    between atoms: C_13  and  C_14 
REMARK    7  A    between atoms: C_30  and  C_31 
ROOT
ATOM      1  C   UNL d   1       6.706   2.480 -13.880  0.00  0.00     0.107 C 
ATOM      2  C   UNL d   1       8.165   2.936 -14.131  0.00  0.00     0.024 C 
ATOM      3  C   UNL d   1       8.653   3.870 -13.034  0.00  0.00     0.002 C 
ATOM      4  C   UNL d   1       7.714   5.076 -12.811  0.00  0.00     0.002 C 
ATOM      5  C   UNL d   1       6.245   4.628 -12.627  0.00  0.00     0.002 C 
ATOM      6  C   UNL d   1       5.770   3.689 -13.743  0.00  0.00     0.024 C 
ENDROOT
BRANCH   4   7
ATOM      7  C   UNL d   1       8.203   6.010 -11.675  0.00  0.00     0.035 C 
BRANCH   7   8
ATOM      8  C   UNL d   1       8.586   5.253 -10.391  0.00  0.00     0.250 C 
BRANCH   8   9
ATOM      9  N   UNL d   1       9.031   6.147  -9.349  0.00  0.00     0.137 N 
ATOM     10  C   UNL d   1       8.803   5.512  -8.059  0.00  0.00     0.251 C 
ATOM     11  C   UNL d   1       9.148   6.498  -6.926  0.00  0.00     0.040 C 
ATOM     12  C   UNL d   1      10.602   6.979  -7.029  0.00  0.00     0.026 C 
ATOM     13  C   UNL d   1      10.871   7.484  -8.472  0.00  0.00     0.040 C 
ATOM     14  C   UNL d   1      10.440   6.477  -9.517  0.00  0.00     0.251 C 
BRANCH  12  15
ATOM     15  C   UNL d   1      10.926   8.008  -5.953  0.00  0.00    -0.024 A 
ATOM     16  C   UNL d   1      11.475   7.656  -4.705  0.00  0.00    -0.001 A 
ATOM     17  C   UNL d   1      11.764   8.589  -3.715  0.00  0.00     0.090 A 
ATOM     18  C   UNL d   1      11.844   6.318  -4.201  0.00  0.00     0.061 A 
ATOM     19  C   UNL d   1      11.461   9.936  -3.904  0.00  0.00     0.024 A 
ATOM     20  O   UNL d   1      12.292   8.037  -2.586  0.00  0.00    -0.331 OA
ATOM     21  C   UNL d   1      10.946  10.323  -5.149  0.00  0.00     0.002 A 
ATOM     22  C   UNL d   1      10.663   9.385  -6.158  0.00  0.00    -0.004 A 
ATOM     23  C   UNL d   1      12.404   6.624  -2.793  0.00  0.00     0.154 A 
ENDBRANCH  12  15
ENDBRANCH   8   9
ENDBRANCH   7   8
ENDBRANCH   4   7
BRANCH   1  24
ATOM     24  N   UNL d   1       6.324   1.567 -14.940  0.00  0.00    -0.236 NA
ATOM     25  C   UNL d   1       5.670   0.408 -14.824  0.00  0.00     0.275 C 
ATOM     26  O   UNL d   1       5.250  -0.031 -13.749  0.00  0.00    -0.266 OA
BRANCH  25  27
ATOM     27  C   UNL d   1       5.461  -0.334 -16.112  0.00  0.00     0.058 A 
ATOM     28  C   UNL d   1       5.057  -1.688 -16.078  0.00  0.00     0.005 A 
ATOM     29  C   UNL d   1       4.877  -2.412 -17.273  0.00  0.00     0.004 A 
ATOM     30  C   UNL d   1       5.072  -1.786 -18.523  0.00  0.00     0.071 A 
ATOM     31  C   UNL d   1       5.452  -0.430 -18.563  0.00  0.00     0.004 A 
ATOM     32  C   UNL d   1       5.644   0.288 -17.375  0.00  0.00     0.005 A 
BRANCH  30  33
ATOM     33  C   UNL d   1       4.881  -2.602 -19.790  0.00  0.00     0.419 C 
ATOM     34  F   UNL d   1       5.057  -1.848 -20.882  0.00  0.00    -0.166 F 
ATOM     35  F   UNL d   1       5.765  -3.598 -19.818  0.00  0.00    -0.166 F 
ATOM     36  F   UNL d   1       3.654  -3.113 -19.819  0.00  0.00    -0.166 F 
ENDBRANCH  30  33
ENDBRANCH  25  27
ENDBRANCH   1  24
TORSDOF 7
