REMARK  2 active torsions:
REMARK  status: ('A' for Active; 'I' for Inactive)
REMARK    1  A    between atoms: C_4  and  C_5 
REMARK    2  A    between atoms: C_5  and  N_6 
ROOT
ATOM      1  N   UNL d   1       9.925   1.733 -16.510  0.00  0.00     0.142 N 
ATOM      2  C   UNL d   1       9.104   0.521 -16.336  0.00  0.00     0.254 C 
ATOM      3  C   UNL d   1       8.123   0.869 -15.215  0.00  0.00     0.070 C 
ATOM      4  C   UNL d   1       6.688   0.335 -15.229  0.00  0.00     0.151 C 
ATOM      5  O   UNL d   1       5.966   0.832 -14.089  0.00  0.00    -0.331 OA
ATOM      6  C   UNL d   1       6.230   2.120 -13.640  0.00  0.00     0.090 A 
ATOM      7  C   UNL d   1       5.458   2.621 -12.575  0.00  0.00     0.024 A 
ATOM      8  C   UNL d   1       5.698   3.909 -12.053  0.00  0.00     0.002 A 
ATOM      9  C   UNL d   1       6.716   4.712 -12.589  0.00  0.00    -0.000 A 
ATOM     10  C   UNL d   1       7.514   4.216 -13.640  0.00  0.00    -0.002 A 
ATOM     11  C   UNL d   1       7.269   2.927 -14.166  0.00  0.00     0.002 A 
ATOM     12  C   UNL d   1       8.048   2.361 -15.325  0.00  0.00     0.062 C 
ATOM     13  C   UNL d   1       9.512   2.699 -15.483  0.00  0.00     0.255 C 
ENDROOT
BRANCH   1  14
ATOM     14  C   UNL d   1      11.358   1.456 -16.476  0.00  0.00     0.277 C 
BRANCH  14  15
ATOM     15  C   UNL d   1      12.232   2.634 -16.887  0.00  0.00     0.011 A 
ATOM     16  C   UNL d   1      12.858   2.628 -18.152  0.00  0.00    -0.002 A 
ATOM     17  C   UNL d   1      13.682   3.705 -18.541  0.00  0.00    -0.000 A 
ATOM     18  C   UNL d   1      13.870   4.800 -17.672  0.00  0.00    -0.000 A 
ATOM     19  C   UNL d   1      13.244   4.810 -16.413  0.00  0.00    -0.000 A 
ATOM     20  C   UNL d   1      12.443   3.725 -16.014  0.00  0.00    -0.002 A 
ENDBRANCH  14  15
ENDBRANCH   1  14
TORSDOF 2
