REMARK  12 active torsions:
REMARK  status: ('A' for Active; 'I' for Inactive)
REMARK    1  A    between atoms: C_2  and  C_3 
REMARK    2  A    between atoms: C_3  and  N_4 
REMARK    3  A    between atoms: N_4  and  C_5 
REMARK    4  A    between atoms: N_4  and  C_24 
REMARK    5  A    between atoms: C_5  and  C_6 
REMARK    6  A    between atoms: C_6  and  C_7 
REMARK    7  A    between atoms: C_7  and  C_8 
REMARK    8  A    between atoms: C_8  and  N_9 
REMARK       I    between atoms: N_9  and  C_10 
REMARK    9  A    between atoms: C_10  and  C_12 
REMARK   10  A    between atoms: C_15  and  C_16 
REMARK   11  A    between atoms: C_24  and  C_25 
REMARK   12  A    between atoms: C_27  and  C_28 
ROOT
ATOM      1  C   UNL d   1       9.109   4.795 -14.253  0.00  0.00     0.037 C 
ENDROOT
BRANCH   1   2
ATOM      2  C   UNL d   1      10.229   4.707 -15.305  0.00  0.00     0.250 C 
BRANCH   2   3
ATOM      3  N   UNL d   1       9.716   4.371 -16.639  0.00  0.00     0.137 N 
BRANCH   3   4
ATOM      4  C   UNL d   1      10.707   4.505 -17.703  0.00  0.00     0.250 C 
BRANCH   4   5
ATOM      5  C   UNL d   1      11.089   5.964 -18.006  0.00  0.00     0.035 C 
ATOM      6  C   UNL d   1       9.965   6.731 -18.712  0.00  0.00     0.002 C 
ENDBRANCH   4   5
ENDBRANCH   3   4
BRANCH   3   7
ATOM      7  C   UNL d   1       9.125   3.029 -16.683  0.00  0.00     0.251 C 
BRANCH   7   8
ATOM      8  C   UNL d   1      10.143   1.907 -16.462  0.00  0.00     0.038 A 
ATOM      9  C   UNL d   1       9.649   0.548 -16.034  0.00  0.00     0.024 A 
ATOM     10  C   UNL d   1      10.221   0.751 -17.426  0.00  0.00     0.007 A 
BRANCH   9  11
ATOM     11  C   UNL d   1       8.175   0.344 -15.802  0.00  0.00    -0.020 A 
ATOM     12  C   UNL d   1       7.615   0.553 -14.520  0.00  0.00     0.025 A 
ATOM     13  C   UNL d   1       6.230   0.365 -14.311  0.00  0.00     0.140 A 
ATOM     14  C   UNL d   1       5.407  -0.022 -15.386  0.00  0.00     0.030 A 
ATOM     15  F   UNL d   1       5.689   0.565 -13.082  0.00  0.00    -0.204 F 
ATOM     16  C   UNL d   1       5.960  -0.218 -16.665  0.00  0.00     0.002 A 
ATOM     17  C   UNL d   1       7.340  -0.032 -16.868  0.00  0.00    -0.004 A 
ENDBRANCH   9  11
ENDBRANCH   7   8
ENDBRANCH   3   7
ENDBRANCH   2   3
ENDBRANCH   1   2
BRANCH   1  18
ATOM     18  C   UNL d   1       9.677   5.275 -12.925  0.00  0.00     0.029 C 
BRANCH  18  19
ATOM     19  C   UNL d   1       8.601   5.495 -11.856  0.00  0.00     0.129 C 
BRANCH  19  20
ATOM     20  N   UNL d   1       9.175   5.929 -10.588  0.00  0.00    -0.234 NA
ATOM     21  C   UNL d   1       9.700   7.139 -10.338  0.00  0.00     0.275 C 
ATOM     22  O   UNL d   1       9.849   8.014 -11.196  0.00  0.00    -0.266 OA
BRANCH  21  23
ATOM     23  C   UNL d   1      10.159   7.370  -8.927  0.00  0.00     0.058 A 
ATOM     24  C   UNL d   1       9.537   6.709  -7.840  0.00  0.00     0.005 A 
ATOM     25  C   UNL d   1       9.971   6.951  -6.524  0.00  0.00     0.002 A 
ATOM     26  C   UNL d   1      11.012   7.862  -6.257  0.00  0.00     0.018 A 
ATOM     27  C   UNL d   1      11.607   8.544  -7.340  0.00  0.00     0.002 A 
ATOM     28  C   UNL d   1      11.189   8.297  -8.662  0.00  0.00     0.005 A 
BRANCH  26  29
ATOM     29  C   UNL d   1      11.460   8.110  -4.877  0.00  0.00     0.081 A 
ATOM     30  N   UNL d   1      11.848   7.021  -4.176  0.00  0.00    -0.244 NA
ATOM     31  C   UNL d   1      12.258   7.186  -2.903  0.00  0.00     0.099 A 
ATOM     32  C   UNL d   1      12.297   8.439  -2.265  0.00  0.00     0.021 A 
ATOM     33  C   UNL d   1      11.872   9.568  -2.988  0.00  0.00     0.003 A 
ATOM     34  C   UNL d   1      11.460   9.407  -4.322  0.00  0.00     0.019 A 
ENDBRANCH  26  29
ENDBRANCH  21  23
ENDBRANCH  19  20
ENDBRANCH  18  19
ENDBRANCH   1  18
TORSDOF 12
