REMARK  3 active torsions:
REMARK  status: ('A' for Active; 'I' for Inactive)
REMARK    1  A    between atoms: C_8  and  C_9 
REMARK    2  A    between atoms: C_9  and  N_10 
REMARK    3  A    between atoms: N_13  and  C_14 
ROOT
ATOM      1  N   UNL d   1       9.278   6.295 -11.145  0.00  0.00     0.145 N 
ATOM      2  C   UNL d   1       8.780   5.734  -9.880  0.00  0.00     0.275 C 
ATOM      3  C   UNL d   1       9.902   5.659  -8.834  0.00  0.00     0.137 C 
ATOM      4  N   UNL d   1      10.546   6.961  -8.680  0.00  0.00    -0.344 N 
ATOM      5  C   UNL d   1      10.984   7.600  -9.908  0.00  0.00     0.137 C 
ATOM      6  C   UNL d   1       9.813   7.643 -10.897  0.00  0.00     0.275 C 
ENDROOT
BRANCH   1   7
ATOM      7  C   UNL d   1       8.188   6.372 -12.113  0.00  0.00     0.277 C 
BRANCH   7   8
ATOM      8  C   UNL d   1       7.869   5.040 -12.765  0.00  0.00     0.013 A 
ATOM      9  C   UNL d   1       6.540   4.569 -12.825  0.00  0.00    -0.000 A 
ATOM     10  C   UNL d   1       6.254   3.347 -13.471  0.00  0.00     0.025 A 
ATOM     11  C   UNL d   1       7.289   2.608 -14.077  0.00  0.00     0.112 A 
ATOM     12  O   UNL d   1       7.014   1.387 -14.654  0.00  0.00    -0.319 OA
ATOM     13  C   UNL d   1       8.619   3.080 -14.011  0.00  0.00     0.106 A 
ATOM     14  C   UNL d   1       7.956   0.887 -15.616  0.00  0.00     0.238 C 
ATOM     15  C   UNL d   1       9.422   1.170 -15.240  0.00  0.00     0.286 C 
ATOM     16  O   UNL d   1      10.324   0.417 -15.603  0.00  0.00    -0.267 OA
ATOM     17  N   UNL d   1       9.658   2.281 -14.531  0.00  0.00    -0.208 NA
ATOM     18  C   UNL d   1       8.908   4.291 -13.357  0.00  0.00     0.019 A 
ENDBRANCH   7   8
ENDBRANCH   1   7
BRANCH   4  19
ATOM     19  C   UNL d   1      10.782   7.548  -7.425  0.00  0.00     0.056 A 
ATOM     20  C   UNL d   1      11.084   6.743  -6.306  0.00  0.00     0.017 A 
ATOM     21  C   UNL d   1      11.289   7.301  -5.034  0.00  0.00     0.002 A 
ATOM     22  C   UNL d   1      11.218   8.697  -4.863  0.00  0.00     0.000 A 
ATOM     23  C   UNL d   1      10.931   9.518  -5.970  0.00  0.00     0.002 A 
ATOM     24  C   UNL d   1      10.714   8.948  -7.239  0.00  0.00     0.017 A 
ENDBRANCH   4  19
TORSDOF 3
