REMARK  6 active torsions:
REMARK  status: ('A' for Active; 'I' for Inactive)
REMARK    1  A    between atoms: C_6  and  C_7 
REMARK    2  A    between atoms: C_10  and  S_11 
REMARK    3  A    between atoms: S_11  and  C_12 
REMARK    4  A    between atoms: C_12  and  C_13 
REMARK    5  A    between atoms: C_13  and  C_14 
REMARK    6  A    between atoms: C_14  and  N_15 
ROOT
ATOM      1  C   UNL d   1      10.776   3.265 -18.277  0.00  0.00     0.047 C 
ENDROOT
BRANCH   1   2
ATOM      2  C   UNL d   1      12.279   3.371 -18.085  0.00  0.00     0.067 C 
BRANCH   2   3
ATOM      3  S   UNL d   1      12.725   4.914 -17.202  0.00  0.00    -0.075 SA
BRANCH   3   4
ATOM      4  C   UNL d   1      11.829   4.707 -15.702  0.00  0.00     0.193 A 
ATOM      5  N   UNL d   1      12.420   4.375 -14.556  0.00  0.00    -0.122 NA
ATOM      6  N   UNL d   1      11.404   4.283 -13.638  0.00  0.00    -0.128 NA
ATOM      7  C   UNL d   1      10.273   4.561 -14.313  0.00  0.00     0.174 A 
ATOM      8  N   UNL d   1      10.487   4.869 -15.590  0.00  0.00    -0.288 N 
ATOM      9  C   UNL d   1       9.473   5.293 -16.556  0.00  0.00     0.134 C 
BRANCH   7  10
ATOM     10  C   UNL d   1       8.966   4.556 -13.673  0.00  0.00     0.080 A 
ATOM     11  C   UNL d   1       8.409   5.475 -12.822  0.00  0.00     0.069 A 
ATOM     12  N   UNL d   1       7.114   5.133 -12.425  0.00  0.00    -0.247 NA
ATOM     13  C   UNL d   1       9.028   6.739 -12.309  0.00  0.00     0.053 C 
ATOM     14  C   UNL d   1       6.687   3.989 -12.961  0.00  0.00     0.088 A 
ATOM     15  C   UNL d   1       5.345   3.412 -12.690  0.00  0.00     0.059 C 
ATOM     16  S   UNL d   1       7.874   3.234 -14.002  0.00  0.00    -0.068 SA
ENDBRANCH   7  10
ENDBRANCH   3   4
ENDBRANCH   2   3
ENDBRANCH   1   2
BRANCH   1  17
ATOM     17  C   UNL d   1      10.246   2.449 -19.435  0.00  0.00     0.251 C 
BRANCH  17  18
ATOM     18  N   UNL d   1       8.818   2.160 -19.253  0.00  0.00     0.137 N 
ATOM     19  C   UNL d   1       8.615   0.897 -18.545  0.00  0.00     0.254 C 
ATOM     20  C   UNL d   1       7.163   0.523 -18.873  0.00  0.00     0.052 C 
ATOM     21  C   UNL d   1       6.903   1.169 -20.237  0.00  0.00     0.041 C 
ATOM     22  C   UNL d   1       6.909  -0.966 -18.816  0.00  0.00    -0.025 A 
ATOM     23  C   UNL d   1       6.163   1.085 -17.805  0.00  0.00     0.011 C 
ATOM     24  C   UNL d   1       8.191   1.922 -20.550  0.00  0.00     0.251 C 
ATOM     25  C   UNL d   1       6.014  -1.302 -17.848  0.00  0.00    -0.025 A 
ATOM     26  C   UNL d   1       7.475  -1.990 -19.652  0.00  0.00    -0.004 A 
ATOM     27  C   UNL d   1       5.554  -0.097 -17.043  0.00  0.00     0.026 C 
ATOM     28  C   UNL d   1       5.578  -2.635 -17.624  0.00  0.00     0.007 A 
ATOM     29  C   UNL d   1       6.119  -3.641 -18.433  0.00  0.00     0.057 A 
ATOM     30 CL   UNL d   1       5.644  -5.283 -18.197  0.00  0.00    -0.082 Cl
ATOM     31  C   UNL d   1       7.072  -3.314 -19.446  0.00  0.00     0.011 A 
ENDBRANCH  17  18
ENDBRANCH   1  17
TORSDOF 6
