REMARK  8 active torsions:
REMARK  status: ('A' for Active; 'I' for Inactive)
REMARK    1  A    between atoms: C_4  and  N_5 
REMARK    2  A    between atoms: N_8  and  C_9 
REMARK    3  A    between atoms: C_9  and  C_10 
REMARK    4  A    between atoms: C_10  and  C_11 
REMARK    5  A    between atoms: C_11  and  C_12 
REMARK    6  A    between atoms: C_12  and  N_13 
REMARK       I    between atoms: N_13  and  C_14 
REMARK    7  A    between atoms: C_14  and  C_16 
REMARK    8  A    between atoms: C_28  and  C_29 
ROOT
ATOM      1  N   UNL d   1       7.173   2.780 -13.898  0.00  0.00    -0.330 N 
ATOM      2  C   UNL d   1       8.548   3.245 -13.758  0.00  0.00     0.138 C 
ATOM      3  C   UNL d   1       8.559   4.772 -13.683  0.00  0.00     0.274 C 
ATOM      4  N   UNL d   1       7.709   5.226 -12.572  0.00  0.00     0.141 N 
ATOM      5  C   UNL d   1       6.320   4.773 -12.774  0.00  0.00     0.274 C 
ATOM      6  C   UNL d   1       6.240   3.243 -12.874  0.00  0.00     0.138 C 
ENDROOT
BRANCH   4   7
ATOM      7  C   UNL d   1       7.714   6.686 -12.474  0.00  0.00     0.251 C 
BRANCH   7   8
ATOM      8  C   UNL d   1       9.066   7.248 -11.990  0.00  0.00     0.037 C 
BRANCH   8   9
ATOM      9  C   UNL d   1       9.468   6.740 -10.594  0.00  0.00     0.029 C 
BRANCH   9  10
ATOM     10  C   UNL d   1      10.742   7.394 -10.050  0.00  0.00     0.129 C 
BRANCH  10  11
ATOM     11  N   UNL d   1      10.794   7.343  -8.592  0.00  0.00    -0.233 NA
ATOM     12  C   UNL d   1      10.278   8.299  -7.806  0.00  0.00     0.294 C 
ATOM     13  O   UNL d   1       9.540   9.188  -8.224  0.00  0.00    -0.264 OA
BRANCH  12  14
ATOM     14  C   UNL d   1      10.771   8.256  -6.405  0.00  0.00     0.158 A 
ATOM     15  N   UNL d   1      11.014   9.388  -5.625  0.00  0.00    -0.222 NA
ATOM     16  C   UNL d   1      11.459   8.935  -4.452  0.00  0.00     0.148 A 
ATOM     17  N   UNL d   1      11.486   7.518  -4.458  0.00  0.00    -0.288 N 
ATOM     18  C   UNL d   1      11.858   9.583  -3.248  0.00  0.00     0.037 A 
ATOM     19  C   UNL d   1      11.052   7.117  -5.705  0.00  0.00     0.106 A 
ATOM     20  C   UNL d   1      11.874   6.786  -3.384  0.00  0.00     0.082 A 
ATOM     21  C   UNL d   1      12.265   7.424  -2.235  0.00  0.00     0.019 A 
ATOM     22  C   UNL d   1      12.259   8.832  -2.169  0.00  0.00     0.005 A 
ENDBRANCH  12  14
ENDBRANCH  10  11
ENDBRANCH   9  10
ENDBRANCH   8   9
ENDBRANCH   7   8
ENDBRANCH   4   7
BRANCH   1  23
ATOM     23  C   UNL d   1       6.839   1.834 -14.886  0.00  0.00     0.143 A 
ATOM     24  N   UNL d   1       7.465   1.955 -16.075  0.00  0.00    -0.214 NA
ATOM     25  C   UNL d   1       7.124   1.117 -17.038  0.00  0.00     0.141 A 
ATOM     26  C   UNL d   1       7.819   1.311 -18.366  0.00  0.00     0.074 C 
ATOM     27  N   UNL d   1       6.213   0.151 -16.963  0.00  0.00    -0.227 NA
ATOM     28  C   UNL d   1       5.578  -0.010 -15.778  0.00  0.00     0.157 A 
ATOM     29  C   UNL d   1       5.873   0.823 -14.677  0.00  0.00     0.060 A 
BRANCH  28  30
ATOM     30  C   UNL d   1       4.537  -1.127 -15.704  0.00  0.00     0.435 C 
ATOM     31  F   UNL d   1       3.842  -1.212 -16.837  0.00  0.00    -0.165 F 
ATOM     32  F   UNL d   1       5.157  -2.285 -15.502  0.00  0.00    -0.165 F 
ATOM     33  F   UNL d   1       3.683  -0.921 -14.698  0.00  0.00    -0.165 F 
ENDBRANCH  28  30
ENDBRANCH   1  23
TORSDOF 8
