REMARK  4 active torsions:
REMARK  status: ('A' for Active; 'I' for Inactive)
REMARK       I    between atoms: C_2  and  N_3 
REMARK    1  A    between atoms: C_2  and  C_18 
REMARK    2  A    between atoms: N_3  and  C_4 
REMARK    3  A    between atoms: C_4  and  N_5 
REMARK    4  A    between atoms: N_8  and  C_9 
ROOT
ATOM      1  N   UNL d   1       9.459   6.562  -8.623  0.00  0.00    -0.232 NA
ATOM      2  C   UNL d   1       8.838   6.580  -7.300  0.00  0.00     0.102 C 
ATOM      3  C   UNL d   1       9.250   7.856  -6.560  0.00  0.00     0.119 C 
ATOM      4  N   UNL d   1      10.686   7.874  -6.350  0.00  0.00    -0.345 N 
ATOM      5  C   UNL d   1      11.432   7.756  -7.575  0.00  0.00     0.119 C 
ATOM      6  C   UNL d   1      10.893   6.537  -8.352  0.00  0.00     0.102 C 
ENDROOT
BRANCH   1   7
ATOM      7  C   UNL d   1       9.062   5.369  -9.363  0.00  0.00     0.152 C 
BRANCH   7   8
ATOM      8  N   UNL d   1       8.268   5.581 -10.556  0.00  0.00    -0.194 NA
ATOM      9  C   UNL d   1       8.732   5.318 -11.777  0.00  0.00     0.280 C 
ATOM     10  O   UNL d   1       9.869   5.598 -12.138  0.00  0.00    -0.265 OA
BRANCH   9  11
ATOM     11  C   UNL d   1       7.916   4.460 -12.669  0.00  0.00     0.059 A 
ATOM     12  C   UNL d   1       8.564   3.664 -13.643  0.00  0.00     0.016 A 
ATOM     13  C   UNL d   1       7.826   2.752 -14.417  0.00  0.00     0.058 A 
ATOM     14  C   UNL d   1       6.439   2.635 -14.207  0.00  0.00     0.011 A 
ATOM     15 CL   UNL d   1       8.612   1.780 -15.598  0.00  0.00    -0.082 Cl
ATOM     16  C   UNL d   1       5.793   3.446 -13.253  0.00  0.00     0.001 A 
ATOM     17  C   UNL d   1       6.520   4.365 -12.482  0.00  0.00     0.005 A 
ENDBRANCH   9  11
ENDBRANCH   7   8
ENDBRANCH   1   7
BRANCH   4  18
ATOM     18  C   UNL d   1      11.304   7.979  -5.087  0.00  0.00     0.067 A 
ATOM     19  C   UNL d   1      11.485   9.245  -4.498  0.00  0.00     0.073 A 
ATOM     20  C   UNL d   1      12.095   9.376  -3.241  0.00  0.00     0.013 A 
ATOM     21 CL   UNL d   1      11.009  10.655  -5.342  0.00  0.00    -0.081 Cl
ATOM     22  C   UNL d   1      12.564   8.252  -2.553  0.00  0.00     0.001 A 
ATOM     23  C   UNL d   1      12.392   6.976  -3.130  0.00  0.00     0.002 A 
ATOM     24  C   UNL d   1      11.766   6.831  -4.398  0.00  0.00     0.018 A 
ENDBRANCH   4  18
TORSDOF 4
