REMARK  7 active torsions:
REMARK  status: ('A' for Active; 'I' for Inactive)
REMARK    1  A    between atoms: C_5  and  C_6 
REMARK    2  A    between atoms: N_14  and  C_15 
REMARK    3  A    between atoms: C_15  and  C_16 
REMARK    4  A    between atoms: C_18  and  C_19 
REMARK    5  A    between atoms: C_19  and  C_20 
REMARK    6  A    between atoms: C_20  and  N_21 
REMARK       I    between atoms: N_21  and  C_22 
REMARK    7  A    between atoms: C_22  and  C_24 
ROOT
ATOM      1  C   UNL d   1       7.287   4.625 -13.034  0.00  0.00     0.034 A 
ATOM      2  C   UNL d   1       6.497   4.099 -11.841  0.00  0.00     0.002 A 
ATOM      3  C   UNL d   1       7.254   5.383 -11.736  0.00  0.00     0.004 A 
ENDROOT
BRANCH   1   4
ATOM      4  C   UNL d   1       8.607   4.007 -13.441  0.00  0.00     0.250 C 
BRANCH   4   5
ATOM      5  N   UNL d   1       8.663   3.523 -14.802  0.00  0.00     0.140 N 
ATOM      6  C   UNL d   1       9.997   3.048 -15.168  0.00  0.00     0.249 C 
ATOM      7  C   UNL d   1      10.549   1.898 -14.291  0.00  0.00     0.038 C 
ATOM      8  C   UNL d   1      10.004   2.622 -16.643  0.00  0.00     0.176 C 
ATOM      9  O   UNL d   1       9.045   1.581 -16.845  0.00  0.00    -0.348 OA
ATOM     10  C   UNL d   1       7.709   1.951 -16.481  0.00  0.00     0.172 C 
ATOM     11  C   UNL d   1       7.686   2.478 -15.031  0.00  0.00     0.284 C 
BRANCH  10  12
ATOM     12  C   UNL d   1       6.756   0.784 -16.686  0.00  0.00     0.026 A 
ATOM     13  C   UNL d   1       6.493   0.304 -17.988  0.00  0.00     0.099 A 
ATOM     14  N   UNL d   1       5.671  -0.733 -18.250  0.00  0.00    -0.224 NA
ATOM     15  C   UNL d   1       5.075  -1.351 -17.202  0.00  0.00     0.184 A 
ATOM     16  C   UNL d   1       5.269  -0.955 -15.864  0.00  0.00     0.040 A 
ATOM     17  N   UNL d   1       4.247  -2.415 -17.495  0.00  0.00    -0.127 N 
ATOM     18  C   UNL d   1       6.117   0.126 -15.604  0.00  0.00     0.003 A 
ENDBRANCH  10  12
ENDBRANCH   4   5
ENDBRANCH   1   4
BRANCH   3  19
ATOM     19  C   UNL d   1       8.427   5.453 -10.798  0.00  0.00     0.026 C 
BRANCH  19  20
ATOM     20  C   UNL d   1       9.297   6.721 -10.966  0.00  0.00     0.129 C 
BRANCH  20  21
ATOM     21  N   UNL d   1      10.026   7.113  -9.768  0.00  0.00    -0.233 NA
ATOM     22  C   UNL d   1      10.074   6.438  -8.614  0.00  0.00     0.293 C 
ATOM     23  O   UNL d   1       9.819   5.233  -8.483  0.00  0.00    -0.264 OA
BRANCH  22  24
ATOM     24  C   UNL d   1      10.510   7.233  -7.451  0.00  0.00     0.139 A 
ATOM     25  N   UNL d   1      10.979   6.553  -6.351  0.00  0.00    -0.241 NA
ATOM     26  C   UNL d   1      11.327   7.397  -5.322  0.00  0.00     0.082 A 
ATOM     27  C   UNL d   1      11.034   8.706  -5.806  0.00  0.00     0.019 A 
ATOM     28  C   UNL d   1      11.857   7.156  -4.039  0.00  0.00     0.019 A 
ATOM     29  C   UNL d   1      10.493   8.575  -7.139  0.00  0.00     0.025 A 
ATOM     30  C   UNL d   1      11.302   9.784  -4.932  0.00  0.00     0.002 A 
ATOM     31  C   UNL d   1      11.858   9.556  -3.651  0.00  0.00     0.000 A 
ATOM     32  C   UNL d   1      12.146   8.249  -3.207  0.00  0.00     0.002 A 
ENDBRANCH  22  24
ENDBRANCH  20  21
ENDBRANCH  19  20
ENDBRANCH   3  19
TORSDOF 7
