REMARK  4 active torsions:
REMARK  status: ('A' for Active; 'I' for Inactive)
REMARK    1  A    between atoms: C_2  and  C_3 
REMARK    2  A    between atoms: C_3  and  C_4 
REMARK    3  A    between atoms: C_4  and  C_5 
REMARK    4  A    between atoms: C_5  and  N_6 
ROOT
ATOM      1  N   UNL d   1       9.441   6.643  -9.656  0.00  0.00     0.140 N 
ATOM      2  C   UNL d   1      10.471   5.738  -9.232  0.00  0.00     0.268 C 
ATOM      3  C   UNL d   1      10.653   5.750  -7.715  0.00  0.00     0.112 C 
ATOM      4  N   UNL d   1      10.970   7.071  -7.227  0.00  0.00    -0.249 NA
ATOM      5  C   UNL d   1      11.313   7.223  -5.867  0.00  0.00     0.038 A 
ATOM      6  C   UNL d   1      11.859   6.269  -5.028  0.00  0.00     0.011 A 
ATOM      7  C   UNL d   1      12.177   6.478  -3.667  0.00  0.00     0.003 A 
ATOM      8  C   UNL d   1      11.988   7.743  -3.119  0.00  0.00     0.019 A 
ATOM      9  C   UNL d   1      11.487   8.718  -3.942  0.00  0.00     0.082 A 
ATOM     10  N   UNL d   1      11.186   9.996  -3.695  0.00  0.00    -0.244 NA
ATOM     11  C   UNL d   1      10.691  10.582  -4.838  0.00  0.00     0.095 A 
ATOM     12  C   UNL d   1      10.692   9.636  -5.814  0.00  0.00     0.001 A 
ATOM     13  C   UNL d   1      11.162   8.461  -5.266  0.00  0.00     0.025 A 
ATOM     14  C   UNL d   1      10.382   9.467  -7.287  0.00  0.00     0.046 C 
ATOM     15  C   UNL d   1      10.004   8.045  -7.708  0.00  0.00     0.100 C 
ATOM     16  C   UNL d   1       9.845   7.985  -9.243  0.00  0.00     0.267 C 
ENDROOT
BRANCH   1  17
ATOM     17  C   UNL d   1       9.279   6.564 -11.105  0.00  0.00     0.250 C 
BRANCH  17  18
ATOM     18  C   UNL d   1       8.194   5.529 -11.457  0.00  0.00     0.035 C 
BRANCH  18  19
ATOM     19  C   UNL d   1       7.298   5.998 -12.617  0.00  0.00     0.002 C 
BRANCH  19  20
ATOM     20  C   UNL d   1       5.960   5.242 -12.690  0.00  0.00     0.000 C 
ATOM     21  C   UNL d   1       6.081   3.865 -13.348  0.00  0.00     0.000 C 
ENDBRANCH  19  20
ENDBRANCH  18  19
ENDBRANCH  17  18
ENDBRANCH   1  17
TORSDOF 4
