REMARK  8 active torsions:
REMARK  status: ('A' for Active; 'I' for Inactive)
REMARK    1  A    between atoms: O_2  and  C_3 
REMARK    2  A    between atoms: C_9  and  C_10 
REMARK    3  A    between atoms: C_12  and  C_13 
REMARK    4  A    between atoms: C_13  and  N_14 
REMARK    5  A    between atoms: N_14  and  C_15 
REMARK    6  A    between atoms: C_15  and  C_16 
REMARK    7  A    between atoms: N_19  and  C_20 
REMARK    8  A    between atoms: C_20  and  C_21 
ROOT
ATOM      1  C   UNL d   1       8.043   6.001 -12.645  0.00  0.00     0.336 C 
ENDROOT
BRANCH   1   2
ATOM      2  C   UNL d   1       8.498   4.793 -13.409  0.00  0.00     0.102 A 
ATOM      3  N   UNL d   1       7.553   3.883 -13.891  0.00  0.00    -0.241 NA
ATOM      4  C   UNL d   1       8.117   2.798 -14.435  0.00  0.00     0.112 A 
ATOM      5  S   UNL d   1       9.878   2.820 -14.347  0.00  0.00    -0.066 SA
ATOM      6  C   UNL d   1       9.790   4.370 -13.572  0.00  0.00     0.054 A 
BRANCH   4   7
ATOM      7  C   UNL d   1       7.380   1.684 -15.028  0.00  0.00     0.047 A 
ATOM      8  C   UNL d   1       7.800   1.072 -16.237  0.00  0.00     0.096 A 
ATOM      9  C   UNL d   1       7.041  -0.006 -16.757  0.00  0.00     0.025 A 
ATOM     10  C   UNL d   1       5.879  -0.449 -16.101  0.00  0.00     0.009 A 
ATOM     11  C   UNL d   1       5.461   0.169 -14.912  0.00  0.00     0.035 A 
ATOM     12 BR   UNL d   1       3.863  -0.405 -14.058  0.00  0.00    -0.049 Br
ATOM     13  C   UNL d   1       6.212   1.230 -14.377  0.00  0.00     0.011 A 
BRANCH   8  14
ATOM     14  O   UNL d   1       8.915   1.577 -16.871  0.00  0.00    -0.328 OA
ATOM     15  C   UNL d   1       9.394   0.928 -18.035  0.00  0.00     0.181 C 
ENDBRANCH   8  14
ENDBRANCH   4   7
ENDBRANCH   1   2
BRANCH   1  16
ATOM     16  N   UNL d   1       8.404   6.089 -11.243  0.00  0.00     0.346 N 
BRANCH  16  17
ATOM     17  C   UNL d   1       8.122   4.848 -10.516  0.00  0.00     0.293 C 
BRANCH  17  18
ATOM     18  C   UNL d   1       8.745   4.874  -9.109  0.00  0.00     0.071 C 
ATOM     19  C   UNL d   1       8.241   5.947  -8.176  0.00  0.00     0.253 C 
ATOM     20  N   UNL d   1       9.359   6.365  -7.357  0.00  0.00     0.141 N 
ATOM     21  C   UNL d   1      10.442   6.416  -8.311  0.00  0.00     0.251 C 
ATOM     22  C   UNL d   1      10.213   5.160  -9.130  0.00  0.00     0.039 C 
BRANCH  20  23
ATOM     23  C   UNL d   1       9.089   7.658  -6.771  0.00  0.00     0.277 C 
BRANCH  23  24
ATOM     24  C   UNL d   1      10.290   8.195  -6.033  0.00  0.00     0.011 A 
ATOM     25  C   UNL d   1      10.886   7.437  -5.000  0.00  0.00    -0.002 A 
ATOM     26  C   UNL d   1      11.966   7.964  -4.273  0.00  0.00    -0.000 A 
ATOM     27  C   UNL d   1      12.519   9.201  -4.654  0.00  0.00    -0.000 A 
ATOM     28  C   UNL d   1      11.966   9.926  -5.730  0.00  0.00    -0.000 A 
ATOM     29  C   UNL d   1      10.846   9.424  -6.415  0.00  0.00    -0.002 A 
ENDBRANCH  23  24
ENDBRANCH  20  23
ENDBRANCH  17  18
ENDBRANCH  16  17
ENDBRANCH   1  16
TORSDOF 8
