REMARK  8 active torsions:
REMARK  status: ('A' for Active; 'I' for Inactive)
REMARK    1  A    between atoms: C_4  and  C_5 
REMARK    2  A    between atoms: C_8  and  S_9 
REMARK    3  A    between atoms: S_9  and  C_10 
REMARK    4  A    between atoms: C_10  and  C_11 
REMARK    5  A    between atoms: C_11  and  C_12 
REMARK    6  A    between atoms: C_12  and  N_13 
REMARK    7  A    between atoms: N_18  and  C_19 
REMARK    8  A    between atoms: C_22  and  C_23 
ROOT
ATOM      1  N   UNL d   1       7.691   2.646 -14.773  0.00  0.00     0.139 N 
ATOM      2  C   UNL d   1       6.246   2.858 -14.757  0.00  0.00     0.252 C 
ATOM      3  C   UNL d   1       5.985   3.629 -13.499  0.00  0.00     0.058 C 
ATOM      4  C   UNL d   1       5.737   2.736 -12.302  0.00  0.00     0.028 C 
ATOM      5  C   UNL d   1       6.441   3.543 -11.252  0.00  0.00     0.102 C 
ATOM      6  N   UNL d   1       7.615   4.115 -11.830  0.00  0.00    -0.348 N 
ATOM      7  C   UNL d   1       7.273   4.382 -13.214  0.00  0.00     0.117 C 
ATOM      8  C   UNL d   1       8.303   3.851 -14.215  0.00  0.00     0.272 C 
ENDROOT
BRANCH   1   9
ATOM      9  C   UNL d   1       8.184   2.248 -16.083  0.00  0.00     0.251 C 
BRANCH   9  10
ATOM     10  C   UNL d   1       9.676   1.929 -16.000  0.00  0.00     0.047 C 
BRANCH  10  11
ATOM     11  C   UNL d   1      10.260   1.572 -17.382  0.00  0.00     0.067 C 
BRANCH  11  12
ATOM     12  S   UNL d   1      12.071   1.483 -17.393  0.00  0.00    -0.075 SA
BRANCH  12  13
ATOM     13  C   UNL d   1      12.520   3.189 -17.274  0.00  0.00     0.193 A 
ATOM     14  N   UNL d   1      11.944   4.067 -16.455  0.00  0.00    -0.122 NA
ATOM     15  N   UNL d   1      12.551   5.259 -16.699  0.00  0.00    -0.126 NA
ATOM     16  C   UNL d   1      13.483   5.015 -17.619  0.00  0.00     0.192 A 
ATOM     17  N   UNL d   1      13.512   3.725 -18.012  0.00  0.00    -0.287 N 
ATOM     18  C   UNL d   1      14.380   3.079 -18.986  0.00  0.00     0.134 C 
BRANCH  16  19
ATOM     19  C   UNL d   1      14.335   6.098 -18.090  0.00  0.00     0.162 A 
ATOM     20  C   UNL d   1      14.246   7.442 -17.881  0.00  0.00     0.047 A 
ATOM     21  C   UNL d   1      15.365   7.950 -18.587  0.00  0.00     0.088 A 
ATOM     22  C   UNL d   1      15.807   9.370 -18.728  0.00  0.00     0.055 C 
ATOM     23  N   UNL d   1      16.067   6.986 -19.160  0.00  0.00    -0.131 NA
ATOM     24  O   UNL d   1      15.410   5.792 -18.857  0.00  0.00    -0.208 OA
ENDBRANCH  16  19
ENDBRANCH  12  13
ENDBRANCH  11  12
ENDBRANCH  10  11
ENDBRANCH   9  10
ENDBRANCH   1   9
BRANCH   6  25
ATOM     25  C   UNL d   1       8.368   5.052 -11.114  0.00  0.00     0.056 A 
ATOM     26  C   UNL d   1       9.210   5.986 -11.793  0.00  0.00     0.017 A 
ATOM     27  C   UNL d   1       9.821   7.022 -11.088  0.00  0.00     0.005 A 
ATOM     28  C   UNL d   1       9.709   7.152  -9.697  0.00  0.00     0.072 A 
ATOM     29  C   UNL d   1       8.930   6.205  -8.996  0.00  0.00     0.005 A 
ATOM     30  C   UNL d   1       8.260   5.192  -9.706  0.00  0.00     0.017 A 
BRANCH  28  31
ATOM     31  C   UNL d   1      10.383   8.301  -8.988  0.00  0.00     0.419 C 
ATOM     32  F   UNL d   1      11.419   7.808  -8.314  0.00  0.00    -0.166 F 
ATOM     33  F   UNL d   1      10.845   9.208  -9.853  0.00  0.00    -0.166 F 
ATOM     34  F   UNL d   1       9.541   8.902  -8.146  0.00  0.00    -0.166 F 
ENDBRANCH  28  31
ENDBRANCH   6  25
TORSDOF 8
