REMARK  10 active torsions:
REMARK  status: ('A' for Active; 'I' for Inactive)
REMARK    1  A    between atoms: O_2  and  C_3 
REMARK    2  A    between atoms: C_9  and  C_10 
REMARK    3  A    between atoms: C_12  and  C_13 
REMARK    4  A    between atoms: C_13  and  N_14 
REMARK    5  A    between atoms: N_14  and  C_15 
REMARK    6  A    between atoms: C_15  and  C_16 
REMARK    7  A    between atoms: C_16  and  C_17 
REMARK    8  A    between atoms: C_17  and  C_18 
REMARK    9  A    between atoms: C_18  and  O_19 
REMARK   10  A    between atoms: O_19  and  C_20 
ROOT
ATOM      1  C   UNL d   1       8.494   5.945 -10.593  0.00  0.00     0.290 C 
ENDROOT
BRANCH   1   2
ATOM      2  N   UNL d   1       8.103   5.496 -11.912  0.00  0.00     0.339 N 
BRANCH   2   3
ATOM      3  C   UNL d   1       7.139   4.419 -11.777  0.00  0.00     0.290 C 
BRANCH   3   4
ATOM      4  C   UNL d   1       6.802   3.938 -13.156  0.00  0.00     0.041 A 
ATOM      5  C   UNL d   1       5.947   2.696 -13.347  0.00  0.00     0.026 A 
ATOM      6  C   UNL d   1       5.412   4.051 -13.730  0.00  0.00     0.007 A 
BRANCH   5   7
ATOM      7  C   UNL d   1       6.285   1.677 -14.410  0.00  0.00     0.001 A 
ATOM      8  C   UNL d   1       5.543   0.475 -14.538  0.00  0.00     0.090 A 
ATOM      9  C   UNL d   1       5.870  -0.422 -15.590  0.00  0.00     0.025 A 
ATOM     10  C   UNL d   1       6.914  -0.134 -16.489  0.00  0.00     0.013 A 
ATOM     11  C   UNL d   1       7.647   1.050 -16.354  0.00  0.00     0.058 A 
ATOM     12 CL   UNL d   1       8.941   1.431 -17.431  0.00  0.00    -0.082 Cl
ATOM     13  C   UNL d   1       7.329   1.943 -15.329  0.00  0.00     0.009 A 
BRANCH   8  14
ATOM     14  O   UNL d   1       4.524   0.242 -13.640  0.00  0.00    -0.328 OA
ATOM     15  C   UNL d   1       3.463  -0.615 -14.033  0.00  0.00     0.181 C 
ENDBRANCH   8  14
ENDBRANCH   5   7
ENDBRANCH   3   4
ENDBRANCH   2   3
ENDBRANCH   1   2
BRANCH   1  16
ATOM     16  C   UNL d   1       9.587   7.015 -10.735  0.00  0.00     0.041 C 
BRANCH  16  17
ATOM     17  C   UNL d   1       9.765   7.761  -9.419  0.00  0.00     0.035 C 
BRANCH  17  18
ATOM     18  C   UNL d   1      10.993   8.707  -9.431  0.00  0.00     0.149 C 
BRANCH  18  19
ATOM     19  O   UNL d   1      11.082   9.451  -8.218  0.00  0.00    -0.331 OA
BRANCH  19  20
ATOM     20  C   UNL d   1      11.355   8.767  -7.059  0.00  0.00     0.096 C 
ATOM     21  C   UNL d   1      11.530   9.497  -5.863  0.00  0.00     0.043 C 
ATOM     22  C   UNL d   1      11.780   8.796  -4.656  0.00  0.00     0.082 C 
ATOM     23  C   UNL d   1      11.796   7.386  -4.630  0.00  0.00    -0.004 C 
ATOM     24  N   UNL d   1      12.028   9.504  -3.471  0.00  0.00    -0.212 NA
ATOM     25  C   UNL d   1      11.585   6.670  -5.817  0.00  0.00    -0.001 C 
ATOM     26  C   UNL d   1      12.131   6.656  -3.346  0.00  0.00     0.038 C 
ATOM     27  C   UNL d   1      11.466   7.357  -7.020  0.00  0.00     0.024 C 
ATOM     28  C   UNL d   1      11.691   7.449  -2.133  0.00  0.00     0.095 C 
ATOM     29  C   UNL d   1      12.072   8.916  -2.260  0.00  0.00     0.256 C 
ATOM     30  O   UNL d   1      12.343   9.539  -1.255  0.00  0.00    -0.270 OA
ENDBRANCH  19  20
ENDBRANCH  18  19
ENDBRANCH  17  18
ENDBRANCH  16  17
ENDBRANCH   1  16
TORSDOF 10
