REMARK  6 active torsions:
REMARK  status: ('A' for Active; 'I' for Inactive)
REMARK    1  A    between atoms: C_2  and  C_3 
REMARK    2  A    between atoms: C_3  and  N_4 
REMARK    3  A    between atoms: N_4  and  C_5 
REMARK    4  A    between atoms: N_4  and  C_8 
REMARK    5  A    between atoms: C_5  and  C_6 
REMARK    6  A    between atoms: C_13  and  O_14 
ROOT
ATOM      1  C   UNL d   1      10.044   6.617  -9.236  0.00  0.00     0.224 C 
ATOM      2  C   UNL d   1      10.142   8.152  -9.445  0.00  0.00     0.038 C 
ATOM      3  C   UNL d   1      11.231   8.812  -8.587  0.00  0.00     0.028 C 
ATOM      4  C   UNL d   1      11.189   8.406  -7.132  0.00  0.00    -0.024 C 
ATOM      5  C   UNL d   1      11.885   9.155  -6.145  0.00  0.00     0.020 C 
ATOM      6  C   UNL d   1      11.936   8.700  -4.785  0.00  0.00     0.094 C 
ATOM      7  C   UNL d   1      11.320   7.457  -4.471  0.00  0.00     0.024 C 
ATOM      8  C   UNL d   1      10.567   6.816  -5.420  0.00  0.00    -0.003 C 
ATOM      9  C   UNL d   1      10.481   7.237  -6.756  0.00  0.00    -0.024 C 
ATOM     10  C   UNL d   1       9.706   6.366  -7.727  0.00  0.00     0.059 C 
ENDROOT
BRANCH   1  11
ATOM     11  N   UNL d   1       9.073   5.936 -10.139  0.00  0.00     0.135 N 
BRANCH  11  12
ATOM     12  C   UNL d   1       8.694   6.662 -11.374  0.00  0.00     0.250 C 
BRANCH  12  13
ATOM     13  C   UNL d   1       7.267   6.299 -11.888  0.00  0.00     0.035 C 
ATOM     14  C   UNL d   1       6.736   7.414 -12.809  0.00  0.00     0.002 C 
ENDBRANCH  12  13
ENDBRANCH  11  12
BRANCH  11  15
ATOM     15  C   UNL d   1       9.445   4.558 -10.507  0.00  0.00     0.250 C 
BRANCH  15  16
ATOM     16  C   UNL d   1       9.859   3.600  -9.358  0.00  0.00     0.035 C 
ATOM     17  C   UNL d   1       8.634   3.323  -8.454  0.00  0.00     0.002 C 
ENDBRANCH  15  16
ENDBRANCH  11  15
ENDBRANCH   1  11
BRANCH   6  18
ATOM     18  O   UNL d   1      12.599   9.434  -3.837  0.00  0.00    -0.328 OA
ATOM     19  C   UNL d   1      12.505   8.916  -2.509  0.00  0.00     0.181 C 
ENDBRANCH   6  18
TORSDOF 6
