REMARK  10 active torsions:
REMARK  status: ('A' for Active; 'I' for Inactive)
REMARK    1  A    between atoms: C_2  and  C_3 
REMARK    2  A    between atoms: C_3  and  N_4 
REMARK    3  A    between atoms: N_4  and  C_5 
REMARK    4  A    between atoms: N_4  and  C_21 
REMARK    5  A    between atoms: C_5  and  C_6 
REMARK    6  A    between atoms: C_6  and  C_7 
REMARK    7  A    between atoms: C_7  and  C_8 
REMARK    8  A    between atoms: C_8  and  N_9 
REMARK    9  A    between atoms: C_21  and  C_22 
REMARK   10  A    between atoms: C_29  and  O_30 
ROOT
ATOM      1  N   UNL d   1      11.147   2.912 -18.048  0.00  0.00    -0.368 N 
ENDROOT
BRANCH   1   2
ATOM      2  C   UNL d   1      10.553   4.182 -18.539  0.00  0.00     0.097 C 
BRANCH   2   3
ATOM      3  C   UNL d   1       9.060   4.010 -18.837  0.00  0.00     0.024 C 
ATOM      4  C   UNL d   1       8.872   3.363 -20.214  0.00  0.00     0.002 C 
ENDBRANCH   2   3
ENDBRANCH   1   2
BRANCH   1   5
ATOM      5  C   UNL d   1      12.581   2.845 -18.301  0.00  0.00     0.097 C 
BRANCH   5   6
ATOM      6  C   UNL d   1      13.331   3.935 -17.522  0.00  0.00     0.026 C 
BRANCH   6   7
ATOM      7  C   UNL d   1      14.790   4.123 -17.873  0.00  0.00     0.027 C 
BRANCH   7   8
ATOM      8  C   UNL d   1      15.425   5.186 -16.944  0.00  0.00     0.112 C 
BRANCH   8   9
ATOM      9  N   UNL d   1      15.330   6.523 -17.533  0.00  0.00    -0.271 N 
ATOM     10  C   UNL d   1      14.263   7.280 -17.235  0.00  0.00     0.239 C 
ATOM     11  C   UNL d   1      14.090   8.663 -17.920  0.00  0.00     0.089 C 
ATOM     12  O   UNL d   1      13.408   6.991 -16.414  0.00  0.00    -0.272 OA
ATOM     13  C   UNL d   1      14.757   8.715 -19.296  0.00  0.00     0.018 C 
ATOM     14  C   UNL d   1      16.195   8.195 -19.178  0.00  0.00     0.089 C 
ATOM     15  C   UNL d   1      14.783  10.153 -19.848  0.00  0.00     0.001 C 
ATOM     16  C   UNL d   1      13.958   7.946 -20.378  0.00  0.00     0.001 C 
ATOM     17  C   UNL d   1      16.285   6.875 -18.451  0.00  0.00     0.239 C 
ATOM     18  O   UNL d   1      17.255   6.127 -18.718  0.00  0.00    -0.272 OA
ATOM     19  C   UNL d   1      14.892   9.997 -21.365  0.00  0.00     0.000 C 
ATOM     20  C   UNL d   1      14.230   8.656 -21.709  0.00  0.00     0.000 C 
ENDBRANCH   8   9
ENDBRANCH   7   8
ENDBRANCH   6   7
ENDBRANCH   5   6
ENDBRANCH   1   5
BRANCH   1  21
ATOM     21  C   UNL d   1      10.694   2.404 -16.758  0.00  0.00     0.100 C 
BRANCH  21  22
ATOM     22  C   UNL d   1      10.133   3.447 -15.738  0.00  0.00     0.057 C 
ATOM     23  C   UNL d   1       8.951   2.890 -14.952  0.00  0.00     0.035 C 
ATOM     24  C   UNL d   1       8.544   3.880 -13.862  0.00  0.00     0.022 A 
ATOM     25  C   UNL d   1       9.435   4.922 -13.482  0.00  0.00     0.092 A 
ATOM     26  C   UNL d   1       7.287   3.784 -13.230  0.00  0.00     0.092 A 
ATOM     27  O   UNL d   1      10.671   5.092 -14.034  0.00  0.00    -0.331 OA
ATOM     28  C   UNL d   1       9.088   5.859 -12.493  0.00  0.00     0.024 A 
ATOM     29  C   UNL d   1      11.200   4.026 -14.783  0.00  0.00     0.151 C 
ATOM     30  C   UNL d   1       7.862   5.720 -11.842  0.00  0.00     0.004 A 
ATOM     31  C   UNL d   1       6.971   4.710 -12.205  0.00  0.00     0.024 A 
BRANCH  26  32
ATOM     32  O   UNL d   1       6.451   2.759 -13.637  0.00  0.00    -0.328 OA
ATOM     33  C   UNL d   1       5.300   2.529 -12.857  0.00  0.00     0.181 C 
ENDBRANCH  26  32
ENDBRANCH  21  22
ENDBRANCH   1  21
TORSDOF 10
