REMARK  6 active torsions:
REMARK  status: ('A' for Active; 'I' for Inactive)
REMARK    1  A    between atoms: C_1  and  C_9 
REMARK    2  A    between atoms: C_2  and  C_3 
REMARK    3  A    between atoms: C_9  and  N_10 
REMARK    4  A    between atoms: N_10  and  C_11 
REMARK    5  A    between atoms: N_14  and  C_15 
REMARK    6  A    between atoms: C_15  and  C_16 
ROOT
ATOM      1  C   UNL d   1       8.753   6.192 -10.259  0.00  0.00     0.262 C 
ATOM      2  C   UNL d   1       9.188   4.757 -10.556  0.00  0.00     0.071 C 
ATOM      3  C   UNL d   1       8.585   4.251 -11.869  0.00  0.00     0.253 C 
ATOM      4  N   UNL d   1       8.937   5.123 -12.990  0.00  0.00     0.141 N 
ATOM      5  C   UNL d   1       8.378   6.434 -12.711  0.00  0.00     0.253 C 
ATOM      6  C   UNL d   1       9.040   7.064 -11.479  0.00  0.00     0.071 C 
ENDROOT
BRANCH   1   7
ATOM      7  N   UNL d   1       9.453   6.732  -9.100  0.00  0.00     0.351 N 
BRANCH   7   8
ATOM      8  C   UNL d   1       9.058   6.068  -7.864  0.00  0.00     0.366 C 
BRANCH   8   9
ATOM      9  C   UNL d   1       9.768   6.649  -6.723  0.00  0.00    -0.048 C 
ATOM     10  C   UNL d   1      10.437   7.089  -5.805  0.00  0.00    -0.062 C 
BRANCH  10  11
ATOM     11  C   UNL d   1      11.217   7.648  -4.729  0.00  0.00     0.042 A 
ATOM     12  C   UNL d   1      11.208   9.044  -4.526  0.00  0.00     0.008 A 
ATOM     13  C   UNL d   1      11.864   9.579  -3.400  0.00  0.00     0.001 A 
ATOM     14  C   UNL d   1      12.542   8.743  -2.507  0.00  0.00     0.000 A 
ATOM     15  C   UNL d   1      12.533   7.349  -2.697  0.00  0.00     0.001 A 
ATOM     16  C   UNL d   1      11.863   6.792  -3.806  0.00  0.00     0.008 A 
ENDBRANCH  10  11
ENDBRANCH   8   9
ENDBRANCH   7   8
ENDBRANCH   1   7
BRANCH   4  17
ATOM     17  C   UNL d   1       8.381   4.554 -14.210  0.00  0.00     0.277 C 
BRANCH  17  18
ATOM     18  C   UNL d   1       9.205   3.420 -14.792  0.00  0.00     0.011 A 
ATOM     19  C   UNL d   1      10.339   3.711 -15.584  0.00  0.00    -0.002 A 
ATOM     20  C   UNL d   1      11.100   2.668 -16.152  0.00  0.00    -0.000 A 
ATOM     21  C   UNL d   1      10.732   1.326 -15.935  0.00  0.00    -0.000 A 
ATOM     22  C   UNL d   1       9.600   1.028 -15.152  0.00  0.00    -0.000 A 
ATOM     23  C   UNL d   1       8.836   2.072 -14.592  0.00  0.00    -0.002 A 
ENDBRANCH  17  18
ENDBRANCH   4  17
TORSDOF 6
