REMARK  6 active torsions:
REMARK  status: ('A' for Active; 'I' for Inactive)
REMARK    1  A    between atoms: C_2  and  C_3 
REMARK    2  A    between atoms: C_2  and  C_19 
REMARK    3  A    between atoms: C_3  and  C_4 
REMARK    4  A    between atoms: C_4  and  C_5 
REMARK    5  A    between atoms: C_5  and  N_6 
REMARK    6  A    between atoms: C_9  and  C_11 
ROOT
ATOM      1  N   UNL d   1       9.456   6.059 -10.820  0.00  0.00     0.140 N 
ATOM      2  C   UNL d   1       8.655   6.764 -11.794  0.00  0.00     0.253 C 
ATOM      3  C   UNL d   1       8.930   6.052 -13.115  0.00  0.00     0.072 C 
ATOM      4  C   UNL d   1       9.319   4.633 -12.720  0.00  0.00     0.179 C 
ATOM      5  O   UNL d   1      10.655   4.442 -13.139  0.00  0.00    -0.219 OA
ATOM      6  C   UNL d   1       9.261   4.664 -11.180  0.00  0.00     0.284 C 
ENDROOT
BRANCH   1   7
ATOM      7  C   UNL d   1       9.052   6.383  -9.457  0.00  0.00     0.251 C 
BRANCH   7   8
ATOM      8  C   UNL d   1      10.042   5.922  -8.400  0.00  0.00     0.043 C 
BRANCH   8   9
ATOM      9  C   UNL d   1       9.679   6.476  -7.016  0.00  0.00     0.071 C 
BRANCH   9  10
ATOM     10  C   UNL d   1      10.259   7.872  -6.710  0.00  0.00     0.173 C 
ATOM     11  O   UNL d   1      10.108   8.790  -7.514  0.00  0.00    -0.291 OA
BRANCH  10  12
ATOM     12  C   UNL d   1      10.960   8.070  -5.406  0.00  0.00     0.035 A 
ATOM     13  C   UNL d   1      11.105   9.377  -4.883  0.00  0.00     0.005 A 
ATOM     14  C   UNL d   1      11.742   9.588  -3.641  0.00  0.00     0.030 A 
ATOM     15  C   UNL d   1      12.257   8.496  -2.913  0.00  0.00     0.140 A 
ATOM     16  C   UNL d   1      12.132   7.195  -3.433  0.00  0.00     0.030 A 
ATOM     17  F   UNL d   1      12.870   8.702  -1.726  0.00  0.00    -0.204 F 
ATOM     18  C   UNL d   1      11.497   6.983  -4.671  0.00  0.00     0.005 A 
ENDBRANCH  10  12
ENDBRANCH   9  10
ENDBRANCH   8   9
ENDBRANCH   7   8
ENDBRANCH   1   7
BRANCH   4  19
ATOM     19  C   UNL d   1       8.405   3.585 -13.339  0.00  0.00     0.007 A 
ATOM     20  C   UNL d   1       8.937   2.494 -14.074  0.00  0.00    -0.001 A 
ATOM     21  C   UNL d   1       8.092   1.506 -14.602  0.00  0.00     0.011 A 
ATOM     22  C   UNL d   1       6.704   1.588 -14.398  0.00  0.00     0.058 A 
ATOM     23  C   UNL d   1       6.161   2.663 -13.665  0.00  0.00     0.011 A 
ATOM     24 CL   UNL d   1       5.680   0.350 -15.011  0.00  0.00    -0.082 Cl
ATOM     25  C   UNL d   1       7.007   3.663 -13.150  0.00  0.00    -0.001 A 
ENDBRANCH   4  19
TORSDOF 6
