REMARK  6 active torsions:
REMARK  status: ('A' for Active; 'I' for Inactive)
REMARK    1  A    between atoms: S_2  and  C_4 
REMARK    2  A    between atoms: S_2  and  C_14 
REMARK    3  A    between atoms: C_7  and  N_8 
REMARK    4  A    between atoms: N_18  and  C_19 
REMARK    5  A    between atoms: C_19  and  C_20 
REMARK    6  A    between atoms: C_20  and  C_21 
ROOT
ATOM      1  C   UNL d   1       8.554   5.281 -12.490  0.00  0.00     0.234 C 
ATOM      2  F   UNL d   1       7.433   5.949 -12.671  0.00  0.00    -0.223 F 
ATOM      3  C   UNL d   1       9.643   6.299 -12.259  0.00  0.00     0.084 C 
ATOM      4  C   UNL d   1       9.480   7.017 -10.929  0.00  0.00     0.254 C 
ATOM      5  N   UNL d   1       9.489   6.058  -9.825  0.00  0.00     0.138 N 
ATOM      6  C   UNL d   1       8.396   5.112  -9.970  0.00  0.00     0.254 C 
ATOM      7  C   UNL d   1       8.536   4.356 -11.271  0.00  0.00     0.084 C 
ENDROOT
BRANCH   1   8
ATOM      8  S   UNL d   1       8.987   4.301 -14.019  0.00  0.00     0.216 S 
ATOM      9  O   UNL d   1      10.307   3.683 -13.834  0.00  0.00    -0.219 OA
ATOM     10  O   UNL d   1       8.799   5.182 -15.176  0.00  0.00    -0.219 OA
BRANCH   8  11
ATOM     11  C   UNL d   1       7.779   2.976 -14.065  0.00  0.00     0.086 C 
ATOM     12  C   UNL d   1       8.134   1.741 -14.630  0.00  0.00     0.012 C 
ATOM     13  C   UNL d   1       7.210   0.667 -14.597  0.00  0.00     0.012 C 
ATOM     14  C   UNL d   1       5.933   0.792 -13.991  0.00  0.00     0.036 C 
ATOM     15  C   UNL d   1       5.645   2.046 -13.380  0.00  0.00     0.012 C 
ATOM     16  C   UNL d   1       6.495   3.148 -13.508  0.00  0.00     0.012 C 
BRANCH  14  17
ATOM     17  N   UNL d   1       5.034  -0.304 -13.979  0.00  0.00    -0.253 NA
ATOM     18  C   UNL d   1       3.653  -0.069 -13.565  0.00  0.00     0.078 C 
ATOM     19  C   UNL d   1       3.230  -0.951 -14.710  0.00  0.00     0.035 C 
ATOM     20  C   UNL d   1       4.633  -0.732 -15.308  0.00  0.00     0.078 C 
ENDBRANCH  14  17
ENDBRANCH   8  11
ENDBRANCH   1   8
BRANCH   5  21
ATOM     21  C   UNL d   1       9.303   6.693  -8.529  0.00  0.00     0.255 C 
BRANCH  21  22
ATOM     22  C   UNL d   1      10.403   7.752  -8.272  0.00  0.00     0.064 C 
BRANCH  22  23
ATOM     23  C   UNL d   1      10.857   7.834  -6.828  0.00  0.00     0.007 A 
ATOM     24  C   UNL d   1      11.014   9.067  -6.166  0.00  0.00     0.138 A 
ATOM     25  C   UNL d   1      11.463   9.104  -4.831  0.00  0.00     0.059 A 
ATOM     26  F   UNL d   1      10.762  10.221  -6.805  0.00  0.00    -0.204 F 
ATOM     27  C   UNL d   1      11.778   7.911  -4.159  0.00  0.00     0.142 A 
ATOM     28  C   UNL d   1      11.630   6.681  -4.822  0.00  0.00     0.029 A 
ATOM     29  F   UNL d   1      12.206   7.934  -2.873  0.00  0.00    -0.204 F 
ATOM     30  C   UNL d   1      11.208   6.649  -6.165  0.00  0.00     0.000 A 
ENDBRANCH  22  23
ENDBRANCH  21  22
ENDBRANCH   5  21
TORSDOF 6
