REMARK  0 active torsions:
REMARK  status: ('A' for Active; 'I' for Inactive)
ROOT
ATOM      1  C   UNL d   1       7.632   0.490 -16.771  0.00  0.00     0.154 C 
ATOM      2  N   UNL d   1       6.811   0.653 -15.582  0.00  0.00    -0.249 N 
ATOM      3  N   UNL d   1       5.659  -0.047 -15.517  0.00  0.00    -0.168 NA
ATOM      4  C   UNL d   1       5.087   0.365 -14.404  0.00  0.00     0.117 A 
ATOM      5  C   UNL d   1       5.833   1.367 -13.723  0.00  0.00     0.016 A 
ATOM      6  C   UNL d   1       6.970   1.487 -14.482  0.00  0.00     0.076 A 
ATOM      7  C   UNL d   1       8.105   2.382 -14.302  0.00  0.00     0.031 A 
ATOM      8  C   UNL d   1       9.444   2.087 -14.487  0.00  0.00     0.089 A 
ATOM      9 CL   UNL d   1      10.200   0.569 -14.874  0.00  0.00    -0.075 Cl
ATOM     10  S   UNL d   1      10.497   3.420 -14.123  0.00  0.00    -0.064 SA
ATOM     11  C   UNL d   1       9.129   4.344 -13.585  0.00  0.00     0.084 A 
ATOM     12 CL   UNL d   1       9.406   5.869 -12.809  0.00  0.00    -0.076 Cl
ATOM     13  C   UNL d   1       7.934   3.695 -13.762  0.00  0.00    -0.003 A 
ATOM     14  C   UNL d   1       6.614   4.254 -13.325  0.00  0.00     0.028 C 
ATOM     15  C   UNL d   1       6.031   3.454 -12.150  0.00  0.00     0.009 C 
ATOM     16  C   UNL d   1       5.333   2.127 -12.514  0.00  0.00     0.030 C 
ENDROOT
TORSDOF 0
