REMARK  7 active torsions:
REMARK  status: ('A' for Active; 'I' for Inactive)
REMARK    1  A    between atoms: O_2  and  C_3 
REMARK    2  A    between atoms: C_6  and  O_7 
REMARK    3  A    between atoms: O_7  and  C_8 
REMARK    4  A    between atoms: C_8  and  C_10 
REMARK    5  A    between atoms: C_10  and  N_11 
REMARK       I    between atoms: N_14  and  C_15 
REMARK    6  A    between atoms: C_15  and  C_17 
REMARK    7  A    between atoms: C_20  and  O_21 
ROOT
ATOM      1  N   UNL d   1       9.979   4.144 -13.634  0.00  0.00     0.144 N 
ATOM      2  C   UNL d   1      10.386   2.784 -14.048  0.00  0.00     0.274 C 
ATOM      3  C   UNL d   1      11.097   2.827 -15.416  0.00  0.00     0.140 C 
ATOM      4  N   UNL d   1      10.233   3.454 -16.431  0.00  0.00    -0.312 N 
ATOM      5  C   UNL d   1       9.851   2.896 -17.603  0.00  0.00     0.257 C 
ATOM      6  O   UNL d   1       8.888   3.278 -18.278  0.00  0.00    -0.267 OA
ATOM      7  C   UNL d   1       9.741   4.764 -16.003  0.00  0.00     0.140 C 
ATOM      8  C   UNL d   1       9.049   4.673 -14.630  0.00  0.00     0.274 C 
ENDROOT
BRANCH   1   9
ATOM      9  C   UNL d   1       9.347   4.092 -12.302  0.00  0.00     0.280 C 
BRANCH   9  10
ATOM     10  C   UNL d   1       9.298   5.471 -11.586  0.00  0.00     0.155 C 
ATOM     11  C   UNL d   1       8.219   6.462 -12.104  0.00  0.00     0.035 C 
BRANCH  10  12
ATOM     12  O   UNL d   1       9.087   5.260 -10.184  0.00  0.00    -0.331 OA
BRANCH  12  13
ATOM     13  C   UNL d   1       9.502   6.211  -9.266  0.00  0.00     0.094 A 
ATOM     14  C   UNL d   1       9.056   6.079  -7.934  0.00  0.00     0.026 A 
ATOM     15  C   UNL d   1       9.481   6.975  -6.928  0.00  0.00     0.026 A 
ATOM     16  C   UNL d   1      10.365   8.030  -7.222  0.00  0.00     0.094 A 
ATOM     17  C   UNL d   1      10.798   8.182  -8.560  0.00  0.00     0.026 A 
ATOM     18  C   UNL d   1      10.360   7.298  -9.565  0.00  0.00     0.026 A 
BRANCH  16  19
ATOM     19  O   UNL d   1      10.746   8.853  -6.185  0.00  0.00    -0.328 OA
ATOM     20  C   UNL d   1      11.757   9.818  -6.438  0.00  0.00     0.181 C 
ENDBRANCH  16  19
ENDBRANCH  12  13
ENDBRANCH  10  12
ENDBRANCH   9  10
ENDBRANCH   1   9
BRANCH   5  21
ATOM     21  C   UNL d   1      10.726   1.819 -18.148  0.00  0.00     0.056 A 
ATOM     22  C   UNL d   1      10.224   0.525 -18.383  0.00  0.00     0.007 A 
ATOM     23  C   UNL d   1      11.080  -0.483 -18.883  0.00  0.00     0.024 A 
ATOM     24  C   UNL d   1      12.438  -0.194 -19.164  0.00  0.00     0.094 A 
ATOM     25  C   UNL d   1      12.918   1.112 -18.921  0.00  0.00     0.024 A 
ATOM     26  C   UNL d   1      12.081   2.107 -18.415  0.00  0.00     0.007 A 
BRANCH  24  27
ATOM     27  O   UNL d   1      13.253  -1.194 -19.660  0.00  0.00    -0.328 OA
ATOM     28  C   UNL d   1      14.556  -0.808 -20.075  0.00  0.00     0.181 C 
ENDBRANCH  24  27
ENDBRANCH   5  21
TORSDOF 7
