REMARK  7 active torsions:
REMARK  status: ('A' for Active; 'I' for Inactive)
REMARK    1  A    between atoms: C_3  and  S_4 
REMARK    2  A    between atoms: S_4  and  C_5 
REMARK    3  A    between atoms: C_5  and  C_6 
REMARK    4  A    between atoms: C_6  and  C_7 
REMARK    5  A    between atoms: C_7  and  N_8 
REMARK    6  A    between atoms: N_13  and  C_14 
REMARK    7  A    between atoms: C_25  and  C_26 
ROOT
ATOM      1  C   UNL d   1       6.793   3.976 -13.104  0.00  0.00     0.047 C 
ENDROOT
BRANCH   1   2
ATOM      2  C   UNL d   1       6.984   4.901 -11.897  0.00  0.00     0.067 C 
BRANCH   2   3
ATOM      3  S   UNL d   1       8.470   5.926 -12.129  0.00  0.00    -0.075 SA
BRANCH   3   4
ATOM      4  C   UNL d   1       9.078   6.018 -10.472  0.00  0.00     0.193 A 
ATOM      5  N   UNL d   1       9.656   7.131  -9.971  0.00  0.00    -0.289 N 
ATOM      6  C   UNL d   1       9.896   8.379 -10.680  0.00  0.00     0.134 C 
ATOM      7  C   UNL d   1       9.891   6.767  -8.682  0.00  0.00     0.167 A 
ATOM      8  N   UNL d   1       9.551   5.497  -8.436  0.00  0.00    -0.128 NA
ATOM      9  N   UNL d   1       9.035   5.005  -9.608  0.00  0.00    -0.122 NA
BRANCH   7  10
ATOM     10  C   UNL d   1      10.466   7.593  -7.584  0.00  0.00     0.042 A 
ATOM     11  C   UNL d   1      10.710   7.038  -6.364  0.00  0.00     0.066 A 
ATOM     12  C   UNL d   1      11.309   7.768  -5.240  0.00  0.00     0.279 A 
ATOM     13  N   UNL d   1      11.621   9.053  -5.504  0.00  0.00    -0.206 NA
ATOM     14  O   UNL d   1      11.531   7.272  -4.139  0.00  0.00    -0.265 OA
ATOM     15  C   UNL d   1      11.363   9.676  -6.722  0.00  0.00     0.102 A 
ATOM     16  C   UNL d   1      10.798   9.003  -7.744  0.00  0.00     0.024 A 
ENDBRANCH   7  10
ENDBRANCH   3   4
ENDBRANCH   2   3
ENDBRANCH   1   2
BRANCH   1  17
ATOM     17  C   UNL d   1       5.854   2.789 -12.801  0.00  0.00     0.251 C 
BRANCH  17  18
ATOM     18  N   UNL d   1       5.876   1.747 -13.833  0.00  0.00     0.138 N 
ATOM     19  C   UNL d   1       7.182   1.499 -14.435  0.00  0.00     0.266 C 
ATOM     20  C   UNL d   1       7.061   0.121 -15.092  0.00  0.00     0.097 C 
ATOM     21  C   UNL d   1       5.862  -0.541 -14.428  0.00  0.00     0.052 C 
ATOM     22  N   UNL d   1       6.797   0.195 -16.529  0.00  0.00    -0.252 NA
ATOM     23  C   UNL d   1       5.417   0.450 -13.350  0.00  0.00     0.252 C 
ATOM     24  C   UNL d   1       4.864  -0.772 -15.564  0.00  0.00     0.021 C 
ATOM     25  C   UNL d   1       5.743  -0.764 -16.814  0.00  0.00     0.077 C 
BRANCH  22  26
ATOM     26  C   UNL d   1       7.903   0.230 -17.406  0.00  0.00     0.037 A 
ATOM     27  C   UNL d   1       7.737  -0.138 -18.765  0.00  0.00     0.013 A 
ATOM     28  C   UNL d   1       8.841  -0.158 -19.643  0.00  0.00     0.031 A 
ATOM     29  C   UNL d   1      10.119   0.200 -19.184  0.00  0.00     0.140 A 
ATOM     30  C   UNL d   1      10.294   0.591 -17.843  0.00  0.00     0.031 A 
ATOM     31  F   UNL d   1      11.178   0.169 -20.026  0.00  0.00    -0.204 F 
ATOM     32  C   UNL d   1       9.193   0.614 -16.964  0.00  0.00     0.013 A 
ENDBRANCH  22  26
ENDBRANCH  17  18
ENDBRANCH   1  17
TORSDOF 7
