REMARK  6 active torsions:
REMARK  status: ('A' for Active; 'I' for Inactive)
REMARK       I    between atoms: C_2  and  N_3 
REMARK    1  A    between atoms: C_2  and  C_27 
REMARK    2  A    between atoms: N_3  and  C_4 
REMARK    3  A    between atoms: C_7  and  C_8 
REMARK    4  A    between atoms: C_8  and  C_9 
REMARK    5  A    between atoms: C_9  and  N_10 
REMARK    6  A    between atoms: N_13  and  C_14 
ROOT
ATOM      1  C   UNL d   1       8.542   5.803 -11.876  0.00  0.00     0.107 C 
ATOM      2  C   UNL d   1       9.119   4.407 -12.143  0.00  0.00     0.024 C 
ATOM      3  C   UNL d   1       8.345   3.672 -13.224  0.00  0.00     0.002 C 
ATOM      4  C   UNL d   1       6.835   3.603 -12.885  0.00  0.00     0.002 C 
ATOM      5  C   UNL d   1       6.250   4.995 -12.666  0.00  0.00     0.002 C 
ATOM      6  C   UNL d   1       7.033   5.774 -11.612  0.00  0.00     0.024 C 
ENDROOT
BRANCH   4   7
ATOM      7  C   UNL d   1       6.111   2.855 -14.005  0.00  0.00     0.035 C 
BRANCH   7   8
ATOM      8  C   UNL d   1       6.175   1.330 -13.856  0.00  0.00     0.250 C 
BRANCH   8   9
ATOM      9  N   UNL d   1       5.463   0.679 -14.944  0.00  0.00     0.141 N 
ATOM     10  C   UNL d   1       6.294   0.662 -16.153  0.00  0.00     0.274 C 
ATOM     11  C   UNL d   1       5.537   0.043 -17.325  0.00  0.00     0.138 C 
ATOM     12  N   UNL d   1       5.059  -1.301 -16.985  0.00  0.00    -0.330 N 
ATOM     13  C   UNL d   1       4.315  -1.375 -15.716  0.00  0.00     0.138 C 
ATOM     14  C   UNL d   1       5.121  -0.703 -14.588  0.00  0.00     0.274 C 
BRANCH  12  15
ATOM     15  C   UNL d   1       5.325  -2.418 -17.755  0.00  0.00     0.138 A 
ATOM     16  C   UNL d   1       5.461  -2.390 -19.180  0.00  0.00     0.036 A 
ATOM     17  C   UNL d   1       5.686  -3.544 -19.893  0.00  0.00     0.095 A 
ATOM     18  C   UNL d   1       5.326  -1.245 -20.137  0.00  0.00     0.064 A 
ATOM     19  C   UNL d   1       5.823  -4.776 -19.232  0.00  0.00     0.045 A 
ATOM     20  O   UNL d   1       5.743  -3.345 -21.243  0.00  0.00    -0.331 OA
ATOM     21  C   UNL d   1       5.692  -4.746 -17.825  0.00  0.00     0.103 A 
ATOM     22  N   UNL d   1       5.469  -3.619 -17.120  0.00  0.00    -0.228 NA
ATOM     23  C   UNL d   1       5.516  -1.950 -21.490  0.00  0.00     0.154 A 
ENDBRANCH  12  15
ENDBRANCH   8   9
ENDBRANCH   7   8
ENDBRANCH   4   7
BRANCH   1  24
ATOM     24  N   UNL d   1       9.230   6.459 -10.763  0.00  0.00    -0.236 NA
ATOM     25  C   UNL d   1       9.462   5.997  -9.521  0.00  0.00     0.276 C 
ATOM     26  O   UNL d   1       9.283   4.830  -9.163  0.00  0.00    -0.266 OA
BRANCH  25  27
ATOM     27  C   UNL d   1       9.851   7.042  -8.505  0.00  0.00     0.068 A 
ATOM     28  C   UNL d   1      10.558   8.251  -8.787  0.00  0.00     0.063 A 
ATOM     29  C   UNL d   1      10.921   9.119  -7.744  0.00  0.00     0.023 A 
ATOM     30 CL   UNL d   1      11.044   8.780 -10.363  0.00  0.00    -0.082 Cl
ATOM     31  C   UNL d   1      10.601   8.817  -6.414  0.00  0.00     0.059 A 
ATOM     32  C   UNL d   1       9.903   7.633  -6.123  0.00  0.00     0.012 A 
ATOM     33 CL   UNL d   1      11.068   9.895  -5.156  0.00  0.00    -0.082 Cl
ATOM     34  C   UNL d   1       9.519   6.777  -7.161  0.00  0.00     0.006 A 
ENDBRANCH  25  27
ENDBRANCH   1  24
TORSDOF 6
