REMARK  6 active torsions:
REMARK  status: ('A' for Active; 'I' for Inactive)
REMARK    1  A    between atoms: C_2  and  C_3 
REMARK    2  A    between atoms: C_2  and  C_20 
REMARK    3  A    between atoms: C_3  and  C_4 
REMARK    4  A    between atoms: C_4  and  C_5 
REMARK    5  A    between atoms: C_5  and  N_6 
REMARK    6  A    between atoms: C_9  and  C_11 
ROOT
ATOM      1  N   UNL d   1      10.185   6.818  -9.173  0.00  0.00     0.137 N 
ATOM      2  C   UNL d   1       9.123   7.370  -8.325  0.00  0.00     0.253 C 
ATOM      3  C   UNL d   1       9.552   7.412  -6.866  0.00  0.00     0.070 C 
ATOM      4  C   UNL d   1      10.818   8.254  -6.663  0.00  0.00     0.149 C 
ATOM      5  O   UNL d   1      10.472   9.572  -7.060  0.00  0.00    -0.221 OA
ATOM      6  C   UNL d   1      11.893   7.786  -7.661  0.00  0.00     0.070 C 
ATOM      7  C   UNL d   1      11.357   7.702  -9.107  0.00  0.00     0.253 C 
ENDROOT
BRANCH   1   8
ATOM      8  C   UNL d   1       9.726   6.749 -10.551  0.00  0.00     0.251 C 
BRANCH   8   9
ATOM      9  C   UNL d   1       8.623   5.696 -10.796  0.00  0.00     0.043 C 
BRANCH   9  10
ATOM     10  C   UNL d   1       7.827   6.018 -12.075  0.00  0.00     0.071 C 
BRANCH  10  11
ATOM     11  C   UNL d   1       7.080   4.802 -12.621  0.00  0.00     0.173 C 
ATOM     12  O   UNL d   1       5.863   4.710 -12.444  0.00  0.00    -0.291 OA
BRANCH  11  13
ATOM     13  C   UNL d   1       7.880   3.809 -13.394  0.00  0.00     0.035 A 
ATOM     14  C   UNL d   1       9.298   3.848 -13.425  0.00  0.00     0.004 A 
ATOM     15  C   UNL d   1      10.028   2.864 -14.115  0.00  0.00     0.011 A 
ATOM     16  C   UNL d   1       9.355   1.828 -14.786  0.00  0.00     0.058 A 
ATOM     17  C   UNL d   1       7.946   1.778 -14.763  0.00  0.00     0.011 A 
ATOM     18 CL   UNL d   1      10.257   0.613 -15.617  0.00  0.00    -0.082 Cl
ATOM     19  C   UNL d   1       7.214   2.756 -14.058  0.00  0.00     0.004 A 
ENDBRANCH  11  13
ENDBRANCH  10  11
ENDBRANCH   9  10
ENDBRANCH   8   9
ENDBRANCH   1   8
BRANCH   4  20
ATOM     20  C   UNL d   1      11.323   8.203  -5.213  0.00  0.00     0.005 A 
ATOM     21  C   UNL d   1      11.489   6.960  -4.552  0.00  0.00     0.000 A 
ATOM     22  C   UNL d   1      11.941   6.917  -3.220  0.00  0.00     0.029 A 
ATOM     23  C   UNL d   1      12.229   8.114  -2.533  0.00  0.00     0.140 A 
ATOM     24  C   UNL d   1      12.058   9.343  -3.185  0.00  0.00     0.029 A 
ATOM     25  F   UNL d   1      12.662   8.082  -1.254  0.00  0.00    -0.204 F 
ATOM     26  C   UNL d   1      11.615   9.393  -4.513  0.00  0.00     0.000 A 
ENDBRANCH   4  20
TORSDOF 6
