REMARK  8 active torsions:
REMARK  status: ('A' for Active; 'I' for Inactive)
REMARK    1  A    between atoms: C_2  and  C_3 
REMARK       I    between atoms: C_2  and  N_21 
REMARK    2  A    between atoms: C_3  and  C_4 
REMARK    3  A    between atoms: C_4  and  C_5 
REMARK    4  A    between atoms: C_5  and  C_6 
REMARK    5  A    between atoms: C_6  and  C_7 
REMARK    6  A    between atoms: C_7  and  N_8 
REMARK    7  A    between atoms: N_11  and  C_12 
REMARK    8  A    between atoms: N_21  and  C_22 
ROOT
ATOM      1  C   UNL d   1       6.947   3.915 -12.887  0.00  0.00     0.003 C 
ENDROOT
BRANCH   1   2
ATOM      2  C   UNL d   1       7.306   3.450 -14.294  0.00  0.00     0.010 C 
BRANCH   2   3
ATOM      3  C   UNL d   1       8.110   2.138 -14.353  0.00  0.00     0.090 C 
BRANCH   3   4
ATOM      4  C   UNL d   1       8.556   1.790 -15.766  0.00  0.00     0.252 C 
ATOM      5  O   UNL d   1       8.680   2.669 -16.615  0.00  0.00    -0.271 OA
ATOM      6  N   UNL d   1       8.767   0.486 -16.013  0.00  0.00    -0.235 NA
BRANCH   6   7
ATOM      7  C   UNL d   1       9.018  -0.075 -17.342  0.00  0.00     0.128 C 
ATOM      8  C   UNL d   1       7.869   0.193 -18.323  0.00  0.00    -0.004 A 
ATOM      9  C   UNL d   1       8.115   0.533 -19.675  0.00  0.00    -0.024 A 
ATOM     10  C   UNL d   1       6.526   0.107 -17.867  0.00  0.00    -0.003 A 
ATOM     11  C   UNL d   1       9.536   0.646 -20.217  0.00  0.00     0.026 C 
ATOM     12  C   UNL d   1       7.031   0.813 -20.535  0.00  0.00    -0.004 A 
ATOM     13  C   UNL d   1      10.595  -0.036 -19.337  0.00  0.00     0.007 C 
ATOM     14  C   UNL d   1      10.414   0.333 -17.868  0.00  0.00     0.029 C 
ATOM     15  C   UNL d   1       5.703   0.749 -20.066  0.00  0.00    -0.000 A 
ATOM     16  C   UNL d   1       5.455   0.390 -18.728  0.00  0.00    -0.000 A 
ENDBRANCH   6   7
ENDBRANCH   3   4
ENDBRANCH   2   3
ENDBRANCH   1   2
BRANCH   1  17
ATOM     17  C   UNL d   1       8.188   4.397 -12.126  0.00  0.00     0.035 C 
BRANCH  17  18
ATOM     18  C   UNL d   1       7.856   4.886 -10.720  0.00  0.00     0.250 C 
BRANCH  18  19
ATOM     19  N   UNL d   1       9.089   5.229 -10.030  0.00  0.00     0.141 N 
ATOM     20  C   UNL d   1       8.861   5.175  -8.584  0.00  0.00     0.274 C 
ATOM     21  C   UNL d   1      10.146   5.568  -7.847  0.00  0.00     0.138 C 
ATOM     22  N   UNL d   1      10.632   6.861  -8.227  0.00  0.00    -0.329 N 
ATOM     23  C   UNL d   1      10.759   7.053  -9.669  0.00  0.00     0.138 C 
ATOM     24  C   UNL d   1       9.460   6.613 -10.368  0.00  0.00     0.274 C 
BRANCH  22  25
ATOM     25  C   UNL d   1      10.966   7.827  -7.235  0.00  0.00     0.149 A 
ATOM     26  N   UNL d   1      11.465   7.458  -5.991  0.00  0.00    -0.168 N 
ATOM     27  C   UNL d   1      11.699   8.413  -5.027  0.00  0.00     0.110 A 
ATOM     28  O   UNL d   1      11.840   6.262  -5.708  0.00  0.00    -0.078 OA
ATOM     29  C   UNL d   1      11.505   9.769  -5.299  0.00  0.00     0.021 A 
ATOM     30  C   UNL d   1      11.076  10.155  -6.563  0.00  0.00     0.005 A 
ATOM     31  C   UNL d   1      10.768   9.181  -7.524  0.00  0.00     0.037 A 
ENDBRANCH  22  25
ENDBRANCH  18  19
ENDBRANCH  17  18
ENDBRANCH   1  17
TORSDOF 8
