REMARK  6 active torsions:
REMARK  status: ('A' for Active; 'I' for Inactive)
REMARK    1  A    between atoms: O_2  and  C_3 
REMARK    2  A    between atoms: C_6  and  O_7 
REMARK    3  A    between atoms: O_7  and  C_8 
REMARK    4  A    between atoms: C_8  and  C_9 
REMARK    5  A    between atoms: C_9  and  N_10 
REMARK       I    between atoms: N_13  and  C_14 
REMARK    6  A    between atoms: C_14  and  C_16 
ROOT
ATOM      1  N   UNL d   1       8.694   5.960 -10.367  0.00  0.00     0.144 N 
ATOM      2  C   UNL d   1       9.730   6.814 -10.947  0.00  0.00     0.274 C 
ATOM      3  C   UNL d   1       9.958   8.075 -10.102  0.00  0.00     0.140 C 
ATOM      4  N   UNL d   1      10.255   7.710  -8.701  0.00  0.00    -0.312 N 
ATOM      5  C   UNL d   1      11.355   8.210  -8.077  0.00  0.00     0.257 C 
ATOM      6  O   UNL d   1      12.259   8.771  -8.674  0.00  0.00    -0.267 OA
ATOM      7  C   UNL d   1       9.222   6.848  -8.114  0.00  0.00     0.140 C 
ATOM      8  C   UNL d   1       9.075   5.589  -9.001  0.00  0.00     0.274 C 
ENDROOT
BRANCH   1   9
ATOM      9  C   UNL d   1       8.493   4.766 -11.181  0.00  0.00     0.283 C 
BRANCH   9  10
ATOM     10  C   UNL d   1       7.675   5.087 -12.452  0.00  0.00     0.184 C 
BRANCH  10  11
ATOM     11  O   UNL d   1       7.523   3.898 -13.223  0.00  0.00    -0.329 OA
BRANCH  11  12
ATOM     12  C   UNL d   1       8.572   3.480 -14.018  0.00  0.00     0.094 A 
ATOM     13  C   UNL d   1       8.490   2.177 -14.553  0.00  0.00     0.026 A 
ATOM     14  C   UNL d   1       9.498   1.683 -15.405  0.00  0.00     0.026 A 
ATOM     15  C   UNL d   1      10.606   2.482 -15.748  0.00  0.00     0.094 A 
ATOM     16  C   UNL d   1      10.695   3.787 -15.202  0.00  0.00     0.026 A 
ATOM     17  C   UNL d   1       9.697   4.278 -14.341  0.00  0.00     0.026 A 
BRANCH  15  18
ATOM     18  O   UNL d   1      11.543   1.937 -16.600  0.00  0.00    -0.328 OA
ATOM     19  C   UNL d   1      12.599   2.778 -17.043  0.00  0.00     0.181 C 
ENDBRANCH  15  18
ENDBRANCH  11  12
ENDBRANCH  10  11
ENDBRANCH   9  10
ENDBRANCH   1   9
BRANCH   5  20
ATOM     20  C   UNL d   1      11.452   8.120  -6.576  0.00  0.00     0.056 A 
ATOM     21  C   UNL d   1      11.435   6.869  -5.928  0.00  0.00     0.005 A 
ATOM     22  C   UNL d   1      11.514   6.790  -4.527  0.00  0.00     0.000 A 
ATOM     23  C   UNL d   1      11.696   7.955  -3.761  0.00  0.00     0.000 A 
ATOM     24  C   UNL d   1      11.767   9.209  -4.402  0.00  0.00     0.000 A 
ATOM     25  C   UNL d   1      11.655   9.290  -5.805  0.00  0.00     0.005 A 
ENDBRANCH   5  20
TORSDOF 6
