REMARK  0 active torsions:
REMARK  status: ('A' for Active; 'I' for Inactive)
ROOT
ATOM      1  C   UNL d   1      12.258   7.152  -2.597  0.00  0.00     0.035 A 
ATOM      2  C   UNL d   1      11.513   6.627  -3.612  0.00  0.00     0.005 A 
ATOM      3  C   UNL d   1      11.240   7.532  -4.669  0.00  0.00     0.009 A 
ATOM      4  C   UNL d   1      11.772   8.761  -4.413  0.00  0.00     0.006 A 
ATOM      5  S   UNL d   1      12.591   8.828  -2.876  0.00  0.00    -0.091 SA
ATOM      6  C   UNL d   1      11.646   9.925  -5.327  0.00  0.00     0.035 C 
ATOM      7  C   UNL d   1      11.105   9.512  -6.700  0.00  0.00     0.044 C 
ATOM      8  C   UNL d   1       9.939   8.518  -6.580  0.00  0.00     0.288 C 
ATOM      9  N   UNL d   1       9.295   8.253  -7.862  0.00  0.00     0.343 N 
ATOM     10  C   UNL d   1      10.069   7.375  -8.722  0.00  0.00     0.322 C 
ATOM     11  C   UNL d   1      10.395   6.100  -7.943  0.00  0.00     0.181 C 
ATOM     12  O   UNL d   1      11.158   6.431  -6.794  0.00  0.00    -0.348 OA
ATOM     13  C   UNL d   1      10.409   7.213  -5.877  0.00  0.00     0.172 C 
ENDROOT
TORSDOF 0
