REMARK  0 active torsions:
REMARK  status: ('A' for Active; 'I' for Inactive)
ROOT
ATOM      1  C   UNL d   1       5.457   1.473 -22.321  0.00  0.00     0.078 C 
ATOM      2  C   UNL d   1       5.924   0.449 -21.843  0.00  0.00    -0.125 C 
ATOM      3  C   UNL d   1       6.500  -0.792 -21.278  0.00  0.00     0.169 C 
ATOM      4  O   UNL d   1       7.186  -1.478 -22.309  0.00  0.00    -0.214 OA
ATOM      5  C   UNL d   1       5.369  -1.700 -20.721  0.00  0.00     0.042 C 
ATOM      6  C   UNL d   1       5.302  -1.462 -19.197  0.00  0.00     0.004 C 
ATOM      7  C   UNL d   1       6.343  -0.370 -18.925  0.00  0.00     0.003 C 
ATOM      8  C   UNL d   1       6.923  -0.218 -17.502  0.00  0.00     0.001 C 
ATOM      9  C   UNL d   1       5.809  -0.044 -16.459  0.00  0.00     0.004 C 
ATOM     10  C   UNL d   1       6.381   0.141 -15.054  0.00  0.00     0.022 C 
ATOM     11  C   UNL d   1       7.349   1.310 -15.011  0.00  0.00    -0.043 C 
ATOM     12  C   UNL d   1       7.186   2.305 -14.118  0.00  0.00     0.018 C 
ATOM     13  C   UNL d   1       8.069   3.405 -14.039  0.00  0.00     0.122 A 
ATOM     14  O   UNL d   1       8.050   4.360 -13.086  0.00  0.00    -0.211 OA
ATOM     15  N   UNL d   1       9.117   5.222 -13.385  0.00  0.00    -0.125 NA
ATOM     16  C   UNL d   1       9.697   4.746 -14.481  0.00  0.00     0.126 A 
ATOM     17  C   UNL d   1       9.066   3.558 -14.936  0.00  0.00     0.024 A 
ATOM     18  C   UNL d   1       9.319   2.647 -16.102  0.00  0.00     0.034 C 
ATOM     19  C   UNL d   1       8.503   1.293 -16.053  0.00  0.00     0.019 C 
ATOM     20  C   UNL d   1       9.497   0.185 -15.626  0.00  0.00     0.004 C 
ATOM     21  C   UNL d   1       7.901   0.999 -17.474  0.00  0.00     0.004 C 
ATOM     22  C   UNL d   1       8.964   0.893 -18.610  0.00  0.00     0.000 C 
ATOM     23  C   UNL d   1       8.340   0.658 -20.004  0.00  0.00     0.003 C 
ATOM     24  C   UNL d   1       7.408  -0.582 -20.018  0.00  0.00     0.036 C 
ATOM     25  C   UNL d   1       8.268  -1.862 -19.770  0.00  0.00     0.003 C 
ENDROOT
TORSDOF 0
