REMARK  7 active torsions:
REMARK  status: ('A' for Active; 'I' for Inactive)
REMARK    1  A    between atoms: C_2  and  C_3 
REMARK       I    between atoms: C_2  and  N_10 
REMARK    2  A    between atoms: C_3  and  C_4 
REMARK    3  A    between atoms: N_10  and  C_11 
REMARK    4  A    between atoms: C_14  and  C_15 
REMARK    5  A    between atoms: C_15  and  C_16 
REMARK    6  A    between atoms: C_16  and  N_17 
REMARK    7  A    between atoms: N_20  and  C_21 
ROOT
ATOM      1  C   UNL d   1       8.333   5.708 -12.030  0.00  0.00     0.035 C 
ENDROOT
BRANCH   1   2
ATOM      2  C   UNL d   1       8.266   4.659 -13.150  0.00  0.00     0.002 C 
ATOM      3  C   UNL d   1       9.613   3.900 -13.353  0.00  0.00     0.002 C 
ATOM      4  C   UNL d   1       9.549   2.872 -14.476  0.00  0.00     0.024 C 
ATOM      5  C   UNL d   1       8.384   1.884 -14.256  0.00  0.00     0.106 C 
ATOM      6  C   UNL d   1       7.027   2.610 -14.014  0.00  0.00     0.024 C 
ATOM      7  C   UNL d   1       7.081   3.699 -12.929  0.00  0.00     0.002 C 
BRANCH   5   8
ATOM      8  N   UNL d   1       8.270   0.907 -15.328  0.00  0.00    -0.240 NA
ATOM      9  C   UNL d   1       7.976   1.212 -16.596  0.00  0.00     0.254 C 
ATOM     10  O   UNL d   1       7.850   2.360 -17.011  0.00  0.00    -0.271 OA
BRANCH   9  11
ATOM     11  C   UNL d   1       7.731   0.051 -17.552  0.00  0.00     0.119 C 
BRANCH  11  12
ATOM     12  C   UNL d   1       8.658   0.063 -18.781  0.00  0.00     0.125 C 
ATOM     13  O   UNL d   1       8.535   1.311 -19.466  0.00  0.00    -0.356 OA
ATOM     14  C   UNL d   1       9.308   1.408 -20.657  0.00  0.00     0.142 C 
ATOM     15  C   UNL d   1      10.801   1.188 -20.358  0.00  0.00     0.032 C 
ATOM     16  C   UNL d   1      11.026  -0.150 -19.643  0.00  0.00     0.005 C 
ATOM     17  C   UNL d   1      10.130  -0.230 -18.406  0.00  0.00     0.030 C 
ENDBRANCH  11  12
ENDBRANCH   9  11
ENDBRANCH   5   8
ENDBRANCH   1   2
BRANCH   1  18
ATOM     18  C   UNL d   1       9.155   5.211 -10.837  0.00  0.00     0.250 C 
BRANCH  18  19
ATOM     19  N   UNL d   1       9.008   6.041  -9.669  0.00  0.00     0.141 N 
ATOM     20  C   UNL d   1       9.712   5.411  -8.570  0.00  0.00     0.274 C 
ATOM     21  C   UNL d   1       9.468   6.211  -7.312  0.00  0.00     0.137 C 
ATOM     22  N   UNL d   1       9.933   7.593  -7.465  0.00  0.00    -0.343 N 
ATOM     23  C   UNL d   1       9.321   8.240  -8.626  0.00  0.00     0.137 C 
ATOM     24  C   UNL d   1       9.559   7.383  -9.877  0.00  0.00     0.274 C 
BRANCH  22  25
ATOM     25  C   UNL d   1      10.783   8.243  -6.550  0.00  0.00     0.081 A 
ATOM     26  C   UNL d   1      11.121   7.739  -5.280  0.00  0.00     0.135 A 
ATOM     27  C   UNL d   1      12.013   8.387  -4.424  0.00  0.00     0.121 A 
ATOM     28  O   UNL d   1      10.733   6.599  -4.656  0.00  0.00    -0.298 OA
ATOM     29  C   UNL d   1      12.632   9.581  -4.786  0.00  0.00     0.026 A 
ATOM     30  O   UNL d   1      12.194   7.663  -3.292  0.00  0.00    -0.299 OA
ATOM     31  C   UNL d   1      12.252  10.161  -6.011  0.00  0.00     0.004 A 
ATOM     32  C   UNL d   1      11.382   9.481  -6.897  0.00  0.00     0.019 A 
ATOM     33  C   UNL d   1      11.431   6.518  -3.437  0.00  0.00     0.304 A 
ENDBRANCH  22  25
ENDBRANCH  18  19
ENDBRANCH   1  18
TORSDOF 7
