REMARK  8 active torsions:
REMARK  status: ('A' for Active; 'I' for Inactive)
REMARK    1  A    between atoms: C_6  and  S_7 
REMARK    2  A    between atoms: S_7  and  N_10 
REMARK    3  A    between atoms: N_10  and  C_11 
REMARK    4  A    between atoms: C_11  and  C_12 
REMARK    5  A    between atoms: C_12  and  C_13 
REMARK    6  A    between atoms: C_13  and  C_14 
REMARK    7  A    between atoms: C_14  and  N_15 
REMARK    8  A    between atoms: N_18  and  C_19 
ROOT
ATOM      1  N   UNL d   1       9.969   4.311 -13.740  0.00  0.00     0.141 N 
ATOM      2  C   UNL d   1       9.130   3.113 -13.834  0.00  0.00     0.274 C 
ATOM      3  C   UNL d   1       9.801   2.034 -14.697  0.00  0.00     0.138 C 
ATOM      4  N   UNL d   1      10.089   2.573 -16.017  0.00  0.00    -0.329 N 
ATOM      5  C   UNL d   1      10.857   3.806 -15.998  0.00  0.00     0.138 C 
ATOM      6  C   UNL d   1      10.161   4.844 -15.095  0.00  0.00     0.274 C 
ENDROOT
BRANCH   1   7
ATOM      7  C   UNL d   1       9.322   5.308 -12.894  0.00  0.00     0.251 C 
BRANCH   7   8
ATOM      8  C   UNL d   1       9.303   4.866 -11.420  0.00  0.00     0.037 C 
BRANCH   8   9
ATOM      9  C   UNL d   1       9.112   6.050 -10.481  0.00  0.00     0.029 C 
BRANCH   9  10
ATOM     10  C   UNL d   1       9.164   5.651  -8.986  0.00  0.00     0.139 C 
BRANCH  10  11
ATOM     11  N   UNL d   1       9.091   6.818  -8.112  0.00  0.00    -0.185 NA
BRANCH  11  12
ATOM     12  S   UNL d   1      10.278   8.052  -8.274  0.00  0.00     0.281 S 
ATOM     13  O   UNL d   1       9.604   9.193  -8.895  0.00  0.00    -0.199 OA
ATOM     14  O   UNL d   1      11.473   7.473  -8.891  0.00  0.00    -0.199 OA
BRANCH  12  15
ATOM     15  C   UNL d   1      10.716   8.438  -6.594  0.00  0.00     0.105 A 
ATOM     16  C   UNL d   1      10.722   9.772  -6.163  0.00  0.00     0.013 A 
ATOM     17  C   UNL d   1      11.060  10.080  -4.836  0.00  0.00     0.000 A 
ATOM     18  C   UNL d   1      11.466   9.059  -3.956  0.00  0.00    -0.004 A 
ATOM     19  C   UNL d   1      11.476   7.717  -4.397  0.00  0.00    -0.021 A 
ATOM     20  C   UNL d   1      11.871   6.611  -3.443  0.00  0.00     0.031 C 
ATOM     21  C   UNL d   1      11.094   7.405  -5.720  0.00  0.00     0.009 A 
ENDBRANCH  12  15
ENDBRANCH  11  12
ENDBRANCH  10  11
ENDBRANCH   9  10
ENDBRANCH   8   9
ENDBRANCH   7   8
ENDBRANCH   1   7
BRANCH   4  22
ATOM     22  C   UNL d   1       9.668   1.958 -17.220  0.00  0.00     0.148 A 
ATOM     23  C   UNL d   1       8.338   1.393 -17.396  0.00  0.00     0.042 A 
ATOM     24  C   UNL d   1       8.216   0.884 -18.726  0.00  0.00     0.050 A 
ATOM     25  C   UNL d   1       7.190   1.287 -16.569  0.00  0.00     0.004 A 
ATOM     26  S   UNL d   1       9.741   1.153 -19.542  0.00  0.00     0.015 SA
ATOM     27  C   UNL d   1       7.026   0.299 -19.199  0.00  0.00     0.008 A 
ATOM     28  N   UNL d   1      10.483   1.925 -18.256  0.00  0.00    -0.192 NA
ATOM     29  C   UNL d   1       5.914   0.201 -18.342  0.00  0.00     0.001 A 
ATOM     30  C   UNL d   1       6.005   0.685 -17.026  0.00  0.00     0.000 A 
ENDBRANCH   4  22
TORSDOF 8
