REMARK  1 active torsions:
REMARK  status: ('A' for Active; 'I' for Inactive)
REMARK    1  A    between atoms: N_2  and  C_4 
ROOT
ATOM      1  C   UNL d   1       7.008   1.910 -14.856  0.00  0.00     0.246 C 
ATOM      2  C   UNL d   1       6.334   2.715 -13.713  0.00  0.00     0.063 C 
ATOM      3  C   UNL d   1       7.110   3.948 -13.259  0.00  0.00    -0.003 A 
ATOM      4  C   UNL d   1       6.619   5.040 -12.528  0.00  0.00    -0.003 A 
ATOM      5  C   UNL d   1       7.513   6.062 -12.174  0.00  0.00     0.001 A 
ATOM      6  C   UNL d   1       8.884   5.975 -12.512  0.00  0.00     0.021 A 
ATOM      7  C   UNL d   1       9.394   4.887 -13.221  0.00  0.00     0.099 A 
ATOM      8  N   UNL d   1      10.673   4.611 -13.638  0.00  0.00    -0.224 NA
ATOM      9  C   UNL d   1      10.460   3.420 -14.237  0.00  0.00     0.179 A 
ATOM     10  N   UNL d   1       9.181   2.985 -14.222  0.00  0.00    -0.308 N 
ATOM     11  C   UNL d   1       8.486   3.912 -13.574  0.00  0.00     0.075 A 
ATOM     12  C   UNL d   1       8.540   1.765 -14.667  0.00  0.00     0.141 C 
ENDROOT
BRANCH   1  13
ATOM     13  N   UNL d   1       6.325   0.636 -15.135  0.00  0.00     0.141 N 
ATOM     14  C   UNL d   1       6.817  -0.003 -16.354  0.00  0.00     0.285 C 
ATOM     15  C   UNL d   1       6.354  -0.334 -14.044  0.00  0.00     0.285 C 
ENDBRANCH   1  13
TORSDOF 1
