REMARK  10 active torsions:
REMARK  status: ('A' for Active; 'I' for Inactive)
REMARK    1  A    between atoms: C_11  and  C_12 
REMARK    2  A    between atoms: C_12  and  N_13 
REMARK    3  A    between atoms: N_13  and  C_14 
REMARK    4  A    between atoms: C_17  and  C_18 
REMARK       I    between atoms: C_18  and  N_20 
REMARK    5  A    between atoms: N_20  and  CA_21 
REMARK    6  A    between atoms: CA_21  and  CB_22 
REMARK    7  A    between atoms: CA_21  and  C_27 
REMARK    8  A    between atoms: CB_22  and  CG_23 
REMARK    9  A    between atoms: CG_23  and  CD_24 
REMARK   10  A    between atoms: N_32  and  C_33 
ROOT
ATOM      1  C   UNK d   0       7.469   4.035 -13.403  0.00  0.00     0.076 A 
ATOM      2  C   UNK d   0       8.880   4.072 -13.320  0.00  0.00     0.019 A 
ATOM      3  C   UNK d   0       9.522   5.127 -12.643  0.00  0.00     0.006 A 
ATOM      4  C   UNK d   0       8.760   6.165 -12.056  0.00  0.00     0.058 A 
ATOM      5  C   UNK d   0       7.354   6.132 -12.170  0.00  0.00     0.006 A 
ATOM      6  C   UNK d   0       6.710   5.064 -12.825  0.00  0.00     0.019 A 
ENDROOT
BRANCH   1   7
ATOM      7  N   UNK d   0       6.792   2.989 -14.039  0.00  0.00    -0.269 NA
BRANCH   7   8
ATOM      8  C   UNK d   0       7.387   2.331 -15.197  0.00  0.00     0.150 C 
BRANCH   8   9
ATOM      9  C   UNK d   0       7.841   0.903 -14.850  0.00  0.00     0.137 C 
ATOM     10  C   UNK d   0       9.157   0.510 -15.559  0.00  0.00     0.152 C 
ATOM     11  N   UNK d   0       8.999   0.264 -16.987  0.00  0.00    -0.249 NA
ATOM     12  C   UNK d   0       7.774  -0.198 -17.468  0.00  0.00     0.196 A 
ATOM     13  C   UNK d   0       6.641  -0.330 -16.637  0.00  0.00     0.144 A 
ATOM     14  N   UNK d   0       7.741  -0.487 -18.786  0.00  0.00    -0.037 NA
ATOM     15  C   UNK d   0       5.448  -0.753 -17.288  0.00  0.00     0.249 A 
ATOM     16  N   UNK d   0       6.777  -0.034 -15.234  0.00  0.00    -0.284 N 
ATOM     17  N   UNK d   0       5.437  -1.038 -18.608  0.00  0.00    -0.029 NA
ATOM     18  O   UNK d   0       4.253  -0.849 -16.654  0.00  0.00    -0.167 OA
ATOM     19  C   UNK d   0       6.572  -0.899 -19.269  0.00  0.00     0.772 A 
ATOM     20  N   UNK d   0       6.530  -1.177 -20.607  0.00  0.00     0.062 N 
BRANCH  16  21
ATOM     21  C   UNK d   0       6.223  -0.779 -14.257  0.00  0.00     0.318 C 
ATOM     22  O   UNK d   0       5.456  -1.715 -14.436  0.00  0.00    -0.262 OA
ENDBRANCH  16  21
ENDBRANCH   8   9
ENDBRANCH   7   8
ENDBRANCH   1   7
BRANCH   4  23
ATOM     23  C   UNK d   0       9.403   7.300 -11.339  0.00  0.00     0.275 C 
ATOM     24  O   UNK d   0       9.383   8.432 -11.816  0.00  0.00    -0.266 OA
ATOM     25  N   GLU d   1       9.919   7.005 -10.132  0.00  0.00    -0.225 NA
BRANCH  25  26
ATOM     26  CA  GLU d   1      10.263   7.996  -9.114  0.00  0.00     0.194 C 
BRANCH  26  27
ATOM     27  CB  GLU d   1       9.643   7.505  -7.771  0.00  0.00     0.047 C 
BRANCH  27  28
ATOM     28  CG  GLU d   1       9.579   8.546  -6.621  0.00  0.00     0.100 C 
BRANCH  28  29
ATOM     29  CD  GLU d   1      10.724   8.447  -5.608  0.00  0.00     0.185 C 
ATOM     30  OE1 GLU d   1      11.273   7.394  -5.307  0.00  0.00    -0.647 OA
ATOM     31  OE2 GLU d   1      10.990   9.647  -4.996  0.00  0.00    -0.647 OA
ENDBRANCH  28  29
ENDBRANCH  27  28
ENDBRANCH  26  27
BRANCH  26  32
ATOM     32  C   GLU d   1      11.781   8.209  -9.076  0.00  0.00     0.209 C 
ATOM     33  O   GLU d   1      12.496   7.982 -10.038  0.00  0.00    -0.646 OA
ATOM     34  OXT GLU d   1      12.358   8.701  -7.940  0.00  0.00    -0.646 OA
ENDBRANCH  26  32
ENDBRANCH  25  26
ENDBRANCH   4  23
TORSDOF 10
