REMARK  5 active torsions:
REMARK  status: ('A' for Active; 'I' for Inactive)
REMARK    1  A    between atoms: C_7  and  O_8 
REMARK    2  A    between atoms: O_8  and  C_9 
REMARK    3  A    between atoms: C_9  and  C_10 
REMARK    4  A    between atoms: C_10  and  N_11 
REMARK    5  A    between atoms: N_14  and  C_15 
ROOT
ATOM      1  C   UNL d   1       9.476   8.158 -10.431  0.00  0.00     0.283 C 
ENDROOT
BRANCH   1   2
ATOM      2  C   UNL d   1      10.904   8.764 -10.341  0.00  0.00     0.184 C 
BRANCH   2   3
ATOM      3  O   UNL d   1      11.084   9.518  -9.171  0.00  0.00    -0.329 OA
BRANCH   3   4
ATOM      4  C   UNL d   1      11.195   8.791  -8.025  0.00  0.00     0.096 A 
ATOM      5  C   UNL d   1      11.100   7.352  -7.976  0.00  0.00     0.026 A 
ATOM      6  C   UNL d   1      11.143   6.677  -6.752  0.00  0.00     0.023 A 
ATOM      7  C   UNL d   1      11.373   7.469  -5.629  0.00  0.00     0.102 A 
ATOM      8  N   UNL d   1      11.632   7.037  -4.371  0.00  0.00    -0.216 NA
ATOM      9  C   UNL d   1      11.502   8.841  -5.648  0.00  0.00     0.103 A 
ATOM     10  C   UNL d   1      11.928   8.101  -3.572  0.00  0.00     0.221 A 
ATOM     11  S   UNL d   1      12.272   8.001  -1.998  0.00  0.00    -0.037 SA
ATOM     12  N   UNL d   1      11.852   9.212  -4.344  0.00  0.00    -0.216 NA
ATOM     13  C   UNL d   1      11.406   9.569  -6.845  0.00  0.00     0.045 A 
ENDBRANCH   3   4
ENDBRANCH   2   3
ENDBRANCH   1   2
BRANCH   1  14
ATOM     14  N   UNL d   1       9.517   6.769 -10.895  0.00  0.00     0.144 N 
ATOM     15  C   UNL d   1       9.397   6.737 -12.350  0.00  0.00     0.274 C 
ATOM     16  C   UNL d   1       9.570   5.290 -12.829  0.00  0.00     0.137 C 
ATOM     17  N   UNL d   1       8.571   4.491 -12.181  0.00  0.00    -0.344 N 
ATOM     18  C   UNL d   1       8.523   4.528 -10.728  0.00  0.00     0.137 C 
ATOM     19  C   UNL d   1       8.432   5.989 -10.292  0.00  0.00     0.274 C 
BRANCH  17  20
ATOM     20  C   UNL d   1       7.637   3.749 -12.966  0.00  0.00     0.056 A 
ATOM     21  C   UNL d   1       8.131   3.033 -14.069  0.00  0.00     0.017 A 
ATOM     22  C   UNL d   1       7.295   2.107 -14.750  0.00  0.00     0.002 A 
ATOM     23  C   UNL d   1       6.013   1.861 -14.268  0.00  0.00     0.000 A 
ATOM     24  C   UNL d   1       5.486   2.638 -13.204  0.00  0.00     0.002 A 
ATOM     25  C   UNL d   1       6.314   3.596 -12.554  0.00  0.00     0.017 A 
ENDBRANCH  17  20
ENDBRANCH   1  14
TORSDOF 5
