REMARK  13 active torsions:
REMARK  status: ('A' for Active; 'I' for Inactive)
REMARK    1  A    between atoms: C_2  and  C_3 
REMARK    2  A    between atoms: C_3  and  N_4 
REMARK    3  A    between atoms: N_4  and  C_5 
REMARK    4  A    between atoms: N_4  and  C_24 
REMARK    5  A    between atoms: C_5  and  C_6 
REMARK    6  A    between atoms: C_6  and  C_7 
REMARK    7  A    between atoms: C_7  and  C_8 
REMARK    8  A    between atoms: C_8  and  N_9 
REMARK       I    between atoms: N_9  and  C_10 
REMARK    9  A    between atoms: C_10  and  C_12 
REMARK   10  A    between atoms: C_15  and  C_16 
REMARK   11  A    between atoms: C_24  and  C_25 
REMARK   12  A    between atoms: C_27  and  C_28 
REMARK   13  A    between atoms: C_34  and  O_35 
ROOT
ATOM      1  C   UNL d   1       9.477   2.435 -14.642  0.00  0.00     0.250 C 
ENDROOT
BRANCH   1   2
ATOM      2  N   UNL d   1       8.907   1.874 -15.870  0.00  0.00     0.137 N 
BRANCH   2   3
ATOM      3  C   UNL d   1       7.461   1.611 -15.752  0.00  0.00     0.250 C 
BRANCH   3   4
ATOM      4  C   UNL d   1       7.082   0.467 -14.770  0.00  0.00     0.035 C 
ATOM      5  C   UNL d   1       5.597   0.157 -14.747  0.00  0.00     0.002 C 
ENDBRANCH   3   4
ENDBRANCH   2   3
BRANCH   2   6
ATOM      6  C   UNL d   1       9.693   0.703 -16.277  0.00  0.00     0.251 C 
BRANCH   6   7
ATOM      7  C   UNL d   1       9.353   0.242 -17.676  0.00  0.00     0.038 A 
ATOM      8  C   UNL d   1       8.193  -0.690 -18.006  0.00  0.00     0.026 A 
ATOM      9  C   UNL d   1       9.599  -1.216 -18.052  0.00  0.00     0.007 A 
BRANCH   8  10
ATOM     10  C   UNL d   1       7.352  -0.509 -19.235  0.00  0.00     0.002 A 
ATOM     11  C   UNL d   1       5.963  -0.807 -19.246  0.00  0.00     0.090 A 
ATOM     12  C   UNL d   1       5.221  -0.632 -20.446  0.00  0.00     0.026 A 
ATOM     13  C   UNL d   1       5.853  -0.176 -21.619  0.00  0.00     0.032 A 
ATOM     14  C   UNL d   1       7.232   0.112 -21.610  0.00  0.00     0.140 A 
ATOM     15  C   UNL d   1       7.967  -0.054 -20.428  0.00  0.00     0.027 A 
ATOM     16  F   UNL d   1       7.848   0.538 -22.740  0.00  0.00    -0.204 F 
BRANCH  11  17
ATOM     17  O   UNL d   1       5.391  -1.258 -18.075  0.00  0.00    -0.328 OA
ATOM     18  C   UNL d   1       4.047  -1.717 -18.092  0.00  0.00     0.181 C 
ENDBRANCH  11  17
ENDBRANCH   8  10
ENDBRANCH   6   7
ENDBRANCH   2   6
ENDBRANCH   1   2
BRANCH   1  19
ATOM     19  C   UNL d   1       9.170   3.933 -14.487  0.00  0.00     0.037 C 
BRANCH  19  20
ATOM     20  C   UNL d   1       9.659   4.418 -13.119  0.00  0.00     0.029 C 
BRANCH  20  21
ATOM     21  C   UNL d   1       9.419   5.921 -12.918  0.00  0.00     0.129 C 
BRANCH  21  22
ATOM     22  N   UNL d   1       9.708   6.359 -11.568  0.00  0.00    -0.234 NA
ATOM     23  C   UNL d   1       9.056   5.967 -10.472  0.00  0.00     0.275 C 
ATOM     24  O   UNL d   1       8.101   5.188 -10.512  0.00  0.00    -0.266 OA
BRANCH  23  25
ATOM     25  C   UNL d   1       9.577   6.495  -9.168  0.00  0.00     0.058 A 
ATOM     26  C   UNL d   1      10.609   7.469  -9.104  0.00  0.00     0.005 A 
ATOM     27  C   UNL d   1      11.081   7.928  -7.861  0.00  0.00     0.002 A 
ATOM     28  C   UNL d   1      10.536   7.436  -6.660  0.00  0.00     0.018 A 
ATOM     29  C   UNL d   1       9.490   6.500  -6.734  0.00  0.00     0.002 A 
ATOM     30  C   UNL d   1       9.026   6.014  -7.967  0.00  0.00     0.005 A 
BRANCH  28  31
ATOM     31  C   UNL d   1      11.053   7.897  -5.360  0.00  0.00     0.081 A 
ATOM     32  N   UNL d   1      11.052   9.236  -5.192  0.00  0.00    -0.244 NA
ATOM     33  C   UNL d   1      11.461   9.724  -4.011  0.00  0.00     0.099 A 
ATOM     34  C   UNL d   1      11.919   8.934  -2.951  0.00  0.00     0.021 A 
ATOM     35  C   UNL d   1      11.935   7.538  -3.122  0.00  0.00     0.003 A 
ATOM     36  C   UNL d   1      11.486   7.009  -4.350  0.00  0.00     0.019 A 
ENDBRANCH  28  31
ENDBRANCH  23  25
ENDBRANCH  21  22
ENDBRANCH  20  21
ENDBRANCH  19  20
ENDBRANCH   1  19
TORSDOF 13
