REMARK  7 active torsions:
REMARK  status: ('A' for Active; 'I' for Inactive)
REMARK    1  A    between atoms: O_2  and  C_3 
REMARK    2  A    between atoms: C_7  and  C_8 
REMARK    3  A    between atoms: C_8  and  C_10 
REMARK    4  A    between atoms: N_13  and  C_14 
REMARK    5  A    between atoms: C_14  and  C_15 
REMARK    6  A    between atoms: C_15  and  C_16 
REMARK    7  A    between atoms: C_25  and  O_26 
ROOT
ATOM      1  C   UNL d   1       8.741   4.101 -13.067  0.00  0.00     0.039 C 
ATOM      2  C   UNL d   1      10.266   3.948 -13.038  0.00  0.00     0.038 C 
ATOM      3  C   UNL d   1      10.934   4.923 -14.001  0.00  0.00     0.250 C 
ATOM      4  N   UNL d   1      10.521   4.658 -15.374  0.00  0.00     0.137 N 
ATOM      5  C   UNL d   1       9.064   4.784 -15.499  0.00  0.00     0.250 C 
ATOM      6  C   UNL d   1       8.331   3.820 -14.521  0.00  0.00     0.038 C 
ENDROOT
BRANCH   1   7
ATOM      7  C   UNL d   1       8.217   5.470 -12.493  0.00  0.00     0.176 C 
ATOM      8  O   UNL d   1       6.802   5.517 -12.534  0.00  0.00    -0.218 OA
BRANCH   7   9
ATOM      9  C   UNL d   1       8.687   5.725 -11.074  0.00  0.00     0.032 A 
ATOM     10  C   UNL d   1       8.273   4.823 -10.091  0.00  0.00     0.000 A 
ATOM     11  C   UNL d   1       8.666   4.987  -8.760  0.00  0.00     0.002 A 
ATOM     12  C   UNL d   1       9.459   6.092  -8.371  0.00  0.00     0.026 A 
ATOM     13  C   UNL d   1       9.880   7.034  -9.351  0.00  0.00     0.116 A 
ATOM     14  C   UNL d   1       9.460   6.852 -10.697  0.00  0.00     0.115 A 
BRANCH  13  15
ATOM     15  O   UNL d   1      10.663   8.133  -9.056  0.00  0.00    -0.326 OA
ATOM     16  C   UNL d   1      11.059   8.330  -7.712  0.00  0.00     0.181 C 
ENDBRANCH  13  15
BRANCH  14  17
ATOM     17  O   UNL d   1       9.860   7.784 -11.609  0.00  0.00    -0.326 OA
ATOM     18  C   UNL d   1       8.879   8.685 -12.066  0.00  0.00     0.181 C 
ENDBRANCH  14  17
ENDBRANCH   7   9
ENDBRANCH   1   7
BRANCH   4  19
ATOM     19  C   UNL d   1      11.194   5.564 -16.293  0.00  0.00     0.255 C 
BRANCH  19  20
ATOM     20  C   UNL d   1      12.689   5.223 -16.461  0.00  0.00     0.062 C 
BRANCH  20  21
ATOM     21  C   UNL d   1      13.399   6.157 -17.420  0.00  0.00    -0.020 A 
ATOM     22  C   UNL d   1      13.460   7.539 -17.140  0.00  0.00    -0.002 A 
ATOM     23  C   UNL d   1      14.114   8.411 -18.029  0.00  0.00     0.029 A 
ATOM     24  C   UNL d   1      14.720   7.903 -19.192  0.00  0.00     0.140 A 
ATOM     25  C   UNL d   1      14.670   6.525 -19.471  0.00  0.00     0.029 A 
ATOM     26  F   UNL d   1      15.351   8.741 -20.044  0.00  0.00    -0.204 F 
ATOM     27  C   UNL d   1      14.010   5.649 -18.586  0.00  0.00    -0.002 A 
ENDBRANCH  20  21
ENDBRANCH  19  20
ENDBRANCH   4  19
TORSDOF 7
