REMARK  6 active torsions:
REMARK  status: ('A' for Active; 'I' for Inactive)
REMARK    1  A    between atoms: O_2  and  N_3 
REMARK    2  A    between atoms: C_4  and  C_5 
REMARK    3  A    between atoms: C_4  and  C_11 
REMARK    4  A    between atoms: C_11  and  C_13 
REMARK    5  A    between atoms: C_13  and  N_14 
REMARK    6  A    between atoms: N_17  and  C_18 
ROOT
ATOM      1  C   UNL d   1       9.104   5.001 -10.856  0.00  0.00     0.289 C 
ENDROOT
BRANCH   1   2
ATOM      2  C   UNL d   1       8.958   5.534 -12.291  0.00  0.00     0.227 C 
ATOM      3  O   UNL d   1       7.957   6.537 -12.348  0.00  0.00    -0.215 OA
BRANCH   2   4
ATOM      4  C   UNL d   1       8.747   4.386 -13.310  0.00  0.00     0.119 C 
ATOM      5  N   UNL d   1       7.653   3.748 -13.466  0.00  0.00    -0.133 NA
BRANCH   5   6
ATOM      6  O   UNL d   1       6.636   4.139 -12.589  0.00  0.00    -0.234 OA
ATOM      7  C   UNL d   1       5.412   3.634 -13.079  0.00  0.00     0.211 C 
ENDBRANCH   5   6
BRANCH   4   8
ATOM      8  C   UNL d   1       9.926   3.992 -14.126  0.00  0.00     0.037 A 
ATOM      9  C   UNL d   1      10.195   2.635 -14.431  0.00  0.00     0.100 A 
ATOM     10  N   UNL d   1      11.239   2.231 -15.189  0.00  0.00    -0.242 NA
ATOM     11  C   UNL d   1      12.084   3.169 -15.667  0.00  0.00     0.099 A 
ATOM     12  C   UNL d   1      11.924   4.543 -15.413  0.00  0.00     0.021 A 
ATOM     13  C   UNL d   1      10.813   4.950 -14.658  0.00  0.00     0.004 A 
ENDBRANCH   4   8
ENDBRANCH   2   4
ENDBRANCH   1   2
BRANCH   1  14
ATOM     14  N   UNL d   1       9.056   6.019  -9.811  0.00  0.00     0.144 N 
ATOM     15  C   UNL d   1      10.131   7.012  -9.891  0.00  0.00     0.274 C 
ATOM     16  C   UNL d   1       9.973   8.116  -8.835  0.00  0.00     0.138 C 
ATOM     17  N   UNL d   1       9.871   7.511  -7.507  0.00  0.00    -0.330 N 
ATOM     18  C   UNL d   1       8.851   6.475  -7.371  0.00  0.00     0.138 C 
ATOM     19  C   UNL d   1       9.029   5.422  -8.479  0.00  0.00     0.274 C 
BRANCH  17  20
ATOM     20  C   UNL d   1      10.702   7.920  -6.445  0.00  0.00     0.140 A 
ATOM     21  N   UNL d   1      11.216   9.165  -6.516  0.00  0.00    -0.227 NA
ATOM     22  C   UNL d   1      12.028   9.590  -5.530  0.00  0.00     0.101 A 
ATOM     23  C   UNL d   1      12.362   8.818  -4.407  0.00  0.00     0.021 A 
ATOM     24  C   UNL d   1      11.843   7.515  -4.325  0.00  0.00     0.005 A 
ATOM     25  C   UNL d   1      11.002   7.058  -5.360  0.00  0.00     0.037 A 
ENDBRANCH  17  20
ENDBRANCH   1  14
TORSDOF 6
