REMARK  1 active torsions:
REMARK  status: ('A' for Active; 'I' for Inactive)
REMARK    1  A    between atoms: N_4  and  C_5 
ROOT
ATOM      1  C   UNL d   1      11.672   8.960 -10.327  0.00  0.00     0.054 C 
ATOM      2  C   UNL d   1      11.063   8.472  -9.051  0.00  0.00     0.083 A 
ATOM      3  N   UNL d   1      11.678   8.682  -7.892  0.00  0.00    -0.168 NA
ATOM      4  N   UNL d   1      10.876   8.113  -6.961  0.00  0.00    -0.206 N 
ATOM      5  C   UNL d   1       9.750   7.577  -7.556  0.00  0.00     0.215 A 
ATOM      6  O   UNL d   1       8.750   6.998  -6.840  0.00  0.00    -0.169 OA
ATOM      7  C   UNL d   1       9.832   7.783  -8.897  0.00  0.00     0.064 A 
ENDROOT
BRANCH   4   8
ATOM      8  C   UNL d   1      11.245   8.146  -5.600  0.00  0.00     0.085 A 
ATOM      9  C   UNL d   1      11.463   9.383  -4.960  0.00  0.00     0.019 A 
ATOM     10  C   UNL d   1      11.856   9.413  -3.604  0.00  0.00     0.002 A 
ATOM     11  C   UNL d   1      12.057   8.211  -2.897  0.00  0.00     0.000 A 
ATOM     12  C   UNL d   1      11.862   6.976  -3.544  0.00  0.00     0.002 A 
ATOM     13  C   UNL d   1      11.448   6.943  -4.892  0.00  0.00     0.019 A 
ENDBRANCH   4   8
TORSDOF 1
