REMARK  5 active torsions:
REMARK  status: ('A' for Active; 'I' for Inactive)
REMARK    1  A    between atoms: C_3  and  C_4 
REMARK    2  A    between atoms: N_13  and  C_14 
REMARK    3  A    between atoms: N_17  and  C_18 
REMARK    4  A    between atoms: C_18  and  C_19 
REMARK    5  A    between atoms: C_19  and  C_20 
ROOT
ATOM      1  C   UNL d   1       8.565   5.475 -11.794  0.00  0.00     0.094 C 
ATOM      2  C   UNL d   1       9.700   6.532 -11.840  0.00  0.00     0.058 C 
ATOM      3  C   UNL d   1       9.800   7.431 -10.627  0.00  0.00     0.252 C 
ATOM      4  N   UNL d   1       9.963   6.597  -9.431  0.00  0.00     0.137 N 
ATOM      5  C   UNL d   1       8.777   5.761  -9.275  0.00  0.00     0.252 C 
ATOM      6  C   UNL d   1       8.697   4.771 -10.418  0.00  0.00     0.058 C 
ENDROOT
BRANCH   1   7
ATOM      7  N   UNL d   1       8.569   4.527 -12.941  0.00  0.00    -0.284 N 
ATOM      8  C   UNL d   1       7.490   3.682 -13.240  0.00  0.00     0.059 A 
ATOM      9  C   UNL d   1       6.211   3.621 -12.362  0.00  0.00     0.052 C 
ATOM     10  C   UNL d   1       7.836   2.964 -14.336  0.00  0.00     0.098 A 
ATOM     11  N   UNL d   1       9.097   3.378 -14.707  0.00  0.00    -0.191 NA
ATOM     12  C   UNL d   1       9.539   4.339 -13.877  0.00  0.00     0.350 A 
ATOM     13  O   UNL d   1      10.631   4.915 -13.996  0.00  0.00    -0.244 OA
BRANCH  10  14
ATOM     14  C   UNL d   1       7.150   1.888 -15.066  0.00  0.00     0.019 A 
ATOM     15  C   UNL d   1       6.216   1.007 -14.461  0.00  0.00     0.002 A 
ATOM     16  C   UNL d   1       5.502   0.083 -15.254  0.00  0.00     0.000 A 
ATOM     17  C   UNL d   1       5.774  -0.043 -16.636  0.00  0.00     0.000 A 
ATOM     18  C   UNL d   1       6.767   0.769 -17.224  0.00  0.00     0.000 A 
ATOM     19  C   UNL d   1       7.441   1.741 -16.454  0.00  0.00     0.002 A 
ENDBRANCH  10  14
ENDBRANCH   1   7
BRANCH   4  20
ATOM     20  C   UNL d   1      10.059   7.474  -8.301  0.00  0.00     0.255 C 
BRANCH  20  21
ATOM     21  C   UNL d   1      10.557   6.758  -7.030  0.00  0.00     0.062 C 
BRANCH  21  22
ATOM     22  C   UNL d   1      10.912   7.724  -5.908  0.00  0.00    -0.020 A 
ATOM     23  C   UNL d   1      10.693   9.119  -6.029  0.00  0.00    -0.004 A 
ATOM     24  C   UNL d   1      11.065   9.986  -4.998  0.00  0.00    -0.000 A 
ATOM     25  C   UNL d   1      11.655   9.477  -3.825  0.00  0.00    -0.000 A 
ATOM     26  C   UNL d   1      11.866   8.091  -3.691  0.00  0.00    -0.000 A 
ATOM     27  C   UNL d   1      11.486   7.212  -4.723  0.00  0.00    -0.004 A 
ENDBRANCH  21  22
ENDBRANCH  20  21
ENDBRANCH   4  20
TORSDOF 5
