REMARK  11 active torsions:
REMARK  status: ('A' for Active; 'I' for Inactive)
REMARK    1  A    between atoms: N_2  and  C_3 
REMARK    2  A    between atoms: N_2  and  C_21 
REMARK    3  A    between atoms: C_3  and  C_4 
REMARK    4  A    between atoms: C_4  and  C_5 
REMARK    5  A    between atoms: C_5  and  N_6 
REMARK    6  A    between atoms: C_21  and  C_22 
REMARK    7  A    between atoms: C_25  and  O_26 
REMARK    8  A    between atoms: O_26  and  C_27 
REMARK    9  A    between atoms: C_27  and  C_28 
REMARK   10  A    between atoms: C_28  and  C_29 
REMARK   11  A    between atoms: C_29  and  N_30 
ROOT
ATOM      1  C   UNL d   1       6.698  -0.700 -13.444  0.00  0.00     0.286 C 
ATOM      2  N   UNL d   1       5.648   0.104 -14.053  0.00  0.00     0.144 N 
ENDROOT
BRANCH   2   3
ATOM      3  C   UNL d   1       4.724  -0.714 -14.842  0.00  0.00     0.253 C 
BRANCH   3   4
ATOM      4  C   UNL d   1       5.418  -1.502 -15.969  0.00  0.00     0.060 C 
BRANCH   4   5
ATOM      5  C   UNL d   1       4.468  -1.991 -17.071  0.00  0.00     0.108 C 
BRANCH   5   6
ATOM      6  N   UNL d   1       5.193  -2.413 -18.278  0.00  0.00    -0.327 N 
ATOM      7  C   UNL d   1       5.639  -3.764 -18.327  0.00  0.00     0.067 A 
ATOM      8  C   UNL d   1       6.007  -4.364 -19.555  0.00  0.00     0.045 A 
ATOM      9  C   UNL d   1       5.725  -4.572 -17.157  0.00  0.00     0.029 A 
ATOM     10  S   UNL d   1       5.928  -3.511 -21.093  0.00  0.00    -0.084 SA
ATOM     11  C   UNL d   1       6.434  -5.710 -19.607  0.00  0.00     0.009 A 
ATOM     12  C   UNL d   1       5.660  -1.833 -20.635  0.00  0.00     0.045 A 
ATOM     13  C   UNL d   1       5.336  -1.447 -19.309  0.00  0.00     0.066 A 
ATOM     14  C   UNL d   1       5.773  -0.876 -21.664  0.00  0.00     0.008 A 
ATOM     15  C   UNL d   1       5.151  -0.058 -19.063  0.00  0.00     0.018 A 
ATOM     16  C   UNL d   1       5.254   0.892 -20.095  0.00  0.00     0.002 A 
ATOM     17  C   UNL d   1       5.568   0.486 -21.401  0.00  0.00     0.001 A 
ATOM     18  C   UNL d   1       6.525  -6.478 -18.436  0.00  0.00     0.012 A 
ATOM     19  C   UNL d   1       6.179  -5.904 -17.207  0.00  0.00     0.059 A 
ATOM     20 CL   UNL d   1       6.310  -6.833 -15.759  0.00  0.00    -0.082 Cl
ENDBRANCH   5   6
ENDBRANCH   4   5
ENDBRANCH   3   4
ENDBRANCH   2   3
BRANCH   2  21
ATOM     21  C   UNL d   1       6.257   1.128 -14.896  0.00  0.00     0.277 C 
BRANCH  21  22
ATOM     22  C   UNL d   1       6.769   2.341 -14.150  0.00  0.00     0.011 A 
ATOM     23  C   UNL d   1       8.103   2.752 -14.348  0.00  0.00    -0.000 A 
ATOM     24  C   UNL d   1       8.601   3.874 -13.662  0.00  0.00     0.024 A 
ATOM     25  C   UNL d   1       7.763   4.609 -12.788  0.00  0.00     0.094 A 
ATOM     26  C   UNL d   1       6.426   4.198 -12.606  0.00  0.00     0.024 A 
ATOM     27  C   UNL d   1       5.929   3.066 -13.283  0.00  0.00    -0.000 A 
BRANCH  25  28
ATOM     28  O   UNL d   1       8.166   5.729 -12.093  0.00  0.00    -0.331 OA
BRANCH  28  29
ATOM     29  C   UNL d   1       9.540   6.062 -12.109  0.00  0.00     0.151 C 
BRANCH  29  30
ATOM     30  C   UNL d   1       9.745   7.391 -11.353  0.00  0.00     0.068 C 
BRANCH  30  31
ATOM     31  C   UNL d   1      10.951   7.358 -10.371  0.00  0.00     0.253 C 
BRANCH  31  32
ATOM     32  N   UNL d   1      10.608   7.409  -8.964  0.00  0.00     0.137 N 
ATOM     33  C   UNL d   1       9.474   6.524  -8.664  0.00  0.00     0.250 C 
ATOM     34  C   UNL d   1       9.160   6.555  -7.160  0.00  0.00     0.035 C 
ATOM     35  C   UNL d   1       8.902   7.987  -6.708  0.00  0.00     0.004 C 
ATOM     36  C   UNL d   1      10.084   8.882  -7.092  0.00  0.00     0.035 C 
ATOM     37  C   UNL d   1      10.353   8.795  -8.597  0.00  0.00     0.250 C 
ENDBRANCH  31  32
ENDBRANCH  30  31
ENDBRANCH  29  30
ENDBRANCH  28  29
ENDBRANCH  25  28
ENDBRANCH  21  22
ENDBRANCH   2  21
TORSDOF 11
