REMARK  4 active torsions:
REMARK  status: ('A' for Active; 'I' for Inactive)
REMARK    1  A    between atoms: C_4  and  C_5 
REMARK    2  A    between atoms: C_7  and  C_8 
REMARK    3  A    between atoms: C_8  and  N_9 
REMARK    4  A    between atoms: N_12  and  C_13 
ROOT
ATOM      1  N   UNL d   1       6.282   3.237 -12.689  0.00  0.00     0.147 N 
ATOM      2  C   UNL d   1       6.832   3.169 -14.037  0.00  0.00     0.275 C 
ATOM      3  C   UNL d   1       7.162   1.732 -14.452  0.00  0.00     0.138 C 
ATOM      4  N   UNL d   1       5.961   0.904 -14.358  0.00  0.00    -0.330 N 
ATOM      5  C   UNL d   1       5.316   0.983 -13.040  0.00  0.00     0.138 C 
ATOM      6  C   UNL d   1       5.058   2.452 -12.622  0.00  0.00     0.275 C 
ENDROOT
BRANCH   1   7
ATOM      7  C   UNL d   1       6.103   4.611 -12.244  0.00  0.00     0.297 C 
BRANCH   7   8
ATOM      8  C   UNL d   1       7.404   5.321 -11.997  0.00  0.00     0.113 A 
ATOM      9  N   UNL d   1       7.891   5.583 -10.727  0.00  0.00    -0.228 NA
ATOM     10  C   UNL d   1       9.046   6.262 -10.809  0.00  0.00     0.162 A 
ATOM     11  N   UNL d   1       9.379   6.444 -12.089  0.00  0.00    -0.224 NA
ATOM     12  C   UNL d   1       8.347   5.871 -12.833  0.00  0.00     0.117 A 
BRANCH  10  13
ATOM     13  C   UNL d   1       9.821   6.763  -9.664  0.00  0.00     0.036 A 
ATOM     14  C   UNL d   1      10.819   7.746  -9.848  0.00  0.00     0.003 A 
ATOM     15  C   UNL d   1      11.573   8.218  -8.757  0.00  0.00     0.000 A 
ATOM     16  C   UNL d   1      11.309   7.734  -7.463  0.00  0.00     0.000 A 
ATOM     17  C   UNL d   1      10.294   6.781  -7.263  0.00  0.00     0.000 A 
ATOM     18  C   UNL d   1       9.546   6.301  -8.356  0.00  0.00     0.003 A 
ENDBRANCH  10  13
ENDBRANCH   7   8
ENDBRANCH   1   7
BRANCH   4  19
ATOM     19  C   UNL d   1       5.439   0.143 -15.419  0.00  0.00     0.143 A 
ATOM     20  N   UNL d   1       4.392  -0.684 -15.153  0.00  0.00    -0.207 NA
ATOM     21  C   UNL d   1       3.860  -1.379 -16.155  0.00  0.00     0.200 A 
ATOM     22  N   UNL d   1       4.254  -1.349 -17.428  0.00  0.00    -0.223 NA
ATOM     23  C   UNL d   1       5.295  -0.553 -17.718  0.00  0.00     0.104 A 
ATOM     24  C   UNL d   1       5.922   0.240 -16.751  0.00  0.00     0.058 A 
ENDBRANCH   4  19
TORSDOF 4
