REMARK  8 active torsions:
REMARK  status: ('A' for Active; 'I' for Inactive)
REMARK    1  A    between atoms: O_2  and  C_3 
REMARK    2  A    between atoms: C_8  and  C_9 
REMARK       I    between atoms: C_9  and  N_11 
REMARK    3  A    between atoms: N_11  and  C_12 
REMARK    4  A    between atoms: C_12  and  C_13 
REMARK    5  A    between atoms: C_13  and  C_14 
REMARK    6  A    between atoms: C_14  and  C_16 
REMARK    7  A    between atoms: C_16  and  N_17 
REMARK    8  A    between atoms: N_20  and  C_21 
ROOT
ATOM      1  C   UNL d   1       8.911   4.818 -13.011  0.00  0.00     0.196 C 
ATOM      2  F   UNL d   1       7.602   4.845 -13.258  0.00  0.00    -0.235 F 
ENDROOT
BRANCH   1   3
ATOM      3  C   UNL d   1       9.132   5.040 -11.517  0.00  0.00     0.064 C 
BRANCH   3   4
ATOM      4  C   UNL d   1       8.671   6.397 -11.008  0.00  0.00     0.132 C 
BRANCH   4   5
ATOM      5  N   UNL d   1       9.296   6.684  -9.720  0.00  0.00    -0.233 NA
ATOM      6  C   UNL d   1       9.926   7.828  -9.405  0.00  0.00     0.298 C 
ATOM      7  O   UNL d   1      10.111   8.758 -10.187  0.00  0.00    -0.263 OA
BRANCH   6   8
ATOM      8  C   UNL d   1      10.366   7.931  -8.007  0.00  0.00     0.157 A 
ATOM      9  O   UNL d   1      10.552   9.185  -7.464  0.00  0.00    -0.302 OA
ATOM     10  C   UNL d   1      10.990   9.004  -6.174  0.00  0.00     0.100 A 
ATOM     11  C   UNL d   1      11.309   9.969  -5.201  0.00  0.00     0.027 A 
ATOM     12  C   UNL d   1      11.092   7.621  -5.934  0.00  0.00     0.027 A 
ATOM     13  C   UNL d   1      11.762   9.526  -3.940  0.00  0.00     0.026 A 
ATOM     14  C   UNL d   1      11.901   8.150  -3.668  0.00  0.00     0.094 A 
ATOM     15  C   UNL d   1      11.550   7.205  -4.679  0.00  0.00     0.026 A 
ATOM     16  C   UNL d   1      10.706   6.948  -7.121  0.00  0.00     0.032 A 
BRANCH  14  17
ATOM     17  O   UNL d   1      12.377   7.803  -2.420  0.00  0.00    -0.328 OA
ATOM     18  C   UNL d   1      12.418   6.407  -2.153  0.00  0.00     0.181 C 
ENDBRANCH  14  17
ENDBRANCH   6   8
ENDBRANCH   4   5
ENDBRANCH   3   4
ENDBRANCH   1   3
BRANCH   1  19
ATOM     19  C   UNL d   1       9.508   3.479 -13.474  0.00  0.00     0.285 C 
BRANCH  19  20
ATOM     20  N   UNL d   1       9.206   3.191 -14.877  0.00  0.00     0.144 N 
ATOM     21  C   UNL d   1      10.045   4.008 -15.759  0.00  0.00     0.274 C 
ATOM     22  C   UNL d   1       9.711   3.731 -17.241  0.00  0.00     0.137 C 
ATOM     23  N   UNL d   1       9.814   2.311 -17.522  0.00  0.00    -0.344 N 
ATOM     24  C   UNL d   1       9.099   1.422 -16.615  0.00  0.00     0.137 C 
ATOM     25  C   UNL d   1       9.467   1.773 -15.152  0.00  0.00     0.274 C 
BRANCH  23  26
ATOM     26  C   UNL d   1      10.649   1.805 -18.543  0.00  0.00     0.068 A 
ATOM     27  C   UNL d   1      12.037   2.105 -18.628  0.00  0.00     0.084 A 
ATOM     28  C   UNL d   1      12.815   1.569 -19.685  0.00  0.00     0.070 A 
ATOM     29 CL   UNL d   1      12.846   3.084 -17.451  0.00  0.00    -0.080 Cl
ATOM     30  C   UNL d   1      12.215   0.750 -20.655  0.00  0.00     0.012 A 
ATOM     31 CL   UNL d   1      14.503   1.904 -19.791  0.00  0.00    -0.081 Cl
ATOM     32  C   UNL d   1      10.846   0.448 -20.579  0.00  0.00     0.002 A 
ATOM     33  C   UNL d   1      10.069   0.966 -19.520  0.00  0.00     0.018 A 
ENDBRANCH  23  26
ENDBRANCH  19  20
ENDBRANCH   1  19
TORSDOF 8
