REMARK  9 active torsions:
REMARK  status: ('A' for Active; 'I' for Inactive)
REMARK    1  A    between atoms: O_2  and  C_3 
REMARK    2  A    between atoms: N_14  and  C_15 
REMARK    3  A    between atoms: C_15  and  C_16 
REMARK    4  A    between atoms: C_16  and  C_17 
REMARK    5  A    between atoms: C_17  and  C_18 
REMARK    6  A    between atoms: C_18  and  N_19 
REMARK    7  A    between atoms: N_22  and  C_23 
REMARK    8  A    between atoms: C_25  and  C_26 
REMARK    9  A    between atoms: C_31  and  C_32 
ROOT
ATOM      1  N   UNL d   1      12.676   5.807 -16.419  0.00  0.00     0.141 N 
ATOM      2  C   UNL d   1      13.718   4.962 -17.027  0.00  0.00     0.274 C 
ATOM      3  C   UNL d   1      15.097   5.621 -16.906  0.00  0.00     0.138 C 
ATOM      4  N   UNL d   1      15.065   6.939 -17.525  0.00  0.00    -0.330 N 
ATOM      5  C   UNL d   1      13.983   7.813 -17.070  0.00  0.00     0.138 C 
ATOM      6  C   UNL d   1      12.636   7.076 -17.163  0.00  0.00     0.274 C 
ENDROOT
BRANCH   1   7
ATOM      7  C   UNL d   1      11.359   5.178 -16.518  0.00  0.00     0.251 C 
BRANCH   7   8
ATOM      8  C   UNL d   1      11.232   3.923 -15.630  0.00  0.00     0.037 C 
BRANCH   8   9
ATOM      9  C   UNL d   1       9.982   3.109 -15.954  0.00  0.00     0.027 C 
BRANCH   9  10
ATOM     10  C   UNL d   1       9.964   1.766 -15.191  0.00  0.00     0.109 C 
BRANCH  10  11
ATOM     11  N   UNL d   1       9.404   0.709 -16.020  0.00  0.00    -0.299 N 
ATOM     12  C   UNL d   1       8.045   0.302 -15.802  0.00  0.00     0.060 A 
ATOM     13  C   UNL d   1       7.622   0.083 -14.470  0.00  0.00     0.017 A 
ATOM     14  C   UNL d   1       7.112   0.140 -16.863  0.00  0.00     0.016 A 
ATOM     15  C   UNL d   1       6.309  -0.304 -14.187  0.00  0.00     0.004 A 
ATOM     16  C   UNL d   1       5.393  -0.493 -15.225  0.00  0.00     0.024 A 
ATOM     17  C   UNL d   1       5.778  -0.279 -16.581  0.00  0.00     0.091 A 
ATOM     18  C   UNL d   1       7.529   0.447 -18.306  0.00  0.00     0.030 C 
ATOM     19  C   UNL d   1       8.600  -0.500 -18.880  0.00  0.00     0.015 C 
ATOM     20  C   UNL d   1       9.669  -0.974 -17.883  0.00  0.00     0.088 C 
ATOM     21  C   UNL d   1      10.206   0.158 -16.989  0.00  0.00     0.237 C 
ATOM     22  O   UNL d   1      11.376   0.535 -17.201  0.00  0.00    -0.272 OA
BRANCH  17  23
ATOM     23  O   UNL d   1       4.902  -0.432 -17.635  0.00  0.00    -0.328 OA
ATOM     24  C   UNL d   1       3.745  -1.248 -17.439  0.00  0.00     0.181 C 
ENDBRANCH  17  23
ENDBRANCH  10  11
ENDBRANCH   9  10
ENDBRANCH   8   9
ENDBRANCH   7   8
ENDBRANCH   1   7
BRANCH   4  25
ATOM     25  C   UNL d   1      15.991   7.332 -18.490  0.00  0.00     0.143 A 
ATOM     26  N   UNL d   1      15.582   8.206 -19.437  0.00  0.00    -0.214 NA
ATOM     27  C   UNL d   1      16.448   8.589 -20.369  0.00  0.00     0.140 A 
ATOM     28  N   UNL d   1      17.698   8.137 -20.479  0.00  0.00    -0.227 NA
ATOM     29  C   UNL d   1      18.154   7.290 -19.532  0.00  0.00     0.157 A 
ATOM     30  C   UNL d   1      17.320   6.835 -18.499  0.00  0.00     0.060 A 
BRANCH  27  31
ATOM     31  C   UNL d   1      15.907   9.447 -21.525  0.00  0.00     0.052 C 
ATOM     32  C   UNL d   1      15.166   8.543 -22.527  0.00  0.00     0.008 C 
ATOM     33  C   UNL d   1      17.050  10.183 -22.263  0.00  0.00     0.008 C 
ATOM     34  C   UNL d   1      14.956  10.544 -20.997  0.00  0.00     0.008 C 
ENDBRANCH  27  31
BRANCH  29  35
ATOM     35  C   UNL d   1      19.595   6.813 -19.664  0.00  0.00     0.435 C 
ATOM     36  F   UNL d   1      20.172   6.788 -18.462  0.00  0.00    -0.165 F 
ATOM     37  F   UNL d   1      19.587   5.580 -20.163  0.00  0.00    -0.165 F 
ATOM     38  F   UNL d   1      20.319   7.601 -20.462  0.00  0.00    -0.165 F 
ENDBRANCH  29  35
ENDBRANCH   4  25
TORSDOF 9
