REMARK  4 active torsions:
REMARK  status: ('A' for Active; 'I' for Inactive)
REMARK    1  A    between atoms: C_2  and  C_3 
REMARK       I    between atoms: C_2  and  N_18 
REMARK    2  A    between atoms: C_3  and  N_4 
REMARK    3  A    between atoms: N_7  and  C_8 
REMARK    4  A    between atoms: C_8  and  C_9 
ROOT
ATOM      1  O   UNL d   1      11.678   3.126 -14.608  0.00  0.00    -0.270 OA
ATOM      2  C   UNL d   1      10.588   3.071 -15.203  0.00  0.00     0.271 C 
ATOM      3  N   UNL d   1      10.429   2.209 -16.228  0.00  0.00    -0.299 N 
ATOM      4  C   UNL d   1       9.252   1.505 -16.646  0.00  0.00     0.058 A 
ATOM      5  C   UNL d   1       7.868   1.687 -16.351  0.00  0.00     0.017 A 
ATOM      6  C   UNL d   1       6.936   0.851 -16.970  0.00  0.00     0.002 A 
ATOM      7  C   UNL d   1       7.336  -0.207 -17.818  0.00  0.00    -0.000 A 
ATOM      8  C   UNL d   1       8.713  -0.428 -18.065  0.00  0.00    -0.003 A 
ATOM      9  C   UNL d   1       9.649   0.458 -17.476  0.00  0.00    -0.005 A 
ATOM     10  C   UNL d   1      11.157   0.363 -17.566  0.00  0.00     0.045 C 
ATOM     11  C   UNL d   1      11.767  -0.082 -18.919  0.00  0.00     0.006 C 
ATOM     12  C   UNL d   1      11.859   1.047 -19.948  0.00  0.00     0.001 C 
ATOM     13  C   UNL d   1      12.615   2.236 -19.345  0.00  0.00     0.002 C 
ATOM     14  C   UNL d   1      11.852   2.787 -18.138  0.00  0.00     0.023 C 
ATOM     15  C   UNL d   1      11.601   1.744 -17.015  0.00  0.00     0.092 C 
ENDROOT
BRANCH   2  16
ATOM     16  C   UNL d   1       9.415   4.026 -14.799  0.00  0.00     0.337 C 
BRANCH  16  17
ATOM     17  N   UNL d   1       9.103   4.058 -13.367  0.00  0.00     0.151 N 
ATOM     18  C   UNL d   1      10.028   4.943 -12.671  0.00  0.00     0.286 C 
ATOM     19  C   UNL d   1       9.765   4.934 -11.164  0.00  0.00     0.286 C 
ATOM     20  N   UNL d   1       8.454   5.491 -10.904  0.00  0.00     0.146 N 
ATOM     21  C   UNL d   1       7.451   4.639 -11.559  0.00  0.00     0.286 C 
ATOM     22  C   UNL d   1       7.729   4.517 -13.078  0.00  0.00     0.286 C 
BRANCH  20  23
ATOM     23  C   UNL d   1       8.210   5.659  -9.476  0.00  0.00     0.277 C 
BRANCH  23  24
ATOM     24  C   UNL d   1       9.117   6.646  -8.739  0.00  0.00     0.011 C 
ATOM     25  C   UNL d   1       8.930   6.842  -7.350  0.00  0.00    -0.002 C 
ATOM     26  C   UNL d   1       9.768   7.750  -6.651  0.00  0.00     0.011 C 
ATOM     27  C   UNL d   1      10.836   8.398  -7.316  0.00  0.00     0.058 C 
ATOM     28  C   UNL d   1      11.007   8.200  -8.702  0.00  0.00     0.011 C 
ATOM     29 CL   UNL d   1      11.867   9.504  -6.468  0.00  0.00    -0.082 Cl
ATOM     30  C   UNL d   1      10.093   7.427  -9.408  0.00  0.00    -0.002 C 
ENDBRANCH  23  24
ENDBRANCH  20  23
ENDBRANCH  16  17
ENDBRANCH   2  16
TORSDOF 4
