REMARK  11 active torsions:
REMARK  status: ('A' for Active; 'I' for Inactive)
REMARK    1  A    between atoms: O_2  and  C_3 
REMARK    2  A    between atoms: C_7  and  C_8 
REMARK    3  A    between atoms: C_8  and  C_9 
REMARK    4  A    between atoms: C_9  and  C_10 
REMARK    5  A    between atoms: C_15  and  O_16 
REMARK    6  A    between atoms: O_16  and  C_17 
REMARK    7  A    between atoms: C_17  and  C_18 
REMARK    8  A    between atoms: C_18  and  C_19 
REMARK    9  A    between atoms: C_19  and  N_20 
REMARK   10  A    between atoms: C_25  and  O_26 
REMARK   11  A    between atoms: C_28  and  O_29 
ROOT
ATOM      1  O   UNL d   1       8.748   3.143 -15.708  0.00  0.00    -0.331 OA
ENDROOT
BRANCH   1   2
ATOM      2  C   UNL d   1       7.761   2.344 -15.178  0.00  0.00     0.090 A 
ATOM      3  C   UNL d   1       7.145   2.792 -13.993  0.00  0.00     0.001 A 
ATOM      4  C   UNL d   1       6.094   2.021 -13.411  0.00  0.00    -0.002 A 
ATOM      5  C   UNL d   1       5.727   0.791 -13.960  0.00  0.00    -0.000 A 
ATOM      6  C   UNL d   1       6.357   0.336 -15.145  0.00  0.00     0.002 A 
ATOM      7  C   UNL d   1       7.370   1.096 -15.743  0.00  0.00     0.024 A 
BRANCH   3   8
ATOM      8  C   UNL d   1       7.610   4.054 -13.245  0.00  0.00     0.033 C 
BRANCH   8   9
ATOM      9  C   UNL d   1       9.027   3.971 -12.601  0.00  0.00     0.031 C 
BRANCH   9  10
ATOM     10  C   UNL d   1       9.249   5.027 -11.524  0.00  0.00    -0.020 A 
ATOM     11  C   UNL d   1       9.452   4.686 -10.165  0.00  0.00    -0.004 A 
ATOM     12  C   UNL d   1       9.687   5.662  -9.184  0.00  0.00     0.002 A 
ATOM     13  C   UNL d   1       9.719   7.017  -9.546  0.00  0.00     0.024 A 
ATOM     14  C   UNL d   1       9.474   7.392 -10.884  0.00  0.00     0.094 A 
ATOM     15  C   UNL d   1       9.246   6.386 -11.867  0.00  0.00     0.020 A 
BRANCH  14  16
ATOM     16  O   UNL d   1       9.454   8.736 -11.167  0.00  0.00    -0.328 OA
ATOM     17  C   UNL d   1       8.924   9.068 -12.427  0.00  0.00     0.181 C 
ENDBRANCH  14  16
ENDBRANCH   9  10
ENDBRANCH   8   9
ENDBRANCH   3   8
ENDBRANCH   1   2
BRANCH   1  18
ATOM     18  C   UNL d   1       9.099   3.058 -17.079  0.00  0.00     0.151 C 
BRANCH  18  19
ATOM     19  C   UNL d   1      10.558   2.592 -17.130  0.00  0.00     0.068 C 
BRANCH  19  20
ATOM     20  C   UNL d   1      10.974   2.331 -18.589  0.00  0.00     0.253 C 
BRANCH  20  21
ATOM     21  N   UNL d   1      12.341   2.757 -18.882  0.00  0.00     0.142 N 
ATOM     22  C   UNL d   1      12.415   4.218 -18.902  0.00  0.00     0.277 C 
ATOM     23  C   UNL d   1      13.757   4.735 -19.319  0.00  0.00     0.009 A 
ATOM     24  C   UNL d   1      14.618   3.941 -20.086  0.00  0.00    -0.020 A 
ATOM     25  C   UNL d   1      14.131   6.041 -18.946  0.00  0.00     0.024 A 
ATOM     26  C   UNL d   1      14.226   2.524 -20.423  0.00  0.00     0.061 C 
ATOM     27  C   UNL d   1      15.854   4.454 -20.510  0.00  0.00     0.022 A 
ATOM     28  C   UNL d   1      12.723   2.261 -20.204  0.00  0.00     0.255 C 
ATOM     29  C   UNL d   1      16.256   5.770 -20.146  0.00  0.00     0.116 A 
ATOM     30  C   UNL d   1      15.382   6.575 -19.349  0.00  0.00     0.116 A 
BRANCH  29  31
ATOM     31  O   UNL d   1      17.475   6.321 -20.518  0.00  0.00    -0.326 OA
ATOM     32  C   UNL d   1      18.262   5.616 -21.485  0.00  0.00     0.181 C 
ENDBRANCH  29  31
BRANCH  30  33
ATOM     33  O   UNL d   1      15.801   7.858 -19.013  0.00  0.00    -0.326 OA
ATOM     34  C   UNL d   1      14.880   8.709 -18.317  0.00  0.00     0.181 C 
ENDBRANCH  30  33
ENDBRANCH  20  21
ENDBRANCH  19  20
ENDBRANCH  18  19
ENDBRANCH   1  18
TORSDOF 11
