REMARK  5 active torsions:
REMARK  status: ('A' for Active; 'I' for Inactive)
REMARK    1  A    between atoms: C_3  and  C_4 
REMARK    2  A    between atoms: N_10  and  C_11 
REMARK    3  A    between atoms: N_19  and  C_20 
REMARK    4  A    between atoms: N_23  and  C_24 
REMARK    5  A    between atoms: C_24  and  C_25 
ROOT
ATOM      1  C   UNL d   1       5.955   3.925 -12.630  0.00  0.00     0.052 C 
ATOM      2  C   UNL d   1       7.328   3.629 -13.235  0.00  0.00     0.058 A 
ATOM      3  C   UNL d   1       7.708   2.713 -14.129  0.00  0.00     0.080 A 
ATOM      4  N   UNL d   1       9.101   2.846 -14.269  0.00  0.00    -0.260 N 
ATOM      5  C   UNL d   1       9.530   3.819 -13.444  0.00  0.00     0.335 A 
ATOM      6  O   UNL d   1      10.702   4.187 -13.294  0.00  0.00    -0.246 OA
ATOM      7  N   UNL d   1       8.449   4.336 -12.829  0.00  0.00    -0.285 N 
ENDROOT
BRANCH   7   8
ATOM      8  C   UNL d   1       8.420   5.472 -11.889  0.00  0.00     0.094 C 
ATOM      9  C   UNL d   1       9.036   5.098 -10.547  0.00  0.00     0.058 C 
ATOM     10  C   UNL d   1       9.078   6.294  -9.593  0.00  0.00     0.253 C 
ATOM     11  N   UNL d   1       9.909   7.350 -10.194  0.00  0.00     0.141 N 
ATOM     12  C   UNL d   1       9.300   7.838 -11.454  0.00  0.00     0.253 C 
ATOM     13  C   UNL d   1       9.149   6.693 -12.449  0.00  0.00     0.058 C 
BRANCH  11  14
ATOM     14  C   UNL d   1      10.051   8.497  -9.299  0.00  0.00     0.277 C 
BRANCH  14  15
ATOM     15  C   UNL d   1      10.630   8.201  -7.909  0.00  0.00     0.011 A 
ATOM     16  C   UNL d   1      10.595   9.187  -6.904  0.00  0.00    -0.002 A 
ATOM     17  C   UNL d   1      11.025   8.909  -5.582  0.00  0.00    -0.000 A 
ATOM     18  C   UNL d   1      11.466   7.606  -5.254  0.00  0.00    -0.000 A 
ATOM     19  C   UNL d   1      11.500   6.635  -6.264  0.00  0.00    -0.000 A 
ATOM     20  C   UNL d   1      11.127   6.933  -7.588  0.00  0.00    -0.002 A 
ENDBRANCH  14  15
ENDBRANCH  11  14
ENDBRANCH   7   8
BRANCH   3  21
ATOM     21  C   UNL d   1       6.856   1.701 -14.775  0.00  0.00     0.017 A 
ATOM     22  C   UNL d   1       6.994   1.500 -16.160  0.00  0.00     0.002 A 
ATOM     23  C   UNL d   1       6.224   0.528 -16.812  0.00  0.00     0.000 A 
ATOM     24  C   UNL d   1       5.276  -0.222 -16.087  0.00  0.00     0.000 A 
ATOM     25  C   UNL d   1       5.120  -0.016 -14.703  0.00  0.00     0.000 A 
ATOM     26  C   UNL d   1       5.926   0.932 -14.038  0.00  0.00     0.002 A 
ENDBRANCH   3  21
BRANCH   4  27
ATOM     27  C   UNL d   1       9.947   2.106 -15.151  0.00  0.00     0.068 A 
ATOM     28  C   UNL d   1       9.755   0.724 -15.364  0.00  0.00     0.018 A 
ATOM     29  C   UNL d   1      10.482   0.054 -16.360  0.00  0.00     0.002 A 
ATOM     30  C   UNL d   1      11.464   0.735 -17.097  0.00  0.00     0.000 A 
ATOM     31  C   UNL d   1      11.715   2.098 -16.847  0.00  0.00     0.002 A 
ATOM     32  C   UNL d   1      10.951   2.782 -15.886  0.00  0.00     0.018 A 
ENDBRANCH   4  27
TORSDOF 5
