REMARK  9 active torsions:
REMARK  status: ('A' for Active; 'I' for Inactive)
REMARK    1  A    between atoms: C_2  and  C_3 
REMARK    2  A    between atoms: C_6  and  C_7 
REMARK       I    between atoms: C_7  and  N_9 
REMARK    3  A    between atoms: N_9  and  C_10 
REMARK    4  A    between atoms: C_10  and  C_11 
REMARK    5  A    between atoms: C_11  and  C_12 
REMARK    6  A    between atoms: C_12  and  C_13 
REMARK    7  A    between atoms: C_13  and  N_14 
REMARK    8  A    between atoms: N_18  and  C_19 
REMARK    9  A    between atoms: C_24  and  O_25 
ROOT
ATOM      1  N   UNL d   1       9.546   2.736 -14.893  0.00  0.00     0.139 N 
ATOM      2  C   UNL d   1      10.221   1.441 -15.098  0.00  0.00     0.252 C 
ATOM      3  C   UNL d   1      10.295   1.047 -16.587  0.00  0.00     0.059 C 
ATOM      4  C   UNL d   1       9.092   0.246 -17.104  0.00  0.00     0.104 C 
ATOM      5  N   UNL d   1       7.797   0.844 -16.795  0.00  0.00    -0.345 N 
ATOM      6  C   UNL d   1       7.688   2.263 -16.505  0.00  0.00     0.137 C 
ATOM      7  C   UNL d   1       8.099   2.581 -15.066  0.00  0.00     0.274 C 
ENDROOT
BRANCH   1   8
ATOM      8  C   UNL d   1       9.781   3.166 -13.519  0.00  0.00     0.250 C 
BRANCH   8   9
ATOM      9  C   UNL d   1       9.436   4.654 -13.272  0.00  0.00     0.037 C 
BRANCH   9  10
ATOM     10  C   UNL d   1       9.323   4.961 -11.777  0.00  0.00     0.029 C 
BRANCH  10  11
ATOM     11  C   UNL d   1       9.190   6.468 -11.510  0.00  0.00     0.129 C 
BRANCH  11  12
ATOM     12  N   UNL d   1       9.531   6.757 -10.128  0.00  0.00    -0.234 NA
ATOM     13  C   UNL d   1      10.145   7.869  -9.694  0.00  0.00     0.275 C 
ATOM     14  O   UNL d   1      10.486   8.789 -10.440  0.00  0.00    -0.266 OA
BRANCH  13  15
ATOM     15  C   UNL d   1      10.506   7.907  -8.237  0.00  0.00     0.058 A 
ATOM     16  C   UNL d   1      11.404   8.889  -7.766  0.00  0.00     0.005 A 
ATOM     17  C   UNL d   1      11.735   8.972  -6.401  0.00  0.00     0.000 A 
ATOM     18  C   UNL d   1      11.176   8.059  -5.479  0.00  0.00     0.000 A 
ATOM     19  C   UNL d   1      10.262   7.093  -5.948  0.00  0.00     0.000 A 
ATOM     20  C   UNL d   1       9.918   7.019  -7.308  0.00  0.00     0.005 A 
BRANCH  18  21
ATOM     21  C   UNL d   1      11.483   8.097  -4.038  0.00  0.00     0.000 C 
ATOM     22  C   UNL d   1      12.160   9.055  -3.386  0.00  0.00     0.000 C 
ENDBRANCH  18  21
ENDBRANCH  13  15
ENDBRANCH  11  12
ENDBRANCH  10  11
ENDBRANCH   9  10
ENDBRANCH   8   9
ENDBRANCH   1   8
BRANCH   5  23
ATOM     23  C   UNL d   1       6.670   0.017 -16.675  0.00  0.00     0.079 A 
ATOM     24  C   UNL d   1       6.347  -0.924 -17.704  0.00  0.00     0.110 A 
ATOM     25  C   UNL d   1       5.222  -1.761 -17.554  0.00  0.00     0.026 A 
ATOM     26  C   UNL d   1       4.405  -1.674 -16.414  0.00  0.00     0.002 A 
ATOM     27  C   UNL d   1       4.703  -0.753 -15.400  0.00  0.00     0.002 A 
ATOM     28  C   UNL d   1       5.817   0.088 -15.534  0.00  0.00     0.019 A 
BRANCH  24  29
ATOM     29  O   UNL d   1       7.161  -0.941 -18.820  0.00  0.00    -0.327 OA
ATOM     30  C   UNL d   1       6.898  -1.877 -19.844  0.00  0.00     0.181 C 
ENDBRANCH  24  29
ENDBRANCH   5  23
TORSDOF 9
