REMARK  8 active torsions:
REMARK  status: ('A' for Active; 'I' for Inactive)
REMARK    1  A    between atoms: O_2  and  C_3 
REMARK    2  A    between atoms: C_7  and  C_8 
REMARK    3  A    between atoms: N_12  and  C_13 
REMARK    4  A    between atoms: C_13  and  C_14 
REMARK    5  A    between atoms: C_14  and  C_15 
REMARK    6  A    between atoms: C_15  and  S_16 
REMARK    7  A    between atoms: S_16  and  C_17 
REMARK    8  A    between atoms: C_20  and  C_21 
ROOT
ATOM      1  C   UNL d   1       9.746   4.939 -14.169  0.00  0.00     0.251 C 
ENDROOT
BRANCH   1   2
ATOM      2  N   UNL d   1       9.887   5.183 -12.737  0.00  0.00     0.137 N 
ATOM      3  C   UNL d   1       9.260   4.146 -11.928  0.00  0.00     0.251 C 
ATOM      4  C   UNL d   1       9.066   4.757 -10.595  0.00  0.00     0.039 A 
ATOM      5  C   UNL d   1       9.100   6.239 -10.784  0.00  0.00     0.052 A 
ATOM      6  C   UNL d   1       7.863   5.581 -10.236  0.00  0.00     0.008 A 
ATOM      7  C   UNL d   1       9.273   6.438 -12.296  0.00  0.00     0.254 C 
BRANCH   5   8
ATOM      8  C   UNL d   1       9.976   7.052  -9.860  0.00  0.00    -0.019 A 
ATOM      9  C   UNL d   1      10.497   8.302 -10.248  0.00  0.00    -0.004 A 
ATOM     10  C   UNL d   1      11.329   9.025  -9.386  0.00  0.00     0.002 A 
ATOM     11  C   UNL d   1      11.629   8.538  -8.105  0.00  0.00     0.024 A 
ATOM     12  C   UNL d   1      11.069   7.321  -7.660  0.00  0.00     0.094 A 
ATOM     13  C   UNL d   1      10.260   6.574  -8.550  0.00  0.00     0.020 A 
BRANCH  12  14
ATOM     14  O   UNL d   1      11.301   6.790  -6.415  0.00  0.00    -0.328 OA
ATOM     15  C   UNL d   1      11.287   7.726  -5.342  0.00  0.00     0.181 C 
ENDBRANCH  12  14
ENDBRANCH   5   8
ENDBRANCH   1   2
BRANCH   1  16
ATOM     16  C   UNL d   1      10.359   3.607 -14.639  0.00  0.00     0.047 C 
BRANCH  16  17
ATOM     17  C   UNL d   1       9.502   2.361 -14.316  0.00  0.00     0.067 C 
BRANCH  17  18
ATOM     18  S   UNL d   1      10.251   0.849 -14.962  0.00  0.00    -0.075 SA
BRANCH  18  19
ATOM     19  C   UNL d   1       9.005   0.450 -16.123  0.00  0.00     0.193 A 
ATOM     20  N   UNL d   1       7.761   0.051 -15.794  0.00  0.00    -0.287 N 
ATOM     21  C   UNL d   1       7.200  -0.115 -17.019  0.00  0.00     0.191 A 
ATOM     22  C   UNL d   1       7.158  -0.161 -14.477  0.00  0.00     0.134 C 
ATOM     23  N   UNL d   1       8.035   0.197 -18.015  0.00  0.00    -0.126 NA
ATOM     24  N   UNL d   1       9.220   0.560 -17.432  0.00  0.00    -0.122 NA
BRANCH  21  25
ATOM     25  C   UNL d   1       5.847  -0.592 -17.291  0.00  0.00     0.151 A 
ATOM     26  C   UNL d   1       5.081  -0.587 -18.432  0.00  0.00     0.087 A 
ATOM     27  N   UNL d   1       3.865  -1.192 -18.146  0.00  0.00    -0.221 NA
ATOM     28  C   UNL d   1       5.385  -0.049 -19.796  0.00  0.00     0.054 C 
ATOM     29  C   UNL d   1       3.955  -1.535 -16.866  0.00  0.00     0.225 A 
ATOM     30  O   UNL d   1       5.127  -1.180 -16.283  0.00  0.00    -0.282 OA
ENDBRANCH  21  25
ENDBRANCH  18  19
ENDBRANCH  17  18
ENDBRANCH  16  17
ENDBRANCH   1  16
TORSDOF 8
