REMARK  1 active torsions:
REMARK  status: ('A' for Active; 'I' for Inactive)
REMARK    1  A    between atoms: N_5  and  C_6 
ROOT
ATOM      1  C   UNL d   1       8.954   4.453 -13.697  0.00  0.00     0.068 A 
ATOM      2  C   UNL d   1       8.964   5.665 -12.973  0.00  0.00     0.018 A 
ATOM      3  C   UNL d   1       7.851   6.052 -12.202  0.00  0.00     0.002 A 
ATOM      4  C   UNL d   1       6.715   5.229 -12.150  0.00  0.00     0.012 A 
ATOM      5  C   UNL d   1       6.690   4.022 -12.868  0.00  0.00     0.070 A 
ATOM      6 CL   UNL d   1       5.286   3.027 -12.791  0.00  0.00    -0.081 Cl
ATOM      7  C   UNL d   1       7.800   3.626 -13.642  0.00  0.00     0.084 A 
ATOM      8 CL   UNL d   1       7.698   2.147 -14.539  0.00  0.00    -0.080 Cl
ENDROOT
BRANCH   1   9
ATOM      9  N   UNL d   1      10.098   4.095 -14.430  0.00  0.00    -0.344 N 
ATOM     10  C   UNL d   1      10.500   4.803 -15.639  0.00  0.00     0.137 C 
ATOM     11  C   UNL d   1      10.630   3.807 -16.816  0.00  0.00     0.274 C 
ATOM     12  N   UNL d   1      11.541   2.712 -16.465  0.00  0.00     0.143 N 
ATOM     13  C   UNL d   1      11.675   1.804 -17.596  0.00  0.00     0.286 C 
ATOM     14  C   UNL d   1      10.993   1.977 -15.324  0.00  0.00     0.274 C 
ATOM     15  C   UNL d   1      10.863   2.905 -14.094  0.00  0.00     0.137 C 
ENDBRANCH   1   9
TORSDOF 1
