REMARK  5 active torsions:
REMARK  status: ('A' for Active; 'I' for Inactive)
REMARK    1  A    between atoms: C_3  and  C_4 
REMARK    2  A    between atoms: C_3  and  C_17 
REMARK    3  A    between atoms: C_4  and  C_5 
REMARK    4  A    between atoms: C_5  and  N_6 
REMARK    5  A    between atoms: N_9  and  C_10 
ROOT
ATOM      1  N   UNL d   1       9.860   6.271  -9.369  0.00  0.00     0.141 N 
ATOM      2  C   UNL d   1       9.953   7.724  -9.205  0.00  0.00     0.274 C 
ATOM      3  C   UNL d   1      11.201   8.079  -8.393  0.00  0.00     0.139 C 
ATOM      4  N   UNL d   1      11.126   7.551  -7.038  0.00  0.00    -0.325 N 
ATOM      5  C   UNL d   1      10.947   6.113  -7.170  0.00  0.00     0.139 C 
ATOM      6  C   UNL d   1       9.711   5.738  -8.022  0.00  0.00     0.274 C 
ENDROOT
BRANCH   1   7
ATOM      7  C   UNL d   1       8.682   5.898 -10.148  0.00  0.00     0.257 C 
BRANCH   7   8
ATOM      8  C   UNL d   1       8.891   6.216 -11.646  0.00  0.00     0.084 C 
BRANCH   8   9
ATOM      9  C   UNL d   1       7.580   6.152 -12.436  0.00  0.00     0.090 C 
ATOM     10  N   UNL d   1       6.859   7.148 -12.797  0.00  0.00    -0.101 NA
ATOM     11  O   UNL d   1       7.440   8.403 -12.435  0.00  0.00    -0.061 OA
BRANCH   9  12
ATOM     12  C   UNL d   1       7.146   4.796 -12.819  0.00  0.00     0.016 A 
ATOM     13  C   UNL d   1       5.889   4.301 -12.414  0.00  0.00     0.001 A 
ATOM     14  C   UNL d   1       5.457   3.025 -12.826  0.00  0.00     0.000 A 
ATOM     15  C   UNL d   1       6.261   2.255 -13.688  0.00  0.00     0.000 A 
ATOM     16  C   UNL d   1       7.507   2.748 -14.108  0.00  0.00     0.000 A 
ATOM     17  C   UNL d   1       7.953   4.010 -13.671  0.00  0.00     0.001 A 
ENDBRANCH   9  12
ENDBRANCH   8   9
ENDBRANCH   7   8
ENDBRANCH   1   7
BRANCH   4  18
ATOM     18  C   UNL d   1      11.259   8.251  -5.838  0.00  0.00     0.172 A 
ATOM     19  S   UNL d   1      11.206   9.999  -5.756  0.00  0.00    -0.048 SA
ATOM     20  C   UNL d   1      11.454   9.892  -4.037  0.00  0.00     0.059 A 
ATOM     21  C   UNL d   1      11.617   8.597  -3.626  0.00  0.00     0.108 A 
ATOM     22  N   UNL d   1      11.466   7.671  -4.656  0.00  0.00    -0.221 NA
ENDBRANCH   4  18
TORSDOF 5
