REMARK  6 active torsions:
REMARK  status: ('A' for Active; 'I' for Inactive)
REMARK    1  A    between atoms: C_6  and  C_7 
REMARK    2  A    between atoms: C_10  and  S_11 
REMARK    3  A    between atoms: S_11  and  C_12 
REMARK    4  A    between atoms: C_12  and  C_13 
REMARK    5  A    between atoms: C_13  and  C_14 
REMARK    6  A    between atoms: C_14  and  N_15 
ROOT
ATOM      1  C   UNL d   1       8.857   6.404 -10.933  0.00  0.00     0.047 C 
ENDROOT
BRANCH   1   2
ATOM      2  C   UNL d   1       7.939   6.610 -12.157  0.00  0.00     0.067 C 
BRANCH   2   3
ATOM      3  S   UNL d   1       7.107   5.074 -12.650  0.00  0.00    -0.075 SA
BRANCH   3   4
ATOM      4  C   UNL d   1       8.449   4.298 -13.487  0.00  0.00     0.193 A 
ATOM      5  N   UNL d   1       9.704   4.752 -13.466  0.00  0.00    -0.122 NA
ATOM      6  N   UNL d   1      10.434   3.864 -14.207  0.00  0.00    -0.126 NA
ATOM      7  C   UNL d   1       9.563   2.943 -14.630  0.00  0.00     0.191 A 
ATOM      8  N   UNL d   1       8.294   3.183 -14.229  0.00  0.00    -0.287 N 
ATOM      9  C   UNL d   1       7.076   2.445 -14.538  0.00  0.00     0.134 C 
BRANCH   7  10
ATOM     10  C   UNL d   1      10.003   1.838 -15.463  0.00  0.00     0.151 A 
ATOM     11  C   UNL d   1      11.097   1.685 -16.280  0.00  0.00     0.087 A 
ATOM     12  C   UNL d   1      12.215   2.638 -16.588  0.00  0.00     0.054 C 
ATOM     13  N   UNL d   1      11.042   0.420 -16.846  0.00  0.00    -0.221 NA
ATOM     14  C   UNL d   1       9.929  -0.113 -16.351  0.00  0.00     0.225 A 
ATOM     15  O   UNL d   1       9.247   0.699 -15.505  0.00  0.00    -0.282 OA
ENDBRANCH   7  10
ENDBRANCH   3   4
ENDBRANCH   2   3
ENDBRANCH   1   2
BRANCH   1  16
ATOM     16  C   UNL d   1       9.698   7.652 -10.643  0.00  0.00     0.251 C 
BRANCH  16  17
ATOM     17  N   UNL d   1      10.729   7.370  -9.650  0.00  0.00     0.137 N 
ATOM     18  C   UNL d   1      10.202   7.419  -8.286  0.00  0.00     0.254 C 
ATOM     19  C   UNL d   1      11.471   7.529  -7.437  0.00  0.00     0.052 C 
ATOM     20  C   UNL d   1      12.530   8.141  -8.368  0.00  0.00     0.041 C 
ATOM     21  C   UNL d   1      11.280   8.411  -6.236  0.00  0.00    -0.024 A 
ATOM     22  C   UNL d   1      11.877   6.169  -6.824  0.00  0.00     0.011 C 
ATOM     23  C   UNL d   1      11.773   8.386  -9.665  0.00  0.00     0.251 C 
ATOM     24  C   UNL d   1      11.477   7.744  -5.042  0.00  0.00    -0.020 A 
ATOM     25  C   UNL d   1      11.062   9.800  -6.275  0.00  0.00    -0.004 A 
ATOM     26  C   UNL d   1      11.744   6.297  -5.270  0.00  0.00     0.027 C 
ATOM     27  C   UNL d   1      11.514   8.423  -3.826  0.00  0.00     0.030 A 
ATOM     28 BR   UNL d   1      11.908   7.510  -2.209  0.00  0.00    -0.050 Br
ATOM     29  C   UNL d   1      11.263   9.805  -3.832  0.00  0.00     0.006 A 
ATOM     30  C   UNL d   1      11.046  10.484  -5.048  0.00  0.00     0.000 A 
ENDBRANCH  16  17
ENDBRANCH   1  16
TORSDOF 6
