REMARK  7 active torsions:
REMARK  status: ('A' for Active; 'I' for Inactive)
REMARK    1  A    between atoms: C_3  and  C_4 
REMARK    2  A    between atoms: N_14  and  C_15 
REMARK    3  A    between atoms: C_15  and  C_16 
REMARK    4  A    between atoms: C_16  and  C_17 
REMARK    5  A    between atoms: C_17  and  C_18 
REMARK    6  A    between atoms: C_18  and  N_19 
REMARK    7  A    between atoms: C_23  and  C_24 
ROOT
ATOM      1  C   UNL d   1      10.709   4.154 -16.004  0.00  0.00     0.114 C 
ENDROOT
BRANCH   1   2
ATOM      2  N   UNL d   1      10.287   3.900 -17.374  0.00  0.00    -0.249 N 
ATOM      3  C   UNL d   1       9.995   5.030 -18.169  0.00  0.00     0.265 A 
ATOM      4  O   UNL d   1      10.171   6.169 -17.733  0.00  0.00    -0.267 OA
ATOM      5  C   UNL d   1       9.476   4.762 -19.513  0.00  0.00     0.068 A 
ATOM      6  C   UNL d   1       9.353   3.470 -19.934  0.00  0.00     0.046 A 
ATOM      7  C   UNL d   1       8.833   3.083 -21.325  0.00  0.00     0.044 C 
ATOM      8  N   UNL d   1       9.656   2.380 -19.124  0.00  0.00    -0.285 N 
ATOM      9  C   UNL d   1       7.785   1.959 -21.288  0.00  0.00     0.008 C 
ATOM     10  C   UNL d   1       8.107   0.853 -20.271  0.00  0.00     0.025 C 
ATOM     11  C   UNL d   1       9.482   1.025 -19.610  0.00  0.00     0.110 C 
ATOM     12  C   UNL d   1      10.146   2.564 -17.809  0.00  0.00     0.333 A 
ATOM     13  O   UNL d   1      10.441   1.614 -17.082  0.00  0.00    -0.246 OA
BRANCH   5  14
ATOM     14  C   UNL d   1       9.185   5.900 -20.408  0.00  0.00     0.006 A 
ATOM     15  C   UNL d   1       8.160   6.812 -20.078  0.00  0.00     0.000 A 
ATOM     16  C   UNL d   1       7.869   7.890 -20.936  0.00  0.00     0.000 A 
ATOM     17  C   UNL d   1       8.610   8.067 -22.120  0.00  0.00     0.000 A 
ATOM     18  C   UNL d   1       9.638   7.163 -22.450  0.00  0.00     0.000 A 
ATOM     19  C   UNL d   1       9.934   6.087 -21.591  0.00  0.00     0.000 A 
ENDBRANCH   5  14
ENDBRANCH   1   2
BRANCH   1  20
ATOM     20  C   UNL d   1       9.549   4.638 -15.105  0.00  0.00     0.027 C 
BRANCH  20  21
ATOM     21  C   UNL d   1       9.990   4.870 -13.667  0.00  0.00     0.037 C 
BRANCH  21  22
ATOM     22  C   UNL d   1       8.871   5.493 -12.823  0.00  0.00     0.250 C 
BRANCH  22  23
ATOM     23  N   UNL d   1       9.252   5.518 -11.419  0.00  0.00     0.137 N 
ATOM     24  C   UNL d   1       8.329   6.361 -10.656  0.00  0.00     0.255 C 
ATOM     25  C   UNL d   1       8.756   6.463  -9.142  0.00  0.00     0.057 C 
ATOM     26  C   UNL d   1       8.771   5.094  -8.493  0.00  0.00     0.009 C 
ATOM     27  C   UNL d   1       9.634   4.186  -9.321  0.00  0.00     0.036 C 
ATOM     28  C   UNL d   1       9.205   4.215 -10.813  0.00  0.00     0.250 C 
BRANCH  25  29
ATOM     29  C   UNL d   1      10.038   7.213  -8.959  0.00  0.00     0.000 A 
ATOM     30  C   UNL d   1      10.465   7.918  -7.804  0.00  0.00     0.015 A 
ATOM     31  C   UNL d   1      11.749   8.458  -8.103  0.00  0.00     0.081 A 
ATOM     32  C   UNL d   1       9.923   8.168  -6.525  0.00  0.00     0.001 A 
ATOM     33  N   UNL d   1      12.055   8.088  -9.385  0.00  0.00    -0.244 NA
ATOM     34  C   UNL d   1      12.463   9.188  -7.179  0.00  0.00     0.019 A 
ATOM     35  C   UNL d   1      11.014   7.355  -9.884  0.00  0.00     0.095 A 
ATOM     36  C   UNL d   1      11.922   9.443  -5.912  0.00  0.00     0.002 A 
ATOM     37  C   UNL d   1      10.659   8.925  -5.586  0.00  0.00     0.000 A 
ENDBRANCH  25  29
ENDBRANCH  22  23
ENDBRANCH  21  22
ENDBRANCH  20  21
ENDBRANCH   1  20
TORSDOF 7
