REMARK  7 active torsions:
REMARK  status: ('A' for Active; 'I' for Inactive)
REMARK    1  A    between atoms: C_6  and  N_7 
REMARK    2  A    between atoms: N_10  and  C_11 
REMARK    3  A    between atoms: C_11  and  C_12 
REMARK    4  A    between atoms: C_12  and  C_13 
REMARK    5  A    between atoms: C_13  and  C_14 
REMARK    6  A    between atoms: C_14  and  N_15 
REMARK       I    between atoms: N_15  and  C_16 
REMARK    7  A    between atoms: C_16  and  C_18 
ROOT
ATOM      1  C   UNL d   1       9.087   5.820 -13.057  0.00  0.00     0.251 C 
ENDROOT
BRANCH   1   2
ATOM      2  N   UNL d   1       9.758   4.634 -13.575  0.00  0.00     0.141 N 
ATOM      3  C   UNL d   1      10.602   4.980 -14.729  0.00  0.00     0.274 C 
ATOM      4  C   UNL d   1      11.328   3.727 -15.261  0.00  0.00     0.137 C 
ATOM      5  N   UNL d   1      10.360   2.684 -15.567  0.00  0.00    -0.344 N 
ATOM      6  C   UNL d   1       9.408   2.404 -14.504  0.00  0.00     0.137 C 
ATOM      7  C   UNL d   1       8.741   3.679 -14.021  0.00  0.00     0.274 C 
BRANCH   5   8
ATOM      8  C   UNL d   1      10.317   2.026 -16.820  0.00  0.00     0.052 A 
ATOM      9  C   UNL d   1      10.546   2.791 -17.989  0.00  0.00     0.017 A 
ATOM     10  C   UNL d   1      10.499   2.198 -19.263  0.00  0.00     0.001 A 
ATOM     11  C   UNL d   1      10.208   0.832 -19.386  0.00  0.00    -0.004 A 
ATOM     12  C   UNL d   1       9.975   0.053 -18.235  0.00  0.00    -0.024 A 
ATOM     13  C   UNL d   1       9.653  -1.415 -18.409  0.00  0.00     0.031 C 
ATOM     14  C   UNL d   1      10.047   0.633 -16.941  0.00  0.00    -0.010 A 
ATOM     15  C   UNL d   1       9.842  -0.278 -15.726  0.00  0.00     0.032 C 
ENDBRANCH   5   8
ENDBRANCH   1   2
BRANCH   1  16
ATOM     16  C   UNL d   1       8.373   5.536 -11.718  0.00  0.00     0.037 C 
BRANCH  16  17
ATOM     17  C   UNL d   1       9.277   5.931 -10.563  0.00  0.00     0.029 C 
BRANCH  17  18
ATOM     18  C   UNL d   1       8.717   5.559  -9.190  0.00  0.00     0.129 C 
BRANCH  18  19
ATOM     19  N   UNL d   1       9.488   6.087  -8.073  0.00  0.00    -0.233 NA
ATOM     20  C   UNL d   1      10.120   7.274  -8.014  0.00  0.00     0.298 C 
ATOM     21  O   UNL d   1      10.283   8.052  -8.940  0.00  0.00    -0.263 OA
BRANCH  20  22
ATOM     22  C   UNL d   1      10.596   7.677  -6.684  0.00  0.00     0.157 A 
ATOM     23  O   UNL d   1      11.042   6.716  -5.814  0.00  0.00    -0.302 OA
ATOM     24  C   UNL d   1      11.463   7.368  -4.673  0.00  0.00     0.100 A 
ATOM     25  C   UNL d   1      11.262   8.757  -4.832  0.00  0.00     0.025 A 
ATOM     26  C   UNL d   1      12.005   6.793  -3.521  0.00  0.00     0.025 A 
ATOM     27  C   UNL d   1      10.700   8.927  -6.135  0.00  0.00     0.032 A 
ATOM     28  C   UNL d   1      11.626   9.590  -3.748  0.00  0.00     0.002 A 
ATOM     29  C   UNL d   1      12.164   9.025  -2.573  0.00  0.00     0.000 A 
ATOM     30  C   UNL d   1      12.347   7.634  -2.454  0.00  0.00     0.002 A 
ENDBRANCH  20  22
ENDBRANCH  18  19
ENDBRANCH  17  18
ENDBRANCH  16  17
ENDBRANCH   1  16
TORSDOF 7
