REMARK  5 active torsions:
REMARK  status: ('A' for Active; 'I' for Inactive)
REMARK    1  A    between atoms: C_5  and  C_6 
REMARK    2  A    between atoms: C_9  and  O_10 
REMARK    3  A    between atoms: O_10  and  C_11 
REMARK    4  A    between atoms: C_11  and  C_12 
REMARK    5  A    between atoms: C_17  and  N_18 
ROOT
ATOM      1  C   UNL d   1       9.380   5.482 -11.579  0.00  0.00     0.206 A 
ATOM      2  N   UNL d   1       9.220   6.539 -12.366  0.00  0.00    -0.039 NA
ATOM      3  C   UNL d   1       9.242   7.664 -11.672  0.00  0.00     0.785 A 
ATOM      4  N   UNL d   1       9.043   8.788 -12.390  0.00  0.00     0.063 N 
ATOM      5  N   UNL d   1       9.464   7.851 -10.391  0.00  0.00     0.134 NA
ATOM      6  C   UNL d   1       9.540   6.707  -9.733  0.00  0.00     0.744 A 
ATOM      7  N   UNL d   1       9.517   5.473 -10.251  0.00  0.00    -0.043 NA
ENDROOT
BRANCH   1   8
ATOM      8  C   UNL d   1       9.481   4.168 -12.330  0.00  0.00     0.215 C 
BRANCH   8   9
ATOM      9  O   UNL d   1       8.258   3.913 -13.002  0.00  0.00    -0.323 OA
BRANCH   9  10
ATOM     10  C   UNL d   1       8.158   2.853 -13.876  0.00  0.00     0.090 A 
ATOM     11  C   UNL d   1       6.872   2.293 -14.093  0.00  0.00    -0.000 A 
ATOM     12  C   UNL d   1       6.712   1.205 -14.977  0.00  0.00    -0.003 A 
ATOM     13  C   UNL d   1       7.824   0.673 -15.650  0.00  0.00    -0.004 A 
ATOM     14  C   UNL d   1       9.107   1.212 -15.420  0.00  0.00    -0.020 A 
ATOM     15  C   UNL d   1      10.319   0.662 -16.130  0.00  0.00     0.031 C 
ATOM     16  C   UNL d   1       9.274   2.282 -14.523  0.00  0.00     0.020 A 
BRANCH  11  17
ATOM     17  C   UNL d   1       5.651   2.807 -13.342  0.00  0.00     0.024 C 
ATOM     18  C   UNL d   1       5.302   4.258 -13.705  0.00  0.00     0.005 C 
ATOM     19  C   UNL d   1       5.725   2.606 -11.842  0.00  0.00     0.005 C 
ENDBRANCH  11  17
ENDBRANCH   9  10
ENDBRANCH   8   9
ENDBRANCH   1   8
BRANCH   6  20
ATOM     20  N   UNL d   1       9.763   6.828  -8.382  0.00  0.00    -0.178 N 
ATOM     21  C   UNL d   1       9.104   7.827  -7.536  0.00  0.00     0.155 C 
ATOM     22  C   UNL d   1      10.152   8.514  -6.651  0.00  0.00     0.275 C 
ATOM     23  N   UNL d   1      10.868   7.528  -5.838  0.00  0.00     0.143 N 
ATOM     24  C   UNL d   1      11.548   6.588  -6.732  0.00  0.00     0.275 C 
ATOM     25  C   UNL d   1      11.850   8.218  -5.007  0.00  0.00     0.286 C 
ATOM     26  C   UNL d   1      10.530   5.860  -7.626  0.00  0.00     0.155 C 
ENDBRANCH   6  20
TORSDOF 5
