REMARK  4 active torsions:
REMARK  status: ('A' for Active; 'I' for Inactive)
REMARK    1  A    between atoms: C_5  and  C_6 
REMARK    2  A    between atoms: C_8  and  C_9 
REMARK    3  A    between atoms: N_12  and  C_13 
REMARK    4  A    between atoms: C_13  and  C_14 
ROOT
ATOM      1  C   UNL d   1       9.440   5.652  -9.995  0.00  0.00     0.046 C 
ATOM      2  C   UNL d   1       9.841   6.438 -11.235  0.00  0.00     0.041 C 
ATOM      3  C   UNL d   1       9.562   5.618 -12.482  0.00  0.00     0.251 C 
ATOM      4  N   UNL d   1       8.142   5.365 -12.653  0.00  0.00     0.141 N 
ATOM      5  C   UNL d   1       7.689   4.561 -11.530  0.00  0.00     0.251 C 
ATOM      6  C   UNL d   1       7.998   5.267 -10.200  0.00  0.00     0.041 C 
ENDROOT
BRANCH   1   7
ATOM      7  C   UNL d   1       9.691   6.457  -8.763  0.00  0.00     0.082 A 
ATOM      8  C   UNL d   1      10.534   6.288  -7.703  0.00  0.00     0.037 A 
ATOM      9  C   UNL d   1      10.324   7.442  -6.898  0.00  0.00     0.104 A 
ATOM     10  N   UNL d   1       9.448   8.281  -7.436  0.00  0.00    -0.148 NA
ATOM     11  N   UNL d   1       9.068   7.662  -8.563  0.00  0.00    -0.152 NA
BRANCH   9  12
ATOM     12  C   UNL d   1      10.954   7.758  -5.627  0.00  0.00     0.019 A 
ATOM     13  C   UNL d   1      11.479   6.728  -4.823  0.00  0.00     0.002 A 
ATOM     14  C   UNL d   1      12.062   7.009  -3.582  0.00  0.00     0.011 A 
ATOM     15  C   UNL d   1      12.133   8.347  -3.161  0.00  0.00     0.058 A 
ATOM     16 CL   UNL d   1      12.828   8.752  -1.651  0.00  0.00    -0.082 Cl
ATOM     17  C   UNL d   1      11.628   9.383  -3.951  0.00  0.00     0.011 A 
ATOM     18  C   UNL d   1      11.038   9.098  -5.190  0.00  0.00     0.002 A 
ENDBRANCH   9  12
ENDBRANCH   1   7
BRANCH   4  19
ATOM     19  C   UNL d   1       7.884   4.676 -13.916  0.00  0.00     0.277 C 
BRANCH  19  20
ATOM     20  C   UNL d   1       8.583   3.338 -14.178  0.00  0.00     0.011 A 
ATOM     21  C   UNL d   1       7.808   2.186 -14.444  0.00  0.00    -0.002 A 
ATOM     22  C   UNL d   1       8.455   0.927 -14.613  0.00  0.00    -0.000 A 
ATOM     23  C   UNL d   1       9.861   0.833 -14.488  0.00  0.00    -0.000 A 
ATOM     24  C   UNL d   1      10.624   2.003 -14.258  0.00  0.00    -0.000 A 
ATOM     25  C   UNL d   1      10.001   3.244 -14.153  0.00  0.00    -0.002 A 
ENDBRANCH  19  20
ENDBRANCH   4  19
TORSDOF 4
