REMARK  5 active torsions:
REMARK  status: ('A' for Active; 'I' for Inactive)
REMARK    1  A    between atoms: C_8  and  S_9 
REMARK    2  A    between atoms: S_9  and  N_12 
REMARK    3  A    between atoms: C_15  and  C_16 
REMARK    4  A    between atoms: C_16  and  C_17 
REMARK    5  A    between atoms: C_17  and  C_18 
ROOT
ATOM      1  N   UNL d   1      10.719   5.172 -14.106  0.00  0.00    -0.191 NA
ATOM      2  C   UNL d   1       9.753   4.549 -13.993  0.00  0.00     0.102 C 
ATOM      3  C   UNL d   1       8.534   3.769 -13.853  0.00  0.00     0.081 A 
ATOM      4  C   UNL d   1       8.473   2.519 -14.506  0.00  0.00     0.011 A 
ATOM      5  C   UNL d   1       7.313   1.728 -14.426  0.00  0.00     0.001 A 
ATOM      6  C   UNL d   1       6.208   2.183 -13.679  0.00  0.00     0.001 A 
ATOM      7  C   UNL d   1       6.253   3.431 -13.029  0.00  0.00     0.014 A 
ATOM      8  C   UNL d   1       7.419   4.219 -13.100  0.00  0.00     0.113 A 
ENDROOT
BRANCH   8   9
ATOM      9  S   UNL d   1       7.378   5.802 -12.264  0.00  0.00     0.265 S 
ATOM     10  O   UNL d   1       7.848   6.792 -13.234  0.00  0.00    -0.200 OA
ATOM     11  O   UNL d   1       6.057   5.985 -11.639  0.00  0.00    -0.200 OA
BRANCH   9  12
ATOM     12  N   UNL d   1       8.590   5.700 -11.039  0.00  0.00    -0.275 N 
ATOM     13  C   UNL d   1       8.469   4.779  -9.911  0.00  0.00     0.113 C 
ATOM     14  C   UNL d   1       8.536   5.524  -8.585  0.00  0.00     0.025 C 
ATOM     15  C   UNL d   1       9.784   6.407  -8.461  0.00  0.00     0.004 C 
ATOM     16  C   UNL d   1       9.854   7.348  -9.676  0.00  0.00     0.025 C 
ATOM     17  C   UNL d   1       9.754   6.600 -11.005  0.00  0.00     0.113 C 
BRANCH  15  18
ATOM     18  C   UNL d   1       9.759   7.197  -7.135  0.00  0.00     0.005 C 
BRANCH  18  19
ATOM     19  C   UNL d   1      11.042   8.019  -6.905  0.00  0.00     0.029 C 
BRANCH  19  20
ATOM     20  C   UNL d   1      11.400   8.137  -5.436  0.00  0.00     0.005 A 
ATOM     21  C   UNL d   1      11.468   9.396  -4.803  0.00  0.00     0.138 A 
ATOM     22  C   UNL d   1      11.825   9.477  -3.443  0.00  0.00     0.059 A 
ATOM     23  F   UNL d   1      11.183  10.527  -5.494  0.00  0.00    -0.204 F 
ATOM     24  C   UNL d   1      12.105   8.306  -2.714  0.00  0.00     0.142 A 
ATOM     25  C   UNL d   1      12.026   7.049  -3.337  0.00  0.00     0.029 A 
ATOM     26  F   UNL d   1      12.443   8.388  -1.408  0.00  0.00    -0.204 F 
ATOM     27  C   UNL d   1      11.682   6.966  -4.696  0.00  0.00     0.000 A 
ENDBRANCH  19  20
ENDBRANCH  18  19
ENDBRANCH  15  18
ENDBRANCH   9  12
ENDBRANCH   8   9
TORSDOF 5
