REMARK  11 active torsions:
REMARK  status: ('A' for Active; 'I' for Inactive)
REMARK    1  A    between atoms: O_2  and  C_3 
REMARK    2  A    between atoms: C_8  and  C_9 
REMARK    3  A    between atoms: C_11  and  C_12 
REMARK    4  A    between atoms: C_12  and  N_13 
REMARK    5  A    between atoms: N_13  and  C_14 
REMARK    6  A    between atoms: C_14  and  C_15 
REMARK    7  A    between atoms: C_15  and  C_16 
REMARK    8  A    between atoms: C_16  and  C_17 
REMARK    9  A    between atoms: C_17  and  C_18 
REMARK   10  A    between atoms: C_18  and  O_19 
REMARK   11  A    between atoms: O_19  and  C_20 
ROOT
ATOM      1  C   UNL d   1       9.208   5.516 -13.043  0.00  0.00     0.038 C 
ENDROOT
BRANCH   1   2
ATOM      2  C   UNL d   1       8.748   5.030 -11.673  0.00  0.00     0.290 C 
BRANCH   2   3
ATOM      3  N   UNL d   1       9.081   6.040 -10.680  0.00  0.00     0.339 N 
BRANCH   3   4
ATOM      4  C   UNL d   1       8.394   5.710  -9.449  0.00  0.00     0.290 C 
BRANCH   4   5
ATOM      5  C   UNL d   1       8.696   6.695  -8.358  0.00  0.00     0.041 A 
ATOM      6  C   UNL d   1       9.659   6.352  -7.257  0.00  0.00     0.026 A 
ATOM      7  C   UNL d   1       8.196   6.473  -6.949  0.00  0.00     0.007 A 
BRANCH   6   8
ATOM      8  C   UNL d   1      10.611   7.356  -6.753  0.00  0.00    -0.000 A 
ATOM      9  C   UNL d   1      11.444   8.075  -7.619  0.00  0.00     0.090 A 
ATOM     10  C   UNL d   1      12.258   9.079  -7.064  0.00  0.00     0.024 A 
ATOM     11  C   UNL d   1      12.257   9.370  -5.689  0.00  0.00     0.002 A 
ATOM     12  C   UNL d   1      11.442   8.625  -4.825  0.00  0.00    -0.000 A 
ATOM     13  C   UNL d   1      10.652   7.598  -5.380  0.00  0.00    -0.002 A 
BRANCH   9  14
ATOM     14  O   UNL d   1      11.456   7.719  -8.944  0.00  0.00    -0.328 OA
ATOM     15  C   UNL d   1      12.274   8.465  -9.814  0.00  0.00     0.181 C 
ENDBRANCH   9  14
ENDBRANCH   6   8
ENDBRANCH   4   5
ENDBRANCH   3   4
ENDBRANCH   2   3
ENDBRANCH   1   2
BRANCH   1  16
ATOM     16  C   UNL d   1       8.960   4.479 -14.146  0.00  0.00     0.005 C 
BRANCH  16  17
ATOM     17  C   UNL d   1       9.514   4.922 -15.506  0.00  0.00     0.033 C 
BRANCH  17  18
ATOM     18  C   UNL d   1       9.730   3.767 -16.488  0.00  0.00     0.149 C 
BRANCH  18  19
ATOM     19  O   UNL d   1      10.145   4.316 -17.748  0.00  0.00    -0.331 OA
BRANCH  19  20
ATOM     20  C   UNL d   1      11.454   4.740 -17.819  0.00  0.00     0.096 A 
ATOM     21  C   UNL d   1      11.713   5.960 -18.483  0.00  0.00     0.043 A 
ATOM     22  C   UNL d   1      13.028   6.467 -18.544  0.00  0.00     0.087 A 
ATOM     23  C   UNL d   1      14.091   5.740 -17.964  0.00  0.00     0.018 A 
ATOM     24  N   UNL d   1      13.333   7.712 -19.169  0.00  0.00    -0.208 NA
ATOM     25  C   UNL d   1      13.846   4.512 -17.339  0.00  0.00     0.004 A 
ATOM     26  C   UNL d   1      15.433   6.304 -18.052  0.00  0.00     0.006 A 
ATOM     27  C   UNL d   1      12.541   4.002 -17.280  0.00  0.00     0.024 A 
ATOM     28  C   UNL d   1      15.653   7.485 -18.661  0.00  0.00     0.063 A 
ATOM     29  C   UNL d   1      14.563   8.263 -19.261  0.00  0.00     0.279 A 
ATOM     30  O   UNL d   1      14.729   9.344 -19.821  0.00  0.00    -0.265 OA
ENDBRANCH  19  20
ENDBRANCH  18  19
ENDBRANCH  17  18
ENDBRANCH  16  17
ENDBRANCH   1  16
TORSDOF 11
