REMARK  6 active torsions:
REMARK  status: ('A' for Active; 'I' for Inactive)
REMARK    1  A    between atoms: C_2  and  C_3 
REMARK    2  A    between atoms: N_13  and  C_14 
REMARK    3  A    between atoms: C_14  and  C_15 
REMARK    4  A    between atoms: C_15  and  C_17 
REMARK    5  A    between atoms: C_17  and  N_18 
REMARK    6  A    between atoms: N_21  and  C_22 
ROOT
ATOM      1  C   UNL d   1       6.661   3.819 -12.718  0.00  0.00     0.208 C 
ATOM      2  O   UNL d   1       5.748   4.853 -12.485  0.00  0.00    -0.219 OA
ENDROOT
BRANCH   1   3
ATOM      3  C   UNL d   1       6.542   3.548 -14.204  0.00  0.00     0.148 C 
BRANCH   3   4
ATOM      4  N   UNL d   1       7.155   2.292 -14.639  0.00  0.00    -0.247 N 
ATOM      5  C   UNL d   1       6.648   1.083 -14.369  0.00  0.00     0.348 A 
ATOM      6  N   UNL d   1       7.455   0.157 -14.885  0.00  0.00    -0.209 NA
ATOM      7  O   UNL d   1       5.617   0.850 -13.727  0.00  0.00    -0.245 OA
ATOM      8  C   UNL d   1       8.578   0.727 -15.616  0.00  0.00     0.179 A 
ATOM      9  C   UNL d   1       9.903   0.281 -14.971  0.00  0.00     0.039 C 
ATOM     10  C   UNL d   1       8.300   2.198 -15.338  0.00  0.00     0.265 A 
ATOM     11  O   UNL d   1       9.032   3.118 -15.703  0.00  0.00    -0.269 OA
BRANCH   8  12
ATOM     12  C   UNL d   1       8.522   0.461 -17.129  0.00  0.00     0.006 A 
ATOM     13  C   UNL d   1       9.688   0.599 -17.920  0.00  0.00     0.000 A 
ATOM     14  C   UNL d   1       9.659   0.343 -19.301  0.00  0.00     0.029 A 
ATOM     15  C   UNL d   1       8.457  -0.038 -19.920  0.00  0.00     0.140 A 
ATOM     16  C   UNL d   1       7.284  -0.164 -19.154  0.00  0.00     0.029 A 
ATOM     17  F   UNL d   1       8.430  -0.278 -21.252  0.00  0.00    -0.204 F 
ATOM     18  C   UNL d   1       7.314   0.083 -17.767  0.00  0.00     0.000 A 
ENDBRANCH   8  12
ENDBRANCH   3   4
ENDBRANCH   1   3
BRANCH   1  19
ATOM     19  C   UNL d   1       8.108   4.227 -12.341  0.00  0.00     0.285 C 
BRANCH  19  20
ATOM     20  N   UNL d   1       8.330   4.437 -10.922  0.00  0.00     0.148 N 
ATOM     21  C   UNL d   1       7.809   5.693 -10.432  0.00  0.00     0.295 C 
ATOM     22  C   UNL d   1       8.033   5.805  -8.930  0.00  0.00     0.085 C 
ATOM     23  N   UNL d   1       9.391   5.713  -8.576  0.00  0.00    -0.326 N 
ATOM     24  C   UNL d   1      10.003   4.521  -9.042  0.00  0.00     0.141 C 
ATOM     25  C   UNL d   1       9.751   4.400 -10.572  0.00  0.00     0.275 C 
BRANCH  23  26
ATOM     26  C   UNL d   1      10.008   6.760  -7.867  0.00  0.00     0.061 A 
ATOM     27  C   UNL d   1      10.448   6.542  -6.556  0.00  0.00     0.029 A 
ATOM     28  C   UNL d   1      11.067   7.551  -5.814  0.00  0.00     0.070 A 
ATOM     29  C   UNL d   1      11.254   8.793  -6.431  0.00  0.00     0.068 A 
ATOM     30 CL   UNL d   1      11.656   7.232  -4.215  0.00  0.00    -0.081 Cl
ATOM     31  C   UNL d   1      10.804   9.033  -7.736  0.00  0.00     0.014 A 
ATOM     32 CL   UNL d   1      12.082  10.017  -5.616  0.00  0.00    -0.082 Cl
ATOM     33  C   UNL d   1      10.142   8.026  -8.451  0.00  0.00     0.018 A 
ENDBRANCH  23  26
ENDBRANCH  19  20
ENDBRANCH   1  19
TORSDOF 6
