REMARK  4 active torsions:
REMARK  status: ('A' for Active; 'I' for Inactive)
REMARK    1  A    between atoms: C_4  and  C_5 
REMARK    2  A    between atoms: C_5  and  N_6 
REMARK    3  A    between atoms: C_9  and  C_10 
REMARK    4  A    between atoms: C_25  and  C_26 
ROOT
ATOM      1  O   UNL d   1      10.656  -1.018 -17.747  0.00  0.00    -0.291 OA
ATOM      2  C   UNL d   1      10.573   0.204 -17.749  0.00  0.00     0.176 C 
ATOM      3  C   UNL d   1      11.292   1.018 -18.837  0.00  0.00     0.072 C 
ATOM      4  C   UNL d   1      11.732   2.424 -18.372  0.00  0.00     0.047 C 
ATOM      5  C   UNL d   1      10.531   3.206 -17.789  0.00  0.00     0.049 C 
ATOM      6  C   UNL d   1       9.767   2.395 -16.770  0.00  0.00     0.065 A 
ATOM      7  N   UNL d   1       9.064   3.100 -15.855  0.00  0.00    -0.231 NA
ATOM      8  C   UNL d   1       8.359   2.415 -14.959  0.00  0.00     0.162 A 
ATOM      9  N   UNL d   1       8.286   1.084 -14.878  0.00  0.00    -0.225 NA
ATOM     10  C   UNL d   1       9.010   0.369 -15.770  0.00  0.00     0.105 A 
ATOM     11  C   UNL d   1       9.779   0.991 -16.765  0.00  0.00     0.068 A 
ENDROOT
BRANCH   4  12
ATOM     12  C   UNL d   1      12.397   3.194 -19.534  0.00  0.00     0.251 C 
BRANCH  12  13
ATOM     13  N   UNL d   1      13.593   3.921 -19.117  0.00  0.00     0.137 N 
ATOM     14  C   UNL d   1      14.274   4.424 -20.311  0.00  0.00     0.251 C 
ATOM     15  C   UNL d   1      15.600   5.104 -19.917  0.00  0.00     0.041 C 
ATOM     16  C   UNL d   1      15.373   6.250 -18.921  0.00  0.00     0.047 C 
ATOM     17  C   UNL d   1      14.514   5.755 -17.751  0.00  0.00     0.041 C 
ATOM     18  C   UNL d   1      13.257   5.041 -18.235  0.00  0.00     0.251 C 
BRANCH  16  19
ATOM     19  C   UNL d   1      16.678   6.834 -18.429  0.00  0.00     0.087 A 
ATOM     20  C   UNL d   1      17.384   7.976 -18.838  0.00  0.00     0.041 A 
ATOM     21  C   UNL d   1      18.556   8.079 -18.084  0.00  0.00     0.129 A 
ATOM     22  C   UNL d   1      17.113   8.943 -19.834  0.00  0.00     0.006 A 
ATOM     23  O   UNL d   1      18.549   6.988 -17.238  0.00  0.00    -0.211 OA
ATOM     24  C   UNL d   1      19.483   9.112 -18.249  0.00  0.00     0.057 A 
ATOM     25  N   UNL d   1      17.388   6.207 -17.485  0.00  0.00    -0.131 NA
ATOM     26  C   UNL d   1      19.222  10.073 -19.248  0.00  0.00     0.142 A 
ATOM     27  F   UNL d   1      20.105  11.081 -19.451  0.00  0.00    -0.204 F 
ATOM     28  C   UNL d   1      18.047   9.987 -20.038  0.00  0.00     0.030 A 
ENDBRANCH  16  19
ENDBRANCH  12  13
ENDBRANCH   4  12
BRANCH   8  29
ATOM     29  C   UNL d   1       7.573   3.203 -13.999  0.00  0.00     0.036 A 
ATOM     30  C   UNL d   1       6.268   2.795 -13.647  0.00  0.00     0.003 A 
ATOM     31  C   UNL d   1       5.523   3.540 -12.714  0.00  0.00     0.000 A 
ATOM     32  C   UNL d   1       6.077   4.692 -12.127  0.00  0.00     0.000 A 
ATOM     33  C   UNL d   1       7.379   5.103 -12.467  0.00  0.00     0.000 A 
ATOM     34  C   UNL d   1       8.123   4.366 -13.408  0.00  0.00     0.003 A 
ENDBRANCH   8  29
TORSDOF 4
