REMARK  4 active torsions:
REMARK  status: ('A' for Active; 'I' for Inactive)
REMARK    1  A    between atoms: C_2  and  O_4 
REMARK    2  A    between atoms: O_4  and  C_5 
REMARK    3  A    between atoms: C_11  and  N_12 
REMARK    4  A    between atoms: C_13  and  N_14 
ROOT
ATOM      1  C   UNL d   1       8.205   2.891 -14.738  0.00  0.00     0.147 C 
ATOM      2  C   UNL d   1       6.839   2.154 -14.818  0.00  0.00     0.040 C 
ATOM      3  C   UNL d   1       5.878   2.871 -13.851  0.00  0.00     0.029 C 
ATOM      4  C   UNL d   1       6.766   3.757 -13.058  0.00  0.00    -0.024 A 
ATOM      5  C   UNL d   1       6.384   4.519 -11.959  0.00  0.00    -0.003 A 
ATOM      6  C   UNL d   1       7.362   5.298 -11.318  0.00  0.00     0.019 A 
ATOM      7  C   UNL d   1       8.716   5.297 -11.765  0.00  0.00     0.083 A 
ATOM      8  C   UNL d   1       9.062   4.541 -12.913  0.00  0.00     0.017 A 
ATOM      9  C   UNL d   1       8.070   3.773 -13.534  0.00  0.00     0.003 A 
ENDROOT
BRANCH   7  10
ATOM     10  N   UNL d   1       9.720   6.021 -11.118  0.00  0.00    -0.226 NA
ATOM     11  C   UNL d   1       9.678   6.134  -9.829  0.00  0.00     0.175 C 
BRANCH  11  12
ATOM     12  N   UNL d   1      10.626   6.792  -9.071  0.00  0.00    -0.327 N 
ATOM     13  C   UNL d   1      10.804   6.475  -7.659  0.00  0.00     0.129 C 
ATOM     14  C   UNL d   1      10.972   7.685  -6.764  0.00  0.00    -0.004 A 
ATOM     15  C   UNL d   1      11.119   8.982  -7.311  0.00  0.00    -0.022 A 
ATOM     16  C   UNL d   1      11.001   7.491  -5.370  0.00  0.00    -0.003 A 
ATOM     17  C   UNL d   1      11.093   9.180  -8.825  0.00  0.00     0.050 C 
ATOM     18  C   UNL d   1      11.259  10.082  -6.444  0.00  0.00    -0.004 A 
ATOM     19  C   UNL d   1      11.421   7.899  -9.582  0.00  0.00     0.108 C 
ATOM     20  C   UNL d   1      11.247   9.893  -5.047  0.00  0.00    -0.000 A 
ATOM     21  C   UNL d   1      11.147   8.598  -4.513  0.00  0.00    -0.000 A 
ENDBRANCH  11  12
ENDBRANCH   7  10
BRANCH   1  22
ATOM     22  O   UNL d   1       9.251   1.965 -14.607  0.00  0.00    -0.300 OA
BRANCH  22  23
ATOM     23  C   UNL d   1       9.636   1.275 -15.672  0.00  0.00     0.273 C 
ATOM     24  C   UNL d   1      10.653   0.229 -15.295  0.00  0.00     0.106 C 
ATOM     25  O   UNL d   1       9.255   1.427 -16.833  0.00  0.00    -0.264 OA
ENDBRANCH  22  23
ENDBRANCH   1  22
TORSDOF 4
