REMARK  6 active torsions:
REMARK  status: ('A' for Active; 'I' for Inactive)
REMARK       I    between atoms: C_2  and  N_3 
REMARK    1  A    between atoms: C_2  and  C_27 
REMARK    2  A    between atoms: N_3  and  C_4 
REMARK    3  A    between atoms: C_7  and  C_8 
REMARK    4  A    between atoms: C_8  and  C_9 
REMARK    5  A    between atoms: C_9  and  N_10 
REMARK    6  A    between atoms: C_13  and  C_14 
ROOT
ATOM      1  N   UNL d   1       9.219   6.493  -9.470  0.00  0.00     0.137 N 
ATOM      2  C   UNL d   1      10.667   6.606  -9.363  0.00  0.00     0.251 C 
ATOM      3  C   UNL d   1      11.108   7.526  -8.256  0.00  0.00     0.040 C 
ATOM      4  C   UNL d   1      10.526   7.081  -6.919  0.00  0.00     0.026 C 
ATOM      5  C   UNL d   1       9.004   6.896  -7.041  0.00  0.00     0.040 C 
ATOM      6  C   UNL d   1       8.661   5.971  -8.222  0.00  0.00     0.251 C 
ENDROOT
BRANCH   1   7
ATOM      7  C   UNL d   1       8.760   5.659 -10.582  0.00  0.00     0.250 C 
BRANCH   7   8
ATOM      8  C   UNL d   1       9.591   5.777 -11.881  0.00  0.00     0.035 C 
BRANCH   8   9
ATOM      9  C   UNL d   1       9.630   4.477 -12.695  0.00  0.00     0.002 C 
ATOM     10  C   UNL d   1       8.276   4.243 -13.378  0.00  0.00     0.002 C 
ATOM     11  C   UNL d   1       8.313   3.009 -14.283  0.00  0.00     0.024 C 
ATOM     12  C   UNL d   1       9.455   3.100 -15.315  0.00  0.00     0.106 C 
ATOM     13  C   UNL d   1      10.813   3.297 -14.611  0.00  0.00     0.024 C 
ATOM     14  C   UNL d   1      10.773   4.532 -13.724  0.00  0.00     0.002 C 
BRANCH  12  15
ATOM     15  N   UNL d   1       9.473   1.891 -16.114  0.00  0.00    -0.240 NA
ATOM     16  C   UNL d   1      10.130   1.746 -17.274  0.00  0.00     0.251 C 
ATOM     17  O   UNL d   1      10.765   2.654 -17.806  0.00  0.00    -0.271 OA
BRANCH  16  18
ATOM     18  C   UNL d   1      10.032   0.378 -17.853  0.00  0.00     0.081 A 
ATOM     19  C   UNL d   1      10.125   0.255 -19.359  0.00  0.00     0.010 A 
ATOM     20  C   UNL d   1      11.280  -0.187 -18.499  0.00  0.00     0.010 A 
ENDBRANCH  16  18
ENDBRANCH  12  15
ENDBRANCH   8   9
ENDBRANCH   7   8
ENDBRANCH   1   7
BRANCH   4  21
ATOM     21  C   UNL d   1      10.893   8.082  -5.836  0.00  0.00    -0.024 A 
ATOM     22  C   UNL d   1      11.473   7.692  -4.624  0.00  0.00    -0.001 A 
ATOM     23  C   UNL d   1      11.798   8.589  -3.618  0.00  0.00     0.090 A 
ATOM     24  C   UNL d   1      11.773   6.326  -4.151  0.00  0.00     0.061 A 
ATOM     25  C   UNL d   1      11.545   9.955  -3.797  0.00  0.00     0.024 A 
ATOM     26  O   UNL d   1      12.312   8.000  -2.502  0.00  0.00    -0.331 OA
ATOM     27  C   UNL d   1      11.019  10.387  -5.028  0.00  0.00     0.002 A 
ATOM     28  C   UNL d   1      10.678   9.465  -6.038  0.00  0.00    -0.004 A 
ATOM     29  C   UNL d   1      12.419   6.595  -2.775  0.00  0.00     0.154 A 
ENDBRANCH   4  21
TORSDOF 6
