REMARK  6 active torsions:
REMARK  status: ('A' for Active; 'I' for Inactive)
REMARK       I    between atoms: C_2  and  N_3 
REMARK    1  A    between atoms: C_2  and  C_27 
REMARK    2  A    between atoms: N_3  and  C_4 
REMARK    3  A    between atoms: C_7  and  C_8 
REMARK    4  A    between atoms: C_8  and  C_9 
REMARK    5  A    between atoms: C_9  and  N_10 
REMARK    6  A    between atoms: C_13  and  C_14 
ROOT
ATOM      1  C   UNL d   1       9.269   5.144 -11.431  0.00  0.00     0.035 C 
ENDROOT
BRANCH   1   2
ATOM      2  C   UNL d   1       8.618   4.078 -12.320  0.00  0.00     0.002 C 
ATOM      3  C   UNL d   1       7.352   4.567 -13.029  0.00  0.00     0.002 C 
ATOM      4  C   UNL d   1       6.718   3.439 -13.848  0.00  0.00     0.024 C 
ATOM      5  C   UNL d   1       7.748   2.813 -14.826  0.00  0.00     0.106 C 
ATOM      6  C   UNL d   1       8.979   2.271 -14.109  0.00  0.00     0.024 C 
ATOM      7  C   UNL d   1       9.614   3.418 -13.305  0.00  0.00     0.002 C 
BRANCH   5   8
ATOM      8  N   UNL d   1       7.083   1.737 -15.573  0.00  0.00    -0.240 NA
ATOM      9  C   UNL d   1       7.362   1.402 -16.834  0.00  0.00     0.251 C 
ATOM     10  O   UNL d   1       8.119   2.055 -17.547  0.00  0.00    -0.271 OA
BRANCH   9  11
ATOM     11  C   UNL d   1       6.699   0.131 -17.366  0.00  0.00     0.086 C 
ATOM     12  C   UNL d   1       5.669   0.459 -18.457  0.00  0.00     0.042 C 
ATOM     13  C   UNL d   1       5.084  -0.834 -19.044  0.00  0.00     0.143 C 
ATOM     14  O   UNL d   1       6.135  -1.652 -19.553  0.00  0.00    -0.354 OA
ATOM     15  C   UNL d   1       7.055  -2.069 -18.549  0.00  0.00     0.143 C 
ATOM     16  C   UNL d   1       7.746  -0.839 -17.943  0.00  0.00     0.042 C 
ENDBRANCH   9  11
ENDBRANCH   5   8
ENDBRANCH   1   2
BRANCH   1  17
ATOM     17  C   UNL d   1       8.519   5.395 -10.093  0.00  0.00     0.250 C 
BRANCH  17  18
ATOM     18  N   UNL d   1       9.318   6.156  -9.119  0.00  0.00     0.137 N 
ATOM     19  C   UNL d   1       8.547   6.343  -7.910  0.00  0.00     0.251 C 
ATOM     20  C   UNL d   1       9.171   7.384  -6.975  0.00  0.00     0.040 C 
ATOM     21  C   UNL d   1      10.506   6.824  -6.533  0.00  0.00     0.028 C 
ATOM     22  C   UNL d   1      11.317   6.396  -7.733  0.00  0.00     0.040 C 
ATOM     23  C   UNL d   1      10.527   5.510  -8.723  0.00  0.00     0.251 C 
BRANCH  21  24
ATOM     24  C   UNL d   1      11.292   7.779  -5.684  0.00  0.00     0.002 A 
ATOM     25  C   UNL d   1      11.671   7.444  -4.363  0.00  0.00     0.115 A 
ATOM     26  C   UNL d   1      12.407   8.299  -3.594  0.00  0.00     0.119 A 
ATOM     27  O   UNL d   1      11.421   6.322  -3.657  0.00  0.00    -0.300 OA
ATOM     28  C   UNL d   1      12.826   9.529  -4.105  0.00  0.00     0.026 A 
ATOM     29  O   UNL d   1      12.638   7.751  -2.374  0.00  0.00    -0.300 OA
ATOM     30  C   UNL d   1      12.481   9.880  -5.431  0.00  0.00     0.002 A 
ATOM     31  C   UNL d   1      11.719   9.009  -6.222  0.00  0.00    -0.002 A 
ATOM     32  C   UNL d   1      12.012   6.498  -2.402  0.00  0.00     0.304 A 
ENDBRANCH  21  24
ENDBRANCH  17  18
ENDBRANCH   1  17
TORSDOF 6
