REMARK  7 active torsions:
REMARK  status: ('A' for Active; 'I' for Inactive)
REMARK    1  A    between atoms: C_5  and  C_6 
REMARK    2  A    between atoms: N_14  and  C_15 
REMARK    3  A    between atoms: C_15  and  C_16 
REMARK    4  A    between atoms: C_18  and  C_19 
REMARK    5  A    between atoms: C_19  and  C_20 
REMARK    6  A    between atoms: C_20  and  N_21 
REMARK       I    between atoms: N_21  and  C_22 
REMARK    7  A    between atoms: C_22  and  C_24 
ROOT
ATOM      1  C   UNL d   1       7.193   3.998 -13.710  0.00  0.00     0.034 A 
ATOM      2  C   UNL d   1       5.758   4.258 -13.293  0.00  0.00     0.002 A 
ATOM      3  C   UNL d   1       6.871   4.373 -12.282  0.00  0.00     0.004 A 
ENDROOT
BRANCH   1   4
ATOM      4  C   UNL d   1       7.657   2.581 -14.043  0.00  0.00     0.250 C 
BRANCH   4   5
ATOM      5  N   UNL d   1       7.965   2.340 -15.466  0.00  0.00     0.140 N 
ATOM      6  C   UNL d   1       8.199   0.911 -15.763  0.00  0.00     0.249 C 
ATOM      7  C   UNL d   1       8.194   0.581 -17.274  0.00  0.00     0.038 C 
ATOM      8  C   UNL d   1       9.510   0.400 -15.118  0.00  0.00     0.176 C 
ATOM      9  O   UNL d   1      10.605   1.193 -15.569  0.00  0.00    -0.348 OA
ATOM     10  C   UNL d   1      10.454   2.590 -15.321  0.00  0.00     0.172 C 
ATOM     11  C   UNL d   1       9.126   3.113 -15.918  0.00  0.00     0.284 C 
BRANCH  10  12
ATOM     12  C   UNL d   1      11.611   3.360 -15.894  0.00  0.00     0.026 A 
ATOM     13  C   UNL d   1      12.031   4.573 -15.316  0.00  0.00     0.098 A 
ATOM     14  N   UNL d   1      13.059   5.300 -15.798  0.00  0.00    -0.230 NA
ATOM     15  C   UNL d   1      13.700   4.834 -16.887  0.00  0.00     0.151 A 
ATOM     16  C   UNL d   1      13.343   3.646 -17.554  0.00  0.00     0.033 A 
ATOM     17  N   UNL d   1      14.783   5.578 -17.336  0.00  0.00    -0.080 NA
ATOM     18  C   UNL d   1      12.270   2.900 -17.047  0.00  0.00     0.002 A 
ENDBRANCH  10  12
ENDBRANCH   4   5
ENDBRANCH   1   4
BRANCH   3  19
ATOM     19  C   UNL d   1       7.299   5.729 -11.751  0.00  0.00     0.026 C 
BRANCH  19  20
ATOM     20  C   UNL d   1       8.819   5.806 -11.516  0.00  0.00     0.129 C 
BRANCH  20  21
ATOM     21  N   UNL d   1       9.124   6.530 -10.290  0.00  0.00    -0.233 NA
ATOM     22  C   UNL d   1       9.538   5.975  -9.144  0.00  0.00     0.293 C 
ATOM     23  O   UNL d   1       9.633   4.758  -8.972  0.00  0.00    -0.264 OA
BRANCH  22  24
ATOM     24  C   UNL d   1       9.956   6.917  -8.088  0.00  0.00     0.139 A 
ATOM     25  N   UNL d   1      10.534   6.397  -6.939  0.00  0.00    -0.241 NA
ATOM     26  C   UNL d   1      10.872   7.399  -6.055  0.00  0.00     0.082 A 
ATOM     27  C   UNL d   1      10.486   8.612  -6.698  0.00  0.00     0.019 A 
ATOM     28  C   UNL d   1      11.461   7.378  -4.778  0.00  0.00     0.019 A 
ATOM     29  C   UNL d   1       9.901   8.283  -7.967  0.00  0.00     0.025 A 
ATOM     30  C   UNL d   1      10.744   9.811  -5.997  0.00  0.00     0.002 A 
ATOM     31  C   UNL d   1      11.308   9.804  -4.710  0.00  0.00     0.000 A 
ATOM     32  C   UNL d   1      11.688   8.595  -4.102  0.00  0.00     0.002 A 
ENDBRANCH  22  24
ENDBRANCH  20  21
ENDBRANCH  19  20
ENDBRANCH   3  19
TORSDOF 7
