REMARK  2 active torsions:
REMARK  status: ('A' for Active; 'I' for Inactive)
REMARK    1  A    between atoms: O_2  and  C_3 
REMARK    2  A    between atoms: C_8  and  O_9 
ROOT
ATOM      1  C   UNL d   1       5.529  -0.007 -15.634  0.00  0.00     0.116 C 
ATOM      2  C   UNL d   1       5.809  -0.024 -17.019  0.00  0.00     0.026 C 
ATOM      3  C   UNL d   1       6.848   0.769 -17.535  0.00  0.00    -0.002 C 
ATOM      4  C   UNL d   1       7.568   1.628 -16.685  0.00  0.00    -0.018 C 
ATOM      5  C   UNL d   1       7.229   1.761 -15.321  0.00  0.00     0.021 C 
ATOM      6  C   UNL d   1       6.270   0.855 -14.790  0.00  0.00     0.116 C 
ATOM      7  C   UNL d   1       7.970   2.775 -14.522  0.00  0.00     0.005 C 
ATOM      8  C   UNL d   1       7.400   3.598 -13.503  0.00  0.00     0.034 C 
ATOM      9 BR   UNL d   1       5.526   3.655 -13.149  0.00  0.00    -0.049 Br
ATOM     10  C   UNL d   1       8.182   4.487 -12.739  0.00  0.00     0.006 C 
ATOM     11  C   UNL d   1       9.546   4.659 -13.006  0.00  0.00    -0.004 C 
ATOM     12  C   UNL d   1      10.129   3.985 -14.087  0.00  0.00    -0.022 C 
ATOM     13  C   UNL d   1       9.322   3.088 -14.837  0.00  0.00     0.005 C 
ATOM     14  C   UNL d   1       9.895   2.410 -16.103  0.00  0.00     0.246 C 
ATOM     15  C   UNL d   1       8.801   2.343 -17.203  0.00  0.00     0.064 C 
ATOM     16  N   UNL d   1      11.124   3.025 -16.630  0.00  0.00     0.142 N 
ATOM     17  C   UNL d   1      11.752   2.215 -17.673  0.00  0.00     0.286 C 
ATOM     18  C   UNL d   1      12.072   3.123 -15.533  0.00  0.00     0.255 C 
ATOM     19  C   UNL d   1      11.556   4.189 -14.571  0.00  0.00     0.061 C 
ENDROOT
BRANCH   1  20
ATOM     20  O   UNL d   1       4.557  -0.783 -15.040  0.00  0.00    -0.326 OA
ATOM     21  C   UNL d   1       3.761  -1.611 -15.870  0.00  0.00     0.181 C 
ENDBRANCH   1  20
BRANCH   6  22
ATOM     22  O   UNL d   1       6.062   0.786 -13.438  0.00  0.00    -0.326 OA
ATOM     23  C   UNL d   1       6.614  -0.380 -12.842  0.00  0.00     0.181 C 
ENDBRANCH   6  22
TORSDOF 2
