REMARK  5 active torsions:
REMARK  status: ('A' for Active; 'I' for Inactive)
REMARK    1  A    between atoms: C_3  and  C_4 
REMARK    2  A    between atoms: C_3  and  C_18 
REMARK    3  A    between atoms: C_4  and  C_5 
REMARK    4  A    between atoms: C_5  and  N_6 
REMARK    5  A    between atoms: N_9  and  C_10 
ROOT
ATOM      1  C   UNL d   1       9.764   5.732 -10.615  0.00  0.00     0.257 C 
ENDROOT
BRANCH   1   2
ATOM      2  C   UNL d   1       8.664   5.900 -11.664  0.00  0.00     0.084 C 
BRANCH   2   3
ATOM      3  C   UNL d   1       8.968   5.145 -12.973  0.00  0.00     0.090 C 
ATOM      4  N   UNL d   1      10.008   5.502 -13.624  0.00  0.00    -0.101 NA
ATOM      5  O   UNL d   1      10.036   4.954 -14.936  0.00  0.00    -0.061 OA
BRANCH   3   6
ATOM      6  C   UNL d   1       8.026   4.047 -13.349  0.00  0.00     0.020 A 
ATOM      7  C   UNL d   1       6.659   4.112 -12.986  0.00  0.00     0.031 A 
ATOM      8  C   UNL d   1       5.791   3.044 -13.262  0.00  0.00     0.142 A 
ATOM      9  C   UNL d   1       6.243   1.912 -13.976  0.00  0.00     0.059 A 
ATOM     10  F   UNL d   1       4.503   3.108 -12.843  0.00  0.00    -0.204 F 
ATOM     11  C   UNL d   1       7.584   1.846 -14.384  0.00  0.00     0.142 A 
ATOM     12  C   UNL d   1       8.471   2.882 -14.040  0.00  0.00     0.031 A 
ATOM     13  F   UNL d   1       8.026   0.752 -15.043  0.00  0.00    -0.204 F 
ENDBRANCH   3   6
ENDBRANCH   2   3
ENDBRANCH   1   2
BRANCH   1  14
ATOM     14  N   UNL d   1       9.367   6.331  -9.351  0.00  0.00     0.141 N 
ATOM     15  C   UNL d   1       9.796   7.735  -9.304  0.00  0.00     0.274 C 
ATOM     16  C   UNL d   1       9.355   8.398  -7.983  0.00  0.00     0.138 C 
ATOM     17  N   UNL d   1       9.876   7.623  -6.873  0.00  0.00    -0.330 N 
ATOM     18  C   UNL d   1       9.528   6.223  -6.914  0.00  0.00     0.138 C 
ATOM     19  C   UNL d   1       9.964   5.598  -8.242  0.00  0.00     0.274 C 
BRANCH  17  20
ATOM     20  C   UNL d   1      10.645   8.186  -5.822  0.00  0.00     0.140 A 
ATOM     21  N   UNL d   1      10.516   9.511  -5.644  0.00  0.00    -0.227 NA
ATOM     22  C   UNL d   1      11.178  10.093  -4.629  0.00  0.00     0.101 A 
ATOM     23  C   UNL d   1      12.038   9.404  -3.766  0.00  0.00     0.021 A 
ATOM     24  C   UNL d   1      12.195   8.025  -3.953  0.00  0.00     0.005 A 
ATOM     25  C   UNL d   1      11.463   7.398  -4.988  0.00  0.00     0.037 A 
ENDBRANCH  17  20
ENDBRANCH   1  14
TORSDOF 5
