REMARK  3 active torsions:
REMARK  status: ('A' for Active; 'I' for Inactive)
REMARK    1  A    between atoms: C_7  and  C_8 
REMARK    2  A    between atoms: N_11  and  C_12 
REMARK    3  A    between atoms: C_12  and  C_13 
ROOT
ATOM      1  C   UNL d   1      10.458   1.780 -16.770  0.00  0.00     0.001 C 
ATOM      2  C   UNL d   1      11.454   2.087 -15.913  0.00  0.00     0.007 C 
ATOM      3  C   UNL d   1      11.220   2.741 -14.561  0.00  0.00     0.277 C 
ATOM      4  N   UNL d   1       9.873   3.299 -14.414  0.00  0.00     0.146 N 
ATOM      5  C   UNL d   1       8.883   2.318 -14.859  0.00  0.00     0.256 C 
ATOM      6  C   UNL d   1       9.028   2.072 -16.358  0.00  0.00     0.064 C 
ENDROOT
BRANCH   1   7
ATOM      7  C   UNL d   1      10.714   1.152 -18.062  0.00  0.00     0.107 A 
ATOM      8  S   UNL d   1       9.458   1.080 -19.307  0.00  0.00    -0.067 SA
ATOM      9  C   UNL d   1      10.612   0.263 -20.352  0.00  0.00     0.049 A 
ATOM     10  C   UNL d   1      10.427  -0.203 -21.663  0.00  0.00     0.009 A 
ATOM     11  C   UNL d   1      11.858   0.115 -19.670  0.00  0.00     0.089 A 
ATOM     12  C   UNL d   1      11.495  -0.832 -22.329  0.00  0.00     0.012 A 
ATOM     13  C   UNL d   1      12.736  -0.991 -21.677  0.00  0.00     0.059 A 
ATOM     14 CL   UNL d   1      14.037  -1.788 -22.481  0.00  0.00    -0.082 Cl
ATOM     15  C   UNL d   1      12.912  -0.520 -20.362  0.00  0.00     0.031 A 
ATOM     16  N   UNL d   1      11.901   0.617 -18.376  0.00  0.00    -0.239 NA
ENDBRANCH   1   7
BRANCH   4  17
ATOM     17  C   UNL d   1       9.663   3.687 -13.020  0.00  0.00     0.277 C 
BRANCH  17  18
ATOM     18  C   UNL d   1       8.464   4.600 -12.802  0.00  0.00     0.011 A 
ATOM     19  C   UNL d   1       8.670   5.983 -12.625  0.00  0.00    -0.002 A 
ATOM     20  C   UNL d   1       7.571   6.841 -12.439  0.00  0.00    -0.000 A 
ATOM     21  C   UNL d   1       6.261   6.329 -12.433  0.00  0.00    -0.000 A 
ATOM     22  C   UNL d   1       6.050   4.949 -12.605  0.00  0.00    -0.000 A 
ATOM     23  C   UNL d   1       7.147   4.086 -12.769  0.00  0.00    -0.002 A 
ENDBRANCH  17  18
ENDBRANCH   4  17
TORSDOF 3
