REMARK  9 active torsions:
REMARK  status: ('A' for Active; 'I' for Inactive)
REMARK    1  A    between atoms: C_8  and  O_9 
REMARK    2  A    between atoms: O_9  and  C_10 
REMARK    3  A    between atoms: C_10  and  C_11 
REMARK    4  A    between atoms: C_11  and  C_12 
REMARK    5  A    between atoms: C_12  and  C_13 
REMARK    6  A    between atoms: C_13  and  N_14 
REMARK    7  A    between atoms: C_17  and  C_18 
REMARK    8  A    between atoms: N_20  and  S_21 
REMARK    9  A    between atoms: S_21  and  C_24 
ROOT
ATOM      1  N   UNL d   1       9.548   5.917 -11.490  0.00  0.00     0.137 N 
ATOM      2  C   UNL d   1       8.309   6.233 -12.199  0.00  0.00     0.251 C 
ATOM      3  C   UNL d   1       8.257   5.344 -13.455  0.00  0.00     0.040 C 
ATOM      4  C   UNL d   1       8.245   3.869 -13.129  0.00  0.00     0.028 C 
ATOM      5  C   UNL d   1       9.481   3.644 -12.305  0.00  0.00     0.040 C 
ATOM      6  C   UNL d   1       9.412   4.524 -11.034  0.00  0.00     0.251 C 
ENDROOT
BRANCH   4   7
ATOM      7  C   UNL d   1       8.253   2.986 -14.370  0.00  0.00    -0.003 A 
ATOM      8  C   UNL d   1       7.319   1.959 -14.746  0.00  0.00     0.014 A 
ATOM      9  C   UNL d   1       7.707   1.453 -16.023  0.00  0.00     0.075 A 
ATOM     10  C   UNL d   1       6.175   1.405 -14.127  0.00  0.00     0.001 A 
ATOM     11  N   UNL d   1       8.864   2.151 -16.378  0.00  0.00    -0.231 N 
ATOM     12  C   UNL d   1       6.960   0.438 -16.657  0.00  0.00     0.018 A 
ATOM     13  C   UNL d   1       9.216   3.001 -15.345  0.00  0.00     0.087 A 
ATOM     14  C   UNL d   1       5.838  -0.108 -16.016  0.00  0.00     0.002 A 
ATOM     15  C   UNL d   1       5.448   0.372 -14.751  0.00  0.00     0.000 A 
BRANCH  11  16
ATOM     16  S   UNL d   1       9.789   2.033 -17.843  0.00  0.00     0.271 S 
ATOM     17  O   UNL d   1      11.192   1.998 -17.395  0.00  0.00    -0.200 OA
ATOM     18  O   UNL d   1       9.220   0.932 -18.635  0.00  0.00    -0.200 OA
BRANCH  16  19
ATOM     19  C   UNL d   1       9.484   3.578 -18.708  0.00  0.00     0.104 A 
ATOM     20  C   UNL d   1       9.535   4.805 -18.000  0.00  0.00     0.013 A 
ATOM     21  C   UNL d   1       9.273   6.006 -18.688  0.00  0.00     0.001 A 
ATOM     22  C   UNL d   1       8.989   5.998 -20.069  0.00  0.00     0.000 A 
ATOM     23  C   UNL d   1       8.953   4.769 -20.770  0.00  0.00     0.001 A 
ATOM     24  C   UNL d   1       9.191   3.549 -20.093  0.00  0.00     0.013 A 
ENDBRANCH  16  19
ENDBRANCH  11  16
ENDBRANCH   4   7
BRANCH   1  25
ATOM     25  C   UNL d   1       9.698   6.766 -10.321  0.00  0.00     0.250 C 
BRANCH  25  26
ATOM     26  C   UNL d   1      10.116   8.225 -10.660  0.00  0.00     0.038 C 
BRANCH  26  27
ATOM     27  C   UNL d   1      10.463   9.047  -9.428  0.00  0.00     0.035 C 
BRANCH  27  28
ATOM     28  C   UNL d   1       9.343   8.986  -8.379  0.00  0.00     0.149 C 
BRANCH  28  29
ATOM     29  O   UNL d   1       9.901   9.597  -7.236  0.00  0.00    -0.331 OA
BRANCH  29  30
ATOM     30  C   UNL d   1      10.413   8.793  -6.255  0.00  0.00     0.096 A 
ATOM     31  C   UNL d   1      10.203   7.391  -6.209  0.00  0.00     0.024 A 
ATOM     32  C   UNL d   1      10.772   6.660  -5.163  0.00  0.00    -0.001 A 
ATOM     33  C   UNL d   1      11.457   7.302  -4.138  0.00  0.00    -0.004 A 
ATOM     34  C   UNL d   1      12.063   6.454  -3.031  0.00  0.00     0.038 C 
ATOM     35  C   UNL d   1      11.647   8.697  -4.155  0.00  0.00     0.082 A 
ATOM     36  C   UNL d   1      12.127   7.238  -1.756  0.00  0.00     0.095 C 
ATOM     37  C   UNL d   1      12.666   8.600  -1.995  0.00  0.00     0.256 C 
ATOM     38  O   UNL d   1      13.451   8.971  -1.164  0.00  0.00    -0.270 OA
ATOM     39  N   UNL d   1      12.340   9.303  -3.081  0.00  0.00    -0.212 NA
ATOM     40  C   UNL d   1      11.140   9.440  -5.231  0.00  0.00     0.043 A 
ENDBRANCH  29  30
ENDBRANCH  28  29
ENDBRANCH  27  28
ENDBRANCH  26  27
ENDBRANCH  25  26
ENDBRANCH   1  25
TORSDOF 9
