REMARK  6 active torsions:
REMARK  status: ('A' for Active; 'I' for Inactive)
REMARK       I    between atoms: C_2  and  N_3 
REMARK    1  A    between atoms: C_2  and  C_27 
REMARK    2  A    between atoms: N_3  and  C_4 
REMARK    3  A    between atoms: C_7  and  C_8 
REMARK    4  A    between atoms: C_8  and  C_9 
REMARK    5  A    between atoms: C_9  and  N_10 
REMARK    6  A    between atoms: C_13  and  C_14 
ROOT
ATOM      1  N   UNL d   1       9.785   7.218 -10.037  0.00  0.00     0.137 N 
ATOM      2  C   UNL d   1      11.195   7.589  -9.985  0.00  0.00     0.251 C 
ATOM      3  C   UNL d   1      11.478   8.367  -8.694  0.00  0.00     0.040 C 
ATOM      4  C   UNL d   1      11.045   7.601  -7.428  0.00  0.00     0.028 C 
ATOM      5  C   UNL d   1       9.603   7.100  -7.574  0.00  0.00     0.040 C 
ATOM      6  C   UNL d   1       9.425   6.359  -8.901  0.00  0.00     0.251 C 
ENDROOT
BRANCH   1   7
ATOM      7  C   UNL d   1       9.535   6.498 -11.290  0.00  0.00     0.250 C 
BRANCH   7   8
ATOM      8  C   UNL d   1       8.052   6.455 -11.686  0.00  0.00     0.035 C 
BRANCH   8   9
ATOM      9  C   UNL d   1       7.676   5.412 -12.761  0.00  0.00     0.002 C 
ATOM     10  C   UNL d   1       8.464   4.095 -12.632  0.00  0.00     0.002 C 
ATOM     11  C   UNL d   1       8.044   3.057 -13.665  0.00  0.00     0.024 C 
ATOM     12  C   UNL d   1       6.551   2.720 -13.504  0.00  0.00     0.106 C 
ATOM     13  C   UNL d   1       5.699   3.991 -13.659  0.00  0.00     0.024 C 
ATOM     14  C   UNL d   1       6.150   5.107 -12.683  0.00  0.00     0.002 C 
BRANCH  12  15
ATOM     15  N   UNL d   1       6.186   1.742 -14.512  0.00  0.00    -0.238 NA
ATOM     16  C   UNL d   1       6.391   0.429 -14.515  0.00  0.00     0.279 C 
ATOM     17  O   UNL d   1       7.008  -0.170 -13.630  0.00  0.00    -0.268 OA
BRANCH  16  18
ATOM     18  C   UNL d   1       5.732  -0.275 -15.652  0.00  0.00     0.199 A 
ATOM     19  C   UNL d   1       6.553  -0.859 -16.776  0.00  0.00     0.043 A 
ATOM     20  C   UNL d   1       5.647   0.331 -17.042  0.00  0.00     0.043 A 
ATOM     21  O   UNL d   1       4.603  -1.017 -15.255  0.00  0.00    -0.216 OA
ENDBRANCH  16  18
ENDBRANCH  12  15
ENDBRANCH   8   9
ENDBRANCH   7   8
ENDBRANCH   1   7
BRANCH   4  22
ATOM     22  C   UNL d   1      11.165   8.450  -6.180  0.00  0.00     0.004 A 
ATOM     23  C   UNL d   1      11.506   8.023  -4.856  0.00  0.00     0.021 A 
ATOM     24  C   UNL d   1      11.502   9.190  -4.052  0.00  0.00     0.100 A 
ATOM     25  C   UNL d   1      11.859   6.809  -4.213  0.00  0.00     0.002 A 
ATOM     26  O   UNL d   1      11.106  10.268  -4.816  0.00  0.00    -0.305 OA
ATOM     27  C   UNL d   1      11.872   9.210  -2.712  0.00  0.00     0.025 A 
ATOM     28  C   UNL d   1      10.951   9.796  -6.088  0.00  0.00     0.118 A 
ATOM     29  C   UNL d   1      12.256   7.992  -2.098  0.00  0.00     0.002 A 
ATOM     30  C   UNL d   1      12.239   6.792  -2.851  0.00  0.00     0.000 A 
ENDBRANCH   4  22
TORSDOF 6
