REMARK  0 active torsions:
REMARK  status: ('A' for Active; 'I' for Inactive)
ROOT
ATOM      1  C   UNL d   1       4.368  -0.675 -18.008  0.00  0.00     0.078 C 
ATOM      2  C   UNL d   1       4.609  -0.987 -16.848  0.00  0.00    -0.125 C 
ATOM      3  C   UNL d   1       4.960  -1.315 -15.435  0.00  0.00     0.169 C 
ATOM      4  O   UNL d   1       5.431  -2.636 -15.402  0.00  0.00    -0.214 OA
ATOM      5  C   UNL d   1       3.687  -1.163 -14.535  0.00  0.00     0.042 C 
ATOM      6  C   UNL d   1       3.900   0.099 -13.689  0.00  0.00     0.004 C 
ATOM      7  C   UNL d   1       5.126   0.771 -14.303  0.00  0.00     0.004 C 
ATOM      8  C   UNL d   1       5.872   1.883 -13.517  0.00  0.00     0.004 C 
ATOM      9  C   UNL d   1       5.053   3.038 -12.964  0.00  0.00     0.005 C 
ATOM     10  C   UNL d   1       5.852   3.929 -12.039  0.00  0.00     0.026 C 
ATOM     11  C   UNL d   1       7.201   4.292 -12.595  0.00  0.00    -0.024 A 
ATOM     12  C   UNL d   1       7.891   5.327 -11.950  0.00  0.00     0.023 A 
ATOM     13  C   UNL d   1       9.161   5.694 -12.395  0.00  0.00     0.131 A 
ATOM     14  O   UNL d   1       9.808   6.685 -11.725  0.00  0.00    -0.190 OA
ATOM     15  C   UNL d   1       9.742   5.042 -13.503  0.00  0.00     0.027 A 
ATOM     16  C   UNL d   1       9.055   3.997 -14.145  0.00  0.00    -0.003 A 
ATOM     17  C   UNL d   1       7.781   3.592 -13.686  0.00  0.00    -0.026 A 
ATOM     18  C   UNL d   1       7.033   2.448 -14.377  0.00  0.00     0.022 C 
ATOM     19  C   UNL d   1       7.951   1.323 -14.920  0.00  0.00     0.004 C 
ATOM     20  C   UNL d   1       7.138   0.232 -15.644  0.00  0.00     0.004 C 
ATOM     21  C   UNL d   1       6.027  -0.363 -14.739  0.00  0.00     0.036 C 
ATOM     22  C   UNL d   1       6.659  -0.959 -13.469  0.00  0.00     0.003 C 
ENDROOT
TORSDOF 0
