REMARK  5 active torsions:
REMARK  status: ('A' for Active; 'I' for Inactive)
REMARK    1  A    between atoms: C_2  and  C_3 
REMARK    2  A    between atoms: C_3  and  N_4 
REMARK    3  A    between atoms: N_7  and  C_8 
REMARK    4  A    between atoms: N_16  and  S_17 
REMARK    5  A    between atoms: S_17  and  C_20 
ROOT
ATOM      1  C   UNL d   1      10.648   8.315  -7.580  0.00  0.00     0.056 A 
ATOM      2  C   UNL d   1      11.028   8.683  -8.888  0.00  0.00     0.018 A 
ATOM      3  C   UNL d   1      10.601   7.939  -9.981  0.00  0.00     0.019 A 
ATOM      4  C   UNL d   1       9.769   6.824  -9.784  0.00  0.00     0.066 A 
ATOM      5  C   UNL d   1       9.392   6.453  -8.497  0.00  0.00    -0.002 A 
ATOM      6  C   UNL d   1       9.809   7.186  -7.366  0.00  0.00     0.014 A 
ATOM      7  C   UNL d   1       8.492   5.261  -8.534  0.00  0.00     0.053 A 
ATOM      8  C   UNL d   1       8.346   5.064 -10.067  0.00  0.00     0.123 A 
ATOM      9  N   UNL d   1       9.197   6.030 -10.771  0.00  0.00    -0.254 N 
ENDROOT
BRANCH   1  10
ATOM     10  N   UNL d   1      11.128   9.067  -6.508  0.00  0.00    -0.344 N 
ATOM     11  C   UNL d   1      12.512   9.480  -6.404  0.00  0.00     0.137 C 
ATOM     12  C   UNL d   1      12.989   9.180  -4.942  0.00  0.00     0.274 C 
ATOM     13  N   UNL d   1      12.101   9.743  -3.931  0.00  0.00     0.141 N 
ATOM     14  C   UNL d   1      10.719   9.384  -4.138  0.00  0.00     0.274 C 
ATOM     15  C   UNL d   1      10.242   9.680  -5.537  0.00  0.00     0.137 C 
BRANCH  13  16
ATOM     16  C   UNL d   1      12.549   9.296  -2.607  0.00  0.00     0.250 C 
BRANCH  16  17
ATOM     17  C   UNL d   1      12.074   7.890  -2.119  0.00  0.00     0.035 C 
ATOM     18  C   UNL d   1      12.184   6.709  -3.103  0.00  0.00     0.002 C 
ENDBRANCH  16  17
ENDBRANCH  13  16
ENDBRANCH   1  10
BRANCH   9  19
ATOM     19  S   UNL d   1       8.726   6.592 -12.370  0.00  0.00     0.268 S 
ATOM     20  O   UNL d   1       7.258   6.788 -12.382  0.00  0.00    -0.200 OA
ATOM     21  O   UNL d   1       9.618   7.677 -12.755  0.00  0.00    -0.200 OA
BRANCH  19  22
ATOM     22  C   UNL d   1       9.069   5.172 -13.385  0.00  0.00     0.104 A 
ATOM     23  C   UNL d   1       8.149   4.113 -13.369  0.00  0.00     0.013 A 
ATOM     24  C   UNL d   1       8.374   2.995 -14.189  0.00  0.00     0.001 A 
ATOM     25  C   UNL d   1       9.520   2.942 -15.009  0.00  0.00     0.000 A 
ATOM     26  C   UNL d   1      10.449   4.000 -15.009  0.00  0.00     0.001 A 
ATOM     27  C   UNL d   1      10.229   5.120 -14.190  0.00  0.00     0.013 A 
ENDBRANCH  19  22
ENDBRANCH   9  19
TORSDOF 5
