REMARK  4 active torsions:
REMARK  status: ('A' for Active; 'I' for Inactive)
REMARK    1  A    between atoms: C_2  and  C_3 
REMARK    2  A    between atoms: C_2  and  C_6 
REMARK    3  A    between atoms: C_10  and  C_11 
REMARK    4  A    between atoms: C_11  and  C_13 
ROOT
ATOM      1  C   UNL d   1       9.490   6.305  -9.675  0.00  0.00    -0.012 A 
ATOM      2  C   UNL d   1       8.535   5.631  -8.895  0.00  0.00    -0.004 A 
ATOM      3  C   UNL d   1       8.335   5.992  -7.558  0.00  0.00    -0.000 A 
ATOM      4  C   UNL d   1       9.135   6.960  -6.956  0.00  0.00     0.003 A 
ATOM      5  C   UNL d   1      10.158   7.594  -7.688  0.00  0.00     0.039 A 
ATOM      6  C   UNL d   1      10.312   7.291  -9.063  0.00  0.00    -0.001 A 
ENDROOT
BRANCH   5   7
ATOM      7  C   UNL d   1      11.017   8.618  -7.037  0.00  0.00     0.196 C 
ATOM      8  O   UNL d   1      11.455   9.578  -7.659  0.00  0.00    -0.287 OA
BRANCH   7   9
ATOM      9  C   UNL d   1      11.332   8.443  -5.588  0.00  0.00     0.039 A 
ATOM     10  C   UNL d   1      11.459   7.158  -5.002  0.00  0.00     0.003 A 
ATOM     11  C   UNL d   1      11.807   7.022  -3.647  0.00  0.00     0.000 A 
ATOM     12  C   UNL d   1      11.998   8.166  -2.852  0.00  0.00     0.000 A 
ATOM     13  C   UNL d   1      11.862   9.446  -3.423  0.00  0.00     0.000 A 
ATOM     14  C   UNL d   1      11.540   9.583  -4.786  0.00  0.00     0.003 A 
ENDBRANCH   7   9
ENDBRANCH   5   7
BRANCH   1  15
ATOM     15  C   UNL d   1       9.626   5.985 -11.162  0.00  0.00     0.110 C 
ATOM     16  C   UNL d   1       9.369   4.496 -11.489  0.00  0.00     0.016 C 
BRANCH  15  17
ATOM     17  C   UNL d   1       8.748   6.915 -12.026  0.00  0.00     0.189 C 
ATOM     18  O   UNL d   1       7.889   6.514 -12.810  0.00  0.00    -0.647 OA
ATOM     19  O   UNL d   1       9.059   8.226 -11.841  0.00  0.00    -0.647 OA
ENDBRANCH  15  17
ENDBRANCH   1  15
TORSDOF 4
