REMARK  3 active torsions:
REMARK  status: ('A' for Active; 'I' for Inactive)
REMARK    1  A    between atoms: C_9  and  C_10 
REMARK    2  A    between atoms: C_10  and  N_11 
REMARK    3  A    between atoms: N_14  and  C_15 
ROOT
ATOM      1  N   UNL d   1      10.941   1.164 -15.644  0.00  0.00    -0.191 NA
ATOM      2  C   UNL d   1      10.117   1.776 -15.111  0.00  0.00     0.101 C 
ATOM      3  C   UNL d   1       9.081   2.542 -14.443  0.00  0.00     0.068 A 
ATOM      4  C   UNL d   1       7.726   2.317 -14.772  0.00  0.00     0.012 A 
ATOM      5  C   UNL d   1       6.718   3.043 -14.116  0.00  0.00     0.020 A 
ATOM      6  C   UNL d   1       7.075   3.998 -13.152  0.00  0.00     0.081 A 
ATOM      7  N   UNL d   1       6.319   4.851 -12.383  0.00  0.00    -0.244 NA
ATOM      8  C   UNL d   1       7.138   5.598 -11.560  0.00  0.00     0.097 A 
ATOM      9  C   UNL d   1       8.446   5.250 -11.764  0.00  0.00     0.032 A 
ATOM     10  C   UNL d   1       8.434   4.246 -12.794  0.00  0.00     0.018 A 
ATOM     11  C   UNL d   1       9.427   3.496 -13.462  0.00  0.00     0.011 A 
ENDROOT
BRANCH   9  12
ATOM     12  C   UNL d   1       9.639   5.835 -11.069  0.00  0.00     0.279 C 
BRANCH  12  13
ATOM     13  N   UNL d   1       9.471   6.788  -9.972  0.00  0.00     0.145 N 
ATOM     14  C   UNL d   1       9.045   6.093  -8.748  0.00  0.00     0.275 C 
ATOM     15  C   UNL d   1       8.841   7.091  -7.584  0.00  0.00     0.137 C 
ATOM     16  N   UNL d   1      10.020   7.923  -7.404  0.00  0.00    -0.344 N 
ATOM     17  C   UNL d   1      10.533   8.563  -8.604  0.00  0.00     0.137 C 
ATOM     18  C   UNL d   1      10.724   7.505  -9.711  0.00  0.00     0.275 C 
BRANCH  16  19
ATOM     19  C   UNL d   1      10.649   8.051  -6.163  0.00  0.00     0.056 A 
ATOM     20  C   UNL d   1      10.932   6.901  -5.406  0.00  0.00     0.018 A 
ATOM     21  C   UNL d   1      11.562   6.994  -4.152  0.00  0.00     0.013 A 
ATOM     22  C   UNL d   1      11.899   8.258  -3.638  0.00  0.00     0.058 A 
ATOM     23  C   UNL d   1      11.604   9.416  -4.383  0.00  0.00     0.013 A 
ATOM     24 CL   UNL d   1      12.654   8.391  -2.096  0.00  0.00    -0.082 Cl
ATOM     25  C   UNL d   1      10.995   9.318  -5.652  0.00  0.00     0.018 A 
ENDBRANCH  16  19
ENDBRANCH  12  13
ENDBRANCH   9  12
TORSDOF 3
