REMARK  6 active torsions:
REMARK  status: ('A' for Active; 'I' for Inactive)
REMARK    1  A    between atoms: O_2  and  C_3 
REMARK    2  A    between atoms: C_12  and  N_13 
REMARK    3  A    between atoms: N_13  and  C_14 
REMARK    4  A    between atoms: C_14  and  C_15 
REMARK    5  A    between atoms: C_15  and  N_16 
REMARK    6  A    between atoms: N_19  and  C_20 
ROOT
ATOM      1  C   UNL d   1       8.607   5.700 -11.371  0.00  0.00     0.155 C 
ENDROOT
BRANCH   1   2
ATOM      2  N   UNL d   1       8.866   4.897 -12.565  0.00  0.00    -0.291 NA
BRANCH   2   3
ATOM      3  C   UNL d   1       7.667   4.386 -13.236  0.00  0.00     0.120 C 
ATOM      4  C   UNL d   1       7.997   3.252 -14.221  0.00  0.00    -0.003 A 
ATOM      5  C   UNL d   1       9.153   3.346 -15.030  0.00  0.00    -0.003 A 
ATOM      6  C   UNL d   1       7.128   2.140 -14.381  0.00  0.00    -0.002 A 
ATOM      7  C   UNL d   1       9.453   2.337 -15.965  0.00  0.00     0.002 A 
ATOM      8  C   UNL d   1       8.595   1.228 -16.102  0.00  0.00     0.024 A 
ATOM      9  C   UNL d   1       7.436   1.110 -15.306  0.00  0.00     0.090 A 
ATOM     10  C   UNL d   1       5.869   2.025 -13.536  0.00  0.00     0.028 C 
ATOM     11  C   UNL d   1       5.390   3.327 -12.913  0.00  0.00     0.007 C 
ATOM     12  C   UNL d   1       6.551   4.011 -12.229  0.00  0.00     0.029 C 
BRANCH   9  13
ATOM     13  O   UNL d   1       6.607   0.027 -15.498  0.00  0.00    -0.328 OA
ATOM     14  C   UNL d   1       6.437  -0.866 -14.403  0.00  0.00     0.181 C 
ENDBRANCH   9  13
ENDBRANCH   2   3
ENDBRANCH   1   2
BRANCH   1  15
ATOM     15  C   UNL d   1       9.863   6.379 -10.842  0.00  0.00     0.276 C 
BRANCH  15  16
ATOM     16  N   UNL d   1       9.666   7.224  -9.679  0.00  0.00     0.143 N 
ATOM     17  C   UNL d   1      10.906   7.918  -9.340  0.00  0.00     0.274 C 
ATOM     18  C   UNL d   1      10.711   8.861  -8.145  0.00  0.00     0.137 C 
ATOM     19  N   UNL d   1      10.153   8.129  -7.029  0.00  0.00    -0.344 N 
ATOM     20  C   UNL d   1       8.953   7.358  -7.288  0.00  0.00     0.137 C 
ATOM     21  C   UNL d   1       9.182   6.464  -8.516  0.00  0.00     0.274 C 
BRANCH  19  22
ATOM     22  C   UNL d   1      10.752   8.184  -5.760  0.00  0.00     0.056 A 
ATOM     23  C   UNL d   1      11.034   9.431  -5.178  0.00  0.00     0.018 A 
ATOM     24  C   UNL d   1      11.613   9.484  -3.894  0.00  0.00     0.013 A 
ATOM     25  C   UNL d   1      11.943   8.300  -3.211  0.00  0.00     0.058 A 
ATOM     26  C   UNL d   1      11.678   7.052  -3.809  0.00  0.00     0.013 A 
ATOM     27 CL   UNL d   1      12.646   8.392  -1.646  0.00  0.00    -0.082 Cl
ATOM     28  C   UNL d   1      11.062   6.997  -5.080  0.00  0.00     0.018 A 
ENDBRANCH  19  22
ENDBRANCH  15  16
ENDBRANCH   1  15
TORSDOF 6
