REMARK  5 active torsions:
REMARK  status: ('A' for Active; 'I' for Inactive)
REMARK    1  A    between atoms: C_5  and  C_6 
REMARK    2  A    between atoms: C_6  and  S_7 
REMARK    3  A    between atoms: S_7  and  C_8 
REMARK    4  A    between atoms: N_16  and  C_17 
REMARK    5  A    between atoms: C_17  and  C_18 
ROOT
ATOM      1  C   UNL d   1      10.951   2.356 -17.328  0.00  0.00     0.172 A 
ATOM      2  N   UNL d   1      12.065   2.847 -17.891  0.00  0.00    -0.221 NA
ATOM      3  C   UNL d   1      12.594   1.731 -18.518  0.00  0.00     0.099 A 
ATOM      4  C   UNL d   1      13.748   1.581 -19.312  0.00  0.00     0.021 A 
ATOM      5  C   UNL d   1      14.071   0.312 -19.846  0.00  0.00     0.002 A 
ATOM      6  C   UNL d   1      13.273  -0.824 -19.606  0.00  0.00     0.002 A 
ATOM      7  C   UNL d   1      12.114  -0.692 -18.815  0.00  0.00     0.019 A 
ATOM      8  C   UNL d   1      11.784   0.586 -18.309  0.00  0.00     0.080 A 
ATOM      9  N   UNL d   1      10.726   1.032 -17.573  0.00  0.00    -0.303 N 
ENDROOT
BRANCH   1  10
ATOM     10  S   UNL d   1       9.868   3.354 -16.334  0.00  0.00    -0.072 SA
BRANCH  10  11
ATOM     11  C   UNL d   1       9.931   2.461 -14.736  0.00  0.00     0.091 C 
BRANCH  11  12
ATOM     12  C   UNL d   1       8.556   1.884 -14.342  0.00  0.00    -0.011 A 
ATOM     13  C   UNL d   1       8.303   0.467 -14.316  0.00  0.00    -0.001 A 
ATOM     14  C   UNL d   1       6.984  -0.015 -14.126  0.00  0.00     0.029 A 
ATOM     15  C   UNL d   1       5.949   0.869 -13.817  0.00  0.00     0.140 A 
ATOM     16  F   UNL d   1       4.709   0.401 -13.632  0.00  0.00    -0.204 F 
ATOM     17  C   UNL d   1       6.235   2.248 -13.742  0.00  0.00     0.029 A 
ATOM     18  C   UNL d   1       7.517   2.781 -14.031  0.00  0.00    -0.001 A 
ENDBRANCH  11  12
ENDBRANCH  10  11
ENDBRANCH   1  10
BRANCH   9  19
ATOM     19  C   UNL d   1       9.649   0.198 -17.173  0.00  0.00     0.135 C 
BRANCH  19  20
ATOM     20  C   UNL d   1       8.368   0.395 -17.925  0.00  0.00     0.001 A 
ATOM     21  C   UNL d   1       7.121   0.690 -17.342  0.00  0.00    -0.002 A 
ATOM     22  C   UNL d   1       5.955   0.789 -18.098  0.00  0.00     0.011 A 
ATOM     23  C   UNL d   1       6.045   0.640 -19.488  0.00  0.00     0.058 A 
ATOM     24  C   UNL d   1       7.291   0.389 -20.101  0.00  0.00     0.011 A 
ATOM     25 CL   UNL d   1       4.654   0.781 -20.453  0.00  0.00    -0.082 Cl
ATOM     26  C   UNL d   1       8.449   0.257 -19.300  0.00  0.00    -0.002 A 
ENDBRANCH  19  20
ENDBRANCH   9  19
TORSDOF 5
