REMARK  3 active torsions:
REMARK  status: ('A' for Active; 'I' for Inactive)
REMARK    1  A    between atoms: C_2  and  C_3 
REMARK    2  A    between atoms: C_3  and  N_4 
REMARK    3  A    between atoms: C_7  and  C_8 
ROOT
ATOM      1  C   UNL d   1       9.586   7.019  -8.652  0.00  0.00    -0.022 A 
ATOM      2  C   UNL d   1       9.063   5.712  -8.724  0.00  0.00    -0.004 A 
ATOM      3  C   UNL d   1       8.790   5.133  -9.978  0.00  0.00     0.010 A 
ATOM      4  C   UNL d   1       9.052   5.857 -11.161  0.00  0.00     0.068 A 
ATOM      5  C   UNL d   1       8.788   5.281 -12.460  0.00  0.00     0.101 C 
ATOM      6  N   UNL d   1       8.585   4.828 -13.510  0.00  0.00    -0.191 NA
ATOM      7  C   UNL d   1       9.572   7.160 -11.089  0.00  0.00     0.010 A 
ATOM      8  C   UNL d   1       9.839   7.737  -9.843  0.00  0.00    -0.004 A 
ENDROOT
BRANCH   1   9
ATOM      9  C   UNL d   1       9.911   7.611  -7.291  0.00  0.00     0.026 C 
ATOM     10  C   UNL d   1      10.241   9.110  -7.346  0.00  0.00     0.040 C 
ATOM     11  C   UNL d   1      10.659   9.682  -5.996  0.00  0.00     0.251 C 
ATOM     12  N   UNL d   1      11.789   8.919  -5.463  0.00  0.00     0.137 N 
ATOM     13  C   UNL d   1      11.436   7.505  -5.326  0.00  0.00     0.251 C 
ATOM     14  C   UNL d   1      11.094   6.868  -6.662  0.00  0.00     0.040 C 
BRANCH  12  15
ATOM     15  C   UNL d   1      12.247   9.508  -4.211  0.00  0.00     0.250 C 
BRANCH  15  16
ATOM     16  C   UNL d   1      11.827   8.832  -2.893  0.00  0.00     0.035 C 
ATOM     17  C   UNL d   1      13.002   8.099  -2.263  0.00  0.00     0.002 C 
ENDBRANCH  15  16
ENDBRANCH  12  15
ENDBRANCH   1   9
TORSDOF 3
