REMARK  6 active torsions:
REMARK  status: ('A' for Active; 'I' for Inactive)
REMARK    1  A    between atoms: C_2  and  C_3 
REMARK    2  A    between atoms: C_6  and  O_7 
REMARK    3  A    between atoms: O_7  and  C_8 
REMARK    4  A    between atoms: C_8  and  C_9 
REMARK    5  A    between atoms: C_9  and  N_10 
REMARK       I    between atoms: N_13  and  C_14 
REMARK    6  A    between atoms: C_14  and  C_16 
ROOT
ATOM      1  N   UNL d   1       8.740   5.849 -10.805  0.00  0.00     0.144 N 
ATOM      2  C   UNL d   1       9.123   5.497  -9.438  0.00  0.00     0.274 C 
ATOM      3  C   UNL d   1       9.188   6.739  -8.543  0.00  0.00     0.140 C 
ATOM      4  N   UNL d   1      10.111   7.726  -9.117  0.00  0.00    -0.311 N 
ATOM      5  C   UNL d   1      11.102   8.359  -8.450  0.00  0.00     0.275 C 
ATOM      6  O   UNL d   1      11.795   9.184  -8.996  0.00  0.00    -0.266 OA
ATOM      7  C   UNL d   1       9.783   8.085 -10.504  0.00  0.00     0.140 C 
ATOM      8  C   UNL d   1       9.683   6.814 -11.348  0.00  0.00     0.274 C 
ENDROOT
BRANCH   1   9
ATOM      9  C   UNL d   1       8.636   4.634 -11.599  0.00  0.00     0.283 C 
BRANCH   9  10
ATOM     10  C   UNL d   1       8.130   4.937 -13.020  0.00  0.00     0.184 C 
BRANCH  10  11
ATOM     11  O   UNL d   1       7.598   3.773 -13.632  0.00  0.00    -0.329 OA
BRANCH  11  12
ATOM     12  C   UNL d   1       8.419   2.956 -14.373  0.00  0.00     0.094 A 
ATOM     13  C   UNL d   1       7.769   1.972 -15.139  0.00  0.00     0.024 A 
ATOM     14  C   UNL d   1       8.498   1.141 -16.001  0.00  0.00    -0.002 A 
ATOM     15  C   UNL d   1       9.905   1.251 -16.079  0.00  0.00    -0.022 A 
ATOM     16  C   UNL d   1      10.566   2.219 -15.292  0.00  0.00    -0.002 A 
ATOM     17  C   UNL d   1       9.832   3.059 -14.433  0.00  0.00     0.024 A 
BRANCH  15  18
ATOM     18  C   UNL d   1      10.710   0.354 -17.008  0.00  0.00     0.026 C 
ATOM     19  C   UNL d   1      10.232  -1.107 -17.018  0.00  0.00     0.005 C 
ENDBRANCH  15  18
ENDBRANCH  11  12
ENDBRANCH  10  11
ENDBRANCH   9  10
ENDBRANCH   1   9
BRANCH   5  20
ATOM     20  C   UNL d   1      11.274   8.119  -7.010  0.00  0.00     0.137 A 
ATOM     21  N   UNL d   1      11.424   9.215  -6.155  0.00  0.00    -0.241 NA
ATOM     22  C   UNL d   1      11.629   8.805  -4.847  0.00  0.00     0.082 A 
ATOM     23  C   UNL d   1      11.633   7.380  -4.903  0.00  0.00     0.019 A 
ATOM     24  C   UNL d   1      11.810   9.488  -3.634  0.00  0.00     0.019 A 
ATOM     25  C   UNL d   1      11.447   6.978  -6.264  0.00  0.00     0.025 A 
ATOM     26  C   UNL d   1      11.862   6.687  -3.697  0.00  0.00     0.002 A 
ATOM     27  C   UNL d   1      12.082   7.360  -2.487  0.00  0.00     0.000 A 
ATOM     28  C   UNL d   1      12.061   8.766  -2.452  0.00  0.00     0.002 A 
ENDBRANCH   5  20
TORSDOF 6
