REMARK  8 active torsions:
REMARK  status: ('A' for Active; 'I' for Inactive)
REMARK    1  A    between atoms: O_2  and  C_3 
REMARK    2  A    between atoms: C_8  and  N_9 
REMARK    3  A    between atoms: N_12  and  C_13 
REMARK    4  A    between atoms: C_13  and  C_14 
REMARK    5  A    between atoms: C_14  and  C_15 
REMARK    6  A    between atoms: C_15  and  C_16 
REMARK    7  A    between atoms: C_16  and  N_17 
REMARK       I    between atoms: N_17  and  C_18 
REMARK    8  A    between atoms: C_18  and  C_20 
ROOT
ATOM      1  C   UNL d   1       8.547   6.015 -12.943  0.00  0.00     0.251 C 
ENDROOT
BRANCH   1   2
ATOM      2  N   UNL d   1       9.519   4.949 -13.246  0.00  0.00     0.141 N 
ATOM      3  C   UNL d   1       8.797   3.684 -13.351  0.00  0.00     0.274 C 
ATOM      4  C   UNL d   1       9.787   2.525 -13.635  0.00  0.00     0.137 C 
ATOM      5  N   UNL d   1      10.556   2.777 -14.859  0.00  0.00    -0.343 N 
ATOM      6  C   UNL d   1      11.195   4.102 -14.875  0.00  0.00     0.137 C 
ATOM      7  C   UNL d   1      10.146   5.172 -14.547  0.00  0.00     0.274 C 
BRANCH   5   8
ATOM      8  C   UNL d   1      10.576   1.946 -15.957  0.00  0.00     0.079 A 
ATOM      9  C   UNL d   1       9.424   1.223 -16.395  0.00  0.00     0.110 A 
ATOM     10  C   UNL d   1       9.544   0.309 -17.482  0.00  0.00     0.026 A 
ATOM     11  C   UNL d   1      10.771   0.153 -18.151  0.00  0.00     0.002 A 
ATOM     12  C   UNL d   1      11.889   0.896 -17.756  0.00  0.00     0.002 A 
ATOM     13  C   UNL d   1      11.792   1.784 -16.667  0.00  0.00     0.019 A 
BRANCH   9  14
ATOM     14  O   UNL d   1       8.228   1.480 -15.763  0.00  0.00    -0.327 OA
ATOM     15  C   UNL d   1       7.103   0.675 -16.076  0.00  0.00     0.181 C 
ENDBRANCH   9  14
ENDBRANCH   5   8
ENDBRANCH   1   2
BRANCH   1  16
ATOM     16  C   UNL d   1       9.184   7.364 -12.532  0.00  0.00     0.037 C 
BRANCH  16  17
ATOM     17  C   UNL d   1       9.555   7.338 -11.053  0.00  0.00     0.029 C 
BRANCH  17  18
ATOM     18  C   UNL d   1       9.877   8.715 -10.466  0.00  0.00     0.129 C 
BRANCH  18  19
ATOM     19  N   UNL d   1      10.107   8.726  -9.029  0.00  0.00    -0.233 NA
ATOM     20  C   UNL d   1      10.503   7.703  -8.260  0.00  0.00     0.293 C 
ATOM     21  O   UNL d   1      10.606   6.537  -8.654  0.00  0.00    -0.264 OA
BRANCH  20  22
ATOM     22  C   UNL d   1      10.835   8.059  -6.876  0.00  0.00     0.139 A 
ATOM     23  N   UNL d   1      11.171   7.014  -6.039  0.00  0.00    -0.241 NA
ATOM     24  C   UNL d   1      11.474   7.466  -4.778  0.00  0.00     0.082 A 
ATOM     25  C   UNL d   1      11.339   8.883  -4.844  0.00  0.00     0.019 A 
ATOM     26  C   UNL d   1      11.862   6.789  -3.609  0.00  0.00     0.019 A 
ATOM     27  C   UNL d   1      10.946   9.239  -6.182  0.00  0.00     0.025 A 
ATOM     28  C   UNL d   1      11.589   9.599  -3.659  0.00  0.00     0.002 A 
ATOM     29  C   UNL d   1      11.973   8.942  -2.475  0.00  0.00     0.000 A 
ATOM     30  C   UNL d   1      12.112   7.540  -2.450  0.00  0.00     0.002 A 
ENDBRANCH  20  22
ENDBRANCH  18  19
ENDBRANCH  17  18
ENDBRANCH  16  17
ENDBRANCH   1  16
TORSDOF 8
