REMARK  5 active torsions:
REMARK  status: ('A' for Active; 'I' for Inactive)
REMARK    1  A    between atoms: C_2  and  C_3 
REMARK    2  A    between atoms: C_3  and  N_4 
REMARK    3  A    between atoms: N_4  and  C_5 
REMARK    4  A    between atoms: N_4  and  C_8 
REMARK    5  A    between atoms: C_5  and  C_6 
ROOT
ATOM      1  C   UNL d   1       8.001   4.864 -13.228  0.00  0.00     0.246 C 
ATOM      2  C   UNL d   1       6.960   3.938 -12.602  0.00  0.00     0.063 C 
ATOM      3  C   UNL d   1       6.608   2.783 -13.471  0.00  0.00    -0.004 A 
ATOM      4  C   UNL d   1       5.436   2.022 -13.264  0.00  0.00    -0.003 A 
ATOM      5  C   UNL d   1       5.245   0.805 -13.926  0.00  0.00    -0.000 A 
ATOM      6  C   UNL d   1       6.267   0.287 -14.742  0.00  0.00     0.001 A 
ATOM      7  C   UNL d   1       7.507   0.970 -14.877  0.00  0.00     0.016 A 
ATOM      8  C   UNL d   1       8.614   0.390 -15.612  0.00  0.00     0.006 A 
ATOM      9  C   UNL d   1       9.820   0.997 -15.621  0.00  0.00     0.061 A 
ATOM     10  C   UNL d   1      10.046   2.246 -14.924  0.00  0.00     0.261 A 
ATOM     11  O   UNL d   1      11.190   2.728 -14.849  0.00  0.00    -0.267 OA
ATOM     12  N   UNL d   1       8.972   2.850 -14.335  0.00  0.00    -0.294 N 
ATOM     13  C   UNL d   1       7.649   2.218 -14.252  0.00  0.00     0.059 A 
ATOM     14  C   UNL d   1       9.274   4.108 -13.663  0.00  0.00     0.143 C 
ENDROOT
BRANCH   1  15
ATOM     15  N   UNL d   1       8.303   6.039 -12.377  0.00  0.00     0.137 N 
BRANCH  15  16
ATOM     16  C   UNL d   1       7.451   7.194 -12.675  0.00  0.00     0.250 C 
BRANCH  16  17
ATOM     17  C   UNL d   1       5.960   7.103 -12.262  0.00  0.00     0.035 C 
ATOM     18  C   UNL d   1       5.229   8.424 -12.348  0.00  0.00     0.002 C 
ENDBRANCH  16  17
ENDBRANCH  15  16
BRANCH  15  19
ATOM     19  C   UNL d   1       8.325   5.858 -10.915  0.00  0.00     0.250 C 
BRANCH  19  20
ATOM     20  C   UNL d   1       9.493   5.013 -10.433  0.00  0.00     0.035 C 
ATOM     21  C   UNL d   1       9.365   4.550  -9.003  0.00  0.00     0.002 C 
ENDBRANCH  19  20
ENDBRANCH  15  19
ENDBRANCH   1  15
TORSDOF 5
