REMARK  5 active torsions:
REMARK  status: ('A' for Active; 'I' for Inactive)
REMARK    1  A    between atoms: O_2  and  C_3 
REMARK    2  A    between atoms: C_10  and  C_11 
REMARK    3  A    between atoms: C_11  and  N_12 
REMARK    4  A    between atoms: C_15  and  C_16 
REMARK    5  A    between atoms: C_16  and  C_18 
ROOT
ATOM      1  N   UNL d   1       9.264   5.729 -11.939  0.00  0.00     0.137 N 
ATOM      2  C   UNL d   1       9.480   5.233 -10.589  0.00  0.00     0.251 C 
ATOM      3  C   UNL d   1      10.345   6.214  -9.804  0.00  0.00     0.043 C 
ATOM      4  C   UNL d   1       9.624   7.582  -9.667  0.00  0.00     0.066 C 
ATOM      5  C   UNL d   1       9.262   8.051 -11.107  0.00  0.00     0.043 C 
ATOM      6  C   UNL d   1       8.485   6.965 -11.883  0.00  0.00     0.251 C 
ENDROOT
BRANCH   1   7
ATOM      7  C   UNL d   1       8.575   4.700 -12.709  0.00  0.00     0.251 C 
BRANCH   7   8
ATOM      8  C   UNL d   1       9.616   3.888 -13.509  0.00  0.00     0.045 C 
ATOM      9  C   UNL d   1       8.897   2.861 -14.383  0.00  0.00     0.029 C 
ATOM     10  C   UNL d   1       9.810   2.163 -15.369  0.00  0.00    -0.017 A 
ATOM     11  C   UNL d   1      11.041   2.738 -15.772  0.00  0.00     0.031 A 
ATOM     12  C   UNL d   1       9.406   0.918 -15.888  0.00  0.00     0.020 A 
ATOM     13  C   UNL d   1      11.858   2.038 -16.684  0.00  0.00     0.004 A 
ATOM     14  C   UNL d   1      11.493   4.052 -15.246  0.00  0.00     0.173 C 
ATOM     15  C   UNL d   1      11.454   0.790 -17.189  0.00  0.00     0.024 A 
ATOM     16  C   UNL d   1      10.224   0.226 -16.806  0.00  0.00     0.094 A 
ATOM     17  C   UNL d   1      10.506   4.809 -14.368  0.00  0.00     0.071 C 
ATOM     18  O   UNL d   1      12.589   4.564 -15.498  0.00  0.00    -0.291 OA
BRANCH  16  19
ATOM     19  O   UNL d   1       9.880  -0.991 -17.344  0.00  0.00    -0.328 OA
ATOM     20  C   UNL d   1       8.556  -1.097 -17.842  0.00  0.00     0.181 C 
ENDBRANCH  16  19
ENDBRANCH   7   8
ENDBRANCH   1   7
BRANCH   4  21
ATOM     21  C   UNL d   1      10.495   8.624  -8.931  0.00  0.00     0.173 C 
ATOM     22  O   UNL d   1      10.969   9.578  -9.562  0.00  0.00    -0.291 OA
BRANCH  21  23
ATOM     23  C   UNL d   1      10.765   8.450  -7.474  0.00  0.00     0.035 A 
ATOM     24  C   UNL d   1      10.517   7.231  -6.771  0.00  0.00     0.005 A 
ATOM     25  C   UNL d   1      10.955   7.102  -5.434  0.00  0.00     0.030 A 
ATOM     26  C   UNL d   1      11.507   8.193  -4.731  0.00  0.00     0.140 A 
ATOM     27  C   UNL d   1      11.665   9.429  -5.400  0.00  0.00     0.030 A 
ATOM     28  F   UNL d   1      11.837   8.079  -3.421  0.00  0.00    -0.204 F 
ATOM     29  C   UNL d   1      11.329   9.551  -6.771  0.00  0.00     0.005 A 
ENDBRANCH  21  23
ENDBRANCH   4  21
TORSDOF 5
