REMARK  2 active torsions:
REMARK  status: ('A' for Active; 'I' for Inactive)
REMARK    1  A    between atoms: C_15  and  N_16 
REMARK       I    between atoms: N_16  and  C_17 
REMARK    2  A    between atoms: C_17  and  C_19 
ROOT
ATOM      1  C   UNL d   1       5.333  -0.133 -14.078  0.00  0.00     0.052 C 
ATOM      2  C   UNL d   1       6.592   0.577 -14.424  0.00  0.00     0.056 A 
ATOM      3  N   UNL d   1       7.631  -0.005 -15.123  0.00  0.00    -0.250 NA
ATOM      4  C   UNL d   1       8.674   0.867 -15.238  0.00  0.00     0.080 A 
ATOM      5  C   UNL d   1       9.916   0.727 -15.848  0.00  0.00     0.019 A 
ATOM      6  C   UNL d   1      10.854   1.787 -15.826  0.00  0.00     0.001 A 
ATOM      7  C   UNL d   1      10.533   2.982 -15.163  0.00  0.00    -0.004 A 
ATOM      8  C   UNL d   1       9.274   3.108 -14.535  0.00  0.00    -0.019 A 
ATOM      9  C   UNL d   1       8.340   2.043 -14.604  0.00  0.00     0.011 A 
ATOM     10  C   UNL d   1       7.016   1.839 -14.133  0.00  0.00    -0.005 A 
ATOM     11  C   UNL d   1       6.485   3.008 -13.314  0.00  0.00     0.061 C 
ATOM     12  C   UNL d   1       7.238   4.329 -13.597  0.00  0.00     0.228 C 
ATOM     13  C   UNL d   1       8.772   4.286 -13.725  0.00  0.00     0.056 C 
ATOM     14  C   UNL d   1       9.408   4.321 -12.334  0.00  0.00     0.033 C 
ATOM     15  C   UNL d   1       8.878   5.498 -11.494  0.00  0.00     0.140 C 
ATOM     16  C   UNL d   1       7.340   5.461 -11.429  0.00  0.00     0.274 C 
ATOM     17  N   UNL d   1       6.875   5.505 -12.803  0.00  0.00     0.140 N 
ATOM     18  C   UNL d   1       5.455   5.651 -12.858  0.00  0.00     0.285 C 
ENDROOT
BRANCH  15  19
ATOM     19  N   UNL d   1       9.370   5.443 -10.140  0.00  0.00    -0.238 NA
ATOM     20  C   UNL d   1       9.972   6.469  -9.505  0.00  0.00     0.250 C 
ATOM     21  O   UNL d   1      10.640   7.323 -10.077  0.00  0.00    -0.271 OA
BRANCH  20  22
ATOM     22  C   UNL d   1       9.717   6.625  -7.995  0.00  0.00     0.073 C 
ATOM     23  C   UNL d   1      10.987   6.253  -7.220  0.00  0.00     0.009 C 
ATOM     24  C   UNL d   1       8.517   5.780  -7.553  0.00  0.00     0.009 C 
ATOM     25  C   UNL d   1       9.398   8.108  -7.703  0.00  0.00     0.009 C 
ENDBRANCH  20  22
ENDBRANCH  15  19
TORSDOF 2
