REMARK  5 active torsions:
REMARK  status: ('A' for Active; 'I' for Inactive)
REMARK    1  A    between atoms: O_2  and  C_3 
REMARK    2  A    between atoms: C_8  and  N_9 
REMARK    3  A    between atoms: N_12  and  C_13 
REMARK    4  A    between atoms: C_13  and  C_14 
REMARK    5  A    between atoms: C_14  and  C_15 
ROOT
ATOM      1  N   UNL d   1       7.504   3.452 -13.821  0.00  0.00    -0.343 N 
ATOM      2  C   UNL d   1       6.513   4.243 -13.104  0.00  0.00     0.137 C 
ATOM      3  C   UNL d   1       7.021   4.559 -11.691  0.00  0.00     0.274 C 
ATOM      4  N   UNL d   1       8.336   5.212 -11.740  0.00  0.00     0.141 N 
ATOM      5  C   UNL d   1       9.303   4.306 -12.363  0.00  0.00     0.274 C 
ATOM      6  C   UNL d   1       8.863   3.991 -13.798  0.00  0.00     0.137 C 
ENDROOT
BRANCH   4   7
ATOM      7  C   UNL d   1       8.743   5.536 -10.378  0.00  0.00     0.255 C 
BRANCH   7   8
ATOM      8  C   UNL d   1       9.714   6.735 -10.313  0.00  0.00     0.062 C 
BRANCH   8   9
ATOM      9  C   UNL d   1      10.053   7.195  -8.892  0.00  0.00    -0.018 A 
ATOM     10  C   UNL d   1      11.098   8.132  -8.698  0.00  0.00     0.018 A 
ATOM     11  C   UNL d   1      11.374   8.581  -7.390  0.00  0.00     0.124 A 
ATOM     12  C   UNL d   1      10.652   8.129  -6.266  0.00  0.00     0.124 A 
ATOM     13  N   UNL d   1      12.258   9.450  -6.790  0.00  0.00    -0.127 NA
ATOM     14  C   UNL d   1       9.629   7.186  -6.471  0.00  0.00     0.022 A 
ATOM     15  N   UNL d   1      11.117   8.738  -5.114  0.00  0.00    -0.127 NA
ATOM     16  C   UNL d   1       9.326   6.732  -7.767  0.00  0.00    -0.003 A 
ATOM     17  N   UNL d   1      12.083   9.538  -5.446  0.00  0.00    -0.042 NA
ENDBRANCH   8   9
ENDBRANCH   7   8
ENDBRANCH   4   7
BRANCH   1  18
ATOM     18  C   UNL d   1       7.175   2.243 -14.464  0.00  0.00     0.079 A 
ATOM     19  C   UNL d   1       7.772   1.883 -15.703  0.00  0.00     0.110 A 
ATOM     20  C   UNL d   1       7.413   0.653 -16.306  0.00  0.00     0.026 A 
ATOM     21  C   UNL d   1       6.470  -0.199 -15.704  0.00  0.00     0.002 A 
ATOM     22  C   UNL d   1       5.878   0.156 -14.485  0.00  0.00     0.002 A 
ATOM     23  C   UNL d   1       6.228   1.371 -13.871  0.00  0.00     0.019 A 
BRANCH  19  24
ATOM     24  O   UNL d   1       8.663   2.771 -16.281  0.00  0.00    -0.327 OA
ATOM     25  C   UNL d   1       9.316   2.409 -17.479  0.00  0.00     0.181 C 
ENDBRANCH  19  24
ENDBRANCH   1  18
TORSDOF 5
