REMARK  2 active torsions:
REMARK  status: ('A' for Active; 'I' for Inactive)
REMARK    1  A    between atoms: O_2  and  C_3 
REMARK    2  A    between atoms: C_8  and  N_9 
ROOT
ATOM      1  C   UNL d   1       8.231   5.486 -12.865  0.00  0.00     0.110 A 
ATOM      2  C   UNL d   1       7.005   5.635 -12.168  0.00  0.00     0.026 A 
ATOM      3  C   UNL d   1       5.987   4.671 -12.286  0.00  0.00     0.002 A 
ATOM      4  C   UNL d   1       6.178   3.547 -13.103  0.00  0.00     0.002 A 
ATOM      5  C   UNL d   1       7.391   3.383 -13.798  0.00  0.00     0.019 A 
ATOM      6  C   UNL d   1       8.415   4.349 -13.686  0.00  0.00     0.079 A 
ENDROOT
BRANCH   6   7
ATOM      7  N   UNL d   1       9.611   4.162 -14.393  0.00  0.00    -0.343 N 
ATOM      8  C   UNL d   1       9.944   4.945 -15.571  0.00  0.00     0.137 C 
ATOM      9  C   UNL d   1      10.349   3.997 -16.716  0.00  0.00     0.274 C 
ATOM     10  N   UNL d   1      11.438   3.108 -16.288  0.00  0.00     0.143 N 
ATOM     11  C   UNL d   1      10.987   2.291 -15.152  0.00  0.00     0.274 C 
ATOM     12  C   UNL d   1      11.810   2.234 -17.392  0.00  0.00     0.286 C 
ATOM     13  C   UNL d   1      10.601   3.192 -13.965  0.00  0.00     0.137 C 
ENDBRANCH   6   7
BRANCH   1  14
ATOM     14  O   UNL d   1       9.271   6.389 -12.782  0.00  0.00    -0.327 OA
ATOM     15  C   UNL d   1       9.131   7.493 -11.898  0.00  0.00     0.181 C 
ENDBRANCH   1  14
TORSDOF 2
