REMARK  4 active torsions:
REMARK  status: ('A' for Active; 'I' for Inactive)
REMARK    1  A    between atoms: C_2  and  C_3 
REMARK       I    between atoms: C_2  and  N_18 
REMARK    2  A    between atoms: C_3  and  N_4 
REMARK    3  A    between atoms: N_7  and  C_8 
REMARK    4  A    between atoms: C_8  and  C_9 
ROOT
ATOM      1  N   UNL d   1       9.356   4.823 -13.553  0.00  0.00     0.151 N 
ATOM      2  C   UNL d   1       8.001   5.349 -13.359  0.00  0.00     0.286 C 
ATOM      3  C   UNL d   1       7.774   5.926 -11.956  0.00  0.00     0.286 C 
ATOM      4  N   UNL d   1       8.169   4.945 -10.910  0.00  0.00     0.146 N 
ATOM      5  C   UNL d   1       9.467   4.343 -11.145  0.00  0.00     0.286 C 
ATOM      6  C   UNL d   1       9.610   3.791 -12.536  0.00  0.00     0.286 C 
ENDROOT
BRANCH   1   7
ATOM      7  C   UNL d   1       9.524   4.290 -14.914  0.00  0.00     0.337 C 
BRANCH   7   8
ATOM      8  C   UNL d   1      10.967   3.845 -15.222  0.00  0.00     0.272 C 
ATOM      9  O   UNL d   1      11.860   3.955 -14.389  0.00  0.00    -0.270 OA
ATOM     10  N   UNL d   1      11.243   3.384 -16.468  0.00  0.00    -0.293 N 
ATOM     11  C   UNL d   1      12.439   3.829 -17.128  0.00  0.00     0.085 A 
ATOM     12  C   UNL d   1      10.421   2.373 -17.138  0.00  0.00     0.142 C 
ATOM     13  C   UNL d   1      12.912   3.096 -18.259  0.00  0.00     0.110 A 
ATOM     14  C   UNL d   1      13.143   5.002 -16.762  0.00  0.00     0.019 A 
ATOM     15  O   UNL d   1      12.257   1.985 -18.732  0.00  0.00    -0.327 OA
ATOM     16  C   UNL d   1      14.084   3.529 -18.938  0.00  0.00     0.026 A 
ATOM     17  C   UNL d   1      11.348   1.355 -17.835  0.00  0.00     0.173 C 
ATOM     18  C   UNL d   1      14.802   4.655 -18.485  0.00  0.00     0.002 A 
ATOM     19  C   UNL d   1      14.329   5.396 -17.386  0.00  0.00     0.002 A 
ENDBRANCH   7   8
ENDBRANCH   1   7
BRANCH   4  20
ATOM     20  C   UNL d   1       8.070   5.462  -9.557  0.00  0.00     0.277 C 
BRANCH  20  21
ATOM     21  C   UNL d   1       9.187   6.376  -9.047  0.00  0.00     0.011 A 
ATOM     22  C   UNL d   1       9.988   7.166  -9.925  0.00  0.00    -0.002 A 
ATOM     23  C   UNL d   1      11.058   7.906  -9.459  0.00  0.00     0.011 A 
ATOM     24  C   UNL d   1      11.352   7.881  -8.102  0.00  0.00     0.058 A 
ATOM     25  C   UNL d   1      10.599   7.112  -7.197  0.00  0.00     0.011 A 
ATOM     26 CL   UNL d   1      12.638   8.815  -7.595  0.00  0.00    -0.082 Cl
ATOM     27  C   UNL d   1       9.493   6.370  -7.660  0.00  0.00    -0.002 A 
ENDBRANCH  20  21
ENDBRANCH   4  20
TORSDOF 4
