REMARK  8 active torsions:
REMARK  status: ('A' for Active; 'I' for Inactive)
REMARK    1  A    between atoms: C_2  and  N_3 
REMARK    2  A    between atoms: C_2  and  C_21 
REMARK    3  A    between atoms: N_3  and  C_4 
REMARK    4  A    between atoms: C_8  and  N_9 
REMARK    5  A    between atoms: N_9  and  C_10 
REMARK    6  A    between atoms: C_10  and  C_11 
REMARK    7  A    between atoms: C_11  and  O_12 
REMARK    8  A    between atoms: O_12  and  C_13 
ROOT
ATOM      1  C   UNL d   1       8.976   5.496 -11.758  0.00  0.00     0.747 A 
ATOM      2  N   UNL d   1       9.036   6.533 -12.590  0.00  0.00    -0.058 NA
ATOM      3  C   UNL d   1       9.330   7.731 -12.049  0.00  0.00     0.121 A 
ATOM      4  C   UNL d   1       9.524   7.899 -10.670  0.00  0.00     0.060 A 
ATOM      5  C   UNL d   1       9.373   6.747  -9.877  0.00  0.00     0.178 A 
ATOM      6  N   UNL d   1       9.149   5.531 -10.434  0.00  0.00    -0.041 NA
ENDROOT
BRANCH   5   7
ATOM      7  N   UNL d   1       9.368   6.871  -8.488  0.00  0.00    -0.250 NA
BRANCH   7   8
ATOM      8  C   UNL d   1      10.312   6.085  -7.730  0.00  0.00     0.160 C 
BRANCH   8   9
ATOM      9  C   UNL d   1      11.527   6.918  -7.292  0.00  0.00     0.175 C 
BRANCH   9  10
ATOM     10  O   UNL d   1      11.134   8.068  -6.539  0.00  0.00    -0.329 OA
BRANCH  10  11
ATOM     11  C   UNL d   1      11.440   8.132  -5.201  0.00  0.00     0.094 A 
ATOM     12  C   UNL d   1      11.448   9.388  -4.560  0.00  0.00     0.026 A 
ATOM     13  C   UNL d   1      11.848   9.505  -3.217  0.00  0.00     0.032 A 
ATOM     14  C   UNL d   1      12.256   8.360  -2.513  0.00  0.00     0.140 A 
ATOM     15  C   UNL d   1      12.228   7.092  -3.132  0.00  0.00     0.032 A 
ATOM     16  F   UNL d   1      12.689   8.467  -1.231  0.00  0.00    -0.204 F 
ATOM     17  C   UNL d   1      11.802   6.979  -4.476  0.00  0.00     0.026 A 
ENDBRANCH  10  11
ENDBRANCH   9  10
ENDBRANCH   8   9
ENDBRANCH   7   8
ENDBRANCH   5   7
BRANCH   1  18
ATOM     18  N   UNL d   1       8.775   4.248 -12.317  0.00  0.00    -0.083 NA
BRANCH  18  19
ATOM     19  C   UNL d   1       8.287   3.982 -13.673  0.00  0.00     0.144 C 
ATOM     20  C   UNL d   1       6.777   3.647 -13.692  0.00  0.00     0.032 C 
BRANCH  19  21
ATOM     21  C   UNL d   1       9.136   2.925 -14.370  0.00  0.00     0.001 A 
ATOM     22  C   UNL d   1       8.728   1.572 -14.444  0.00  0.00    -0.002 A 
ATOM     23  C   UNL d   1       9.537   0.619 -15.093  0.00  0.00    -0.000 A 
ATOM     24  C   UNL d   1      10.755   1.010 -15.672  0.00  0.00    -0.000 A 
ATOM     25  C   UNL d   1      11.173   2.352 -15.595  0.00  0.00    -0.000 A 
ATOM     26  C   UNL d   1      10.368   3.309 -14.944  0.00  0.00    -0.002 A 
ENDBRANCH  19  21
ENDBRANCH  18  19
ENDBRANCH   1  18
TORSDOF 8
