REMARK  4 active torsions:
REMARK  status: ('A' for Active; 'I' for Inactive)
REMARK    1  A    between atoms: O_2  and  C_3 
REMARK    2  A    between atoms: C_8  and  C_9 
REMARK    3  A    between atoms: C_9  and  C_10 
REMARK    4  A    between atoms: C_10  and  C_11 
ROOT
ATOM      1  C   UNL d   1       9.625   6.188  -9.862  0.00  0.00     0.094 A 
ATOM      2  C   UNL d   1       8.834   5.783  -8.775  0.00  0.00     0.024 A 
ATOM      3  C   UNL d   1       8.961   6.437  -7.529  0.00  0.00     0.002 A 
ATOM      4  C   UNL d   1       9.889   7.458  -7.371  0.00  0.00    -0.000 A 
ATOM      5  C   UNL d   1      10.007   8.104  -6.115  0.00  0.00    -0.004 A 
ATOM      6  C   UNL d   1      10.995   9.061  -5.881  0.00  0.00    -0.022 A 
ATOM      7  C   UNL d   1      11.859   9.423  -6.936  0.00  0.00    -0.004 A 
ATOM      8  C   UNL d   1      11.725   8.814  -8.210  0.00  0.00    -0.000 A 
ATOM      9  C   UNL d   1      10.745   7.829  -8.417  0.00  0.00     0.002 A 
ATOM     10  C   UNL d   1      10.611   7.178  -9.674  0.00  0.00     0.024 A 
ENDROOT
BRANCH   6  11
ATOM     11  C   UNL d   1      11.191   9.650  -4.487  0.00  0.00     0.034 C 
BRANCH  11  12
ATOM     12  C   UNL d   1      12.349   8.978  -3.714  0.00  0.00     0.069 C 
BRANCH  12  13
ATOM     13  C   UNL d   1      12.104   7.550  -3.222  0.00  0.00     0.151 C 
ATOM     14  C   UNL d   1      11.706   6.475  -4.236  0.00  0.00     0.072 C 
ATOM     15  O   UNL d   1      12.264   7.277  -2.039  0.00  0.00    -0.296 OA
ENDBRANCH  12  13
ENDBRANCH  11  12
ENDBRANCH   6  11
BRANCH   1  16
ATOM     16  O   UNL d   1       9.475   5.655 -11.129  0.00  0.00    -0.328 OA
ATOM     17  C   UNL d   1       8.137   5.353 -11.535  0.00  0.00     0.181 C 
ENDBRANCH   1  16
TORSDOF 4
