REMARK  8 active torsions:
REMARK  status: ('A' for Active; 'I' for Inactive)
REMARK    1  A    between atoms: O_2  and  C_3 
REMARK    2  A    between atoms: C_6  and  C_7 
REMARK    3  A    between atoms: C_7  and  N_8 
REMARK    4  A    between atoms: N_8  and  C_9 
REMARK    5  A    between atoms: C_9  and  C_10 
REMARK    6  A    between atoms: C_10  and  N_11 
REMARK    7  A    between atoms: N_14  and  C_15 
REMARK    8  A    between atoms: C_15  and  C_16 
ROOT
ATOM      1  N   UNL d   1       9.457   6.130 -11.041  0.00  0.00     0.143 N 
ATOM      2  C   UNL d   1       9.541   7.554 -11.423  0.00  0.00     0.286 C 
ATOM      3  C   UNL d   1      10.588   8.324 -10.572  0.00  0.00     0.286 C 
ATOM      4  N   UNL d   1      10.342   8.211  -9.121  0.00  0.00     0.147 N 
ATOM      5  C   UNL d   1      10.227   6.797  -8.789  0.00  0.00     0.286 C 
ATOM      6  C   UNL d   1       9.195   6.053  -9.613  0.00  0.00     0.286 C 
ENDROOT
BRANCH   1   7
ATOM      7  C   UNL d   1       8.415   5.404 -11.747  0.00  0.00     0.288 C 
BRANCH   7   8
ATOM      8  C   UNL d   1       8.793   5.048 -13.185  0.00  0.00     0.326 C 
BRANCH   8   9
ATOM      9  N   UNL d   1       9.715   3.908 -13.222  0.00  0.00     0.346 N 
BRANCH   9  10
ATOM     10  C   UNL d   1       9.870   3.294 -14.536  0.00  0.00     0.317 C 
BRANCH  10  11
ATOM     11  C   UNL d   1      10.766   4.102 -15.455  0.00  0.00     0.014 A 
ATOM     12  C   UNL d   1      10.226   5.181 -16.175  0.00  0.00    -0.000 A 
ATOM     13  C   UNL d   1      11.036   5.929 -17.039  0.00  0.00     0.024 A 
ATOM     14  C   UNL d   1      12.413   5.622 -17.196  0.00  0.00     0.094 A 
ATOM     15  C   UNL d   1      12.952   4.535 -16.466  0.00  0.00     0.024 A 
ATOM     16  C   UNL d   1      12.130   3.777 -15.601  0.00  0.00    -0.000 A 
BRANCH  14  17
ATOM     17  O   UNL d   1      13.260   6.338 -18.023  0.00  0.00    -0.328 OA
ATOM     18  C   UNL d   1      12.700   7.447 -18.710  0.00  0.00     0.181 C 
ENDBRANCH  14  17
ENDBRANCH  10  11
ENDBRANCH   9  10
ENDBRANCH   8   9
ENDBRANCH   7   8
ENDBRANCH   1   7
BRANCH   4  19
ATOM     19  C   UNL d   1      11.418   8.873  -8.371  0.00  0.00     0.296 C 
BRANCH  19  20
ATOM     20  C   UNL d   1      11.462   8.573  -6.894  0.00  0.00     0.092 A 
ATOM     21  N   UNL d   1      11.615   9.546  -5.912  0.00  0.00    -0.248 NA
ATOM     22  C   UNL d   1      11.682   8.966  -4.651  0.00  0.00     0.081 A 
ATOM     23  C   UNL d   1      11.568   7.565  -4.883  0.00  0.00     0.019 A 
ATOM     24  C   UNL d   1      11.850   9.472  -3.351  0.00  0.00     0.019 A 
ATOM     25  C   UNL d   1      11.448   7.346  -6.281  0.00  0.00     0.018 A 
ATOM     26  C   UNL d   1      11.623   6.706  -3.771  0.00  0.00     0.002 A 
ATOM     27  C   UNL d   1      11.792   7.179  -2.465  0.00  0.00     0.000 A 
ATOM     28  C   UNL d   1      11.918   8.575  -2.261  0.00  0.00     0.002 A 
ENDBRANCH  19  20
ENDBRANCH   4  19
TORSDOF 8
