REMARK  6 active torsions:
REMARK  status: ('A' for Active; 'I' for Inactive)
REMARK    1  A    between atoms: C_2  and  C_3 
REMARK    2  A    between atoms: C_2  and  C_19 
REMARK    3  A    between atoms: C_3  and  C_4 
REMARK    4  A    between atoms: C_4  and  C_5 
REMARK    5  A    between atoms: C_5  and  N_6 
REMARK    6  A    between atoms: C_11  and  C_12 
ROOT
ATOM      1  N   UNL d   1      10.554   9.110  -7.307  0.00  0.00     0.159 N 
ATOM      2  C   UNL d   1       9.943   8.884  -5.996  0.00  0.00     0.222 C 
ATOM      3  C   UNL d   1      10.822   9.783  -5.082  0.00  0.00     0.036 C 
ATOM      4  C   UNL d   1      11.058   9.043  -3.726  0.00  0.00     0.002 C 
ATOM      5  C   UNL d   1      12.481   9.339  -3.362  0.00  0.00     0.000 C 
ATOM      6  C   UNL d   1      12.975   8.836  -4.686  0.00  0.00     0.004 C 
ATOM      7  C   UNL d   1      12.329   7.450  -4.830  0.00  0.00     0.005 A 
ATOM      8  C   UNL d   1      11.062   7.587  -4.179  0.00  0.00     0.002 A 
ATOM      9  C   UNL d   1      10.348   7.476  -5.538  0.00  0.00     0.036 A 
ATOM     10  C   UNL d   1      11.689   7.321  -6.199  0.00  0.00     0.061 A 
ATOM     11  C   UNL d   1      11.884   8.656  -6.911  0.00  0.00     0.314 C 
ATOM     12  O   UNL d   1      12.783   8.698  -7.998  0.00  0.00    -0.192 OA
ATOM     13  C   UNL d   1      12.209   9.638  -5.762  0.00  0.00     0.061 C 
ENDROOT
BRANCH   1  14
ATOM     14  C   UNL d   1       9.861   8.294  -8.292  0.00  0.00     0.254 C 
BRANCH  14  15
ATOM     15  C   UNL d   1      10.349   8.515  -9.734  0.00  0.00     0.044 C 
BRANCH  15  16
ATOM     16  C   UNL d   1       9.579   7.758 -10.814  0.00  0.00     0.071 C 
BRANCH  16  17
ATOM     17  C   UNL d   1       9.347   6.255 -10.565  0.00  0.00     0.173 C 
ATOM     18  O   UNL d   1       9.810   5.659  -9.600  0.00  0.00    -0.291 OA
BRANCH  17  19
ATOM     19  C   UNL d   1       8.636   5.528 -11.622  0.00  0.00     0.035 A 
ATOM     20  C   UNL d   1       7.257   5.694 -11.837  0.00  0.00     0.005 A 
ATOM     21  C   UNL d   1       6.598   4.881 -12.786  0.00  0.00     0.030 A 
ATOM     22  C   UNL d   1       7.336   3.927 -13.515  0.00  0.00     0.140 A 
ATOM     23  C   UNL d   1       8.719   3.764 -13.298  0.00  0.00     0.030 A 
ATOM     24  F   UNL d   1       6.718   3.155 -14.437  0.00  0.00    -0.204 F 
ATOM     25  C   UNL d   1       9.363   4.567 -12.341  0.00  0.00     0.005 A 
ENDBRANCH  17  19
ENDBRANCH  16  17
ENDBRANCH  15  16
ENDBRANCH  14  15
ENDBRANCH   1  14
TORSDOF 6
