REMARK  7 active torsions:
REMARK  status: ('A' for Active; 'I' for Inactive)
REMARK    1  A    between atoms: C_2  and  C_3 
REMARK       I    between atoms: C_2  and  N_11 
REMARK    2  A    between atoms: C_3  and  C_4 
REMARK    3  A    between atoms: N_11  and  C_12 
REMARK    4  A    between atoms: C_15  and  C_16 
REMARK    5  A    between atoms: C_16  and  C_17 
REMARK    6  A    between atoms: C_17  and  N_18 
REMARK    7  A    between atoms: C_21  and  C_22 
ROOT
ATOM      1  C   UNL d   1       6.671   2.813 -14.212  0.00  0.00     0.106 C 
ATOM      2  C   UNL d   1       5.890   3.000 -12.902  0.00  0.00     0.024 C 
ATOM      3  C   UNL d   1       6.183   4.371 -12.279  0.00  0.00     0.002 C 
ATOM      4  C   UNL d   1       7.695   4.616 -12.080  0.00  0.00     0.002 C 
ATOM      5  C   UNL d   1       8.452   4.450 -13.414  0.00  0.00     0.002 C 
ATOM      6  C   UNL d   1       8.187   3.083 -14.050  0.00  0.00     0.024 C 
ENDROOT
BRANCH   4   7
ATOM      7  C   UNL d   1       7.958   5.966 -11.398  0.00  0.00     0.035 C 
BRANCH   7   8
ATOM      8  C   UNL d   1       9.456   6.202 -11.134  0.00  0.00     0.250 C 
BRANCH   8   9
ATOM      9  N   UNL d   1       9.702   6.916  -9.886  0.00  0.00     0.137 N 
ATOM     10  C   UNL d   1       9.564   6.003  -8.751  0.00  0.00     0.251 C 
ATOM     11  C   UNL d   1       9.716   6.763  -7.423  0.00  0.00     0.040 C 
ATOM     12  C   UNL d   1      11.062   7.494  -7.360  0.00  0.00     0.028 C 
ATOM     13  C   UNL d   1      11.240   8.338  -8.642  0.00  0.00     0.040 C 
ATOM     14  C   UNL d   1      11.035   7.514  -9.917  0.00  0.00     0.251 C 
BRANCH  12  15
ATOM     15  C   UNL d   1      11.181   8.306  -6.067  0.00  0.00     0.002 A 
ATOM     16  C   UNL d   1      11.523   7.697  -4.839  0.00  0.00     0.115 A 
ATOM     17  C   UNL d   1      11.671   8.428  -3.673  0.00  0.00     0.119 A 
ATOM     18  O   UNL d   1      11.780   6.393  -4.559  0.00  0.00    -0.300 OA
ATOM     19  C   UNL d   1      11.437   9.807  -3.638  0.00  0.00     0.026 A 
ATOM     20  O   UNL d   1      12.004   7.618  -2.643  0.00  0.00    -0.300 OA
ATOM     21  C   UNL d   1      11.051  10.422  -4.840  0.00  0.00     0.002 A 
ATOM     22  C   UNL d   1      10.947   9.700  -6.049  0.00  0.00    -0.002 A 
ATOM     23  C   UNL d   1      12.066   6.342  -3.186  0.00  0.00     0.304 A 
ENDBRANCH  12  15
ENDBRANCH   8   9
ENDBRANCH   7   8
ENDBRANCH   4   7
BRANCH   1  24
ATOM     24  N   UNL d   1       6.455   1.473 -14.751  0.00  0.00    -0.240 NA
ATOM     25  C   UNL d   1       6.736   1.097 -16.008  0.00  0.00     0.254 C 
ATOM     26  O   UNL d   1       7.126   1.882 -16.869  0.00  0.00    -0.271 OA
BRANCH  25  27
ATOM     27  C   UNL d   1       6.632  -0.399 -16.320  0.00  0.00     0.120 C 
BRANCH  27  28
ATOM     28  C   UNL d   1       5.458  -0.827 -17.238  0.00  0.00     0.136 C 
ATOM     29  C   UNL d   1       5.663  -2.293 -17.700  0.00  0.00     0.031 C 
ATOM     30  C   UNL d   1       4.517  -2.792 -18.601  0.00  0.00     0.003 C 
ATOM     31  C   UNL d   1       4.322  -1.878 -19.826  0.00  0.00     0.000 C 
ATOM     32  C   UNL d   1       4.117  -0.415 -19.405  0.00  0.00     0.003 C 
ATOM     33  C   UNL d   1       5.255   0.072 -18.496  0.00  0.00     0.031 C 
ATOM     34  O   UNL d   1       4.296  -0.814 -16.431  0.00  0.00    -0.226 OA
ENDBRANCH  27  28
ENDBRANCH  25  27
ENDBRANCH   1  24
TORSDOF 7
