REMARK  2 active torsions:
REMARK  status: ('A' for Active; 'I' for Inactive)
REMARK    1  A    between atoms: C_7  and  C_8 
REMARK    2  A    between atoms: C_8  and  N_9 
ROOT
ATOM      1  N   UNL d   1       9.456   6.281 -11.032  0.00  0.00     0.146 N 
ATOM      2  C   UNL d   1       8.652   5.637  -9.983  0.00  0.00     0.256 C 
ATOM      3  C   UNL d   1       9.481   5.375  -8.720  0.00  0.00     0.068 C 
ATOM      4  C   UNL d   1      10.260   6.577  -8.314  0.00  0.00     0.007 A 
ATOM      5  S   UNL d   1      10.969   6.821  -6.741  0.00  0.00    -0.091 SA
ATOM      6  C   UNL d   1      11.606   8.362  -7.248  0.00  0.00     0.035 A 
ATOM      7  C   UNL d   1      11.274   8.655  -8.550  0.00  0.00     0.005 A 
ATOM      8  C   UNL d   1      10.498   7.624  -9.156  0.00  0.00     0.013 A 
ATOM      9  C   UNL d   1       9.910   7.587 -10.532  0.00  0.00     0.277 C 
ENDROOT
BRANCH   1  10
ATOM     10  C   UNL d   1       8.694   6.483 -12.271  0.00  0.00     0.278 C 
BRANCH  10  11
ATOM     11  C   UNL d   1       8.097   5.210 -12.865  0.00  0.00     0.021 A 
ATOM     12  C   UNL d   1       8.819   4.381 -13.755  0.00  0.00     0.056 A 
ATOM     13 CL   UNL d   1      10.441   4.761 -14.212  0.00  0.00    -0.083 Cl
ATOM     14  C   UNL d   1       8.229   3.198 -14.255  0.00  0.00     0.011 A 
ATOM     15  C   UNL d   1       6.916   2.846 -13.880  0.00  0.00     0.001 A 
ATOM     16  C   UNL d   1       6.204   3.663 -12.982  0.00  0.00    -0.000 A 
ATOM     17  C   UNL d   1       6.788   4.848 -12.491  0.00  0.00    -0.002 A 
ENDBRANCH  10  11
ENDBRANCH   1  10
TORSDOF 2
