REMARK  6 active torsions:
REMARK  status: ('A' for Active; 'I' for Inactive)
REMARK    1  A    between atoms: C_2  and  N_3 
REMARK    2  A    between atoms: C_7  and  C_8 
REMARK    3  A    between atoms: C_11  and  C_12 
REMARK    4  A    between atoms: C_14  and  S_15 
REMARK    5  A    between atoms: S_15  and  C_18 
REMARK    6  A    between atoms: C_22  and  O_23 
ROOT
ATOM      1  C   UNL d   1       8.485   4.386 -12.113  0.00  0.00     0.041 A 
ATOM      2  C   UNL d   1       9.637   4.045 -12.863  0.00  0.00     0.015 A 
ATOM      3  C   UNL d   1       9.501   3.494 -14.155  0.00  0.00     0.084 A 
ATOM      4  C   UNL d   1       8.228   3.240 -14.677  0.00  0.00     0.013 A 
ATOM      5  C   UNL d   1       7.079   3.572 -13.939  0.00  0.00     0.025 A 
ATOM      6  C   UNL d   1       7.200   4.185 -12.671  0.00  0.00     0.096 A 
ENDROOT
BRANCH   1   7
ATOM      7  C   UNL d   1       8.695   4.938 -10.777  0.00  0.00     0.083 A 
ATOM      8  C   UNL d   1       8.319   4.564  -9.512  0.00  0.00     0.020 A 
ATOM      9  C   UNL d   1       8.745   5.566  -8.620  0.00  0.00     0.018 A 
ATOM     10  C   UNL d   1       9.388   6.543  -9.354  0.00  0.00     0.090 A 
ATOM     11  N   UNL d   1       9.359   6.116 -10.656  0.00  0.00    -0.248 NA
BRANCH  10  12
ATOM     12  C   UNL d   1       9.968   7.855  -8.965  0.00  0.00     0.259 C 
ATOM     13  N   UNL d   1      11.253   7.719  -8.296  0.00  0.00     0.141 N 
ATOM     14  C   UNL d   1      11.863   9.036  -8.344  0.00  0.00     0.251 C 
ATOM     15  C   UNL d   1      11.465   9.582  -9.710  0.00  0.00     0.038 C 
ATOM     16  C   UNL d   1      10.210   8.833 -10.116  0.00  0.00     0.042 C 
BRANCH  13  17
ATOM     17  C   UNL d   1      11.198   7.112  -6.959  0.00  0.00     0.251 C 
ATOM     18  C   UNL d   1      10.271   7.826  -5.953  0.00  0.00     0.037 C 
ENDBRANCH  13  17
ENDBRANCH  10  12
ENDBRANCH   1   7
BRANCH   6  19
ATOM     19  O   UNL d   1       6.023   4.489 -12.032  0.00  0.00    -0.328 OA
ATOM     20  C   UNL d   1       5.838   5.865 -11.741  0.00  0.00     0.181 C 
ENDBRANCH   6  19
BRANCH   3  21
ATOM     21  S   UNL d   1      10.942   3.065 -15.110  0.00  0.00     0.190 S 
ATOM     22  O   UNL d   1      10.671   3.462 -16.502  0.00  0.00    -0.222 OA
ATOM     23  O   UNL d   1      12.118   3.607 -14.417  0.00  0.00    -0.222 OA
BRANCH  21  24
ATOM     24  C   UNL d   1      11.009   1.218 -15.051  0.00  0.00     0.127 C 
ATOM     25  C   UNL d   1       9.758   0.544 -15.621  0.00  0.00     0.018 C 
ENDBRANCH  21  24
ENDBRANCH   3  21
TORSDOF 6
