REMARK  2 active torsions:
REMARK  status: ('A' for Active; 'I' for Inactive)
REMARK    1  A    between atoms: N_10  and  C_11 
REMARK    2  A    between atoms: C_11  and  C_12 
ROOT
ATOM      1  F   UNL d   1       8.755  -1.424 -18.381  0.00  0.00    -0.204 F 
ATOM      2  C   UNL d   1       9.655  -0.415 -18.274  0.00  0.00     0.140 A 
ATOM      3  C   UNL d   1      11.014  -0.645 -18.564  0.00  0.00     0.032 A 
ATOM      4  C   UNL d   1      11.956   0.402 -18.460  0.00  0.00     0.026 A 
ATOM      5  C   UNL d   1      11.545   1.697 -18.087  0.00  0.00     0.090 A 
ATOM      6  C   UNL d   1      10.180   1.925 -17.784  0.00  0.00     0.004 A 
ATOM      7  C   UNL d   1       9.243   0.869 -17.880  0.00  0.00     0.027 A 
ATOM      8  C   UNL d   1       9.730   3.264 -17.236  0.00  0.00     0.062 C 
ATOM      9  C   UNL d   1       9.336   3.143 -15.816  0.00  0.00     0.255 C 
ATOM     10  N   UNL d   1      10.551   3.327 -15.034  0.00  0.00     0.142 N 
ATOM     11  C   UNL d   1      11.257   4.418 -15.683  0.00  0.00     0.254 C 
ATOM     12  C   UNL d   1      10.839   4.333 -17.169  0.00  0.00     0.070 C 
ATOM     13  C   UNL d   1      11.993   4.023 -18.135  0.00  0.00     0.151 C 
ATOM     14  O   UNL d   1      12.489   2.691 -17.977  0.00  0.00    -0.331 OA
ENDROOT
BRANCH  10  15
ATOM     15  C   UNL d   1      10.345   3.460 -13.590  0.00  0.00     0.277 C 
BRANCH  15  16
ATOM     16  C   UNL d   1       9.047   4.161 -13.152  0.00  0.00     0.011 C 
ATOM     17  C   UNL d   1       7.789   3.575 -13.479  0.00  0.00    -0.002 C 
ATOM     18  C   UNL d   1       6.596   4.234 -13.171  0.00  0.00    -0.000 C 
ATOM     19  C   UNL d   1       6.614   5.410 -12.372  0.00  0.00    -0.000 C 
ATOM     20  C   UNL d   1       7.846   5.936 -11.950  0.00  0.00    -0.000 C 
ATOM     21  C   UNL d   1       9.047   5.309 -12.325  0.00  0.00    -0.002 C 
ENDBRANCH  15  16
ENDBRANCH  10  15
TORSDOF 2
