REMARK  5 active torsions:
REMARK  status: ('A' for Active; 'I' for Inactive)
REMARK    1  A    between atoms: O_2  and  C_3 
REMARK    2  A    between atoms: C_7  and  C_8 
REMARK    3  A    between atoms: C_8  and  N_9 
REMARK    4  A    between atoms: C_12  and  N_13 
REMARK    5  A    between atoms: C_17  and  C_18 
ROOT
ATOM      1  N   UNL d   1       9.417   5.994 -12.250  0.00  0.00     0.141 N 
ATOM      2  C   UNL d   1       9.317   5.167 -11.048  0.00  0.00     0.253 C 
ATOM      3  C   UNL d   1      10.030   5.851  -9.859  0.00  0.00     0.058 C 
ATOM      4  C   UNL d   1       9.481   7.247  -9.572  0.00  0.00     0.094 C 
ATOM      5  C   UNL d   1       9.443   8.009 -10.924  0.00  0.00     0.058 C 
ATOM      6  C   UNL d   1       8.716   7.253 -12.014  0.00  0.00     0.253 C 
ENDROOT
BRANCH   4   7
ATOM      7  N   UNL d   1      10.230   7.948  -8.501  0.00  0.00    -0.284 N 
ATOM      8  C   UNL d   1      11.127   8.952  -8.622  0.00  0.00     0.350 A 
ATOM      9  O   UNL d   1      11.454   9.556  -9.637  0.00  0.00    -0.244 OA
ATOM     10  N   UNL d   1      11.626   9.187  -7.410  0.00  0.00    -0.191 NA
ATOM     11  C   UNL d   1      11.020   8.370  -6.482  0.00  0.00     0.098 A 
ATOM     12  C   UNL d   1      10.156   7.621  -7.160  0.00  0.00     0.059 A 
ATOM     13  C   UNL d   1       9.234   6.535  -6.647  0.00  0.00     0.052 C 
BRANCH  11  14
ATOM     14  C   UNL d   1      11.427   8.345  -5.093  0.00  0.00     0.019 A 
ATOM     15  C   UNL d   1      11.798   7.132  -4.462  0.00  0.00     0.002 A 
ATOM     16  C   UNL d   1      12.224   7.166  -3.120  0.00  0.00     0.000 A 
ATOM     17  C   UNL d   1      12.253   8.384  -2.428  0.00  0.00     0.000 A 
ATOM     18  C   UNL d   1      11.864   9.584  -3.065  0.00  0.00     0.000 A 
ATOM     19  C   UNL d   1      11.463   9.562  -4.404  0.00  0.00     0.002 A 
ENDBRANCH  11  14
ENDBRANCH   4   7
BRANCH   1  20
ATOM     20  C   UNL d   1       8.820   5.331 -13.386  0.00  0.00     0.277 C 
BRANCH  20  21
ATOM     21  C   UNL d   1       9.772   4.372 -14.076  0.00  0.00     0.013 A 
ATOM     22  C   UNL d   1      11.018   4.790 -14.572  0.00  0.00    -0.002 A 
ATOM     23  C   UNL d   1      11.851   3.867 -15.241  0.00  0.00     0.002 A 
ATOM     24  C   UNL d   1      11.409   2.530 -15.420  0.00  0.00     0.024 A 
ATOM     25  C   UNL d   1      10.146   2.120 -14.932  0.00  0.00     0.094 A 
ATOM     26  C   UNL d   1       9.342   3.062 -14.258  0.00  0.00     0.022 A 
BRANCH  25  27
ATOM     27  O   UNL d   1       9.763   0.807 -15.154  0.00  0.00    -0.328 OA
ATOM     28  C   UNL d   1       8.440   0.448 -14.741  0.00  0.00     0.181 C 
ENDBRANCH  25  27
ENDBRANCH  20  21
ENDBRANCH   1  20
TORSDOF 5
