REMARK  5 active torsions:
REMARK  status: ('A' for Active; 'I' for Inactive)
REMARK    1  A    between atoms: C_2  and  N_3 
REMARK       I    between atoms: N_3  and  C_5 
REMARK       I    between atoms: C_5  and  N_7 
REMARK    2  A    between atoms: N_7  and  C_8 
REMARK    3  A    between atoms: C_11  and  C_12 
REMARK    4  A    between atoms: C_12  and  C_13 
REMARK    5  A    between atoms: C_13  and  N_14 
ROOT
ATOM      1  C   UNL d   1       9.623   6.613 -10.485  0.00  0.00     0.035 C 
ENDROOT
BRANCH   1   2
ATOM      2  C   UNL d   1      10.150   6.888  -9.065  0.00  0.00     0.002 C 
ATOM      3  C   UNL d   1      11.373   7.824  -9.116  0.00  0.00     0.002 C 
ATOM      4  C   UNL d   1      11.913   8.080  -7.711  0.00  0.00     0.025 C 
ATOM      5  C   UNL d   1      10.824   8.658  -6.775  0.00  0.00     0.108 C 
ATOM      6  C   UNL d   1       9.559   7.758  -6.747  0.00  0.00     0.025 C 
ATOM      7  C   UNL d   1       9.062   7.487  -8.156  0.00  0.00     0.002 C 
BRANCH   5   8
ATOM      8  N   UNL d   1      11.347   8.913  -5.430  0.00  0.00    -0.221 NA
ATOM      9  C   UNL d   1      11.686   7.933  -4.555  0.00  0.00     0.342 C 
ATOM     10  N   UNL d   1      11.924   8.367  -3.287  0.00  0.00    -0.299 N 
ATOM     11  O   UNL d   1      11.727   6.753  -4.868  0.00  0.00    -0.245 OA
ATOM     12  C   UNL d   1      11.722   9.764  -2.914  0.00  0.00     0.130 C 
BRANCH  10  13
ATOM     13  C   UNL d   1      12.056   7.493  -2.105  0.00  0.00     0.106 C 
ATOM     14  C   UNL d   1      12.832   6.195  -2.293  0.00  0.00     0.026 C 
ENDBRANCH  10  13
ENDBRANCH   5   8
ENDBRANCH   1   2
BRANCH   1  15
ATOM     15  C   UNL d   1       8.625   5.431 -10.565  0.00  0.00     0.250 C 
BRANCH  15  16
ATOM     16  N   UNL d   1       8.453   4.921 -11.934  0.00  0.00     0.138 N 
ATOM     17  C   UNL d   1       9.595   4.079 -12.319  0.00  0.00     0.255 C 
ATOM     18  C   UNL d   1       9.772   3.855 -13.815  0.00  0.00     0.055 C 
ATOM     19  C   UNL d   1       8.869   2.795 -14.389  0.00  0.00    -0.024 A 
ATOM     20  C   UNL d   1       9.723   5.151 -14.619  0.00  0.00     0.007 C 
ATOM     21  C   UNL d   1       7.466   2.795 -14.205  0.00  0.00    -0.024 A 
ATOM     22  C   UNL d   1       9.490   1.789 -15.163  0.00  0.00     0.007 A 
ATOM     23  C   UNL d   1       6.720   3.887 -13.432  0.00  0.00     0.061 C 
ATOM     24  C   UNL d   1       6.701   1.781 -14.818  0.00  0.00    -0.004 A 
ATOM     25  C   UNL d   1       7.190   4.184 -12.001  0.00  0.00     0.255 C 
ATOM     26  C   UNL d   1       7.326   0.784 -15.614  0.00  0.00     0.011 A 
ATOM     27  C   UNL d   1       8.717   0.788 -15.797  0.00  0.00     0.057 A 
ATOM     28 CL   UNL d   1       9.522  -0.365 -16.819  0.00  0.00    -0.082 Cl
ENDBRANCH  15  16
ENDBRANCH   1  15
TORSDOF 5
