REMARK  9 active torsions:
REMARK  status: ('A' for Active; 'I' for Inactive)
REMARK    1  A    between atoms: N_2  and  C_3 
REMARK    2  A    between atoms: N_2  and  C_19 
REMARK    3  A    between atoms: C_3  and  C_4 
REMARK    4  A    between atoms: C_4  and  C_5 
REMARK    5  A    between atoms: C_5  and  C_6 
REMARK    6  A    between atoms: C_6  and  O_7 
REMARK    7  A    between atoms: O_7  and  C_8 
REMARK    8  A    between atoms: C_19  and  C_20 
REMARK    9  A    between atoms: C_22  and  C_23 
ROOT
ATOM      1  C   UNL d   1       7.768   4.751 -12.599  0.00  0.00     0.250 C 
ENDROOT
BRANCH   1   2
ATOM      2  N   UNL d   1       6.809   4.371 -13.625  0.00  0.00     0.139 N 
ATOM      3  C   UNL d   1       5.458   4.771 -13.245  0.00  0.00     0.285 C 
BRANCH   2   4
ATOM      4  C   UNL d   1       6.838   2.928 -13.784  0.00  0.00     0.251 C 
BRANCH   4   5
ATOM      5  C   UNL d   1       8.229   2.386 -14.108  0.00  0.00     0.038 A 
ATOM      6  C   UNL d   1       8.427   1.257 -15.089  0.00  0.00     0.025 A 
ATOM      7  C   UNL d   1       8.871   2.657 -15.446  0.00  0.00     0.007 A 
BRANCH   6   8
ATOM      8  C   UNL d   1       7.268   0.630 -15.805  0.00  0.00    -0.011 A 
ATOM      9  C   UNL d   1       6.199   0.012 -15.106  0.00  0.00     0.064 A 
ATOM     10  C   UNL d   1       5.092  -0.494 -15.816  0.00  0.00     0.068 A 
ATOM     11 CL   UNL d   1       6.196  -0.111 -13.379  0.00  0.00    -0.082 Cl
ATOM     12  C   UNL d   1       5.060  -0.419 -17.219  0.00  0.00     0.012 A 
ATOM     13 CL   UNL d   1       3.761  -1.202 -14.976  0.00  0.00    -0.082 Cl
ATOM     14  C   UNL d   1       6.116   0.186 -17.918  0.00  0.00     0.001 A 
ATOM     15  C   UNL d   1       7.217   0.709 -17.213  0.00  0.00    -0.003 A 
ENDBRANCH   6   8
ENDBRANCH   4   5
ENDBRANCH   2   4
ENDBRANCH   1   2
BRANCH   1  16
ATOM     16  C   UNL d   1       7.817   6.263 -12.389  0.00  0.00     0.038 C 
BRANCH  16  17
ATOM     17  C   UNL d   1       9.213   6.662 -11.912  0.00  0.00     0.035 C 
BRANCH  17  18
ATOM     18  C   UNL d   1       9.317   8.200 -11.684  0.00  0.00     0.149 C 
BRANCH  18  19
ATOM     19  O   UNL d   1      10.422   8.599 -10.879  0.00  0.00    -0.331 OA
BRANCH  19  20
ATOM     20  C   UNL d   1      10.428   8.247  -9.553  0.00  0.00     0.096 C 
ATOM     21  C   UNL d   1      11.405   8.827  -8.731  0.00  0.00     0.043 C 
ATOM     22  C   UNL d   1      11.401   8.541  -7.347  0.00  0.00     0.082 C 
ATOM     23  C   UNL d   1      10.534   7.550  -6.827  0.00  0.00    -0.004 C 
ATOM     24  N   UNL d   1      12.263   9.255  -6.482  0.00  0.00    -0.212 NA
ATOM     25  C   UNL d   1       9.589   6.942  -7.644  0.00  0.00    -0.001 C 
ATOM     26  C   UNL d   1      10.590   7.177  -5.372  0.00  0.00     0.038 C 
ATOM     27  C   UNL d   1       9.481   7.364  -8.964  0.00  0.00     0.024 C 
ATOM     28  C   UNL d   1      11.065   8.370  -4.522  0.00  0.00     0.095 C 
ATOM     29  C   UNL d   1      12.198   9.142  -5.151  0.00  0.00     0.256 C 
ATOM     30  O   UNL d   1      13.087   9.560  -4.427  0.00  0.00    -0.270 OA
ENDBRANCH  19  20
ENDBRANCH  18  19
ENDBRANCH  17  18
ENDBRANCH  16  17
ENDBRANCH   1  16
TORSDOF 9
