REMARK  6 active torsions:
REMARK  status: ('A' for Active; 'I' for Inactive)
REMARK    1  A    between atoms: O_2  and  C_3 
REMARK    2  A    between atoms: C_5  and  N_6 
REMARK    3  A    between atoms: N_6  and  C_7 
REMARK    4  A    between atoms: C_7  and  C_9 
REMARK    5  A    between atoms: C_9  and  C_10 
REMARK    6  A    between atoms: C_10  and  C_11 
ROOT
ATOM      1  C   UNL d   1       9.717   4.482 -14.296  0.00  0.00     0.096 A 
ATOM      2  C   UNL d   1       9.565   5.155 -13.067  0.00  0.00     0.044 A 
ATOM      3  C   UNL d   1       8.460   4.953 -12.230  0.00  0.00     0.096 A 
ATOM      4  C   UNL d   1       7.433   4.053 -12.639  0.00  0.00     0.099 A 
ATOM      5  N   UNL d   1       6.331   3.865 -11.879  0.00  0.00    -0.243 NA
ATOM      6  C   UNL d   1       5.459   2.900 -12.224  0.00  0.00     0.099 A 
ATOM      7  C   UNL d   1       5.573   2.123 -13.383  0.00  0.00     0.021 A 
ATOM      8  C   UNL d   1       6.651   2.372 -14.245  0.00  0.00     0.003 A 
ATOM      9  C   UNL d   1       7.614   3.330 -13.861  0.00  0.00     0.021 A 
ATOM     10  C   UNL d   1       8.732   3.545 -14.682  0.00  0.00     0.026 A 
ENDROOT
BRANCH   3  11
ATOM     11  N   UNL d   1       8.364   5.688 -11.030  0.00  0.00    -0.271 NA
BRANCH  11  12
ATOM     12  C   UNL d   1       9.482   5.810 -10.084  0.00  0.00     0.104 C 
ATOM     13  C   UNL d   1       9.630   4.537  -9.229  0.00  0.00     0.026 C 
BRANCH  12  14
ATOM     14  C   UNL d   1       9.254   7.045  -9.196  0.00  0.00     0.026 C 
BRANCH  14  15
ATOM     15  C   UNL d   1      10.351   7.407  -8.178  0.00  0.00     0.043 C 
BRANCH  15  16
ATOM     16  C   UNL d   1      11.448   8.284  -8.807  0.00  0.00     0.339 C 
ATOM     17  N   UNL d   1      12.296   8.761  -7.743  0.00  0.00     0.618 N 
ENDBRANCH  15  16
ENDBRANCH  14  15
ENDBRANCH  12  14
ENDBRANCH  11  12
ENDBRANCH   3  11
BRANCH   1  18
ATOM     18  O   UNL d   1      10.815   4.808 -15.071  0.00  0.00    -0.328 OA
ATOM     19  C   UNL d   1      10.943   4.195 -16.346  0.00  0.00     0.181 C 
ENDBRANCH   1  18
TORSDOF 6
