REMARK  8 active torsions:
REMARK  status: ('A' for Active; 'I' for Inactive)
REMARK    1  A    between atoms: C_6  and  C_7 
REMARK       I    between atoms: C_7  and  N_9 
REMARK    2  A    between atoms: N_9  and  C_10 
REMARK    3  A    between atoms: C_10  and  C_11 
REMARK    4  A    between atoms: C_11  and  C_12 
REMARK    5  A    between atoms: C_12  and  C_13 
REMARK    6  A    between atoms: C_13  and  C_14 
REMARK    7  A    between atoms: C_14  and  N_15 
REMARK    8  A    between atoms: N_18  and  C_19 
ROOT
ATOM      1  C   UNL d   1      13.316   8.787  -1.251  0.00  0.00    -0.009 C 
ATOM      2  C   UNL d   1      12.687   8.665  -2.277  0.00  0.00    -0.051 C 
ATOM      3  C   UNL d   1      11.991   8.534  -3.538  0.00  0.00     0.042 A 
ATOM      4  C   UNL d   1      11.404   9.665  -4.119  0.00  0.00     0.008 A 
ATOM      5  C   UNL d   1      10.731   9.551  -5.346  0.00  0.00     0.005 A 
ATOM      6  C   UNL d   1      10.629   8.294  -5.988  0.00  0.00     0.058 A 
ATOM      7  C   UNL d   1      11.196   7.154  -5.379  0.00  0.00     0.005 A 
ATOM      8  C   UNL d   1      11.883   7.275  -4.156  0.00  0.00     0.008 A 
ENDROOT
BRANCH   6   9
ATOM      9  C   UNL d   1       9.847   8.171  -7.250  0.00  0.00     0.275 C 
ATOM     10  O   UNL d   1       8.804   8.786  -7.380  0.00  0.00    -0.266 OA
ATOM     11  N   UNL d   1      10.407   7.424  -8.209  0.00  0.00    -0.234 NA
BRANCH  11  12
ATOM     12  C   UNL d   1       9.888   7.328  -9.571  0.00  0.00     0.129 C 
BRANCH  12  13
ATOM     13  C   UNL d   1       9.208   5.976  -9.805  0.00  0.00     0.026 C 
BRANCH  13  14
ATOM     14  C   UNL d   1       8.556   5.882 -11.195  0.00  0.00     0.004 C 
BRANCH  14  15
ATOM     15  C   UNL d   1       8.040   4.495 -11.560  0.00  0.00     0.035 C 
BRANCH  15  16
ATOM     16  C   UNL d   1       7.234   4.551 -12.867  0.00  0.00     0.250 C 
BRANCH  16  17
ATOM     17  N   UNL d   1       7.189   3.202 -13.431  0.00  0.00     0.141 N 
ATOM     18  C   UNL d   1       5.872   2.859 -13.956  0.00  0.00     0.274 C 
ATOM     19  C   UNL d   1       5.862   1.387 -14.453  0.00  0.00     0.137 C 
ATOM     20  N   UNL d   1       6.880   1.160 -15.461  0.00  0.00    -0.344 N 
ATOM     21  C   UNL d   1       8.218   1.506 -15.010  0.00  0.00     0.137 C 
ATOM     22  C   UNL d   1       8.257   2.936 -14.416  0.00  0.00     0.274 C 
BRANCH  20  23
ATOM     23  C   UNL d   1       6.590   0.627 -16.755  0.00  0.00     0.068 A 
ATOM     24  C   UNL d   1       5.702  -0.472 -16.999  0.00  0.00     0.084 A 
ATOM     25  C   UNL d   1       5.471  -0.906 -18.319  0.00  0.00     0.070 A 
ATOM     26 CL   UNL d   1       4.927  -1.378 -15.735  0.00  0.00    -0.080 Cl
ATOM     27  C   UNL d   1       6.128  -0.302 -19.403  0.00  0.00     0.012 A 
ATOM     28 CL   UNL d   1       4.419  -2.235 -18.639  0.00  0.00    -0.081 Cl
ATOM     29  C   UNL d   1       7.015   0.763 -19.177  0.00  0.00     0.002 A 
ATOM     30  C   UNL d   1       7.232   1.224 -17.867  0.00  0.00     0.018 A 
ENDBRANCH  20  23
ENDBRANCH  16  17
ENDBRANCH  15  16
ENDBRANCH  14  15
ENDBRANCH  13  14
ENDBRANCH  12  13
ENDBRANCH  11  12
ENDBRANCH   6   9
TORSDOF 8
