REMARK  4 active torsions:
REMARK  status: ('A' for Active; 'I' for Inactive)
REMARK    1  A    between atoms: C_3  and  N_4 
REMARK    2  A    between atoms: C_12  and  C_13 
REMARK    3  A    between atoms: C_13  and  N_14 
REMARK    4  A    between atoms: N_17  and  C_18 
ROOT
ATOM      1  C   UNL d   1       9.292   1.472 -16.488  0.00  0.00     0.153 C 
ATOM      2  N   UNL d   1       8.837   2.387 -15.427  0.00  0.00    -0.125 N 
ATOM      3  C   UNL d   1       9.625   3.554 -15.126  0.00  0.00     0.711 A 
ATOM      4  N   UNL d   1       9.282   4.455 -14.242  0.00  0.00    -0.061 NA
ATOM      5  C   UNL d   1       8.085   4.244 -13.551  0.00  0.00     0.121 A 
ATOM      6  C   UNL d   1       7.473   5.032 -12.531  0.00  0.00     0.050 A 
ATOM      7  C   UNL d   1       6.318   4.363 -12.194  0.00  0.00     0.098 A 
ATOM      8  N   UNL d   1       6.221   3.220 -12.975  0.00  0.00    -0.238 NA
ATOM      9  C   UNL d   1       7.316   3.166 -13.802  0.00  0.00     0.156 A 
ATOM     10  C   UNL d   1       7.677   2.121 -14.757  0.00  0.00     0.294 A 
ATOM     11  O   UNL d   1       6.968   1.126 -14.908  0.00  0.00    -0.265 OA
ENDROOT
BRANCH   6  12
ATOM     12  C   UNL d   1       7.964   6.334 -11.972  0.00  0.00     0.280 C 
BRANCH  12  13
ATOM     13  N   UNL d   1       9.111   6.214 -11.071  0.00  0.00     0.146 N 
ATOM     14  C   UNL d   1       9.743   7.533 -10.918  0.00  0.00     0.275 C 
ATOM     15  C   UNL d   1      10.975   7.435  -9.998  0.00  0.00     0.137 C 
ATOM     16  N   UNL d   1      10.584   6.889  -8.703  0.00  0.00    -0.344 N 
ATOM     17  C   UNL d   1       9.847   5.621  -8.770  0.00  0.00     0.137 C 
ATOM     18  C   UNL d   1       8.665   5.734  -9.750  0.00  0.00     0.275 C 
BRANCH  16  19
ATOM     19  C   UNL d   1      10.874   7.550  -7.490  0.00  0.00     0.056 A 
ATOM     20  C   UNL d   1      10.992   8.963  -7.422  0.00  0.00     0.017 A 
ATOM     21  C   UNL d   1      11.293   9.602  -6.201  0.00  0.00     0.002 A 
ATOM     22  C   UNL d   1      11.462   8.852  -5.026  0.00  0.00     0.000 A 
ATOM     23  C   UNL d   1      11.348   7.450  -5.078  0.00  0.00     0.002 A 
ATOM     24  C   UNL d   1      11.064   6.808  -6.302  0.00  0.00     0.017 A 
ENDBRANCH  16  19
ENDBRANCH  12  13
ENDBRANCH   6  12
BRANCH   3  25
ATOM     25  N   UNL d   1      10.793   3.668 -15.872  0.00  0.00    -0.179 N 
ATOM     26  C   UNL d   1      11.020   4.860 -16.688  0.00  0.00     0.152 C 
ATOM     27  C   UNL d   1      11.723   5.967 -15.876  0.00  0.00     0.167 C 
ATOM     28  O   UNL d   1      12.936   5.448 -15.347  0.00  0.00    -0.350 OA
ATOM     29  C   UNL d   1      12.712   4.333 -14.487  0.00  0.00     0.167 C 
ATOM     30  C   UNL d   1      12.040   3.199 -15.288  0.00  0.00     0.152 C 
ENDBRANCH   3  25
TORSDOF 4
