REMARK  6 active torsions:
REMARK  status: ('A' for Active; 'I' for Inactive)
REMARK    1  A    between atoms: C_2  and  C_3 
REMARK    2  A    between atoms: C_6  and  O_7 
REMARK    3  A    between atoms: C_9  and  C_10 
REMARK       I    between atoms: C_10  and  N_12 
REMARK    4  A    between atoms: N_12  and  C_13 
REMARK    5  A    between atoms: C_13  and  C_14 
REMARK    6  A    between atoms: N_18  and  C_19 
ROOT
ATOM      1  C   UNL d   1       9.278   5.096  -9.480  0.00  0.00     0.277 C 
ATOM      2  O   UNL d   1       9.707   4.004  -9.117  0.00  0.00    -0.266 OA
ATOM      3  N   UNL d   1       8.489   5.275 -10.536  0.00  0.00    -0.232 NA
ENDROOT
BRANCH   1   4
ATOM      4  C   UNL d   1       9.681   6.358  -8.792  0.00  0.00     0.080 A 
ATOM      5  C   UNL d   1      10.002   7.541  -9.490  0.00  0.00     0.099 A 
ATOM      6  C   UNL d   1      10.460   8.695  -8.769  0.00  0.00     0.024 A 
ATOM      7  C   UNL d   1      10.610   8.654  -7.376  0.00  0.00    -0.002 A 
ATOM      8  C   UNL d   1      10.322   7.471  -6.690  0.00  0.00    -0.022 A 
ATOM      9  C   UNL d   1       9.835   6.358  -7.392  0.00  0.00     0.003 A 
BRANCH   5  10
ATOM     10  O   UNL d   1       9.874   7.502 -10.851  0.00  0.00    -0.328 OA
ATOM     11  C   UNL d   1       9.541   8.700 -11.484  0.00  0.00     0.181 C 
ENDBRANCH   5  10
BRANCH   8  12
ATOM     12  C   UNL d   1      10.438   7.380  -5.204  0.00  0.00     0.026 C 
ATOM     13  C   UNL d   1      11.789   6.936  -4.660  0.00  0.00     0.005 C 
ENDBRANCH   8  12
ENDBRANCH   1   4
BRANCH   3  14
ATOM     14  C   UNL d   1       8.367   4.455 -11.722  0.00  0.00     0.162 C 
BRANCH  14  15
ATOM     15  C   UNL d   1       6.871   4.231 -12.008  0.00  0.00     0.243 C 
ATOM     16  N   UNL d   1       6.358   5.327 -12.830  0.00  0.00     0.137 N 
ATOM     17  C   UNL d   1       5.160   4.734 -13.432  0.00  0.00     0.250 C 
ATOM     18  C   UNL d   1       5.516   3.349 -13.807  0.00  0.00     0.037 C 
ATOM     19  C   UNL d   1       6.624   3.019 -12.916  0.00  0.00     0.037 C 
BRANCH  16  20
ATOM     20  C   UNL d   1       6.045   6.550 -12.071  0.00  0.00     0.250 C 
ATOM     21  C   UNL d   1       5.898   7.763 -12.985  0.00  0.00     0.037 C 
ENDBRANCH  16  20
ENDBRANCH  14  15
ENDBRANCH   3  14
TORSDOF 6
