REMARK  9 active torsions:
REMARK  status: ('A' for Active; 'I' for Inactive)
REMARK    1  A    between atoms: C_2  and  N_3 
REMARK    2  A    between atoms: N_3  and  C_4 
REMARK    3  A    between atoms: N_3  and  C_7 
REMARK    4  A    between atoms: C_4  and  C_5 
REMARK    5  A    between atoms: C_7  and  C_8 
REMARK    6  A    between atoms: C_8  and  C_9 
REMARK    7  A    between atoms: C_9  and  C_10 
REMARK    8  A    between atoms: C_10  and  N_12 
REMARK    9  A    between atoms: N_12  and  C_13 
ROOT
ATOM      1  N   UNL d   1       8.439   5.966 -11.756  0.00  0.00    -0.273 NA
ENDROOT
BRANCH   1   2
ATOM      2  C   UNL d   1       9.484   6.604 -10.977  0.00  0.00     0.103 C 
ATOM      3  C   UNL d   1       9.589   8.098 -11.381  0.00  0.00     0.026 C 
BRANCH   2   4
ATOM      4  C   UNL d   1       9.244   6.333  -9.464  0.00  0.00     0.026 C 
BRANCH   4   5
ATOM      5  C   UNL d   1      10.315   7.001  -8.581  0.00  0.00     0.037 C 
BRANCH   5   6
ATOM      6  C   UNL d   1      10.180   6.643  -7.087  0.00  0.00     0.250 C 
BRANCH   6   7
ATOM      7  N   UNL d   1      11.060   7.338  -6.117  0.00  0.00     0.140 N 
BRANCH   7   8
ATOM      8  C   UNL d   1      11.126   6.602  -4.861  0.00  0.00     0.250 C 
ATOM      9  C   UNL d   1      11.955   7.246  -3.725  0.00  0.00     0.037 C 
ENDBRANCH   7   8
BRANCH   7  10
ATOM     10  C   UNL d   1      10.658   8.738  -5.935  0.00  0.00     0.285 C 
BRANCH  10  11
ATOM     11  C   UNL d   1      11.204   9.661  -7.039  0.00  0.00     0.218 C 
ATOM     12  O   UNL d   1      11.778  10.799  -6.443  0.00  0.00    -0.218 OA
ENDBRANCH  10  11
ENDBRANCH   7  10
ENDBRANCH   6   7
ENDBRANCH   5   6
ENDBRANCH   4   5
ENDBRANCH   2   4
ENDBRANCH   1   2
BRANCH   1  13
ATOM     13  C   UNL d   1       8.706   5.039 -12.786  0.00  0.00     0.079 A 
ATOM     14  C   UNL d   1       7.799   4.001 -13.112  0.00  0.00     0.035 A 
ATOM     15  C   UNL d   1       8.132   3.098 -14.160  0.00  0.00     0.084 A 
ATOM     16  C   UNL d   1       6.584   3.849 -12.398  0.00  0.00     0.004 A 
ATOM     17  N   UNL d   1       9.278   3.193 -14.866  0.00  0.00    -0.244 NA
ATOM     18  C   UNL d   1       7.249   2.037 -14.448  0.00  0.00     0.031 A 
ATOM     19  C   UNL d   1      10.127   4.196 -14.575  0.00  0.00     0.101 A 
ATOM     20  C   UNL d   1       9.875   5.142 -13.571  0.00  0.00     0.039 A 
ATOM     21  C   UNL d   1       6.080   1.841 -13.700  0.00  0.00     0.059 A 
ATOM     22 CL   UNL d   1       5.163   0.386 -13.909  0.00  0.00    -0.082 Cl
ATOM     23  C   UNL d   1       5.731   2.773 -12.704  0.00  0.00     0.012 A 
ENDBRANCH   1  13
TORSDOF 9
