REMARK  5 active torsions:
REMARK  status: ('A' for Active; 'I' for Inactive)
REMARK       I    between atoms: C_2  and  N_3 
REMARK    1  A    between atoms: C_2  and  C_19 
REMARK    2  A    between atoms: N_3  and  C_4 
REMARK    3  A    between atoms: N_7  and  C_8 
REMARK    4  A    between atoms: C_8  and  C_9 
REMARK    5  A    between atoms: C_22  and  C_23 
ROOT
ATOM      1  C   UNL d   1       8.169   4.553 -11.016  0.00  0.00     0.142 C 
ATOM      2  C   UNL d   1       7.097   5.463 -11.553  0.00  0.00     0.062 C 
ATOM      3  C   UNL d   1       7.500   5.610 -12.964  0.00  0.00     0.253 C 
ATOM      4  N   UNL d   1       8.218   4.418 -13.319  0.00  0.00     0.143 N 
ATOM      5  C   UNL d   1       9.083   4.186 -12.194  0.00  0.00     0.275 C 
ENDROOT
BRANCH   1   6
ATOM      6  N   UNL d   1       8.928   5.103  -9.889  0.00  0.00    -0.234 NA
ATOM      7  C   UNL d   1       9.527   6.314  -9.878  0.00  0.00     0.275 C 
ATOM      8  O   UNL d   1       9.720   7.003 -10.883  0.00  0.00    -0.266 OA
BRANCH   7   9
ATOM      9  C   UNL d   1      10.034   6.779  -8.553  0.00  0.00     0.058 A 
ATOM     10  C   UNL d   1       9.373   6.411  -7.370  0.00  0.00     0.005 A 
ATOM     11  C   UNL d   1       9.849   6.878  -6.137  0.00  0.00     0.001 A 
ATOM     12  C   UNL d   1      10.933   7.762  -6.080  0.00  0.00     0.006 A 
ATOM     13  C   UNL d   1      11.535   8.206  -7.264  0.00  0.00     0.001 A 
ATOM     14  C   UNL d   1      11.100   7.700  -8.505  0.00  0.00     0.005 A 
BRANCH  12  15
ATOM     15  C   UNL d   1      11.387   8.262  -4.804  0.00  0.00     0.029 A 
ATOM     16  S   UNL d   1      11.874   7.128  -3.571  0.00  0.00    -0.086 SA
ATOM     17  C   UNL d   1      12.246   8.436  -2.479  0.00  0.00     0.035 A 
ATOM     18  C   UNL d   1      11.922   9.639  -3.039  0.00  0.00     0.007 A 
ATOM     19  C   UNL d   1      11.460   9.557  -4.373  0.00  0.00     0.007 A 
ENDBRANCH  12  15
ENDBRANCH   7   9
ENDBRANCH   1   6
BRANCH   4  20
ATOM     20  C   UNL d   1       8.945   4.524 -14.555  0.00  0.00     0.277 C 
BRANCH  20  21
ATOM     21  C   UNL d   1       9.241   3.166 -15.194  0.00  0.00     0.013 A 
ATOM     22  C   UNL d   1      10.244   3.081 -16.193  0.00  0.00     0.024 A 
ATOM     23  C   UNL d   1      10.492   1.815 -16.761  0.00  0.00     0.119 A 
ATOM     24  C   UNL d   1       9.789   0.694 -16.379  0.00  0.00     0.119 A 
ATOM     25  O   UNL d   1      11.396   1.478 -17.715  0.00  0.00    -0.300 OA
ATOM     26  C   UNL d   1       8.771   0.750 -15.420  0.00  0.00     0.026 A 
ATOM     27  O   UNL d   1      10.234  -0.390 -17.075  0.00  0.00    -0.300 OA
ATOM     28  C   UNL d   1       8.498   2.009 -14.842  0.00  0.00    -0.000 A 
ATOM     29  C   UNL d   1      11.242   0.097 -17.919  0.00  0.00     0.304 A 
ENDBRANCH  20  21
ENDBRANCH   4  20
TORSDOF 5
