REMARK  8 active torsions:
REMARK  status: ('A' for Active; 'I' for Inactive)
REMARK    1  A    between atoms: C_6  and  C_7 
REMARK    2  A    between atoms: C_10  and  S_11 
REMARK    3  A    between atoms: S_11  and  C_12 
REMARK    4  A    between atoms: C_12  and  C_13 
REMARK    5  A    between atoms: C_13  and  C_14 
REMARK    6  A    between atoms: C_14  and  N_15 
REMARK    7  A    between atoms: C_19  and  C_20 
REMARK    8  A    between atoms: C_23  and  C_24 
ROOT
ATOM      1  C   UNL d   1      11.844   3.899 -16.118  0.00  0.00     0.067 C 
ENDROOT
BRANCH   1   2
ATOM      2  S   UNL d   1      11.840   2.271 -16.928  0.00  0.00    -0.075 SA
BRANCH   2   3
ATOM      3  C   UNL d   1      10.097   2.034 -17.026  0.00  0.00     0.193 A 
ATOM      4  N   UNL d   1       9.333   2.589 -17.970  0.00  0.00    -0.122 NA
ATOM      5  N   UNL d   1       8.048   2.196 -17.666  0.00  0.00    -0.128 NA
ATOM      6  C   UNL d   1       8.142   1.414 -16.586  0.00  0.00     0.167 A 
ATOM      7  N   UNL d   1       9.414   1.288 -16.136  0.00  0.00    -0.289 N 
ATOM      8  C   UNL d   1       9.921   0.550 -14.988  0.00  0.00     0.134 C 
BRANCH   6   9
ATOM      9  C   UNL d   1       6.978   0.773 -15.979  0.00  0.00     0.037 A 
ATOM     10  C   UNL d   1       6.172  -0.151 -16.699  0.00  0.00     0.021 A 
ATOM     11  C   UNL d   1       6.436  -0.493 -18.048  0.00  0.00     0.003 A 
ATOM     12  C   UNL d   1       5.064  -0.770 -16.057  0.00  0.00     0.081 A 
ATOM     13  C   UNL d   1       5.595  -1.409 -18.704  0.00  0.00     0.015 A 
ATOM     14  C   UNL d   1       4.522  -1.960 -17.987  0.00  0.00     0.059 A 
ATOM     15  C   UNL d   1       3.608  -2.973 -18.645  0.00  0.00     0.052 C 
ATOM     16  N   UNL d   1       4.256  -1.641 -16.706  0.00  0.00    -0.250 NA
ATOM     17  C   UNL d   1       4.791  -0.470 -14.711  0.00  0.00     0.019 A 
ATOM     18  C   UNL d   1       5.585   0.446 -13.997  0.00  0.00     0.002 A 
ATOM     19  C   UNL d   1       6.665   1.079 -14.639  0.00  0.00     0.003 A 
ENDBRANCH   6   9
ENDBRANCH   2   3
ENDBRANCH   1   2
BRANCH   1  20
ATOM     20  C   UNL d   1      11.212   3.865 -14.715  0.00  0.00     0.047 C 
BRANCH  20  21
ATOM     21  C   UNL d   1      10.419   5.130 -14.408  0.00  0.00     0.251 C 
BRANCH  21  22
ATOM     22  N   UNL d   1      10.117   5.188 -12.972  0.00  0.00     0.137 N 
ATOM     23  C   UNL d   1       9.464   6.449 -12.609  0.00  0.00     0.254 C 
ATOM     24  C   UNL d   1       8.924   6.160 -11.241  0.00  0.00     0.052 A 
ATOM     25  C   UNL d   1       8.737   4.668 -11.188  0.00  0.00     0.039 A 
ATOM     26  C   UNL d   1       7.541   5.589 -11.085  0.00  0.00     0.008 A 
ATOM     27  C   UNL d   1       9.237   4.126 -12.502  0.00  0.00     0.251 C 
BRANCH  24  28
ATOM     28  C   UNL d   1       9.585   6.872 -10.044  0.00  0.00    -0.021 A 
ATOM     29  C   UNL d   1       9.463   6.323  -8.756  0.00  0.00    -0.004 A 
ATOM     30  C   UNL d   1      10.031   6.955  -7.634  0.00  0.00     0.004 A 
ATOM     31  C   UNL d   1      10.726   8.169  -7.785  0.00  0.00     0.071 A 
ATOM     32  C   UNL d   1      10.835   8.745  -9.070  0.00  0.00     0.004 A 
ATOM     33  C   UNL d   1      10.257   8.112 -10.188  0.00  0.00    -0.004 A 
BRANCH  31  34
ATOM     34  C   UNL d   1      11.341   8.864  -6.584  0.00  0.00     0.419 C 
ATOM     35  F   UNL d   1      10.658   9.974  -6.312  0.00  0.00    -0.166 F 
ATOM     36  F   UNL d   1      11.348   8.084  -5.495  0.00  0.00    -0.166 F 
ATOM     37  F   UNL d   1      12.601   9.184  -6.879  0.00  0.00    -0.166 F 
ENDBRANCH  31  34
ENDBRANCH  24  28
ENDBRANCH  21  22
ENDBRANCH  20  21
ENDBRANCH   1  20
TORSDOF 8
