REMARK  7 active torsions:
REMARK  status: ('A' for Active; 'I' for Inactive)
REMARK    1  A    between atoms: O_2  and  C_3 
REMARK    2  A    between atoms: C_3  and  C_5 
REMARK       I    between atoms: C_5  and  N_7 
REMARK    3  A    between atoms: N_7  and  C_8 
REMARK    4  A    between atoms: C_11  and  C_12 
REMARK    5  A    between atoms: C_12  and  C_13 
REMARK    6  A    between atoms: C_13  and  N_14 
REMARK    7  A    between atoms: N_17  and  C_18 
ROOT
ATOM      1  N   UNL d   1       8.570   4.818 -11.911  0.00  0.00     0.141 N 
ATOM      2  C   UNL d   1       9.331   3.795 -12.638  0.00  0.00     0.274 C 
ATOM      3  C   UNL d   1       8.706   3.529 -14.026  0.00  0.00     0.137 C 
ATOM      4  N   UNL d   1       7.290   3.187 -13.900  0.00  0.00    -0.343 N 
ATOM      5  C   UNL d   1       6.503   4.128 -13.101  0.00  0.00     0.137 C 
ATOM      6  C   UNL d   1       7.171   4.388 -11.739  0.00  0.00     0.274 C 
ENDROOT
BRANCH   1   7
ATOM      7  C   UNL d   1       9.188   5.051 -10.604  0.00  0.00     0.250 C 
BRANCH   7   8
ATOM      8  C   UNL d   1       8.772   6.405 -10.026  0.00  0.00     0.035 C 
BRANCH   8   9
ATOM      9  C   UNL d   1       9.587   6.857  -8.800  0.00  0.00     0.002 C 
ATOM     10  C   UNL d   1      10.941   7.472  -9.211  0.00  0.00     0.002 C 
ATOM     11  C   UNL d   1      11.754   7.903  -7.976  0.00  0.00     0.024 C 
ATOM     12  C   UNL d   1      10.944   8.890  -7.094  0.00  0.00     0.106 C 
ATOM     13  C   UNL d   1       9.560   8.305  -6.713  0.00  0.00     0.024 C 
ATOM     14  C   UNL d   1       8.803   7.880  -7.947  0.00  0.00     0.002 C 
BRANCH  12  15
ATOM     15  N   UNL d   1      11.677   9.253  -5.881  0.00  0.00    -0.238 NA
ATOM     16  C   UNL d   1      11.902   8.417  -4.855  0.00  0.00     0.279 C 
ATOM     17  O   UNL d   1      11.661   7.217  -4.909  0.00  0.00    -0.268 OA
BRANCH  16  18
ATOM     18  C   UNL d   1      12.591   8.979  -3.629  0.00  0.00     0.195 C 
ATOM     19  C   UNL d   1      11.690   9.961  -2.871  0.00  0.00     0.042 C 
BRANCH  18  20
ATOM     20  O   UNL d   1      13.011   7.900  -2.779  0.00  0.00    -0.345 OA
ATOM     21  C   UNL d   1      12.059   7.014  -2.197  0.00  0.00     0.175 C 
ENDBRANCH  18  20
ENDBRANCH  16  18
ENDBRANCH  12  15
ENDBRANCH   8   9
ENDBRANCH   7   8
ENDBRANCH   1   7
BRANCH   4  22
ATOM     22  C   UNL d   1       6.742   2.014 -14.421  0.00  0.00     0.081 A 
ATOM     23  C   UNL d   1       7.116   1.501 -15.685  0.00  0.00     0.135 A 
ATOM     24  C   UNL d   1       6.529   0.368 -16.209  0.00  0.00     0.121 A 
ATOM     25  O   UNL d   1       8.017   1.993 -16.577  0.00  0.00    -0.298 OA
ATOM     26  C   UNL d   1       5.533  -0.345 -15.522  0.00  0.00     0.026 A 
ATOM     27  O   UNL d   1       7.048   0.111 -17.438  0.00  0.00    -0.299 OA
ATOM     28  C   UNL d   1       5.147   0.138 -14.254  0.00  0.00     0.004 A 
ATOM     29  C   UNL d   1       5.747   1.293 -13.707  0.00  0.00     0.019 A 
ATOM     30  C   UNL d   1       7.994   1.117 -17.674  0.00  0.00     0.304 A 
ENDBRANCH   4  22
TORSDOF 7
