REMARK  6 active torsions:
REMARK  status: ('A' for Active; 'I' for Inactive)
REMARK    1  A    between atoms: C_2  and  N_4 
REMARK    2  A    between atoms: N_4  and  C_5 
REMARK    3  A    between atoms: C_5  and  C_6 
REMARK    4  A    between atoms: C_6  and  C_8 
REMARK    5  A    between atoms: C_8  and  O_9 
REMARK    6  A    between atoms: O_9  and  C_10 
ROOT
ATOM      1  C   UNL d   1      10.709   8.231  -6.535  0.00  0.00     0.094 C 
ATOM      2  C   UNL d   1      10.880   6.934  -7.084  0.00  0.00     0.024 C 
ATOM      3  C   UNL d   1      11.701   6.053  -6.412  0.00  0.00     0.002 C 
ATOM      4  C   UNL d   1      12.049   6.240  -5.086  0.00  0.00     0.000 C 
ATOM      5  C   UNL d   1      11.845   7.478  -4.495  0.00  0.00     0.002 A 
ATOM      6  C   UNL d   1      12.316   7.671  -3.177  0.00  0.00     0.000 A 
ATOM      7  C   UNL d   1      12.134   8.912  -2.590  0.00  0.00     0.000 A 
ATOM      8  C   UNL d   1      11.491   9.919  -3.323  0.00  0.00     0.000 A 
ATOM      9  C   UNL d   1      11.056   9.746  -4.650  0.00  0.00     0.002 A 
ATOM     10  C   UNL d   1      11.208   8.503  -5.236  0.00  0.00     0.022 A 
ENDROOT
BRANCH   1  11
ATOM     11  O   UNL d   1      10.123   9.265  -7.231  0.00  0.00    -0.328 OA
BRANCH  11  12
ATOM     12  C   UNL d   1       9.556   9.019  -8.505  0.00  0.00     0.184 C 
BRANCH  12  13
ATOM     13  C   UNL d   1      10.573   8.560  -9.576  0.00  0.00     0.218 C 
ATOM     14  O   UNL d   1      11.371   9.599  -9.969  0.00  0.00    -0.218 OA
BRANCH  13  15
ATOM     15  C   UNL d   1       9.857   7.997 -10.795  0.00  0.00     0.325 C 
BRANCH  15  16
ATOM     16  N   UNL d   1       9.382   6.612 -10.571  0.00  0.00     0.340 N 
BRANCH  16  17
ATOM     17  C   UNL d   1       8.888   5.945 -11.784  0.00  0.00     0.257 C 
ATOM     18  C   UNL d   1       7.634   6.648 -12.330  0.00  0.00     0.038 C 
ATOM     19  C   UNL d   1       8.594   4.460 -11.535  0.00  0.00     0.038 C 
ENDBRANCH  16  17
ENDBRANCH  15  16
ENDBRANCH  13  15
ENDBRANCH  12  13
ENDBRANCH  11  12
ENDBRANCH   1  11
TORSDOF 6
