REMARK  4 active torsions:
REMARK  status: ('A' for Active; 'I' for Inactive)
REMARK       I    between atoms: N_10  and  C_11 
REMARK    1  A    between atoms: C_11  and  C_13 
REMARK    2  A    between atoms: C_13  and  N_14 
REMARK    3  A    between atoms: N_17  and  C_18 
REMARK    4  A    between atoms: C_18  and  C_19 
ROOT
ATOM      1  N   UNL d   1       9.623   6.877 -11.139  0.00  0.00     0.151 N 
ATOM      2  C   UNL d   1       9.648   8.332 -11.200  0.00  0.00     0.286 C 
ATOM      3  C   UNL d   1      10.744   8.910 -10.269  0.00  0.00     0.286 C 
ATOM      4  N   UNL d   1      10.507   8.528  -8.891  0.00  0.00     0.146 N 
ATOM      5  C   UNL d   1      10.410   7.081  -8.861  0.00  0.00     0.286 C 
ATOM      6  C   UNL d   1       9.391   6.473  -9.763  0.00  0.00     0.286 C 
ENDROOT
BRANCH   1   7
ATOM      7  C   UNL d   1       8.571   6.344 -11.997  0.00  0.00     0.337 C 
BRANCH   7   8
ATOM      8  C   UNL d   1       9.047   5.136 -12.823  0.00  0.00     0.271 C 
ATOM      9  N   UNL d   1       8.111   4.217 -13.235  0.00  0.00    -0.299 N 
ATOM     10  C   UNL d   1       6.652   4.363 -13.053  0.00  0.00     0.093 C 
ATOM     11  C   UNL d   1       8.370   3.067 -14.020  0.00  0.00     0.058 A 
ATOM     12  C   UNL d   1       6.175   4.087 -11.619  0.00  0.00     0.025 C 
ATOM     13  C   UNL d   1       5.999   3.295 -13.984  0.00  0.00     0.051 C 
ATOM     14  C   UNL d   1       7.181   2.499 -14.470  0.00  0.00    -0.004 A 
ATOM     15  C   UNL d   1       7.171   1.334 -15.244  0.00  0.00    -0.003 A 
ATOM     16  C   UNL d   1       8.414   0.717 -15.565  0.00  0.00    -0.000 A 
ATOM     17  C   UNL d   1       9.628   1.290 -15.079  0.00  0.00     0.002 A 
ATOM     18  C   UNL d   1       9.602   2.459 -14.308  0.00  0.00     0.017 A 
ATOM     19  O   UNL d   1      10.242   5.052 -13.142  0.00  0.00    -0.270 OA
ENDBRANCH   7   8
ENDBRANCH   1   7
BRANCH   4  20
ATOM     20  C   UNL d   1      11.579   9.048  -8.009  0.00  0.00     0.277 C 
BRANCH  20  21
ATOM     21  C   UNL d   1      11.573   8.530  -6.563  0.00  0.00     0.012 A 
ATOM     22  C   UNL d   1      11.677   9.438  -5.478  0.00  0.00     0.010 A 
ATOM     23  C   UNL d   1      11.706   8.907  -4.164  0.00  0.00     0.068 A 
ATOM     24  C   UNL d   1      11.590   7.531  -3.916  0.00  0.00     0.068 A 
ATOM     25 CL   UNL d   1      11.811   9.977  -2.808  0.00  0.00    -0.082 Cl
ATOM     26  C   UNL d   1      11.476   6.666  -4.986  0.00  0.00     0.012 A 
ATOM     27 CL   UNL d   1      11.625   6.846  -2.325  0.00  0.00    -0.082 Cl
ATOM     28  C   UNL d   1      11.543   7.141  -6.283  0.00  0.00    -0.001 A 
ENDBRANCH  20  21
ENDBRANCH   4  20
TORSDOF 4
