REMARK  4 active torsions:
REMARK  status: ('A' for Active; 'I' for Inactive)
REMARK    1  A    between atoms: C_4  and  C_5 
REMARK    2  A    between atoms: C_7  and  C_8 
REMARK    3  A    between atoms: C_8  and  N_9 
REMARK    4  A    between atoms: N_12  and  C_13 
ROOT
ATOM      1  N   UNL d   1       9.889   7.499  -9.104  0.00  0.00     0.147 N 
ATOM      2  C   UNL d   1      10.003   6.410  -8.129  0.00  0.00     0.275 C 
ATOM      3  C   UNL d   1       9.575   6.908  -6.742  0.00  0.00     0.155 C 
ATOM      4  N   UNL d   1      10.382   8.054  -6.339  0.00  0.00    -0.179 N 
ATOM      5  C   UNL d   1      10.378   9.128  -7.323  0.00  0.00     0.155 C 
ATOM      6  C   UNL d   1      10.788   8.584  -8.701  0.00  0.00     0.275 C 
ENDROOT
BRANCH   1   7
ATOM      7  C   UNL d   1      10.249   7.029 -10.438  0.00  0.00     0.297 C 
BRANCH   7   8
ATOM      8  C   UNL d   1       9.401   6.005 -11.142  0.00  0.00     0.113 A 
ATOM      9  N   UNL d   1       9.837   5.326 -12.282  0.00  0.00    -0.228 NA
ATOM     10  C   UNL d   1       8.848   4.498 -12.621  0.00  0.00     0.162 A 
ATOM     11  N   UNL d   1       7.812   4.636 -11.782  0.00  0.00    -0.224 NA
ATOM     12  C   UNL d   1       8.132   5.589 -10.838  0.00  0.00     0.117 A 
BRANCH  10  13
ATOM     13  C   UNL d   1       8.905   3.569 -13.742  0.00  0.00     0.036 A 
ATOM     14  C   UNL d   1       7.744   2.881 -14.157  0.00  0.00     0.003 A 
ATOM     15  C   UNL d   1       7.796   1.981 -15.238  0.00  0.00     0.000 A 
ATOM     16  C   UNL d   1       9.013   1.759 -15.911  0.00  0.00     0.000 A 
ATOM     17  C   UNL d   1      10.180   2.431 -15.498  0.00  0.00     0.000 A 
ATOM     18  C   UNL d   1      10.127   3.329 -14.414  0.00  0.00     0.003 A 
ENDBRANCH  10  13
ENDBRANCH   7   8
ENDBRANCH   1   7
BRANCH   4  19
ATOM     19  C   UNL d   1      11.089   8.116  -5.146  0.00  0.00     0.727 A 
ATOM     20  N   UNL d   1      11.459   6.960  -4.585  0.00  0.00    -0.060 NA
ATOM     21  C   UNL d   1      12.136   7.019  -3.419  0.00  0.00     0.120 A 
ATOM     22  C   UNL d   1      12.434   8.246  -2.802  0.00  0.00     0.043 A 
ATOM     23  C   UNL d   1      11.980   9.397  -3.466  0.00  0.00     0.120 A 
ATOM     24  N   UNL d   1      11.321   9.331  -4.639  0.00  0.00    -0.060 NA
ENDBRANCH   4  19
TORSDOF 4
