REMARK  9 active torsions:
REMARK  status: ('A' for Active; 'I' for Inactive)
REMARK    1  A    between atoms: C_8  and  O_9 
REMARK    2  A    between atoms: O_9  and  C_10 
REMARK    3  A    between atoms: C_10  and  C_11 
REMARK    4  A    between atoms: C_11  and  C_12 
REMARK    5  A    between atoms: C_12  and  C_13 
REMARK    6  A    between atoms: C_13  and  N_14 
REMARK    7  A    between atoms: N_17  and  C_18 
REMARK    8  A    between atoms: N_26  and  C_27 
REMARK    9  A    between atoms: C_27  and  C_28 
ROOT
ATOM      1  N   UNL d   1      10.594   4.086 -15.536  0.00  0.00     0.141 N 
ATOM      2  C   UNL d   1      11.585   3.545 -16.451  0.00  0.00     0.274 C 
ATOM      3  C   UNL d   1      12.895   4.340 -16.301  0.00  0.00     0.137 C 
ATOM      4  N   UNL d   1      12.683   5.770 -16.560  0.00  0.00    -0.344 N 
ATOM      5  C   UNL d   1      11.603   6.340 -15.774  0.00  0.00     0.137 C 
ATOM      6  C   UNL d   1      10.350   5.463 -15.938  0.00  0.00     0.274 C 
ENDROOT
BRANCH   4   7
ATOM      7  C   UNL d   1      13.402   6.529 -17.476  0.00  0.00     0.058 A 
ATOM      8  C   UNL d   1      14.798   6.303 -17.681  0.00  0.00     0.033 A 
ATOM      9  C   UNL d   1      15.508   7.126 -18.608  0.00  0.00     0.062 A 
ATOM     10  C   UNL d   1      15.705   5.351 -17.139  0.00  0.00     0.021 A 
ATOM     11  C   UNL d   1      14.861   8.127 -19.343  0.00  0.00     0.017 A 
ATOM     12  N   UNL d   1      16.818   6.681 -18.574  0.00  0.00    -0.322 N 
ATOM     13  C   UNL d   1      13.491   8.335 -19.146  0.00  0.00     0.003 A 
ATOM     14  C   UNL d   1      12.769   7.556 -18.232  0.00  0.00     0.017 A 
ATOM     15  C   UNL d   1      16.927   5.676 -17.626  0.00  0.00     0.076 A 
BRANCH  12  16
ATOM     16  C   UNL d   1      17.930   7.181 -19.365  0.00  0.00     0.133 C 
BRANCH  16  17
ATOM     17  C   UNL d   1      18.593   8.339 -18.675  0.00  0.00     0.001 C 
ATOM     18  C   UNL d   1      18.992   8.225 -17.323  0.00  0.00    -0.000 C 
ATOM     19  C   UNL d   1      19.551   9.336 -16.673  0.00  0.00     0.029 C 
ATOM     20  C   UNL d   1      19.854  10.504 -17.393  0.00  0.00     0.140 C 
ATOM     21  C   UNL d   1      19.428  10.637 -18.738  0.00  0.00     0.029 C 
ATOM     22  F   UNL d   1      20.533  11.495 -16.777  0.00  0.00    -0.204 F 
ATOM     23  C   UNL d   1      18.783   9.553 -19.364  0.00  0.00    -0.000 C 
ENDBRANCH  16  17
ENDBRANCH  12  16
ENDBRANCH   4   7
BRANCH   1  24
ATOM     24  C   UNL d   1       9.357   3.308 -15.604  0.00  0.00     0.251 C 
BRANCH  24  25
ATOM     25  C   UNL d   1       8.244   3.813 -14.638  0.00  0.00     0.038 C 
BRANCH  25  26
ATOM     26  C   UNL d   1       8.572   3.797 -13.172  0.00  0.00     0.035 C 
BRANCH  26  27
ATOM     27  C   UNL d   1       7.437   4.531 -12.406  0.00  0.00     0.149 C 
BRANCH  27  28
ATOM     28  O   UNL d   1       7.539   4.268 -11.020  0.00  0.00    -0.331 OA
BRANCH  28  29
ATOM     29  C   UNL d   1       8.450   4.975 -10.265  0.00  0.00     0.096 A 
ATOM     30  C   UNL d   1       8.592   4.651  -8.900  0.00  0.00     0.024 A 
ATOM     31  C   UNL d   1       9.364   5.447  -8.038  0.00  0.00    -0.001 A 
ATOM     32  C   UNL d   1      10.047   6.542  -8.538  0.00  0.00    -0.004 A 
ATOM     33  C   UNL d   1      10.939   7.389  -7.637  0.00  0.00     0.038 C 
ATOM     34  C   UNL d   1       9.936   6.837  -9.907  0.00  0.00     0.082 A 
ATOM     35  C   UNL d   1      10.989   8.834  -8.148  0.00  0.00     0.095 C 
ATOM     36  C   UNL d   1      11.160   8.854  -9.675  0.00  0.00     0.256 C 
ATOM     37  O   UNL d   1      11.847   9.655 -10.204  0.00  0.00    -0.270 OA
ATOM     38  N   UNL d   1      10.566   7.951 -10.429  0.00  0.00    -0.212 NA
ATOM     39  C   UNL d   1       9.184   6.055 -10.793  0.00  0.00     0.043 A 
ENDBRANCH  28  29
ENDBRANCH  27  28
ENDBRANCH  26  27
ENDBRANCH  25  26
ENDBRANCH  24  25
ENDBRANCH   1  24
TORSDOF 9
