REMARK  6 active torsions:
REMARK  status: ('A' for Active; 'I' for Inactive)
REMARK    1  A    between atoms: C_2  and  N_4 
REMARK    2  A    between atoms: N_4  and  C_5 
REMARK    3  A    between atoms: C_5  and  C_6 
REMARK    4  A    between atoms: C_6  and  C_8 
REMARK    5  A    between atoms: C_8  and  O_9 
REMARK    6  A    between atoms: O_9  and  C_10 
ROOT
ATOM      1  C   UNL d   1      10.690   8.309  -5.956  0.00  0.00     0.096 C 
ATOM      2  C   UNL d   1      10.681   9.702  -6.056  0.00  0.00     0.024 C 
ATOM      3  C   UNL d   1      11.068  10.471  -4.967  0.00  0.00     0.004 C 
ATOM      4  C   UNL d   1      11.602   9.893  -3.801  0.00  0.00     0.019 C 
ATOM      5  C   UNL d   1      11.728   8.508  -3.758  0.00  0.00     0.083 A 
ATOM      6  N   UNL d   1      12.240   7.695  -2.781  0.00  0.00    -0.244 NA
ATOM      7  C   UNL d   1      12.008   6.391  -3.136  0.00  0.00     0.099 A 
ATOM      8  C   UNL d   1      11.392   6.377  -4.362  0.00  0.00     0.024 A 
ATOM      9  C   UNL d   1      11.246   7.700  -4.814  0.00  0.00     0.042 A 
ENDROOT
BRANCH   1  10
ATOM     10  O   UNL d   1      10.088   7.674  -6.993  0.00  0.00    -0.328 OA
BRANCH  10  11
ATOM     11  C   UNL d   1      10.801   6.579  -7.480  0.00  0.00     0.184 C 
BRANCH  11  12
ATOM     12  C   UNL d   1      10.626   6.581  -8.980  0.00  0.00     0.206 C 
ATOM     13  O   UNL d   1      11.443   7.624  -9.481  0.00  0.00    -0.219 OA
BRANCH  12  14
ATOM     14  C   UNL d   1       9.166   6.720  -9.440  0.00  0.00     0.155 C 
BRANCH  14  15
ATOM     15  N   UNL d   1       8.742   5.516 -10.156  0.00  0.00    -0.295 NA
BRANCH  15  16
ATOM     16  C   UNL d   1       7.721   5.735 -11.178  0.00  0.00     0.098 C 
ATOM     17  C   UNL d   1       7.276   4.387 -11.747  0.00  0.00     0.026 C 
ATOM     18  C   UNL d   1       8.219   6.660 -12.308  0.00  0.00     0.026 C 
ENDBRANCH  15  16
ENDBRANCH  14  15
ENDBRANCH  12  14
ENDBRANCH  11  12
ENDBRANCH  10  11
ENDBRANCH   1  10
TORSDOF 6
