REMARK  7 active torsions:
REMARK  status: ('A' for Active; 'I' for Inactive)
REMARK    1  A    between atoms: S_2  and  C_5 
REMARK    2  A    between atoms: N_13  and  C_14 
REMARK    3  A    between atoms: C_14  and  C_15 
REMARK    4  A    between atoms: C_15  and  C_16 
REMARK    5  A    between atoms: C_19  and  N_20 
REMARK       I    between atoms: N_20  and  C_21 
REMARK    6  A    between atoms: C_21  and  C_23 
REMARK    7  A    between atoms: C_24  and  C_25 
ROOT
ATOM      1  C   UNL d   1       7.867   5.685 -21.414  0.00  0.00     0.010 A 
ATOM      2  C   UNL d   1       7.017   5.800 -22.533  0.00  0.00     0.001 A 
ATOM      3  C   UNL d   1       6.397   7.025 -22.852  0.00  0.00     0.000 A 
ATOM      4  C   UNL d   1       6.602   8.158 -22.051  0.00  0.00     0.001 A 
ATOM      5  C   UNL d   1       7.415   8.056 -20.922  0.00  0.00     0.010 A 
ATOM      6  C   UNL d   1       8.047   6.843 -20.596  0.00  0.00     0.068 A 
ATOM      7  C   UNL d   1       8.912   6.927 -19.444  0.00  0.00     0.101 C 
ATOM      8  N   UNL d   1       9.597   7.021 -18.522  0.00  0.00    -0.191 NA
ENDROOT
BRANCH   1   9
ATOM      9  C   UNL d   1       8.465   4.344 -21.162  0.00  0.00     0.006 C 
ATOM     10  C   UNL d   1       8.645   3.824 -19.937  0.00  0.00     0.062 C 
BRANCH  10  11
ATOM     11  C   UNL d   1       9.297   2.535 -19.691  0.00  0.00     0.275 C 
ATOM     12  N   UNL d   1       9.463   2.214 -18.388  0.00  0.00    -0.236 NA
ATOM     13  O   UNL d   1       9.692   1.769 -20.566  0.00  0.00    -0.266 OA
BRANCH  12  14
ATOM     14  C   UNL d   1       9.113   3.023 -17.225  0.00  0.00     0.107 C 
ATOM     15  C   UNL d   1       9.071   2.215 -15.934  0.00  0.00     0.024 C 
ATOM     16  C   UNL d   1       8.701   3.117 -14.742  0.00  0.00     0.002 C 
ATOM     17  C   UNL d   1       9.642   4.331 -14.615  0.00  0.00     0.002 C 
ATOM     18  C   UNL d   1       9.692   5.119 -15.932  0.00  0.00     0.002 C 
ATOM     19  C   UNL d   1      10.098   4.197 -17.085  0.00  0.00     0.024 C 
BRANCH  17  20
ATOM     20  C   UNL d   1       9.201   5.234 -13.460  0.00  0.00     0.035 C 
BRANCH  20  21
ATOM     21  C   UNL d   1       9.585   4.672 -12.075  0.00  0.00     0.250 C 
BRANCH  21  22
ATOM     22  N   UNL d   1       9.227   5.597 -10.998  0.00  0.00     0.138 N 
ATOM     23  C   UNL d   1      10.191   6.692 -10.957  0.00  0.00     0.255 C 
ATOM     24  C   UNL d   1       9.745   7.955 -10.273  0.00  0.00     0.061 C 
ATOM     25  C   UNL d   1       9.776   7.870  -8.780  0.00  0.00    -0.023 A 
ATOM     26  C   UNL d   1       9.159   6.813  -8.046  0.00  0.00    -0.024 A 
ATOM     27  C   UNL d   1      10.450   8.894  -8.085  0.00  0.00     0.006 A 
ATOM     28  C   UNL d   1       9.212   6.825  -6.648  0.00  0.00    -0.004 A 
ATOM     29  C   UNL d   1       8.414   5.669  -8.681  0.00  0.00     0.061 C 
ATOM     30  C   UNL d   1       9.877   7.836  -5.975  0.00  0.00     0.011 A 
ATOM     31  C   UNL d   1      10.479   8.858  -6.685  0.00  0.00     0.084 A 
ATOM     32  C   UNL d   1       9.200   4.904  -9.724  0.00  0.00     0.255 C 
BRANCH  31  33
ATOM     33  S   UNL d   1      11.310  10.137  -5.819  0.00  0.00     0.191 S 
ATOM     34  C   UNL d   1      12.926   9.453  -5.454  0.00  0.00     0.145 C 
ATOM     35  O   UNL d   1      10.622  10.372  -4.521  0.00  0.00    -0.222 OA
ATOM     36  O   UNL d   1      11.524  11.194  -6.820  0.00  0.00    -0.222 OA
ENDBRANCH  31  33
ENDBRANCH  21  22
ENDBRANCH  20  21
ENDBRANCH  17  20
ENDBRANCH  12  14
ENDBRANCH  10  11
ENDBRANCH   1   9
TORSDOF 7
