REMARK  5 active torsions:
REMARK  status: ('A' for Active; 'I' for Inactive)
REMARK    1  A    between atoms: O_2  and  C_3 
REMARK    2  A    between atoms: C_8  and  N_9 
REMARK    3  A    between atoms: N_12  and  C_13 
REMARK    4  A    between atoms: C_13  and  N_14 
REMARK       I    between atoms: N_14  and  C_15 
REMARK    5  A    between atoms: C_15  and  C_17 
ROOT
ATOM      1  N   UNL d   1      11.383   7.224  -7.168  0.00  0.00    -0.344 N 
ATOM      2  C   UNL d   1      12.120   7.911  -8.224  0.00  0.00     0.119 C 
ATOM      3  C   UNL d   1      11.148   8.346  -9.338  0.00  0.00     0.102 C 
ATOM      4  N   UNL d   1      10.384   7.192  -9.834  0.00  0.00    -0.232 NA
ATOM      5  C   UNL d   1       9.576   6.652  -8.726  0.00  0.00     0.102 C 
ATOM      6  C   UNL d   1      10.490   6.153  -7.596  0.00  0.00     0.119 C 
ENDROOT
BRANCH   4   7
ATOM      7  C   UNL d   1       9.561   7.622 -10.959  0.00  0.00     0.152 C 
BRANCH   7   8
ATOM      8  N   UNL d   1       8.654   6.623 -11.504  0.00  0.00    -0.194 NA
ATOM      9  C   UNL d   1       8.891   5.783 -12.518  0.00  0.00     0.280 C 
ATOM     10  O   UNL d   1       9.869   5.870 -13.236  0.00  0.00    -0.265 OA
BRANCH   9  11
ATOM     11  C   UNL d   1       7.913   4.685 -12.790  0.00  0.00     0.058 A 
ATOM     12  C   UNL d   1       6.734   4.527 -12.036  0.00  0.00     0.006 A 
ATOM     13  C   UNL d   1       5.861   3.454 -12.284  0.00  0.00     0.012 A 
ATOM     14  C   UNL d   1       6.163   2.523 -13.297  0.00  0.00     0.058 A 
ATOM     15  C   UNL d   1       7.309   2.696 -14.091  0.00  0.00     0.012 A 
ATOM     16 CL   UNL d   1       5.293   1.036 -13.404  0.00  0.00    -0.082 Cl
ATOM     17  C   UNL d   1       8.186   3.763 -13.835  0.00  0.00     0.006 A 
ENDBRANCH   9  11
ENDBRANCH   7   8
ENDBRANCH   4   7
BRANCH   1  18
ATOM     18  C   UNL d   1      11.425   7.654  -5.826  0.00  0.00     0.079 A 
ATOM     19  C   UNL d   1      11.384   9.017  -5.457  0.00  0.00     0.110 A 
ATOM     20  C   UNL d   1      11.524   9.380  -4.087  0.00  0.00     0.026 A 
ATOM     21  C   UNL d   1      11.708   8.400  -3.090  0.00  0.00     0.002 A 
ATOM     22  C   UNL d   1      11.714   7.048  -3.454  0.00  0.00     0.002 A 
ATOM     23  C   UNL d   1      11.568   6.693  -4.806  0.00  0.00     0.019 A 
BRANCH  19  24
ATOM     24  O   UNL d   1      11.143   9.935  -6.451  0.00  0.00    -0.327 OA
ATOM     25  C   UNL d   1      11.853  11.136  -6.339  0.00  0.00     0.181 C 
ENDBRANCH  19  24
ENDBRANCH   1  18
TORSDOF 5
