REMARK  4 active torsions:
REMARK  status: ('A' for Active; 'I' for Inactive)
REMARK    1  A    between atoms: C_5  and  O_6 
REMARK    2  A    between atoms: O_6  and  C_7 
REMARK    3  A    between atoms: C_7  and  C_8 
REMARK    4  A    between atoms: N_13  and  C_14 
ROOT
ATOM      1  C   UNL d   1       7.602   5.126 -12.540  0.00  0.00     0.064 C 
ATOM      2  C   UNL d   1       6.075   4.974 -12.450  0.00  0.00     0.007 C 
ATOM      3  C   UNL d   1       5.730   3.492 -12.481  0.00  0.00     0.035 C 
ATOM      4  C   UNL d   1       6.319   2.824 -13.738  0.00  0.00     0.242 C 
ATOM      5  C   UNL d   1       5.961   1.315 -13.745  0.00  0.00     0.153 C 
ATOM      6  N   UNL d   1       6.554   0.661 -14.904  0.00  0.00    -0.179 N 
ATOM      7  C   UNL d   1       8.002   0.838 -14.971  0.00  0.00     0.155 C 
ATOM      8  C   UNL d   1       8.370   2.335 -14.946  0.00  0.00     0.275 C 
ATOM      9  N   UNL d   1       7.787   3.021 -13.784  0.00  0.00     0.139 N 
ATOM     10  C   UNL d   1       8.161   4.443 -13.795  0.00  0.00     0.253 C 
ENDROOT
BRANCH   1  11
ATOM     11  C   UNL d   1       7.958   6.620 -12.474  0.00  0.00     0.151 C 
BRANCH  11  12
ATOM     12  O   UNL d   1       9.261   6.869 -11.973  0.00  0.00    -0.331 OA
BRANCH  12  13
ATOM     13  C   UNL d   1       9.468   6.821 -10.610  0.00  0.00     0.094 A 
ATOM     14  C   UNL d   1      10.479   7.648 -10.089  0.00  0.00     0.026 A 
ATOM     15  C   UNL d   1      10.787   7.659  -8.714  0.00  0.00     0.032 A 
ATOM     16  C   UNL d   1      10.084   6.807  -7.844  0.00  0.00     0.140 A 
ATOM     17  F   UNL d   1      10.372   6.818  -6.513  0.00  0.00    -0.204 F 
ATOM     18  C   UNL d   1       9.073   5.965  -8.349  0.00  0.00     0.032 A 
ATOM     19  C   UNL d   1       8.744   5.982  -9.718  0.00  0.00     0.026 A 
ENDBRANCH  12  13
ENDBRANCH  11  12
ENDBRANCH   1  11
BRANCH   6  20
ATOM     20  C   UNL d   1       5.815  -0.020 -15.871  0.00  0.00     0.728 A 
ATOM     21  N   UNL d   1       4.680  -0.603 -15.472  0.00  0.00    -0.057 NA
ATOM     22  C   UNL d   1       3.975  -1.282 -16.405  0.00  0.00     0.149 A 
ATOM     23  C   UNL d   1       4.398  -1.348 -17.744  0.00  0.00     0.179 A 
ATOM     24  C   UNL d   1       5.601  -0.690 -18.050  0.00  0.00     0.149 A 
ATOM     25  F   UNL d   1       3.684  -2.001 -18.695  0.00  0.00    -0.201 F 
ATOM     26  N   UNL d   1       6.307  -0.025 -17.112  0.00  0.00    -0.057 NA
ENDBRANCH   6  20
TORSDOF 4
