REMARK  4 active torsions:
REMARK  status: ('A' for Active; 'I' for Inactive)
REMARK    1  A    between atoms: N_5  and  C_6 
REMARK    2  A    between atoms: C_6  and  C_7 
REMARK    3  A    between atoms: C_7  and  C_8 
REMARK    4  A    between atoms: C_8  and  N_9 
ROOT
ATOM      1  N   UNL d   1      11.305   3.388 -16.181  0.00  0.00    -0.296 N 
ATOM      2  C   UNL d   1      11.907   4.512 -15.704  0.00  0.00     0.261 C 
ATOM      3  O   UNL d   1      11.972   4.780 -14.500  0.00  0.00    -0.267 OA
ATOM      4  C   UNL d   1      12.610   5.450 -16.657  0.00  0.00     0.056 A 
ATOM      5  C   UNL d   1      13.984   5.699 -16.443  0.00  0.00     0.005 A 
ATOM      6  C   UNL d   1      14.682   6.635 -17.227  0.00  0.00     0.000 A 
ATOM      7  C   UNL d   1      14.003   7.358 -18.223  0.00  0.00     0.000 A 
ATOM      8  C   UNL d   1      12.633   7.129 -18.442  0.00  0.00     0.000 A 
ATOM      9  C   UNL d   1      11.928   6.169 -17.679  0.00  0.00     0.005 A 
ATOM     10  C   UNL d   1      10.503   5.978 -17.989  0.00  0.00     0.000 C 
ATOM     11  C   UNL d   1       9.968   4.817 -18.409  0.00  0.00     0.001 C 
ATOM     12  C   UNL d   1      10.747   3.591 -18.602  0.00  0.00     0.016 A 
ATOM     13  C   UNL d   1      10.809   3.040 -19.899  0.00  0.00     0.001 A 
ATOM     14  C   UNL d   1      11.556   1.875 -20.152  0.00  0.00     0.000 A 
ATOM     15  C   UNL d   1      12.240   1.243 -19.101  0.00  0.00     0.002 A 
ATOM     16  C   UNL d   1      12.166   1.769 -17.797  0.00  0.00     0.017 A 
ATOM     17  C   UNL d   1      11.427   2.945 -17.535  0.00  0.00     0.062 A 
ENDROOT
BRANCH   1  18
ATOM     18  C   UNL d   1      10.664   2.458 -15.226  0.00  0.00     0.111 C 
BRANCH  18  19
ATOM     19  C   UNL d   1       9.279   1.997 -15.706  0.00  0.00     0.060 C 
BRANCH  19  20
ATOM     20  C   UNL d   1       8.487   1.260 -14.613  0.00  0.00     0.252 C 
BRANCH  20  21
ATOM     21  N   UNL d   1       7.458   0.349 -15.108  0.00  0.00     0.141 N 
ATOM     22  C   UNL d   1       6.479   1.015 -15.960  0.00  0.00     0.285 C 
ATOM     23  C   UNL d   1       5.395   0.040 -16.466  0.00  0.00     0.285 C 
ATOM     24  N   UNL d   1       4.671  -0.577 -15.360  0.00  0.00     0.143 N 
ATOM     25  C   UNL d   1       3.647  -1.496 -15.842  0.00  0.00     0.285 C 
ATOM     26  C   UNL d   1       5.641  -1.252 -14.503  0.00  0.00     0.285 C 
ATOM     27  C   UNL d   1       6.738  -0.285 -14.001  0.00  0.00     0.285 C 
ENDBRANCH  20  21
ENDBRANCH  19  20
ENDBRANCH  18  19
ENDBRANCH   1  18
TORSDOF 4
