REMARK  5 active torsions:
REMARK  status: ('A' for Active; 'I' for Inactive)
REMARK    1  A    between atoms: O_2  and  C_3 
REMARK    2  A    between atoms: C_8  and  N_9 
REMARK    3  A    between atoms: N_12  and  C_13 
REMARK    4  A    between atoms: C_17  and  N_18 
REMARK       I    between atoms: N_18  and  C_19 
REMARK    5  A    between atoms: C_19  and  C_21 
ROOT
ATOM      1  C   UNL d   1       6.378   1.394 -14.669  0.00  0.00     0.220 C 
ATOM      2  C   UNL d   1       7.401   2.523 -14.726  0.00  0.00     0.033 C 
ATOM      3  C   UNL d   1       6.650   3.684 -14.078  0.00  0.00     0.004 C 
ATOM      4  C   UNL d   1       7.555   4.586 -13.268  0.00  0.00     0.025 C 
ATOM      5  C   UNL d   1       6.772   4.907 -12.003  0.00  0.00     0.107 C 
ATOM      6  C   UNL d   1       5.955   3.635 -11.759  0.00  0.00     0.025 C 
ATOM      7  C   UNL d   1       5.606   3.110 -13.143  0.00  0.00     0.004 C 
ATOM      8  C   UNL d   1       5.630   1.582 -13.347  0.00  0.00     0.033 C 
ENDROOT
BRANCH   1   9
ATOM      9  N   UNL d   1       6.928   0.061 -14.902  0.00  0.00     0.139 N 
ATOM     10  C   UNL d   1       7.598   0.053 -16.221  0.00  0.00     0.274 C 
ATOM     11  C   UNL d   1       6.618   0.246 -17.388  0.00  0.00     0.137 C 
ATOM     12  N   UNL d   1       5.481  -0.676 -17.263  0.00  0.00    -0.343 N 
ATOM     13  C   UNL d   1       4.809  -0.754 -15.960  0.00  0.00     0.137 C 
ATOM     14  C   UNL d   1       5.850  -0.950 -14.845  0.00  0.00     0.274 C 
BRANCH  12  15
ATOM     15  C   UNL d   1       5.056  -1.481 -18.340  0.00  0.00     0.079 A 
ATOM     16  C   UNL d   1       5.087  -0.993 -19.672  0.00  0.00     0.110 A 
ATOM     17  C   UNL d   1       4.676  -1.849 -20.726  0.00  0.00     0.026 A 
ATOM     18  C   UNL d   1       4.189  -3.144 -20.461  0.00  0.00     0.002 A 
ATOM     19  C   UNL d   1       4.131  -3.612 -19.141  0.00  0.00     0.002 A 
ATOM     20  C   UNL d   1       4.581  -2.790 -18.091  0.00  0.00     0.019 A 
BRANCH  16  21
ATOM     21  O   UNL d   1       5.485   0.315 -19.884  0.00  0.00    -0.327 OA
ATOM     22  C   UNL d   1       5.555   0.818 -21.203  0.00  0.00     0.181 C 
ENDBRANCH  16  21
ENDBRANCH  12  15
ENDBRANCH   1   9
BRANCH   5  23
ATOM     23  N   UNL d   1       7.633   5.219 -10.867  0.00  0.00    -0.236 NA
ATOM     24  C   UNL d   1       8.818   5.846 -10.845  0.00  0.00     0.275 C 
ATOM     25  O   UNL d   1       9.488   6.095 -11.861  0.00  0.00    -0.266 OA
BRANCH  24  26
ATOM     26  C   UNL d   1       9.275   6.348  -9.507  0.00  0.00     0.058 A 
ATOM     27  C   UNL d   1      10.280   7.328  -9.459  0.00  0.00     0.005 A 
ATOM     28  C   UNL d   1      10.747   7.828  -8.235  0.00  0.00     0.000 A 
ATOM     29  C   UNL d   1      10.178   7.351  -7.026  0.00  0.00     0.000 A 
ATOM     30  C   UNL d   1      11.784   8.775  -8.203  0.00  0.00     0.000 A 
ATOM     31  C   UNL d   1       9.152   6.399  -7.061  0.00  0.00     0.000 A 
ATOM     32  C   UNL d   1      10.656   7.829  -5.792  0.00  0.00     0.000 A 
ATOM     33  C   UNL d   1       8.701   5.877  -8.290  0.00  0.00     0.005 A 
ATOM     34  C   UNL d   1      11.683   8.783  -5.758  0.00  0.00     0.000 A 
ATOM     35  C   UNL d   1      12.255   9.233  -6.957  0.00  0.00     0.000 A 
ENDBRANCH  24  26
ENDBRANCH   5  23
TORSDOF 5
