REMARK  5 active torsions:
REMARK  status: ('A' for Active; 'I' for Inactive)
REMARK    1  A    between atoms: O_2  and  C_3 
REMARK    2  A    between atoms: C_5  and  N_6 
REMARK       I    between atoms: N_6  and  C_7 
REMARK    3  A    between atoms: C_7  and  C_9 
REMARK    4  A    between atoms: C_12  and  C_13 
REMARK    5  A    between atoms: C_22  and  O_23 
ROOT
ATOM      1  N   UNL d   1       9.224   5.957 -11.595  0.00  0.00    -0.206 NA
ATOM      2  C   UNL d   1       9.238   5.810 -10.256  0.00  0.00     0.302 C 
ATOM      3  O   UNL d   1       8.833   4.806  -9.670  0.00  0.00    -0.263 OA
ENDROOT
BRANCH   2   4
ATOM      4  C   UNL d   1       9.858   6.933  -9.519  0.00  0.00     0.158 A 
ATOM      5  O   UNL d   1      10.141   6.793  -8.188  0.00  0.00    -0.302 OA
ATOM      6  C   UNL d   1      10.693   7.969  -7.761  0.00  0.00     0.100 A 
ATOM      7  C   UNL d   1      10.775   8.848  -8.802  0.00  0.00     0.027 A 
ATOM      8  C   UNL d   1      10.241   8.182  -9.936  0.00  0.00     0.032 A 
BRANCH   6   9
ATOM      9  C   UNL d   1      11.077   8.076  -6.356  0.00  0.00     0.023 A 
ATOM     10  C   UNL d   1      11.165   9.337  -5.721  0.00  0.00     0.003 A 
ATOM     11  C   UNL d   1      11.544   9.427  -4.368  0.00  0.00     0.011 A 
ATOM     12  C   UNL d   1      11.858   8.263  -3.643  0.00  0.00     0.058 A 
ATOM     13  C   UNL d   1      11.771   7.004  -4.262  0.00  0.00     0.011 A 
ATOM     14 CL   UNL d   1      12.353   8.387  -2.002  0.00  0.00    -0.082 Cl
ATOM     15  C   UNL d   1      11.376   6.913  -5.611  0.00  0.00     0.003 A 
ENDBRANCH   6   9
ENDBRANCH   2   4
BRANCH   1  16
ATOM     16  C   UNL d   1       8.859   4.971 -12.543  0.00  0.00     0.089 A 
ATOM     17  C   UNL d   1       7.568   4.399 -12.559  0.00  0.00     0.043 A 
ATOM     18  C   UNL d   1       7.223   3.464 -13.571  0.00  0.00     0.098 A 
ATOM     19  C   UNL d   1       8.190   3.109 -14.531  0.00  0.00     0.049 A 
ATOM     20  C   UNL d   1       9.476   3.682 -14.535  0.00  0.00     0.098 A 
ATOM     21  C   UNL d   1       9.800   4.623 -13.534  0.00  0.00     0.043 A 
BRANCH  18  22
ATOM     22  O   UNL d   1       5.998   2.845 -13.675  0.00  0.00    -0.328 OA
ATOM     23  C   UNL d   1       5.069   3.023 -12.622  0.00  0.00     0.181 C 
ENDBRANCH  18  22
BRANCH  20  24
ATOM     24  O   UNL d   1      10.336   3.289 -15.536  0.00  0.00    -0.328 OA
ATOM     25  C   UNL d   1      11.664   3.796 -15.524  0.00  0.00     0.181 C 
ENDBRANCH  20  24
ENDBRANCH   1  16
TORSDOF 5
