REMARK  7 active torsions:
REMARK  status: ('A' for Active; 'I' for Inactive)
REMARK    1  A    between atoms: O_2  and  C_3 
REMARK    2  A    between atoms: C_6  and  O_7 
REMARK    3  A    between atoms: O_7  and  C_8 
REMARK    4  A    between atoms: C_8  and  C_9 
REMARK    5  A    between atoms: C_9  and  N_10 
REMARK       I    between atoms: N_13  and  C_14 
REMARK    6  A    between atoms: C_14  and  C_16 
REMARK    7  A    between atoms: C_19  and  O_20 
ROOT
ATOM      1  N   UNL d   1       9.208   6.771 -10.074  0.00  0.00     0.142 N 
ATOM      2  C   UNL d   1       9.271   7.405 -11.380  0.00  0.00     0.274 C 
ATOM      3  C   UNL d   1       8.162   6.909 -12.302  0.00  0.00     0.140 C 
ATOM      4  N   UNL d   1       8.159   5.451 -12.384  0.00  0.00    -0.313 N 
ATOM      5  C   UNL d   1       8.211   4.771 -13.544  0.00  0.00     0.257 C 
ATOM      6  O   UNL d   1       8.843   5.107 -14.532  0.00  0.00    -0.267 OA
ATOM      7  C   UNL d   1       8.154   4.800 -11.077  0.00  0.00     0.138 C 
ATOM      8  C   UNL d   1       9.294   5.307 -10.166  0.00  0.00     0.241 C 
ATOM      9  C   UNL d   1       9.185   4.590  -8.788  0.00  0.00     0.037 C 
ENDROOT
BRANCH   1  10
ATOM     10  C   UNL d   1      10.282   7.312  -9.247  0.00  0.00     0.283 C 
BRANCH  10  11
ATOM     11  C   UNL d   1       9.993   8.726  -8.685  0.00  0.00     0.184 C 
BRANCH  11  12
ATOM     12  O   UNL d   1      11.124   9.161  -7.940  0.00  0.00    -0.329 OA
BRANCH  12  13
ATOM     13  C   UNL d   1      11.334   8.691  -6.662  0.00  0.00     0.094 A 
ATOM     14  C   UNL d   1      11.950   9.613  -5.787  0.00  0.00     0.026 A 
ATOM     15  C   UNL d   1      12.208   9.245  -4.461  0.00  0.00     0.026 A 
ATOM     16  C   UNL d   1      11.896   7.955  -3.955  0.00  0.00     0.094 A 
ATOM     17  C   UNL d   1      11.307   7.028  -4.843  0.00  0.00     0.026 A 
ATOM     18  C   UNL d   1      11.008   7.382  -6.177  0.00  0.00     0.026 A 
BRANCH  16  19
ATOM     19  O   UNL d   1      12.124   7.568  -2.663  0.00  0.00    -0.328 OA
ATOM     20  C   UNL d   1      12.587   8.588  -1.807  0.00  0.00     0.181 C 
ENDBRANCH  16  19
ENDBRANCH  12  13
ENDBRANCH  11  12
ENDBRANCH  10  11
ENDBRANCH   1  10
BRANCH   5  21
ATOM     21  C   UNL d   1       7.450   3.487 -13.648  0.00  0.00     0.056 A 
ATOM     22  C   UNL d   1       6.159   3.338 -13.104  0.00  0.00     0.007 A 
ATOM     23  C   UNL d   1       5.455   2.120 -13.261  0.00  0.00     0.024 A 
ATOM     24  C   UNL d   1       6.059   1.047 -13.971  0.00  0.00     0.094 A 
ATOM     25  C   UNL d   1       7.334   1.238 -14.542  0.00  0.00     0.024 A 
ATOM     26  C   UNL d   1       8.021   2.443 -14.402  0.00  0.00     0.007 A 
BRANCH  24  27
ATOM     27  O   UNL d   1       5.365  -0.145 -14.083  0.00  0.00    -0.328 OA
ATOM     28  C   UNL d   1       6.075  -1.236 -14.657  0.00  0.00     0.181 C 
ENDBRANCH  24  27
ENDBRANCH   5  21
TORSDOF 7
