REMARK  4 active torsions:
REMARK  status: ('A' for Active; 'I' for Inactive)
REMARK    1  A    between atoms: O_2  and  C_3 
REMARK    2  A    between atoms: C_9  and  C_10 
REMARK    3  A    between atoms: C_10  and  N_11 
REMARK    4  A    between atoms: C_14  and  C_16 
ROOT
ATOM      1  N   UNL d   1       9.864   6.456  -8.570  0.00  0.00     0.142 N 
ATOM      2  C   UNL d   1       9.515   5.053  -8.587  0.00  0.00     0.254 C 
ATOM      3  C   UNL d   1       8.365   4.777  -9.528  0.00  0.00     0.070 C 
ATOM      4  C   UNL d   1       8.816   5.058 -10.987  0.00  0.00     0.149 C 
ATOM      5  O   UNL d   1       9.867   4.202 -11.357  0.00  0.00    -0.221 OA
ATOM      6  C   UNL d   1       9.406   6.495 -11.014  0.00  0.00     0.070 C 
ATOM      7  C   UNL d   1      10.404   6.795  -9.881  0.00  0.00     0.254 C 
ENDROOT
BRANCH   1   8
ATOM      8  C   UNL d   1      10.867   6.673  -7.527  0.00  0.00     0.278 C 
BRANCH   8   9
ATOM      9  C   UNL d   1      10.928   7.954  -6.812  0.00  0.00     0.032 A 
ATOM     10  C   UNL d   1      10.662   9.186  -7.346  0.00  0.00     0.097 A 
ATOM     11  N   UNL d   1      10.864  10.121  -6.365  0.00  0.00    -0.244 NA
ATOM     12  C   UNL d   1      11.209   9.504  -5.184  0.00  0.00     0.081 A 
ATOM     13  C   UNL d   1      11.454  10.005  -3.907  0.00  0.00     0.021 A 
ATOM     14  C   UNL d   1      11.299   8.128  -5.455  0.00  0.00     0.019 A 
ATOM     15  C   UNL d   1      11.864   9.191  -2.856  0.00  0.00     0.026 A 
ATOM     16  C   UNL d   1      11.976   7.838  -3.094  0.00  0.00     0.094 A 
ATOM     17  C   UNL d   1      11.702   7.303  -4.374  0.00  0.00     0.025 A 
BRANCH  16  18
ATOM     18  O   UNL d   1      12.330   7.143  -1.988  0.00  0.00    -0.328 OA
ATOM     19  C   UNL d   1      12.974   5.943  -2.237  0.00  0.00     0.181 C 
ENDBRANCH  16  18
ENDBRANCH   8   9
ENDBRANCH   1   8
BRANCH   4  20
ATOM     20  C   UNL d   1       7.659   4.887 -11.948  0.00  0.00     0.005 C 
ATOM     21  C   UNL d   1       6.594   5.789 -11.922  0.00  0.00    -0.002 C 
ATOM     22  C   UNL d   1       5.568   5.622 -12.807  0.00  0.00    -0.000 C 
ATOM     23  C   UNL d   1       5.424   4.472 -13.609  0.00  0.00    -0.000 C 
ATOM     24  C   UNL d   1       6.495   3.574 -13.675  0.00  0.00    -0.000 C 
ATOM     25  C   UNL d   1       7.627   3.826 -12.888  0.00  0.00    -0.002 C 
ENDBRANCH   4  20
TORSDOF 4
