REMARK  9 active torsions:
REMARK  status: ('A' for Active; 'I' for Inactive)
REMARK    1  A    between atoms: S_2  and  O_5 
REMARK    2  A    between atoms: O_5  and  C_6 
REMARK    3  A    between atoms: N_19  and  C_20 
REMARK    4  A    between atoms: C_20  and  C_21 
REMARK    5  A    between atoms: C_21  and  C_22 
REMARK    6  A    between atoms: C_22  and  C_23 
REMARK    7  A    between atoms: C_23  and  N_24 
REMARK       I    between atoms: N_24  and  C_25 
REMARK    8  A    between atoms: C_25  and  C_27 
REMARK    9  A    between atoms: C_30  and  C_31 
ROOT
ATOM      1  C   UNL d   1       5.921  -4.377 -19.174  0.00  0.00     0.109 A 
ATOM      2  C   UNL d   1       6.710  -4.919 -20.207  0.00  0.00     0.025 A 
ATOM      3  C   UNL d   1       7.585  -4.097 -20.933  0.00  0.00     0.002 A 
ATOM      4  C   UNL d   1       7.680  -2.727 -20.633  0.00  0.00    -0.004 A 
ATOM      5  C   UNL d   1       6.890  -2.165 -19.601  0.00  0.00    -0.023 A 
ATOM      6  C   UNL d   1       6.006  -2.995 -18.877  0.00  0.00    -0.002 A 
ATOM      7  C   UNL d   1       5.124  -2.360 -17.814  0.00  0.00     0.030 C 
ATOM      8  C   UNL d   1       5.822  -1.255 -16.993  0.00  0.00     0.038 C 
ATOM      9  C   UNL d   1       7.030  -0.542 -17.672  0.00  0.00     0.224 C 
ATOM     10  C   UNL d   1       6.956  -0.685 -19.219  0.00  0.00     0.053 C 
ATOM     11  C   UNL d   1       8.090   0.088 -19.916  0.00  0.00     0.008 C 
ATOM     12  C   UNL d   1       8.101   1.524 -19.417  0.00  0.00     0.036 C 
ATOM     13  C   UNL d   1       8.258   1.542 -17.897  0.00  0.00     0.250 C 
ATOM     14  N   UNL d   1       7.132   0.871 -17.235  0.00  0.00     0.135 N 
ENDROOT
BRANCH  14  15
ATOM     15  C   UNL d   1       7.332   0.950 -15.781  0.00  0.00     0.250 C 
BRANCH  15  16
ATOM     16  C   UNL d   1       7.177   2.385 -15.256  0.00  0.00     0.037 C 
BRANCH  16  17
ATOM     17  C   UNL d   1       7.145   2.495 -13.742  0.00  0.00     0.029 C 
BRANCH  17  18
ATOM     18  C   UNL d   1       6.436   3.765 -13.223  0.00  0.00     0.129 C 
BRANCH  18  19
ATOM     19  N   UNL d   1       7.158   4.392 -12.121  0.00  0.00    -0.234 NA
ATOM     20  C   UNL d   1       8.308   5.065 -12.264  0.00  0.00     0.275 C 
ATOM     21  O   UNL d   1       8.883   5.205 -13.346  0.00  0.00    -0.266 OA
BRANCH  20  22
ATOM     22  C   UNL d   1       8.842   5.705 -11.019  0.00  0.00     0.058 A 
ATOM     23  C   UNL d   1       9.565   6.909 -11.105  0.00  0.00     0.005 A 
ATOM     24  C   UNL d   1      10.096   7.511  -9.949  0.00  0.00     0.000 A 
ATOM     25  C   UNL d   1       9.909   6.930  -8.673  0.00  0.00     0.000 A 
ATOM     26  C   UNL d   1       9.182   5.720  -8.597  0.00  0.00     0.000 A 
ATOM     27  C   UNL d   1       8.658   5.112  -9.751  0.00  0.00     0.005 A 
BRANCH  25  28
ATOM     28  C   UNL d   1      10.451   7.570  -7.457  0.00  0.00     0.000 A 
ATOM     29  C   UNL d   1      10.493   8.975  -7.333  0.00  0.00     0.000 A 
ATOM     30  C   UNL d   1      11.014   9.590  -6.177  0.00  0.00     0.000 A 
ATOM     31  C   UNL d   1      11.489   8.804  -5.111  0.00  0.00     0.000 A 
ATOM     32  C   UNL d   1      11.451   7.401  -5.215  0.00  0.00     0.000 A 
ATOM     33  C   UNL d   1      10.944   6.797  -6.382  0.00  0.00     0.000 A 
ENDBRANCH  25  28
ENDBRANCH  20  22
ENDBRANCH  18  19
ENDBRANCH  17  18
ENDBRANCH  16  17
ENDBRANCH  15  16
ENDBRANCH  14  15
BRANCH   1  34
ATOM     34  O   UNL d   1       5.066  -5.191 -18.482  0.00  0.00    -0.231 OA
BRANCH  34  35
ATOM     35  S   UNL d   1       5.767  -6.372 -17.502  0.00  0.00     0.285 S 
ATOM     36  C   UNL d   1       4.289  -6.900 -16.587  0.00  0.00     0.172 C 
ATOM     37  O   UNL d   1       6.688  -5.710 -16.571  0.00  0.00    -0.197 OA
ATOM     38  O   UNL d   1       6.226  -7.472 -18.368  0.00  0.00    -0.197 OA
ENDBRANCH  34  35
ENDBRANCH   1  34
TORSDOF 9
