REMARK  4 active torsions:
REMARK  status: ('A' for Active; 'I' for Inactive)
REMARK    1  A    between atoms: C_4  and  N_5 
REMARK    2  A    between atoms: N_8  and  C_9 
REMARK    3  A    between atoms: C_9  and  C_10 
REMARK    4  A    between atoms: C_13  and  N_14 
ROOT
ATOM      1  N   UNL d   1      10.566   6.931  -8.741  0.00  0.00    -0.344 N 
ATOM      2  C   UNL d   1       9.874   5.648  -8.896  0.00  0.00     0.137 C 
ATOM      3  C   UNL d   1       8.726   5.774  -9.913  0.00  0.00     0.275 C 
ATOM      4  N   UNL d   1       9.199   6.361 -11.181  0.00  0.00     0.145 N 
ATOM      5  C   UNL d   1       9.779   7.693 -10.925  0.00  0.00     0.275 C 
ATOM      6  C   UNL d   1      10.979   7.579  -9.972  0.00  0.00     0.137 C 
ENDROOT
BRANCH   4   7
ATOM      7  C   UNL d   1       8.086   6.504 -12.114  0.00  0.00     0.277 C 
BRANCH   7   8
ATOM      8  C   UNL d   1       7.571   5.190 -12.662  0.00  0.00     0.011 A 
ATOM      9  C   UNL d   1       6.316   4.683 -12.266  0.00  0.00    -0.001 A 
ATOM     10  C   UNL d   1       5.856   3.449 -12.771  0.00  0.00     0.019 A 
ATOM     11  C   UNL d   1       6.658   2.716 -13.681  0.00  0.00     0.083 A 
ATOM     12  C   UNL d   1       7.916   3.228 -14.062  0.00  0.00     0.019 A 
ATOM     13  C   UNL d   1       8.368   4.461 -13.563  0.00  0.00    -0.001 A 
BRANCH  11  14
ATOM     14  N   UNL d   1       6.238   1.443 -14.159  0.00  0.00    -0.228 N 
ATOM     15  N   UNL d   1       5.215   0.772 -13.573  0.00  0.00    -0.164 NA
ATOM     16  C   UNL d   1       5.059  -0.323 -14.299  0.00  0.00     0.122 A 
ATOM     17  C   UNL d   1       6.002  -0.413 -15.352  0.00  0.00     0.043 A 
ATOM     18  C   UNL d   1       6.742   0.724 -15.230  0.00  0.00     0.102 A 
ENDBRANCH  11  14
ENDBRANCH   7   8
ENDBRANCH   4   7
BRANCH   1  19
ATOM     19  C   UNL d   1      10.802   7.525  -7.485  0.00  0.00     0.056 A 
ATOM     20  C   UNL d   1      11.068   6.718  -6.363  0.00  0.00     0.017 A 
ATOM     21  C   UNL d   1      11.302   7.278  -5.094  0.00  0.00     0.002 A 
ATOM     22  C   UNL d   1      11.296   8.676  -4.933  0.00  0.00     0.000 A 
ATOM     23  C   UNL d   1      11.040   9.498  -6.046  0.00  0.00     0.002 A 
ATOM     24  C   UNL d   1      10.787   8.927  -7.310  0.00  0.00     0.017 A 
ENDBRANCH   1  19
TORSDOF 4
