REMARK  7 active torsions:
REMARK  status: ('A' for Active; 'I' for Inactive)
REMARK    1  A    between atoms: C_7  and  C_8 
REMARK    2  A    between atoms: C_11  and  S_12 
REMARK    3  A    between atoms: S_12  and  C_13 
REMARK    4  A    between atoms: C_13  and  C_14 
REMARK    5  A    between atoms: C_14  and  C_15 
REMARK    6  A    between atoms: C_15  and  N_16 
REMARK    7  A    between atoms: C_24  and  C_25 
ROOT
ATOM      1  N   UNL d   1      11.729   2.247 -20.489  0.00  0.00     0.138 N 
ATOM      2  C   UNL d   1      10.878   3.010 -19.559  0.00  0.00     0.255 C 
ATOM      3  C   UNL d   1      10.850   4.518 -19.847  0.00  0.00     0.061 C 
ATOM      4  C   UNL d   1      12.018   5.264 -19.239  0.00  0.00    -0.022 A 
ATOM      5  C   UNL d   1      11.765   6.266 -18.272  0.00  0.00    -0.002 A 
ATOM      6  C   UNL d   1      12.829   6.971 -17.681  0.00  0.00     0.026 A 
ATOM      7  C   UNL d   1      14.135   6.646 -18.077  0.00  0.00     0.119 A 
ATOM      8  O   UNL d   1      15.327   7.193 -17.647  0.00  0.00    -0.285 OA
ATOM      9  C   UNL d   1      16.269   6.510 -18.369  0.00  0.00     0.256 A 
ATOM     10  N   UNL d   1      15.798   5.568 -19.199  0.00  0.00    -0.217 NA
ATOM     11  C   UNL d   1      14.427   5.651 -19.034  0.00  0.00     0.102 A 
ATOM     12  C   UNL d   1      13.346   4.951 -19.624  0.00  0.00    -0.004 A 
ATOM     13  C   UNL d   1      13.625   3.878 -20.664  0.00  0.00     0.063 C 
ATOM     14  C   UNL d   1      13.153   2.476 -20.247  0.00  0.00     0.255 C 
ENDROOT
BRANCH   1  15
ATOM     15  C   UNL d   1      11.490   0.803 -20.386  0.00  0.00     0.251 C 
BRANCH  15  16
ATOM     16  C   UNL d   1      10.131   0.407 -20.983  0.00  0.00     0.047 C 
BRANCH  16  17
ATOM     17  C   UNL d   1       9.809  -1.086 -20.850  0.00  0.00     0.067 C 
BRANCH  17  18
ATOM     18  S   UNL d   1       8.066  -1.469 -21.225  0.00  0.00    -0.075 SA
BRANCH  18  19
ATOM     19  C   UNL d   1       7.276  -0.635 -19.881  0.00  0.00     0.193 A 
ATOM     20  N   UNL d   1       7.205   0.694 -19.782  0.00  0.00    -0.122 NA
ATOM     21  N   UNL d   1       6.571   0.939 -18.577  0.00  0.00    -0.128 NA
ATOM     22  C   UNL d   1       6.290  -0.267 -18.070  0.00  0.00     0.168 A 
ATOM     23  N   UNL d   1       6.691  -1.286 -18.857  0.00  0.00    -0.289 N 
ATOM     24  C   UNL d   1       6.515  -2.719 -18.653  0.00  0.00     0.134 C 
BRANCH  22  25
ATOM     25  C   UNL d   1       5.570  -0.423 -16.819  0.00  0.00     0.050 A 
ATOM     26  C   UNL d   1       6.043   0.101 -15.587  0.00  0.00     0.062 A 
ATOM     27  C   UNL d   1       7.366   0.841 -15.497  0.00  0.00     0.052 C 
ATOM     28  N   UNL d   1       5.349  -0.014 -14.431  0.00  0.00    -0.248 NA
ATOM     29  C   UNL d   1       4.167  -0.658 -14.461  0.00  0.00     0.099 A 
ATOM     30  C   UNL d   1       3.617  -1.223 -15.631  0.00  0.00     0.021 A 
ATOM     31  C   UNL d   1       4.337  -1.103 -16.830  0.00  0.00     0.006 A 
ENDBRANCH  22  25
ENDBRANCH  18  19
ENDBRANCH  17  18
ENDBRANCH  16  17
ENDBRANCH  15  16
ENDBRANCH   1  15
BRANCH   9  32
ATOM     32  C   UNL d   1      17.710   6.845 -18.136  0.00  0.00     0.458 C 
ATOM     33  F   UNL d   1      18.485   6.291 -19.069  0.00  0.00    -0.163 F 
ATOM     34  F   UNL d   1      17.899   8.164 -18.164  0.00  0.00    -0.163 F 
ATOM     35  F   UNL d   1      18.097   6.391 -16.944  0.00  0.00    -0.163 F 
ENDBRANCH   9  32
TORSDOF 7
