REMARK  8 active torsions:
REMARK  status: ('A' for Active; 'I' for Inactive)
REMARK       I    between atoms: N_2  and  C_3 
REMARK    1  A    between atoms: C_3  and  C_5 
REMARK    2  A    between atoms: C_9  and  O_10 
REMARK    3  A    between atoms: O_10  and  C_11 
REMARK    4  A    between atoms: C_11  and  C_12 
REMARK    5  A    between atoms: C_12  and  C_13 
REMARK    6  A    between atoms: C_13  and  C_14 
REMARK    7  A    between atoms: C_14  and  N_15 
REMARK    8  A    between atoms: N_18  and  C_19 
ROOT
ATOM      1  C   UNL d   1       9.073   6.541 -10.815  0.00  0.00     0.038 C 
ENDROOT
BRANCH   1   2
ATOM      2  C   UNL d   1       9.042   5.456 -11.892  0.00  0.00     0.035 C 
BRANCH   2   3
ATOM      3  C   UNL d   1       7.998   5.755 -12.983  0.00  0.00     0.149 C 
BRANCH   3   4
ATOM      4  O   UNL d   1       7.960   4.668 -13.909  0.00  0.00    -0.329 OA
BRANCH   4   5
ATOM      5  C   UNL d   1       7.139   3.590 -13.669  0.00  0.00     0.121 A 
ATOM      6  C   UNL d   1       6.214   3.530 -12.599  0.00  0.00     0.026 A 
ATOM      7  C   UNL d   1       5.386   2.408 -12.449  0.00  0.00     0.002 A 
ATOM      8  C   UNL d   1       5.463   1.325 -13.340  0.00  0.00     0.007 A 
ATOM      9  C   UNL d   1       6.365   1.368 -14.433  0.00  0.00     0.087 A 
ATOM     10  C   UNL d   1       7.213   2.496 -14.569  0.00  0.00     0.167 A 
ATOM     11  F   UNL d   1       8.107   2.558 -15.592  0.00  0.00    -0.202 F 
BRANCH   9  12
ATOM     12  C   UNL d   1       6.429   0.227 -15.415  0.00  0.00     0.277 C 
ATOM     13  N   UNL d   1       5.283  -0.452 -15.572  0.00  0.00    -0.232 NA
ATOM     14  C   UNL d   1       5.104  -1.569 -16.484  0.00  0.00     0.155 C 
ATOM     15  O   UNL d   1       7.443  -0.009 -16.072  0.00  0.00    -0.266 OA
ENDBRANCH   9  12
ENDBRANCH   4   5
ENDBRANCH   3   4
ENDBRANCH   2   3
ENDBRANCH   1   2
BRANCH   1  16
ATOM     16  C   UNL d   1      10.354   6.527  -9.968  0.00  0.00     0.251 C 
BRANCH  16  17
ATOM     17  N   UNL d   1      10.425   7.638  -9.024  0.00  0.00     0.141 N 
ATOM     18  C   UNL d   1       9.531   7.383  -7.889  0.00  0.00     0.274 C 
ATOM     19  C   UNL d   1       9.571   8.560  -6.898  0.00  0.00     0.137 C 
ATOM     20  N   UNL d   1      10.934   8.846  -6.485  0.00  0.00    -0.344 N 
ATOM     21  C   UNL d   1      11.918   8.950  -7.543  0.00  0.00     0.137 C 
ATOM     22  C   UNL d   1      11.796   7.763  -8.515  0.00  0.00     0.274 C 
BRANCH  20  23
ATOM     23  C   UNL d   1      11.309   8.815  -5.138  0.00  0.00     0.068 A 
ATOM     24  C   UNL d   1      11.771   7.658  -4.488  0.00  0.00     0.084 A 
ATOM     25  C   UNL d   1      12.152   7.680  -3.134  0.00  0.00     0.070 A 
ATOM     26 CL   UNL d   1      11.854   6.258  -5.424  0.00  0.00    -0.080 Cl
ATOM     27  C   UNL d   1      12.126   8.858  -2.411  0.00  0.00     0.012 A 
ATOM     28 CL   UNL d   1      12.660   6.303  -2.289  0.00  0.00    -0.081 Cl
ATOM     29  C   UNL d   1      11.695  10.001  -3.069  0.00  0.00     0.002 A 
ATOM     30  C   UNL d   1      11.255   9.998  -4.407  0.00  0.00     0.018 A 
ENDBRANCH  20  23
ENDBRANCH  16  17
ENDBRANCH   1  16
TORSDOF 8
