REMARK  2 active torsions:
REMARK  status: ('A' for Active; 'I' for Inactive)
REMARK    1  A    between atoms: C_2  and  C_3 
REMARK    2  A    between atoms: C_8  and  O_9 
ROOT
ATOM      1  C   UNL d   1       4.785  -1.219 -16.685  0.00  0.00     0.000 A 
ATOM      2  C   UNL d   1       3.892  -1.051 -15.603  0.00  0.00    -0.003 A 
ATOM      3  C   UNL d   1       4.222  -0.195 -14.543  0.00  0.00    -0.004 A 
ATOM      4  C   UNL d   1       5.471   0.465 -14.532  0.00  0.00    -0.018 A 
ATOM      5  C   UNL d   1       6.418   0.257 -15.562  0.00  0.00     0.018 A 
ATOM      6  C   UNL d   1       6.029  -0.545 -16.681  0.00  0.00     0.090 A 
ATOM      7  C   UNL d   1       7.745   0.912 -15.410  0.00  0.00    -0.001 A 
ATOM      8  C   UNL d   1       8.937   0.391 -15.988  0.00  0.00    -0.000 A 
ATOM      9  C   UNL d   1      10.190   1.012 -15.854  0.00  0.00    -0.000 A 
ATOM     10  C   UNL d   1      10.319   2.190 -15.098  0.00  0.00    -0.004 A 
ATOM     11  C   UNL d   1       9.184   2.736 -14.469  0.00  0.00    -0.022 A 
ATOM     12  C   UNL d   1       7.932   2.082 -14.629  0.00  0.00     0.005 A 
ATOM     13  C   UNL d   1       6.663   2.643 -13.949  0.00  0.00     0.246 C 
ATOM     14  C   UNL d   1       5.769   1.473 -13.443  0.00  0.00     0.064 C 
ATOM     15  N   UNL d   1       6.920   3.605 -12.865  0.00  0.00     0.142 N 
ATOM     16  C   UNL d   1       5.718   4.277 -12.383  0.00  0.00     0.286 C 
ATOM     17  C   UNL d   1       7.844   4.618 -13.346  0.00  0.00     0.255 C 
ATOM     18  C   UNL d   1       9.203   3.953 -13.558  0.00  0.00     0.061 C 
ENDROOT
BRANCH   1  19
ATOM     19  C   UNL d   1       4.387  -2.139 -17.836  0.00  0.00     0.028 C 
ATOM     20  C   UNL d   1       3.898  -1.417 -19.103  0.00  0.00     0.005 C 
ENDBRANCH   1  19
BRANCH   6  21
ATOM     21  O   UNL d   1       6.837  -0.690 -17.786  0.00  0.00    -0.328 OA
ATOM     22  C   UNL d   1       6.983   0.469 -18.595  0.00  0.00     0.181 C 
ENDBRANCH   6  21
TORSDOF 2
