REMARK  9 active torsions:
REMARK  status: ('A' for Active; 'I' for Inactive)
REMARK    1  A    between atoms: C_6  and  C_7 
REMARK    2  A    between atoms: C_10  and  S_11 
REMARK    3  A    between atoms: S_11  and  C_12 
REMARK    4  A    between atoms: C_12  and  C_13 
REMARK    5  A    between atoms: C_13  and  C_14 
REMARK    6  A    between atoms: C_14  and  N_15 
REMARK    7  A    between atoms: N_15  and  C_16 
REMARK    8  A    between atoms: C_20  and  C_21 
REMARK    9  A    between atoms: C_24  and  C_25 
ROOT
ATOM      1  C   UNL d   1       9.327   7.139 -10.279  0.00  0.00     0.257 C 
ATOM      2  C   UNL d   1       9.743   8.623 -10.445  0.00  0.00     0.036 C 
ATOM      3  C   UNL d   1      10.903   8.832  -9.518  0.00  0.00     0.006 A 
ATOM      4  C   UNL d   1      12.121   7.931  -9.474  0.00  0.00     0.004 A 
ATOM      5  C   UNL d   1      10.939   7.679  -8.544  0.00  0.00     0.023 A 
ATOM      6  C   UNL d   1       9.845   6.683  -8.911  0.00  0.00     0.040 C 
ENDROOT
BRANCH   1   7
ATOM      7  N   UNL d   1       9.856   6.359 -11.351  0.00  0.00     0.337 N 
BRANCH   7   8
ATOM      8  C   UNL d   1       9.179   5.086 -11.568  0.00  0.00     0.291 C 
BRANCH   8   9
ATOM      9  C   UNL d   1       9.814   4.565 -12.840  0.00  0.00     0.050 C 
BRANCH   9  10
ATOM     10  C   UNL d   1       9.102   3.329 -13.393  0.00  0.00     0.067 C 
BRANCH  10  11
ATOM     11  S   UNL d   1       9.341   2.949 -15.164  0.00  0.00    -0.075 SA
BRANCH  11  12
ATOM     12  C   UNL d   1      10.778   3.860 -15.485  0.00  0.00     0.193 A 
ATOM     13  N   UNL d   1      11.905   3.785 -14.751  0.00  0.00    -0.122 NA
ATOM     14  N   UNL d   1      12.719   4.731 -15.254  0.00  0.00    -0.126 NA
ATOM     15  C   UNL d   1      12.085   5.305 -16.289  0.00  0.00     0.191 A 
ATOM     16  N   UNL d   1      10.859   4.764 -16.487  0.00  0.00    -0.287 N 
ATOM     17  C   UNL d   1       9.868   5.092 -17.533  0.00  0.00     0.134 C 
BRANCH  15  18
ATOM     18  C   UNL d   1      12.700   6.365 -17.105  0.00  0.00     0.151 A 
ATOM     19  C   UNL d   1      13.011   6.459 -18.434  0.00  0.00     0.087 A 
ATOM     20  C   UNL d   1      12.754   5.514 -19.583  0.00  0.00     0.054 C 
ATOM     21  N   UNL d   1      13.726   7.644 -18.642  0.00  0.00    -0.221 NA
ATOM     22  C   UNL d   1      13.807   8.204 -17.440  0.00  0.00     0.225 A 
ATOM     23  O   UNL d   1      13.218   7.461 -16.454  0.00  0.00    -0.282 OA
ENDBRANCH  15  18
ENDBRANCH  11  12
ENDBRANCH  10  11
ENDBRANCH   9  10
ENDBRANCH   8   9
ENDBRANCH   7   8
ENDBRANCH   1   7
BRANCH   5  24
ATOM     24  C   UNL d   1      11.070   7.870  -7.073  0.00  0.00     0.005 A 
ATOM     25  C   UNL d   1      11.505   6.809  -6.262  0.00  0.00     0.136 A 
ATOM     26  C   UNL d   1      11.744   6.996  -4.869  0.00  0.00     0.033 A 
ATOM     27  F   UNL d   1      11.844   5.645  -6.834  0.00  0.00    -0.205 F 
ATOM     28  C   UNL d   1      11.558   8.255  -4.296  0.00  0.00     0.074 A 
ATOM     29  C   UNL d   1      11.102   9.331  -5.109  0.00  0.00     0.004 A 
ATOM     30  C   UNL d   1      10.843   9.142  -6.466  0.00  0.00    -0.002 A 
BRANCH  28  31
ATOM     31  C   UNL d   1      11.854   8.462  -2.816  0.00  0.00     0.419 C 
ATOM     32  F   UNL d   1      11.209   7.554  -2.079  0.00  0.00    -0.166 F 
ATOM     33  F   UNL d   1      13.132   8.341  -2.546  0.00  0.00    -0.166 F 
ATOM     34  F   UNL d   1      11.476   9.683  -2.467  0.00  0.00    -0.166 F 
ENDBRANCH  28  31
ENDBRANCH   5  24
TORSDOF 9
