REMARK  7 active torsions:
REMARK  status: ('A' for Active; 'I' for Inactive)
REMARK    1  A    between atoms: C_2  and  C_3 
REMARK    2  A    between atoms: C_3  and  N_4 
REMARK    3  A    between atoms: N_4  and  C_5 
REMARK    4  A    between atoms: N_4  and  C_21 
REMARK    5  A    between atoms: C_5  and  C_6 
REMARK    6  A    between atoms: C_6  and  N_7 
REMARK       I    between atoms: N_7  and  C_8 
REMARK       I    between atoms: C_8  and  N_10 
REMARK    7  A    between atoms: N_11  and  C_12 
ROOT
ATOM      1  C   UNL d   1       8.976   5.556 -10.714  0.00  0.00     0.166 C 
ENDROOT
BRANCH   1   2
ATOM      2  C   UNL d   1       9.032   6.020  -9.242  0.00  0.00     0.276 C 
BRANCH   2   3
ATOM      3  N   UNL d   1      10.132   6.969  -8.979  0.00  0.00     0.138 N 
BRANCH   3   4
ATOM      4  C   UNL d   1      10.167   8.038  -9.999  0.00  0.00     0.250 C 
BRANCH   4   5
ATOM      5  C   UNL d   1      11.425   8.898 -10.003  0.00  0.00     0.035 C 
ATOM      6  C   UNL d   1      12.717   8.094  -9.664  0.00  0.00     0.002 C 
ENDBRANCH   4   5
ENDBRANCH   3   4
BRANCH   3   7
ATOM      7  C   UNL d   1       9.964   7.552  -7.632  0.00  0.00     0.228 C 
ATOM      8  C   UNL d   1      10.235   6.549  -6.486  0.00  0.00     0.060 C 
ATOM      9  C   UNL d   1      11.061   7.332  -5.492  0.00  0.00    -0.024 A 
ATOM     10  C   UNL d   1      11.410   8.572  -5.962  0.00  0.00    -0.024 A 
ATOM     11  C   UNL d   1      11.463   6.926  -4.208  0.00  0.00    -0.004 A 
ATOM     12  C   UNL d   1      10.835   8.782  -7.284  0.00  0.00     0.060 C 
ATOM     13  C   UNL d   1      12.242   9.465  -5.275  0.00  0.00    -0.004 A 
ATOM     14  C   UNL d   1      12.651   9.079  -3.983  0.00  0.00    -0.000 A 
ATOM     15  C   UNL d   1      12.258   7.830  -3.453  0.00  0.00    -0.000 A 
ENDBRANCH   3   7
ENDBRANCH   2   3
ENDBRANCH   1   2
BRANCH   1  16
ATOM     16  N   UNL d   1       7.629   5.577 -11.217  0.00  0.00    -0.214 NA
ATOM     17  C   UNL d   1       7.252   4.894 -12.342  0.00  0.00     0.382 C 
ATOM     18  O   UNL d   1       6.087   4.803 -12.703  0.00  0.00    -0.241 OA
ATOM     19  N   UNL d   1       8.393   4.272 -13.086  0.00  0.00    -0.088 NA
ATOM     20  N   UNL d   1       8.055   3.457 -13.961  0.00  0.00    -0.144 NA
BRANCH  20  21
ATOM     21  C   UNL d   1       9.092   2.813 -14.671  0.00  0.00     0.108 A 
ATOM     22  C   UNL d   1       8.805   1.548 -15.220  0.00  0.00     0.053 A 
ATOM     23  C   UNL d   1       9.788   0.848 -15.949  0.00  0.00     0.171 A 
ATOM     24  C   UNL d   1      11.049   1.413 -16.137  0.00  0.00     0.195 A 
ATOM     25  F   UNL d   1       9.498  -0.370 -16.466  0.00  0.00    -0.202 F 
ATOM     26  C   UNL d   1      11.357   2.680 -15.598  0.00  0.00     0.171 A 
ATOM     27  F   UNL d   1      12.001   0.738 -16.843  0.00  0.00    -0.199 F 
ATOM     28  C   UNL d   1      10.377   3.381 -14.864  0.00  0.00     0.053 A 
ATOM     29  F   UNL d   1      12.581   3.225 -15.781  0.00  0.00    -0.202 F 
ENDBRANCH  20  21
ENDBRANCH   1  16
TORSDOF 7
