REMARK  10 active torsions:
REMARK  status: ('A' for Active; 'I' for Inactive)
REMARK    1  A    between atoms: S_2  and  C_3 
REMARK    2  A    between atoms: S_2  and  C_21 
REMARK    3  A    between atoms: C_3  and  C_4 
REMARK    4  A    between atoms: C_4  and  N_5 
REMARK    5  A    between atoms: N_8  and  C_9 
REMARK    6  A    between atoms: C_9  and  C_10 
REMARK    7  A    between atoms: C_10  and  C_12 
REMARK    8  A    between atoms: C_12  and  C_13 
REMARK    9  A    between atoms: C_21  and  C_22 
REMARK   10  A    between atoms: C_21  and  C_29 
ROOT
ATOM      1  C   UNL d   1       7.715   4.488 -13.134  0.00  0.00     0.128 C 
ENDROOT
BRANCH   1   2
ATOM      2  S   UNL d   1       6.387   3.210 -13.407  0.00  0.00     0.051 S 
ATOM      3  O   UNL d   1       5.089   3.998 -13.580  0.00  0.00    -0.256 OA
BRANCH   2   4
ATOM      4  C   UNL d   1       6.830   2.462 -15.057  0.00  0.00     0.124 C 
BRANCH   4   5
ATOM      5  C   UNL d   1       6.345   1.034 -15.188  0.00  0.00    -0.006 A 
ATOM      6  C   UNL d   1       5.924   0.563 -16.457  0.00  0.00    -0.001 A 
ATOM      7  C   UNL d   1       5.470  -0.753 -16.608  0.00  0.00     0.029 A 
ATOM      8  C   UNL d   1       5.449  -1.616 -15.503  0.00  0.00     0.140 A 
ATOM      9  C   UNL d   1       5.857  -1.152 -14.236  0.00  0.00     0.029 A 
ATOM     10  F   UNL d   1       5.059  -2.900 -15.650  0.00  0.00    -0.204 F 
ATOM     11  C   UNL d   1       6.311   0.167 -14.077  0.00  0.00    -0.001 A 
ENDBRANCH   4   5
BRANCH   4  12
ATOM     12  C   UNL d   1       8.337   2.529 -15.370  0.00  0.00    -0.006 C 
ATOM     13  C   UNL d   1       8.812   2.738 -16.694  0.00  0.00    -0.001 C 
ATOM     14  C   UNL d   1      10.185   2.906 -16.936  0.00  0.00     0.029 C 
ATOM     15  C   UNL d   1      11.113   2.892 -15.866  0.00  0.00     0.140 C 
ATOM     16  C   UNL d   1      10.662   2.683 -14.555  0.00  0.00     0.029 C 
ATOM     17  F   UNL d   1      12.429   3.083 -16.097  0.00  0.00    -0.204 F 
ATOM     18  C   UNL d   1       9.300   2.387 -14.331  0.00  0.00    -0.001 C 
ENDBRANCH   4  12
ENDBRANCH   2   4
ENDBRANCH   1   2
BRANCH   1  19
ATOM     19  C   UNL d   1       8.399   4.224 -11.758  0.00  0.00     0.265 C 
BRANCH  19  20
ATOM     20  N   UNL d   1       9.255   5.297 -11.293  0.00  0.00     0.142 N 
ATOM     21  C   UNL d   1       9.681   5.066  -9.908  0.00  0.00     0.285 C 
ATOM     22  C   UNL d   1      10.547   6.229  -9.392  0.00  0.00     0.286 C 
ATOM     23  N   UNL d   1       9.841   7.501  -9.436  0.00  0.00     0.144 N 
ATOM     24  C   UNL d   1       9.403   7.729 -10.813  0.00  0.00     0.286 C 
ATOM     25  C   UNL d   1       8.547   6.567 -11.336  0.00  0.00     0.285 C 
BRANCH  23  26
ATOM     26  C   UNL d   1      10.633   8.615  -8.954  0.00  0.00     0.283 C 
BRANCH  26  27
ATOM     27  C   UNL d   1      11.334   8.349  -7.614  0.00  0.00     0.190 C 
ATOM     28  O   UNL d   1      11.950   9.573  -7.269  0.00  0.00    -0.221 OA
BRANCH  27  29
ATOM     29  C   UNL d   1      10.395   7.937  -6.471  0.00  0.00     0.061 C 
BRANCH  29  30
ATOM     30  C   UNL d   1      11.067   7.975  -5.117  0.00  0.00    -0.020 A 
ATOM     31  C   UNL d   1      11.464   6.790  -4.484  0.00  0.00    -0.004 A 
ATOM     32  C   UNL d   1      12.071   6.832  -3.208  0.00  0.00    -0.000 A 
ATOM     33  C   UNL d   1      12.266   8.079  -2.571  0.00  0.00    -0.000 A 
ATOM     34  C   UNL d   1      11.863   9.260  -3.196  0.00  0.00    -0.000 A 
ATOM     35  C   UNL d   1      11.250   9.228  -4.459  0.00  0.00    -0.004 A 
ENDBRANCH  29  30
ENDBRANCH  27  29
ENDBRANCH  26  27
ENDBRANCH  23  26
ENDBRANCH  19  20
ENDBRANCH   1  19
TORSDOF 10
