REMARK  7 active torsions:
REMARK  status: ('A' for Active; 'I' for Inactive)
REMARK    1  A    between atoms: C_5  and  N_6 
REMARK    2  A    between atoms: N_9  and  C_10 
REMARK    3  A    between atoms: C_10  and  C_11 
REMARK    4  A    between atoms: C_11  and  C_12 
REMARK    5  A    between atoms: C_15  and  N_16 
REMARK    6  A    between atoms: N_16  and  S_17 
REMARK    7  A    between atoms: C_26  and  C_27 
ROOT
ATOM      1  N   UNL d   1       3.063  -1.165 -13.756  0.00  0.00    -0.191 NA
ATOM      2  C   UNL d   1       3.961  -0.704 -14.301  0.00  0.00     0.101 C 
ATOM      3  C   UNL d   1       5.096  -0.113 -14.962  0.00  0.00     0.070 A 
ATOM      4  C   UNL d   1       5.698   1.018 -14.389  0.00  0.00     0.027 A 
ATOM      5  C   UNL d   1       6.774   1.660 -15.028  0.00  0.00     0.057 A 
ATOM      6  C   UNL d   1       7.263   1.105 -16.237  0.00  0.00     0.021 A 
ATOM      7  C   UNL d   1       6.692  -0.060 -16.792  0.00  0.00     0.074 A 
ATOM      8  C   UNL d   1       5.588  -0.668 -16.159  0.00  0.00     0.014 A 
ENDROOT
BRANCH   7   9
ATOM      9  C   UNL d   1       7.253  -0.657 -18.074  0.00  0.00     0.419 C 
ATOM     10  F   UNL d   1       6.945   0.138 -19.099  0.00  0.00    -0.166 F 
ATOM     11  F   UNL d   1       8.580  -0.752 -17.980  0.00  0.00    -0.166 F 
ATOM     12  F   UNL d   1       6.762  -1.873 -18.317  0.00  0.00    -0.166 F 
ENDBRANCH   7   9
BRANCH   5  13
ATOM     13  N   UNL d   1       7.306   2.833 -14.467  0.00  0.00    -0.344 N 
ATOM     14  C   UNL d   1       6.481   3.818 -13.759  0.00  0.00     0.137 C 
ATOM     15  C   UNL d   1       7.122   4.141 -12.396  0.00  0.00     0.274 C 
ATOM     16  N   UNL d   1       8.524   4.561 -12.582  0.00  0.00     0.141 N 
ATOM     17  C   UNL d   1       9.299   3.518 -13.263  0.00  0.00     0.274 C 
ATOM     18  C   UNL d   1       8.701   3.207 -14.635  0.00  0.00     0.137 C 
BRANCH  16  19
ATOM     19  C   UNL d   1       9.163   4.848 -11.300  0.00  0.00     0.250 C 
BRANCH  19  20
ATOM     20  C   UNL d   1       8.953   6.313 -10.929  0.00  0.00     0.035 C 
BRANCH  20  21
ATOM     21  C   UNL d   1      10.016   6.843  -9.934  0.00  0.00     0.002 C 
ATOM     22  C   UNL d   1       9.648   6.450  -8.493  0.00  0.00     0.002 C 
ATOM     23  C   UNL d   1      10.653   6.989  -7.478  0.00  0.00     0.025 C 
ATOM     24  C   UNL d   1      10.825   8.515  -7.603  0.00  0.00     0.117 C 
ATOM     25  C   UNL d   1      11.219   8.906  -9.041  0.00  0.00     0.025 C 
ATOM     26  C   UNL d   1      10.197   8.370 -10.053  0.00  0.00     0.002 C 
BRANCH  24  27
ATOM     27  N   UNL d   1      11.851   8.986  -6.667  0.00  0.00    -0.170 NA
BRANCH  27  28
ATOM     28  S   UNL d   1      11.535   9.013  -4.980  0.00  0.00     0.379 S 
ATOM     29  N   UNL d   1      13.054   9.450  -4.431  0.00  0.00    -0.026 N 
ATOM     30  O   UNL d   1      10.645  10.136  -4.683  0.00  0.00    -0.177 OA
ATOM     31  O   UNL d   1      11.301   7.644  -4.497  0.00  0.00    -0.177 OA
ENDBRANCH  27  28
ENDBRANCH  24  27
ENDBRANCH  20  21
ENDBRANCH  19  20
ENDBRANCH  16  19
ENDBRANCH   5  13
TORSDOF 7
