REMARK  2 active torsions:
REMARK  status: ('A' for Active; 'I' for Inactive)
REMARK    1  A    between atoms: C_2  and  C_4 
REMARK    2  A    between atoms: C_4  and  N_5 
ROOT
ATOM      1  N   UNL d   1      10.470   8.159  -6.197  0.00  0.00    -0.312 N 
ATOM      2  C   UNL d   1      10.768   6.914  -5.509  0.00  0.00     0.105 C 
ATOM      3  C   UNL d   1      11.634   7.311  -4.304  0.00  0.00     0.034 C 
ATOM      4  C   UNL d   1      12.017   8.778  -4.536  0.00  0.00     0.090 C 
ATOM      5  C   UNL d   1      11.149   9.204  -5.699  0.00  0.00     0.234 C 
ATOM      6  O   UNL d   1      11.098  10.364  -6.094  0.00  0.00    -0.272 OA
ENDROOT
BRANCH   1   7
ATOM      7  C   UNL d   1       9.542   8.196  -7.329  0.00  0.00     0.196 C 
BRANCH   7   8
ATOM      8  C   UNL d   1      10.236   7.995  -8.685  0.00  0.00     0.296 C 
ATOM      9  N   UNL d   1       9.460   7.902  -9.759  0.00  0.00    -0.105 N 
ATOM     10  O   UNL d   1      11.456   7.948  -8.779  0.00  0.00    -0.267 OA
ENDBRANCH   7   8
ENDBRANCH   1   7
TORSDOF 2
