REMARK  1 active torsions:
REMARK  status: ('A' for Active; 'I' for Inactive)
REMARK    1  A    between atoms: C_13  and  C_14 
ROOT
ATOM      1  O   UNL d   1       8.772  -0.036 -15.287  0.00  0.00    -0.189 OA
ATOM      2  C   UNL d   1       8.084   1.002 -14.738  0.00  0.00     0.141 A 
ATOM      3  C   UNL d   1       8.731   2.242 -14.634  0.00  0.00     0.024 A 
ATOM      4  C   UNL d   1       8.075   3.373 -14.087  0.00  0.00    -0.018 A 
ATOM      5  C   UNL d   1       6.734   3.220 -13.641  0.00  0.00    -0.023 A 
ATOM      6  C   UNL d   1       6.096   1.966 -13.733  0.00  0.00     0.009 A 
ATOM      7  C   UNL d   1       6.757   0.857 -14.284  0.00  0.00     0.083 A 
ATOM      8 CL   UNL d   1       5.933  -0.658 -14.372  0.00  0.00    -0.080 Cl
ATOM      9  C   UNL d   1       5.958   4.369 -13.024  0.00  0.00     0.064 C 
ATOM     10  C   UNL d   1       6.636   4.930 -11.775  0.00  0.00     0.295 C 
ATOM     11  N   UNL d   1       7.692   5.875 -12.085  0.00  0.00     0.340 N 
ATOM     12  C   UNL d   1       8.926   5.271 -12.573  0.00  0.00     0.299 C 
ATOM     13  C   UNL d   1       8.801   4.730 -14.018  0.00  0.00     0.080 C 
ENDROOT
BRANCH  13  14
ATOM     14  C   UNL d   1      10.148   4.748 -14.749  0.00  0.00    -0.016 A 
ATOM     15  C   UNL d   1      10.217   5.173 -16.099  0.00  0.00    -0.004 A 
ATOM     16  C   UNL d   1      11.454   5.212 -16.773  0.00  0.00    -0.000 A 
ATOM     17  C   UNL d   1      12.629   4.815 -16.108  0.00  0.00    -0.000 A 
ATOM     18  C   UNL d   1      12.567   4.383 -14.770  0.00  0.00    -0.000 A 
ATOM     19  C   UNL d   1      11.331   4.338 -14.099  0.00  0.00    -0.004 A 
ENDBRANCH  13  14
TORSDOF 1
