REMARK  4 active torsions:
REMARK  status: ('A' for Active; 'I' for Inactive)
REMARK    1  A    between atoms: C_2  and  O_4 
REMARK    2  A    between atoms: O_4  and  C_5 
REMARK    3  A    between atoms: C_11  and  N_12 
REMARK    4  A    between atoms: C_13  and  N_14 
ROOT
ATOM      1  C   UNL d   1       9.075   3.463 -14.382  0.00  0.00     0.147 C 
ATOM      2  C   UNL d   1       7.732   2.721 -14.666  0.00  0.00     0.040 C 
ATOM      3  C   UNL d   1       6.655   3.349 -13.757  0.00  0.00     0.029 C 
ATOM      4  C   UNL d   1       7.441   4.191 -12.802  0.00  0.00    -0.024 A 
ATOM      5  C   UNL d   1       6.971   4.844 -11.652  0.00  0.00    -0.003 A 
ATOM      6  C   UNL d   1       7.876   5.562 -10.868  0.00  0.00     0.019 A 
ATOM      7  C   UNL d   1       9.249   5.665 -11.222  0.00  0.00     0.083 A 
ATOM      8  C   UNL d   1       9.704   5.005 -12.400  0.00  0.00     0.017 A 
ATOM      9  C   UNL d   1       8.784   4.253 -13.147  0.00  0.00     0.003 A 
ENDROOT
BRANCH   7  10
ATOM     10  N   UNL d   1      10.150   6.438 -10.473  0.00  0.00    -0.226 NA
ATOM     11  C   UNL d   1      10.103   6.398  -9.184  0.00  0.00     0.175 C 
BRANCH  11  12
ATOM     12  N   UNL d   1      10.962   7.098  -8.344  0.00  0.00    -0.327 N 
ATOM     13  C   UNL d   1      11.405   6.524  -7.081  0.00  0.00     0.129 C 
ATOM     14  C   UNL d   1      11.392   7.483  -5.907  0.00  0.00    -0.004 A 
ATOM     15  C   UNL d   1      11.188   8.866  -6.120  0.00  0.00    -0.022 A 
ATOM     16  C   UNL d   1      11.638   7.002  -4.604  0.00  0.00    -0.003 A 
ATOM     17  C   UNL d   1      10.962   9.396  -7.525  0.00  0.00     0.050 C 
ATOM     18  C   UNL d   1      11.197   9.757  -5.028  0.00  0.00    -0.004 A 
ATOM     19  C   UNL d   1      11.461   8.436  -8.615  0.00  0.00     0.108 C 
ATOM     20  C   UNL d   1      11.472   9.273  -3.732  0.00  0.00    -0.000 A 
ATOM     21  C   UNL d   1      11.695   7.896  -3.519  0.00  0.00    -0.000 A 
ENDBRANCH  11  12
ENDBRANCH   7  10
BRANCH   1  22
ATOM     22  O   UNL d   1       9.447   4.349 -15.438  0.00  0.00    -0.300 OA
BRANCH  22  23
ATOM     23  C   UNL d   1      10.138   3.922 -16.498  0.00  0.00     0.273 C 
ATOM     24  C   UNL d   1      10.349   5.025 -17.527  0.00  0.00     0.106 C 
ATOM     25  O   UNL d   1      10.564   2.784 -16.682  0.00  0.00    -0.264 OA
ENDBRANCH  22  23
ENDBRANCH   1  22
TORSDOF 4
