REMARK  10 active torsions:
REMARK  status: ('A' for Active; 'I' for Inactive)
REMARK    1  A    between atoms: C_2  and  C_3 
REMARK    2  A    between atoms: C_3  and  N_4 
REMARK    3  A    between atoms: N_4  and  C_5 
REMARK    4  A    between atoms: N_4  and  C_24 
REMARK    5  A    between atoms: C_5  and  C_6 
REMARK    6  A    between atoms: C_6  and  C_7 
REMARK    7  A    between atoms: C_7  and  C_8 
REMARK    8  A    between atoms: C_8  and  N_9 
REMARK       I    between atoms: N_9  and  C_10 
REMARK    9  A    between atoms: C_10  and  C_12 
REMARK   10  A    between atoms: C_15  and  C_16 
ROOT
ATOM      1  C   UNL d   1       9.588   4.987 -14.434  0.00  0.00     0.037 C 
ENDROOT
BRANCH   1   2
ATOM      2  C   UNL d   1       9.702   3.676 -15.203  0.00  0.00     0.250 C 
BRANCH   2   3
ATOM      3  N   UNL d   1       9.723   3.840 -16.665  0.00  0.00     0.135 N 
BRANCH   3   4
ATOM      4  C   UNL d   1      10.887   4.608 -17.133  0.00  0.00     0.250 C 
BRANCH   4   5
ATOM      5  C   UNL d   1      10.735   5.069 -18.600  0.00  0.00     0.035 C 
ATOM      6  C   UNL d   1       9.594   6.091 -18.757  0.00  0.00     0.002 C 
ENDBRANCH   4   5
ENDBRANCH   3   4
BRANCH   3   7
ATOM      7  C   UNL d   1       9.560   2.550 -17.354  0.00  0.00     0.224 C 
ATOM      8  C   UNL d   1       8.069   2.131 -17.317  0.00  0.00     0.062 C 
ATOM      9  C   UNL d   1       7.861   0.696 -17.741  0.00  0.00     0.013 A 
ATOM     10  C   UNL d   1       8.916  -0.239 -17.835  0.00  0.00     0.058 A 
ATOM     11  C   UNL d   1       6.572   0.229 -18.045  0.00  0.00     0.097 A 
ATOM     12  C   UNL d   1      10.360   0.131 -17.538  0.00  0.00     0.048 C 
ATOM     13  N   UNL d   1       8.687  -1.513 -18.210  0.00  0.00    -0.235 NA
ATOM     14  C   UNL d   1      10.499   1.459 -16.790  0.00  0.00     0.040 C 
ATOM     15  C   UNL d   1       7.413  -1.843 -18.460  0.00  0.00     0.139 A 
ATOM     16  C   UNL d   1       7.158  -3.287 -18.850  0.00  0.00     0.074 C 
ATOM     17  N   UNL d   1       6.349  -1.049 -18.407  0.00  0.00    -0.230 NA
ENDBRANCH   3   7
ENDBRANCH   2   3
ENDBRANCH   1   2
BRANCH   1  18
ATOM     18  C   UNL d   1       9.595   4.753 -12.915  0.00  0.00     0.029 C 
BRANCH  18  19
ATOM     19  C   UNL d   1       8.778   5.828 -12.184  0.00  0.00     0.129 C 
BRANCH  19  20
ATOM     20  N   UNL d   1       9.353   6.137 -10.883  0.00  0.00    -0.234 NA
ATOM     21  C   UNL d   1       9.806   7.350 -10.516  0.00  0.00     0.275 C 
ATOM     22  O   UNL d   1       9.857   8.320 -11.267  0.00  0.00    -0.266 OA
BRANCH  21  23
ATOM     23  C   UNL d   1      10.254   7.463  -9.093  0.00  0.00     0.058 A 
ATOM     24  C   UNL d   1      11.324   8.319  -8.763  0.00  0.00     0.005 A 
ATOM     25  C   UNL d   1      11.716   8.465  -7.419  0.00  0.00     0.000 A 
ATOM     26  C   UNL d   1      11.045   7.771  -6.390  0.00  0.00     0.000 A 
ATOM     27  C   UNL d   1       9.970   6.923  -6.733  0.00  0.00     0.000 A 
ATOM     28  C   UNL d   1       9.569   6.777  -8.072  0.00  0.00     0.005 A 
BRANCH  26  29
ATOM     29  C   UNL d   1      11.457   7.924  -4.984  0.00  0.00     0.000 A 
ATOM     30  C   UNL d   1      11.651   6.789  -4.160  0.00  0.00     0.000 A 
ATOM     31  C   UNL d   1      12.052   6.929  -2.817  0.00  0.00     0.000 A 
ATOM     32  C   UNL d   1      12.258   8.209  -2.276  0.00  0.00     0.000 A 
ATOM     33  C   UNL d   1      12.067   9.346  -3.084  0.00  0.00     0.000 A 
ATOM     34  C   UNL d   1      11.671   9.200  -4.428  0.00  0.00     0.000 A 
ENDBRANCH  26  29
ENDBRANCH  21  23
ENDBRANCH  19  20
ENDBRANCH  18  19
ENDBRANCH   1  18
TORSDOF 10
