REMARK  7 active torsions:
REMARK  status: ('A' for Active; 'I' for Inactive)
REMARK       I    between atoms: C_2  and  N_4 
REMARK    1  A    between atoms: N_4  and  C_5 
REMARK    2  A    between atoms: C_8  and  O_9 
REMARK    3  A    between atoms: O_9  and  C_10 
REMARK    4  A    between atoms: C_10  and  C_11 
REMARK    5  A    between atoms: C_11  and  C_12 
REMARK    6  A    between atoms: C_12  and  N_13 
REMARK    7  A    between atoms: N_16  and  C_17 
ROOT
ATOM      1  N   UNL d   1      10.331   3.082 -16.510  0.00  0.00     0.141 N 
ATOM      2  C   UNL d   1       9.930   1.977 -17.388  0.00  0.00     0.274 C 
ATOM      3  C   UNL d   1      10.729   2.016 -18.704  0.00  0.00     0.137 C 
ATOM      4  N   UNL d   1      12.160   2.020 -18.420  0.00  0.00    -0.344 N 
ATOM      5  C   UNL d   1      12.600   3.027 -17.463  0.00  0.00     0.137 C 
ATOM      6  C   UNL d   1      11.755   2.955 -16.182  0.00  0.00     0.274 C 
ENDROOT
BRANCH   1   7
ATOM      7  C   UNL d   1       9.527   3.038 -15.291  0.00  0.00     0.253 C 
BRANCH   7   8
ATOM      8  C   UNL d   1       9.656   4.338 -14.481  0.00  0.00     0.068 C 
BRANCH   8   9
ATOM      9  C   UNL d   1       8.438   4.534 -13.575  0.00  0.00     0.151 C 
BRANCH   9  10
ATOM     10  O   UNL d   1       8.500   5.831 -12.988  0.00  0.00    -0.331 OA
BRANCH  10  11
ATOM     11  C   UNL d   1       8.871   5.973 -11.670  0.00  0.00     0.094 A 
ATOM     12  C   UNL d   1       9.461   7.192 -11.288  0.00  0.00     0.026 A 
ATOM     13  C   UNL d   1       9.871   7.416  -9.960  0.00  0.00     0.021 A 
ATOM     14  C   UNL d   1       9.684   6.412  -8.981  0.00  0.00     0.085 A 
ATOM     15  C   UNL d   1       9.073   5.197  -9.358  0.00  0.00     0.021 A 
ATOM     16  C   UNL d   1       8.660   4.983 -10.685  0.00  0.00     0.026 A 
BRANCH  14  17
ATOM     17  N   UNL d   1      10.056   6.543  -7.616  0.00  0.00    -0.212 NA
ATOM     18  C   UNL d   1      10.562   7.602  -6.958  0.00  0.00     0.256 C 
ATOM     19  C   UNL d   1      10.794   7.408  -5.467  0.00  0.00     0.100 C 
ATOM     20  O   UNL d   1      10.846   8.690  -7.459  0.00  0.00    -0.270 OA
ENDBRANCH  14  17
ENDBRANCH  10  11
ENDBRANCH   9  10
ENDBRANCH   8   9
ENDBRANCH   7   8
ENDBRANCH   1   7
BRANCH   4  21
ATOM     21  C   UNL d   1      13.041   1.119 -19.035  0.00  0.00     0.068 A 
ATOM     22  C   UNL d   1      14.264   1.536 -19.630  0.00  0.00     0.084 A 
ATOM     23  C   UNL d   1      15.129   0.581 -20.212  0.00  0.00     0.070 A 
ATOM     24 CL   UNL d   1      14.712   3.211 -19.708  0.00  0.00    -0.080 Cl
ATOM     25  C   UNL d   1      14.779  -0.777 -20.222  0.00  0.00     0.012 A 
ATOM     26 CL   UNL d   1      16.623   1.056 -20.933  0.00  0.00    -0.081 Cl
ATOM     27  C   UNL d   1      13.572  -1.196 -19.646  0.00  0.00     0.002 A 
ATOM     28  C   UNL d   1      12.703  -0.257 -19.061  0.00  0.00     0.018 A 
ENDBRANCH   4  21
TORSDOF 7
