REMARK  10 active torsions:
REMARK  status: ('A' for Active; 'I' for Inactive)
REMARK    1  A    between atoms: C_2  and  C_3 
REMARK    2  A    between atoms: C_3  and  N_4 
REMARK    3  A    between atoms: N_4  and  C_5 
REMARK    4  A    between atoms: N_4  and  C_21 
REMARK    5  A    between atoms: C_5  and  C_6 
REMARK    6  A    between atoms: C_6  and  C_7 
REMARK    7  A    between atoms: C_7  and  C_8 
REMARK    8  A    between atoms: C_8  and  N_9 
REMARK    9  A    between atoms: C_21  and  C_22 
REMARK   10  A    between atoms: C_29  and  O_30 
ROOT
ATOM      1  N   UNL d   1       8.560   4.931 -12.723  0.00  0.00     0.137 N 
ENDROOT
BRANCH   1   2
ATOM      2  C   UNL d   1       7.222   4.669 -12.195  0.00  0.00     0.250 C 
BRANCH   2   3
ATOM      3  C   UNL d   1       6.136   4.871 -13.254  0.00  0.00     0.035 C 
ATOM      4  C   UNL d   1       5.038   3.867 -13.005  0.00  0.00     0.002 C 
ENDBRANCH   2   3
ENDBRANCH   1   2
BRANCH   1   5
ATOM      5  C   UNL d   1       8.972   3.901 -13.686  0.00  0.00     0.250 C 
BRANCH   5   6
ATOM      6  C   UNL d   1      10.130   4.377 -14.592  0.00  0.00     0.037 C 
BRANCH   6   7
ATOM      7  C   UNL d   1      10.630   3.284 -15.538  0.00  0.00     0.027 C 
BRANCH   7   8
ATOM      8  C   UNL d   1       9.484   2.505 -16.208  0.00  0.00     0.112 C 
BRANCH   8   9
ATOM      9  N   UNL d   1       9.974   1.762 -17.397  0.00  0.00    -0.271 N 
ATOM     10  C   UNL d   1      10.050   2.482 -18.541  0.00  0.00     0.239 C 
ATOM     11  C   UNL d   1      10.524   1.770 -19.824  0.00  0.00     0.089 C 
ATOM     12  O   UNL d   1       9.756   3.666 -18.659  0.00  0.00    -0.272 OA
ATOM     13  C   UNL d   1      11.450   0.578 -19.558  0.00  0.00     0.018 C 
ATOM     14  C   UNL d   1      10.802  -0.333 -18.495  0.00  0.00     0.089 C 
ATOM     15  C   UNL d   1      11.687  -0.171 -20.880  0.00  0.00     0.001 C 
ATOM     16  C   UNL d   1      12.875   0.994 -19.142  0.00  0.00     0.001 C 
ATOM     17  C   UNL d   1      10.316   0.462 -17.257  0.00  0.00     0.239 C 
ATOM     18  O   UNL d   1      10.257  -0.167 -16.202  0.00  0.00    -0.272 OA
ATOM     19  C   UNL d   1      13.112  -0.730 -20.839  0.00  0.00     0.000 C 
ATOM     20  C   UNL d   1      13.791  -0.133 -19.607  0.00  0.00     0.000 C 
ENDBRANCH   8   9
ENDBRANCH   7   8
ENDBRANCH   6   7
ENDBRANCH   5   6
ENDBRANCH   1   5
BRANCH   1  21
ATOM     21  C   UNL d   1       9.539   4.917 -11.644  0.00  0.00     0.253 C 
BRANCH  21  22
ATOM     22  C   UNL d   1       9.206   5.857 -10.460  0.00  0.00     0.068 C 
ATOM     23  C   UNL d   1      10.344   6.823 -10.203  0.00  0.00     0.035 C 
ATOM     24  C   UNL d   1      10.271   7.476  -8.860  0.00  0.00     0.022 A 
ATOM     25  C   UNL d   1       9.391   6.955  -7.889  0.00  0.00     0.092 A 
ATOM     26  C   UNL d   1      11.086   8.585  -8.588  0.00  0.00     0.092 A 
ATOM     27  O   UNL d   1       8.613   5.842  -8.088  0.00  0.00    -0.331 OA
ATOM     28  C   UNL d   1       9.257   7.632  -6.679  0.00  0.00     0.024 A 
ATOM     29  C   UNL d   1       8.968   5.019  -9.185  0.00  0.00     0.151 C 
ATOM     30  C   UNL d   1      10.037   8.765  -6.397  0.00  0.00     0.004 A 
ATOM     31  C   UNL d   1      10.966   9.234  -7.340  0.00  0.00     0.024 A 
BRANCH  26  32
ATOM     32  O   UNL d   1      11.922   9.099  -9.554  0.00  0.00    -0.328 OA
ATOM     33  C   UNL d   1      13.068   8.297  -9.891  0.00  0.00     0.181 C 
ENDBRANCH  26  32
ENDBRANCH  21  22
ENDBRANCH   1  21
TORSDOF 10
