REMARK  2 active torsions:
REMARK  status: ('A' for Active; 'I' for Inactive)
REMARK    1  A    between atoms: C_26  and  C_27 
REMARK    2  A    between atoms: C_27  and  C_29 
ROOT
ATOM      1  C   UNL d   1      10.925   8.246 -20.141  0.00  0.00     0.061 C 
ATOM      2  C   UNL d   1      10.643   6.776 -19.796  0.00  0.00     0.188 C 
ATOM      3  C   UNL d   1       9.215   6.365 -20.176  0.00  0.00     0.061 C 
ATOM      4  O   UNL d   1      11.528   5.978 -20.503  0.00  0.00    -0.334 OA
ATOM      5  C   UNL d   1      12.338   5.283 -19.572  0.00  0.00     0.149 C 
ATOM      6  C   UNL d   1      11.898   3.808 -19.458  0.00  0.00     0.033 C 
ATOM      7  C   UNL d   1      11.143   3.749 -18.127  0.00  0.00     0.005 C 
ATOM      8  C   UNL d   1      10.852   2.381 -17.471  0.00  0.00     0.006 C 
ATOM      9  C   UNL d   1      10.153   1.438 -18.478  0.00  0.00     0.040 C 
ATOM     10  C   UNL d   1       9.646   0.141 -17.834  0.00  0.00     0.179 C 
ATOM     11  F   UNL d   1       8.996  -0.572 -18.756  0.00  0.00    -0.233 F 
ATOM     12  C   UNL d   1       8.760   0.491 -16.647  0.00  0.00    -0.010 C 
ATOM     13  C   UNL d   1       7.438   0.212 -16.648  0.00  0.00     0.032 C 
ATOM     14  C   UNL d   1       6.551   0.720 -15.601  0.00  0.00     0.172 C 
ATOM     15  O   UNL d   1       5.408   0.308 -15.431  0.00  0.00    -0.291 OA
ATOM     16  C   UNL d   1       7.086   1.837 -14.716  0.00  0.00     0.070 C 
ATOM     17  C   UNL d   1       8.528   1.508 -14.324  0.00  0.00     0.012 C 
ATOM     18  C   UNL d   1       9.481   1.278 -15.534  0.00  0.00     0.021 C 
ATOM     19  C   UNL d   1      10.643   0.418 -14.985  0.00  0.00     0.004 C 
ATOM     20  C   UNL d   1       9.972   2.617 -16.195  0.00  0.00     0.034 C 
ATOM     21  C   UNL d   1      10.552   3.711 -15.242  0.00  0.00     0.152 C 
ATOM     22  O   UNL d   1      11.613   3.246 -14.439  0.00  0.00    -0.224 OA
ATOM     23  C   UNL d   1      11.009   4.994 -15.973  0.00  0.00     0.036 C 
ATOM     24  C   UNL d   1      11.895   4.735 -17.219  0.00  0.00     0.034 C 
ATOM     25  C   UNL d   1      13.301   4.208 -16.798  0.00  0.00     0.003 C 
ATOM     26  C   UNL d   1      12.062   5.943 -18.196  0.00  0.00     0.173 C 
ATOM     27  O   UNL d   1      10.808   6.575 -18.428  0.00  0.00    -0.330 OA
ENDROOT
BRANCH  26  28
ATOM     28  C   UNL d   1      13.076   7.029 -17.756  0.00  0.00     0.210 C 
ATOM     29  O   UNL d   1      14.052   7.333 -18.446  0.00  0.00    -0.291 OA
BRANCH  28  30
ATOM     30  C   UNL d   1      12.820   7.714 -16.410  0.00  0.00     0.249 C 
ATOM     31  O   UNL d   1      13.195   9.072 -16.438  0.00  0.00    -0.212 OA
ENDBRANCH  28  30
ENDBRANCH  26  28
TORSDOF 2
