REMARK  4 active torsions:
REMARK  status: ('A' for Active; 'I' for Inactive)
REMARK    1  A    between atoms: C_6  and  C_7 
REMARK    2  A    between atoms: C_9  and  C_10 
REMARK    3  A    between atoms: C_10  and  N_11 
REMARK    4  A    between atoms: N_14  and  C_15 
ROOT
ATOM      1  N   UNL d   1      11.997   3.817 -14.539  0.00  0.00    -0.191 NA
ATOM      2  C   UNL d   1      10.995   3.243 -14.447  0.00  0.00     0.111 C 
ATOM      3  C   UNL d   1       9.739   2.577 -14.363  0.00  0.00     0.138 C 
ATOM      4  C   UNL d   1       9.529   1.323 -15.001  0.00  0.00     0.111 C 
ATOM      5  N   UNL d   1       9.344   0.319 -15.543  0.00  0.00    -0.191 NA
ATOM      6  C   UNL d   1       8.710   3.120 -13.684  0.00  0.00     0.040 C 
ENDROOT
BRANCH   6   7
ATOM      7  C   UNL d   1       8.630   4.339 -12.938  0.00  0.00     0.083 A 
ATOM      8  N   UNL d   1       7.419   4.738 -12.417  0.00  0.00    -0.244 NA
ATOM      9  C   UNL d   1       7.555   5.926 -11.738  0.00  0.00     0.097 A 
ATOM     10  C   UNL d   1       8.865   6.307 -11.808  0.00  0.00     0.032 A 
ATOM     11  C   UNL d   1       9.533   5.298 -12.571  0.00  0.00     0.018 A 
BRANCH  10  12
ATOM     12  C   UNL d   1       9.468   7.543 -11.180  0.00  0.00     0.279 C 
BRANCH  12  13
ATOM     13  N   UNL d   1      10.369   7.262 -10.059  0.00  0.00     0.145 N 
ATOM     14  C   UNL d   1      11.047   8.504  -9.659  0.00  0.00     0.275 C 
ATOM     15  C   UNL d   1      12.035   8.246  -8.504  0.00  0.00     0.137 C 
ATOM     16  N   UNL d   1      11.363   7.566  -7.400  0.00  0.00    -0.344 N 
ATOM     17  C   UNL d   1      10.539   6.413  -7.736  0.00  0.00     0.137 C 
ATOM     18  C   UNL d   1       9.607   6.748  -8.914  0.00  0.00     0.275 C 
BRANCH  16  19
ATOM     19  C   UNL d   1      11.360   8.093  -6.106  0.00  0.00     0.056 A 
ATOM     20  C   UNL d   1      11.178   9.472  -5.886  0.00  0.00     0.017 A 
ATOM     21  C   UNL d   1      11.226   9.988  -4.579  0.00  0.00     0.002 A 
ATOM     22  C   UNL d   1      11.502   9.149  -3.488  0.00  0.00     0.000 A 
ATOM     23  C   UNL d   1      11.697   7.774  -3.696  0.00  0.00     0.002 A 
ATOM     24  C   UNL d   1      11.577   7.240  -4.998  0.00  0.00     0.017 A 
ENDBRANCH  16  19
ENDBRANCH  12  13
ENDBRANCH  10  12
ENDBRANCH   6   7
TORSDOF 4
