REMARK  10 active torsions:
REMARK  status: ('A' for Active; 'I' for Inactive)
REMARK    1  A    between atoms: C_2  and  O_3 
REMARK    2  A    between atoms: O_3  and  C_4 
REMARK    3  A    between atoms: C_9  and  N_10 
REMARK    4  A    between atoms: N_13  and  C_14 
REMARK    5  A    between atoms: C_14  and  C_15 
REMARK    6  A    between atoms: C_15  and  C_16 
REMARK    7  A    between atoms: C_16  and  C_17 
REMARK    8  A    between atoms: C_19  and  C_20 
REMARK    9  A    between atoms: C_23  and  O_24 
REMARK   10  A    between atoms: C_26  and  O_27 
ROOT
ATOM      1  C   UNL d   1      10.430   2.572 -16.794  0.00  0.00     0.038 C 
ENDROOT
BRANCH   1   2
ATOM      2  C   UNL d   1       9.759   2.065 -18.082  0.00  0.00     0.251 C 
BRANCH   2   3
ATOM      3  N   UNL d   1       9.253   0.705 -17.895  0.00  0.00     0.141 N 
ATOM      4  C   UNL d   1       7.795   0.725 -17.680  0.00  0.00     0.274 C 
ATOM      5  C   UNL d   1       7.269  -0.698 -17.427  0.00  0.00     0.137 C 
ATOM      6  N   UNL d   1       7.617  -1.563 -18.561  0.00  0.00    -0.343 N 
ATOM      7  C   UNL d   1       9.038  -1.542 -18.907  0.00  0.00     0.137 C 
ATOM      8  C   UNL d   1       9.531  -0.097 -19.089  0.00  0.00     0.274 C 
BRANCH   6   9
ATOM      9  C   UNL d   1       6.682  -2.312 -19.304  0.00  0.00     0.079 A 
ATOM     10  C   UNL d   1       5.373  -1.815 -19.593  0.00  0.00     0.109 A 
ATOM     11  C   UNL d   1       4.452  -2.617 -20.301  0.00  0.00     0.026 A 
ATOM     12  C   UNL d   1       4.824  -3.893 -20.765  0.00  0.00     0.002 A 
ATOM     13  C   UNL d   1       6.120  -4.386 -20.513  0.00  0.00     0.002 A 
ATOM     14  C   UNL d   1       7.035  -3.606 -19.783  0.00  0.00     0.019 A 
BRANCH  10  15
ATOM     15  O   UNL d   1       5.071  -0.550 -19.139  0.00  0.00    -0.329 OA
BRANCH  15  16
ATOM     16  C   UNL d   1       3.901   0.118 -19.556  0.00  0.00     0.149 C 
ATOM     17  C   UNL d   1       4.388   1.281 -20.442  0.00  0.00     0.035 C 
ENDBRANCH  15  16
ENDBRANCH  10  15
ENDBRANCH   6   9
ENDBRANCH   2   3
ENDBRANCH   1   2
BRANCH   1  18
ATOM     18  C   UNL d   1       9.435   2.812 -15.645  0.00  0.00     0.035 C 
BRANCH  18  19
ATOM     19  C   UNL d   1      10.039   3.497 -14.419  0.00  0.00     0.153 C 
ATOM     20  O   UNL d   1      10.293   4.844 -14.740  0.00  0.00    -0.239 OA
ATOM     21  N   UNL d   1      10.259   5.569 -13.539  0.00  0.00    -0.136 NA
ATOM     22  C   UNL d   1       9.566   4.983 -12.670  0.00  0.00     0.088 C 
ATOM     23  C   UNL d   1       9.106   3.658 -13.223  0.00  0.00     0.081 C 
BRANCH  22  24
ATOM     24  C   UNL d   1       9.327   5.509 -11.277  0.00  0.00     0.018 C 
ATOM     25  C   UNL d   1       9.974   6.645 -10.727  0.00  0.00     0.028 C 
ATOM     26  C   UNL d   1       9.773   7.052  -9.394  0.00  0.00     0.116 C 
ATOM     27  C   UNL d   1       8.986   6.264  -8.529  0.00  0.00     0.116 C 
ATOM     28  C   UNL d   1       8.309   5.170  -9.077  0.00  0.00     0.026 C 
ATOM     29  C   UNL d   1       8.413   4.825 -10.444  0.00  0.00     0.003 C 
BRANCH  26  30
ATOM     30  O   UNL d   1      10.369   8.217  -8.993  0.00  0.00    -0.326 OA
ATOM     31  C   UNL d   1       9.507   9.201  -8.451  0.00  0.00     0.181 C 
ENDBRANCH  26  30
BRANCH  27  32
ATOM     32  O   UNL d   1       8.748   6.557  -7.207  0.00  0.00    -0.326 OA
ATOM     33  C   UNL d   1       9.875   6.769  -6.378  0.00  0.00     0.181 C 
ENDBRANCH  27  32
ENDBRANCH  22  24
ENDBRANCH  18  19
ENDBRANCH   1  18
TORSDOF 10
