REMARK  1 active torsions:
REMARK  status: ('A' for Active; 'I' for Inactive)
REMARK    1  A    between atoms: C_4  and  C_5 
ROOT
ATOM      1  C   UNL d   1      11.264   8.060  -6.516  0.00  0.00     0.242 C 
ATOM      2  C   UNL d   1      12.216   9.052  -7.151  0.00  0.00     0.040 C 
ATOM      3  C   UNL d   1      11.460   9.449  -8.383  0.00  0.00     0.042 C 
ATOM      4  C   UNL d   1      10.017   9.012  -8.253  0.00  0.00     0.259 C 
ATOM      5  C   UNL d   1       9.739   7.904  -9.179  0.00  0.00     0.086 A 
ATOM      6  N   UNL d   1       9.883   7.958 -10.542  0.00  0.00    -0.248 NA
ATOM      7  C   UNL d   1       9.466   6.784 -11.108  0.00  0.00     0.081 A 
ATOM      8  C   UNL d   1       9.422   6.348 -12.442  0.00  0.00     0.019 A 
ATOM      9  C   UNL d   1       8.895   5.074 -12.720  0.00  0.00     0.002 A 
ATOM     10  C   UNL d   1       8.403   4.325 -11.655  0.00  0.00     0.000 A 
ATOM     11  C   UNL d   1       8.444   4.761 -10.317  0.00  0.00     0.001 A 
ATOM     12  C   UNL d   1       8.997   5.998 -10.008  0.00  0.00     0.015 A 
ATOM     13  C   UNL d   1       9.195   6.719  -8.809  0.00  0.00    -0.003 A 
ATOM     14  C   UNL d   1       8.858   6.436  -7.395  0.00  0.00     0.063 C 
ATOM     15  C   UNL d   1       8.835   7.749  -6.590  0.00  0.00     0.256 C 
ATOM     16  N   UNL d   1       9.964   8.633  -6.847  0.00  0.00     0.143 N 
ENDROOT
BRANCH   1  17
ATOM     17  C   UNL d   1      11.524   7.886  -5.042  0.00  0.00     0.009 A 
ATOM     18  C   UNL d   1      11.524   8.992  -4.163  0.00  0.00    -0.002 A 
ATOM     19  C   UNL d   1      11.819   8.815  -2.797  0.00  0.00    -0.000 A 
ATOM     20  C   UNL d   1      12.092   7.521  -2.305  0.00  0.00    -0.000 A 
ATOM     21  C   UNL d   1      12.078   6.422  -3.175  0.00  0.00    -0.000 A 
ATOM     22  C   UNL d   1      11.800   6.603  -4.544  0.00  0.00    -0.002 A 
ENDBRANCH   1  17
TORSDOF 1
