REMARK  2 active torsions:
REMARK  status: ('A' for Active; 'I' for Inactive)
REMARK    1  A    between atoms: C_2  and  C_3 
REMARK    2  A    between atoms: C_3  and  C_4 
ROOT
ATOM      1  C   UNL d   1      10.999   7.444  -7.256  0.00  0.00     0.092 C 
ATOM      2  C   UNL d   1      12.142   7.924  -8.203  0.00  0.00     0.023 C 
ATOM      3  C   UNL d   1      11.756   7.898  -9.696  0.00  0.00     0.091 C 
ATOM      4  C   UNL d   1      10.315   8.449  -9.908  0.00  0.00     0.258 C 
ATOM      5  O   UNL d   1       9.941   8.741 -11.026  0.00  0.00    -0.270 OA
ATOM      6  N   UNL d   1       9.469   8.565  -8.886  0.00  0.00    -0.177 NA
ATOM      7  C   UNL d   1       9.670   8.165  -7.612  0.00  0.00     0.261 C 
ATOM      8  O   UNL d   1       8.779   8.274  -6.783  0.00  0.00    -0.270 OA
ENDROOT
BRANCH   1   9
ATOM      9  C   UNL d   1      10.752   5.904  -7.404  0.00  0.00     0.013 C 
ATOM     10  C   UNL d   1      10.015   5.262  -8.614  0.00  0.00     0.001 C 
ENDBRANCH   1   9
BRANCH   1  11
ATOM     11  C   UNL d   1      11.379   7.774  -5.765  0.00  0.00    -0.014 A 
ATOM     12  C   UNL d   1      11.624   6.746  -4.809  0.00  0.00    -0.003 A 
ATOM     13  C   UNL d   1      11.932   7.018  -3.471  0.00  0.00     0.014 A 
ATOM     14  C   UNL d   1      12.047   8.354  -3.046  0.00  0.00     0.070 A 
ATOM     15  C   UNL d   1      11.803   9.404  -3.948  0.00  0.00     0.014 A 
ATOM     16  N   UNL d   1      12.416   8.601  -1.737  0.00  0.00    -0.101 NA
ATOM     17  C   UNL d   1      11.479   9.111  -5.307  0.00  0.00    -0.003 A 
ENDBRANCH   1  11
TORSDOF 2
