REMARK  5 active torsions:
REMARK  status: ('A' for Active; 'I' for Inactive)
REMARK    1  A    between atoms: N_10  and  C_11 
REMARK    2  A    between atoms: C_11  and  C_12 
REMARK    3  A    between atoms: C_14  and  C_15 
REMARK    4  A    between atoms: C_15  and  N_16 
REMARK       I    between atoms: N_16  and  C_17 
REMARK    5  A    between atoms: C_17  and  C_19 
ROOT
ATOM      1  N   UNL d   1      10.850   8.101 -20.421  0.00  0.00    -0.191 NA
ATOM      2  C   UNL d   1      11.086   7.352 -19.572  0.00  0.00     0.101 C 
ATOM      3  C   UNL d   1      11.382   6.410 -18.504  0.00  0.00     0.068 A 
ATOM      4  C   UNL d   1      12.691   5.918 -18.320  0.00  0.00     0.010 A 
ATOM      5  C   UNL d   1      12.972   5.004 -17.284  0.00  0.00    -0.004 A 
ATOM      6  C   UNL d   1      11.944   4.575 -16.425  0.00  0.00    -0.022 A 
ATOM      7  C   UNL d   1      10.634   5.069 -16.599  0.00  0.00     0.008 A 
ATOM      8  C   UNL d   1      10.354   5.981 -17.638  0.00  0.00     0.008 A 
ATOM      9  C   UNL d   1       9.514   4.566 -15.707  0.00  0.00     0.276 C 
ATOM     10  N   UNL d   1       9.972   3.986 -14.448  0.00  0.00     0.142 N 
ATOM     11  C   UNL d   1      10.956   2.942 -14.719  0.00  0.00     0.255 C 
ATOM     12  C   UNL d   1      12.230   3.601 -15.297  0.00  0.00     0.061 C 
ENDROOT
BRANCH  10  13
ATOM     13  C   UNL d   1       8.826   3.489 -13.694  0.00  0.00     0.251 C 
BRANCH  13  14
ATOM     14  C   UNL d   1       8.277   4.569 -12.776  0.00  0.00     0.035 A 
ATOM     15  C   UNL d   1       9.036   4.912 -11.509  0.00  0.00     0.026 A 
ATOM     16  C   UNL d   1       8.942   5.930 -12.621  0.00  0.00     0.004 A 
BRANCH  15  17
ATOM     17  C   UNL d   1       8.322   5.208 -10.207  0.00  0.00     0.129 C 
BRANCH  17  18
ATOM     18  N   UNL d   1       9.151   5.819  -9.178  0.00  0.00    -0.233 NA
ATOM     19  C   UNL d   1       9.836   6.972  -9.292  0.00  0.00     0.293 C 
ATOM     20  O   UNL d   1       9.948   7.612 -10.336  0.00  0.00    -0.264 OA
BRANCH  19  21
ATOM     21  C   UNL d   1      10.427   7.499  -8.050  0.00  0.00     0.139 A 
ATOM     22  N   UNL d   1      10.547   6.681  -6.939  0.00  0.00    -0.241 NA
ATOM     23  C   UNL d   1      11.117   7.361  -5.889  0.00  0.00     0.082 A 
ATOM     24  C   UNL d   1      11.367   8.678  -6.371  0.00  0.00     0.019 A 
ATOM     25  C   UNL d   1      11.454   6.960  -4.588  0.00  0.00     0.019 A 
ATOM     26  C   UNL d   1      10.932   8.736  -7.740  0.00  0.00     0.025 A 
ATOM     27  C   UNL d   1      11.960   9.591  -5.467  0.00  0.00     0.002 A 
ATOM     28  C   UNL d   1      12.293   9.194  -4.154  0.00  0.00     0.000 A 
ATOM     29  C   UNL d   1      12.044   7.883  -3.712  0.00  0.00     0.002 A 
ENDBRANCH  19  21
ENDBRANCH  17  18
ENDBRANCH  15  17
ENDBRANCH  13  14
ENDBRANCH  10  13
TORSDOF 5
