REMARK  7 active torsions:
REMARK  status: ('A' for Active; 'I' for Inactive)
REMARK    1  A    between atoms: C_2  and  C_5 
REMARK       I    between atoms: C_5  and  N_7 
REMARK    2  A    between atoms: N_7  and  C_8 
REMARK    3  A    between atoms: C_8  and  C_9 
REMARK    4  A    between atoms: C_9  and  C_10 
REMARK    5  A    between atoms: C_10  and  C_11 
REMARK    6  A    between atoms: C_11  and  N_12 
REMARK    7  A    between atoms: N_15  and  C_16 
ROOT
ATOM      1  N   UNL d   1      10.274   6.848  -9.056  0.00  0.00     0.141 N 
ATOM      2  C   UNL d   1      10.501   8.250  -8.678  0.00  0.00     0.274 C 
ATOM      3  C   UNL d   1      11.691   8.337  -7.711  0.00  0.00     0.137 C 
ATOM      4  N   UNL d   1      11.431   7.507  -6.545  0.00  0.00    -0.344 N 
ATOM      5  C   UNL d   1      11.056   6.143  -6.851  0.00  0.00     0.137 C 
ATOM      6  C   UNL d   1       9.895   6.114  -7.840  0.00  0.00     0.274 C 
ENDROOT
BRANCH   1   7
ATOM      7  C   UNL d   1       9.141   6.811  -9.958  0.00  0.00     0.251 C 
BRANCH   7   8
ATOM      8  C   UNL d   1       9.148   5.596 -10.883  0.00  0.00     0.037 C 
BRANCH   8   9
ATOM      9  C   UNL d   1       8.051   5.674 -11.961  0.00  0.00     0.029 C 
BRANCH   9  10
ATOM     10  C   UNL d   1       7.821   4.322 -12.660  0.00  0.00     0.129 C 
BRANCH  10  11
ATOM     11  N   UNL d   1       9.028   3.769 -13.272  0.00  0.00    -0.238 NA
ATOM     12  C   UNL d   1       9.541   4.205 -14.437  0.00  0.00     0.250 C 
ATOM     13  O   UNL d   1       9.060   5.144 -15.060  0.00  0.00    -0.271 OA
BRANCH  12  14
ATOM     14  C   UNL d   1      10.804   3.495 -14.984  0.00  0.00     0.073 C 
ATOM     15  C   UNL d   1      12.054   4.312 -14.595  0.00  0.00     0.009 C 
ATOM     16  C   UNL d   1      10.732   3.399 -16.525  0.00  0.00     0.009 C 
ATOM     17  C   UNL d   1      10.946   2.061 -14.432  0.00  0.00     0.009 C 
ENDBRANCH  12  14
ENDBRANCH  10  11
ENDBRANCH   9  10
ENDBRANCH   8   9
ENDBRANCH   7   8
ENDBRANCH   1   7
BRANCH   4  18
ATOM     18  C   UNL d   1      11.512   7.944  -5.212  0.00  0.00     0.056 A 
ATOM     19  C   UNL d   1      11.832   7.030  -4.160  0.00  0.00     0.019 A 
ATOM     20  C   UNL d   1      12.027   7.468  -2.841  0.00  0.00     0.031 A 
ATOM     21  C   UNL d   1      11.957   8.839  -2.558  0.00  0.00     0.140 A 
ATOM     22  C   UNL d   1      11.566   9.743  -3.562  0.00  0.00     0.031 A 
ATOM     23  F   UNL d   1      12.298   9.286  -1.327  0.00  0.00    -0.204 F 
ATOM     24  C   UNL d   1      11.367   9.318  -4.887  0.00  0.00     0.019 A 
ENDBRANCH   4  18
TORSDOF 7
