REMARK  5 active torsions:
REMARK  status: ('A' for Active; 'I' for Inactive)
REMARK    1  A    between atoms: N_3  and  C_4 
REMARK    2  A    between atoms: C_4  and  C_5 
REMARK    3  A    between atoms: C_5  and  N_6 
REMARK    4  A    between atoms: C_9  and  C_10 
REMARK    5  A    between atoms: N_18  and  C_19 
ROOT
ATOM      1  O   UNL d   1      10.649   4.800 -13.246  0.00  0.00    -0.247 OA
ATOM      2  C   UNL d   1       9.427   4.719 -13.062  0.00  0.00     0.328 A 
ATOM      3  N   UNL d   1       8.726   5.410 -12.158  0.00  0.00    -0.298 N 
ATOM      4  C   UNL d   1       7.300   5.138 -12.190  0.00  0.00     0.131 A 
ATOM      5  C   UNL d   1       7.192   4.078 -13.278  0.00  0.00     0.135 A 
ATOM      6  N   UNL d   1       8.571   3.937 -13.745  0.00  0.00    -0.280 N 
ENDROOT
BRANCH   3   7
ATOM      7  C   UNL d   1       9.275   6.408 -11.256  0.00  0.00     0.141 C 
BRANCH   7   8
ATOM      8  C   UNL d   1       9.477   5.816  -9.856  0.00  0.00     0.274 C 
BRANCH   8   9
ATOM      9  N   UNL d   1      10.175   6.748  -8.973  0.00  0.00     0.139 N 
ATOM     10  C   UNL d   1       9.334   7.902  -8.678  0.00  0.00     0.251 C 
ATOM     11  C   UNL d   1      10.093   8.901  -7.814  0.00  0.00     0.044 C 
ATOM     12  C   UNL d   1      10.528   8.273  -6.483  0.00  0.00     0.099 C 
ATOM     13  C   UNL d   1      11.278   6.964  -6.783  0.00  0.00     0.044 C 
ATOM     14  C   UNL d   1      10.463   6.060  -7.719  0.00  0.00     0.251 C 
BRANCH  12  15
ATOM     15  C   UNL d   1      11.367   9.251  -5.639  0.00  0.00     0.398 C 
ATOM     16  F   UNL d   1      11.753   8.678  -4.503  0.00  0.00    -0.170 F 
ATOM     17  F   UNL d   1      12.448   9.622  -6.314  0.00  0.00    -0.170 F 
ATOM     18  F   UNL d   1      10.670  10.343  -5.338  0.00  0.00    -0.170 F 
ENDBRANCH  12  15
ENDBRANCH   8   9
ENDBRANCH   7   8
ENDBRANCH   3   7
BRANCH   6  19
ATOM     19  C   UNL d   1       8.954   3.032 -14.772  0.00  0.00     0.066 A 
ATOM     20  C   UNL d   1       9.950   3.382 -15.713  0.00  0.00     0.045 A 
ATOM     21  C   UNL d   1      10.345   2.481 -16.712  0.00  0.00     0.132 A 
ATOM     22  C   UNL d   1       9.739   1.213 -16.803  0.00  0.00     0.028 A 
ATOM     23  O   UNL d   1      11.324   2.848 -17.593  0.00  0.00    -0.190 OA
ATOM     24  C   UNL d   1       8.732   0.856 -15.880  0.00  0.00     0.004 A 
ATOM     25  C   UNL d   1       8.338   1.764 -14.873  0.00  0.00     0.018 A 
ENDBRANCH   6  19
TORSDOF 5
