REMARK  5 active torsions:
REMARK  status: ('A' for Active; 'I' for Inactive)
REMARK    1  A    between atoms: C_2  and  C_3 
REMARK    2  A    between atoms: C_3  and  N_4 
REMARK    3  A    between atoms: C_12  and  O_13 
REMARK    4  A    between atoms: O_13  and  S_14 
REMARK    5  A    between atoms: S_14  and  C_17 
ROOT
ATOM      1  N   UNL d   1       7.246   4.585 -12.291  0.00  0.00     0.140 N 
ATOM      2  C   UNL d   1       6.238   3.688 -11.718  0.00  0.00     0.251 C 
ATOM      3  C   UNL d   1       5.846   2.639 -12.767  0.00  0.00     0.042 C 
ATOM      4  C   UNL d   1       6.662   3.059 -13.975  0.00  0.00     0.055 C 
ATOM      5  C   UNL d   1       7.080   2.022 -14.983  0.00  0.00    -0.023 A 
ATOM      6  C   UNL d   1       6.212   0.949 -15.266  0.00  0.00    -0.004 A 
ATOM      7  C   UNL d   1       6.496   0.081 -16.330  0.00  0.00     0.002 A 
ATOM      8  C   UNL d   1       7.659   0.264 -17.087  0.00  0.00     0.025 A 
ATOM      9  C   UNL d   1       8.546   1.323 -16.794  0.00  0.00     0.109 A 
ATOM     10  C   UNL d   1       8.255   2.220 -15.734  0.00  0.00    -0.002 A 
ATOM     11  C   UNL d   1       9.219   3.384 -15.437  0.00  0.00     0.030 C 
ATOM     12  C   UNL d   1       8.752   4.426 -14.390  0.00  0.00     0.038 C 
ATOM     13  C   UNL d   1       7.854   3.765 -13.336  0.00  0.00     0.224 C 
ENDROOT
BRANCH   9  14
ATOM     14  O   UNL d   1       9.677   1.482 -17.528  0.00  0.00    -0.225 OA
BRANCH  14  15
ATOM     15  S   UNL d   1      10.938   0.439 -17.130  0.00  0.00     0.374 S 
ATOM     16  O   UNL d   1      11.044   0.408 -15.664  0.00  0.00    -0.189 OA
ATOM     17  O   UNL d   1      10.749  -0.803 -17.899  0.00  0.00    -0.189 OA
BRANCH  15  18
ATOM     18  C   UNL d   1      12.342   1.408 -17.831  0.00  0.00     0.524 C 
ATOM     19  F   UNL d   1      13.178   0.571 -18.444  0.00  0.00    -0.155 F 
ATOM     20  F   UNL d   1      11.876   2.290 -18.715  0.00  0.00    -0.155 F 
ATOM     21  F   UNL d   1      12.966   2.048 -16.843  0.00  0.00    -0.155 F 
ENDBRANCH  15  18
ENDBRANCH  14  15
ENDBRANCH   9  14
BRANCH   1  22
ATOM     22  C   UNL d   1       6.662   5.820 -12.802  0.00  0.00     0.276 C 
BRANCH  22  23
ATOM     23  C   UNL d   1       5.921   6.668 -11.810  0.00  0.00     0.009 C 
ATOM     24  C   UNL d   1       5.446   7.886 -12.082  0.00  0.00    -0.003 C 
ENDBRANCH  22  23
ENDBRANCH   1  22
TORSDOF 5
