REMARK  8 active torsions:
REMARK  status: ('A' for Active; 'I' for Inactive)
REMARK    1  A    between atoms: C_3  and  S_4 
REMARK    2  A    between atoms: S_4  and  C_5 
REMARK    3  A    between atoms: C_5  and  C_6 
REMARK    4  A    between atoms: C_6  and  C_7 
REMARK    5  A    between atoms: C_7  and  N_8 
REMARK    6  A    between atoms: N_13  and  C_14 
REMARK    7  A    between atoms: C_17  and  C_18 
REMARK    8  A    between atoms: C_28  and  C_29 
ROOT
ATOM      1  N   UNL d   1      10.228   3.389 -14.539  0.00  0.00     0.138 N 
ATOM      2  C   UNL d   1       8.799   3.304 -14.820  0.00  0.00     0.252 C 
ATOM      3  C   UNL d   1       8.256   4.553 -14.127  0.00  0.00     0.052 C 
ATOM      4  C   UNL d   1       6.902   4.395 -13.427  0.00  0.00     0.021 C 
ATOM      5  C   UNL d   1       7.119   5.115 -12.092  0.00  0.00     0.077 C 
ATOM      6  N   UNL d   1       8.519   4.870 -11.765  0.00  0.00    -0.252 NA
ATOM      7  C   UNL d   1       9.248   4.842 -13.023  0.00  0.00     0.097 C 
ATOM      8  C   UNL d   1      10.263   3.718 -13.126  0.00  0.00     0.266 C 
ENDROOT
BRANCH   1   9
ATOM      9  C   UNL d   1      10.937   2.149 -14.828  0.00  0.00     0.251 C 
BRANCH   9  10
ATOM     10  C   UNL d   1      11.666   2.216 -16.185  0.00  0.00     0.047 C 
BRANCH  10  11
ATOM     11  C   UNL d   1      10.788   2.541 -17.430  0.00  0.00     0.067 C 
BRANCH  11  12
ATOM     12  S   UNL d   1      10.043   4.187 -17.436  0.00  0.00    -0.075 SA
BRANCH  12  13
ATOM     13  C   UNL d   1      11.471   5.245 -17.424  0.00  0.00     0.193 A 
ATOM     14  N   UNL d   1      11.566   6.327 -18.238  0.00  0.00    -0.289 N 
ATOM     15  C   UNL d   1      10.533   6.839 -19.107  0.00  0.00     0.134 C 
ATOM     16  C   UNL d   1      12.815   6.760 -18.011  0.00  0.00     0.167 A 
ATOM     17  N   UNL d   1      13.439   6.071 -17.038  0.00  0.00    -0.128 NA
ATOM     18  N   UNL d   1      12.553   5.071 -16.657  0.00  0.00    -0.122 NA
BRANCH  16  19
ATOM     19  C   UNL d   1      13.464   7.861 -18.703  0.00  0.00     0.039 A 
ATOM     20  C   UNL d   1      13.260   8.070 -20.081  0.00  0.00     0.024 A 
ATOM     21  C   UNL d   1      13.883   9.181 -20.685  0.00  0.00     0.099 A 
ATOM     22  N   UNL d   1      14.679  10.043 -20.009  0.00  0.00    -0.242 NA
ATOM     23  C   UNL d   1      14.874   9.825 -18.688  0.00  0.00     0.099 A 
ATOM     24  C   UNL d   1      14.289   8.748 -17.993  0.00  0.00     0.024 A 
ENDBRANCH  16  19
ENDBRANCH  12  13
ENDBRANCH  11  12
ENDBRANCH  10  11
ENDBRANCH   9  10
ENDBRANCH   1   9
BRANCH   6  25
ATOM     25  C   UNL d   1       9.065   5.678 -10.759  0.00  0.00     0.036 A 
ATOM     26  C   UNL d   1       9.508   7.000 -11.037  0.00  0.00     0.011 A 
ATOM     27  C   UNL d   1      10.060   7.802 -10.031  0.00  0.00     0.005 A 
ATOM     28  C   UNL d   1      10.193   7.297  -8.722  0.00  0.00     0.071 A 
ATOM     29  C   UNL d   1       9.746   5.989  -8.434  0.00  0.00     0.005 A 
ATOM     30  C   UNL d   1       9.187   5.183  -9.442  0.00  0.00     0.011 A 
BRANCH  28  31
ATOM     31  C   UNL d   1      10.796   8.174  -7.643  0.00  0.00     0.419 C 
ATOM     32  F   UNL d   1      11.086   7.479  -6.538  0.00  0.00    -0.166 F 
ATOM     33  F   UNL d   1      11.921   8.724  -8.099  0.00  0.00    -0.166 F 
ATOM     34  F   UNL d   1       9.939   9.146  -7.329  0.00  0.00    -0.166 F 
ENDBRANCH  28  31
ENDBRANCH   6  25
TORSDOF 8
