REMARK  7 active torsions:
REMARK  status: ('A' for Active; 'I' for Inactive)
REMARK    1  A    between atoms: C_2  and  C_3 
REMARK    2  A    between atoms: C_3  and  N_4 
REMARK    3  A    between atoms: N_4  and  C_5 
REMARK    4  A    between atoms: N_4  and  C_8 
REMARK    5  A    between atoms: C_5  and  C_6 
REMARK    6  A    between atoms: C_16  and  C_17 
REMARK    7  A    between atoms: C_17  and  C_19 
ROOT
ATOM      1  C   UNL d   1       8.706   1.817 -15.825  0.00  0.00     0.253 C 
ATOM      2  C   UNL d   1       9.799   2.216 -14.817  0.00  0.00     0.182 C 
ATOM      3  O   UNL d   1       9.466   3.459 -14.188  0.00  0.00    -0.329 OA
ATOM      4  C   UNL d   1       8.200   3.599 -13.666  0.00  0.00     0.093 A 
ATOM      5  C   UNL d   1       7.136   2.747 -14.037  0.00  0.00     0.002 A 
ATOM      6  C   UNL d   1       5.865   2.878 -13.438  0.00  0.00    -0.002 A 
ATOM      7  C   UNL d   1       5.633   3.909 -12.519  0.00  0.00    -0.000 A 
ATOM      8  C   UNL d   1       6.667   4.805 -12.173  0.00  0.00     0.005 A 
ATOM      9  C   UNL d   1       7.970   4.635 -12.719  0.00  0.00     0.061 A 
ATOM     10  C   UNL d   1       7.377   1.643 -15.056  0.00  0.00     0.064 C 
ENDROOT
BRANCH   1  11
ATOM     11  N   UNL d   1       9.023   0.611 -16.635  0.00  0.00     0.138 N 
BRANCH  11  12
ATOM     12  C   UNL d   1       7.931   0.298 -17.584  0.00  0.00     0.250 C 
BRANCH  12  13
ATOM     13  C   UNL d   1       7.751   1.387 -18.665  0.00  0.00     0.035 C 
ATOM     14  C   UNL d   1       6.619   1.087 -19.632  0.00  0.00     0.002 C 
ENDBRANCH  12  13
ENDBRANCH  11  12
BRANCH  11  15
ATOM     15  C   UNL d   1      10.330   0.649 -17.289  0.00  0.00     0.250 C 
BRANCH  15  16
ATOM     16  C   UNL d   1      10.701  -0.668 -18.004  0.00  0.00     0.035 C 
ATOM     17  C   UNL d   1      12.056  -0.600 -18.708  0.00  0.00     0.002 C 
ENDBRANCH  15  16
ENDBRANCH  11  15
ENDBRANCH   1  11
BRANCH   9  18
ATOM     18  C   UNL d   1       9.068   5.536 -12.305  0.00  0.00     0.198 C 
ATOM     19  O   UNL d   1       9.861   5.983 -13.156  0.00  0.00    -0.286 OA
BRANCH  18  20
ATOM     20  C   UNL d   1       9.233   5.837 -10.872  0.00  0.00     0.046 A 
ATOM     21  C   UNL d   1      10.018   6.868 -10.430  0.00  0.00     0.039 A 
ATOM     22  S   UNL d   1       9.983   7.022  -8.697  0.00  0.00    -0.086 SA
ATOM     23  C   UNL d   1       8.915   5.660  -8.571  0.00  0.00     0.035 A 
ATOM     24  C   UNL d   1       8.623   5.120  -9.797  0.00  0.00     0.011 A 
ENDBRANCH  18  20
ENDBRANCH   9  18
TORSDOF 7
