REMARK  8 active torsions:
REMARK  status: ('A' for Active; 'I' for Inactive)
REMARK    1  A    between atoms: O_2  and  C_3 
REMARK    2  A    between atoms: C_8  and  N_9 
REMARK    3  A    between atoms: N_12  and  C_13 
REMARK    4  A    between atoms: C_13  and  C_14 
REMARK    5  A    between atoms: C_14  and  C_15 
REMARK    6  A    between atoms: C_15  and  C_16 
REMARK    7  A    between atoms: C_16  and  C_17 
REMARK    8  A    between atoms: N_19  and  C_20 
ROOT
ATOM      1  C   UNL d   1       7.794   6.789 -12.399  0.00  0.00     0.009 C 
ENDROOT
BRANCH   1   2
ATOM      2  C   UNL d   1       8.011   5.274 -12.594  0.00  0.00     0.036 C 
BRANCH   2   3
ATOM      3  C   UNL d   1       6.697   4.527 -12.781  0.00  0.00     0.250 C 
BRANCH   3   4
ATOM      4  N   UNL d   1       6.979   3.196 -13.254  0.00  0.00     0.141 N 
ATOM      5  C   UNL d   1       5.903   2.268 -12.916  0.00  0.00     0.274 C 
ATOM      6  C   UNL d   1       6.252   0.824 -13.379  0.00  0.00     0.137 C 
ATOM      7  N   UNL d   1       6.510   0.835 -14.823  0.00  0.00    -0.343 N 
ATOM      8  C   UNL d   1       7.547   1.788 -15.219  0.00  0.00     0.137 C 
ATOM      9  C   UNL d   1       7.199   3.167 -14.685  0.00  0.00     0.274 C 
BRANCH   7  10
ATOM     10  C   UNL d   1       5.862   0.015 -15.766  0.00  0.00     0.079 A 
ATOM     11  C   UNL d   1       4.524  -0.459 -15.591  0.00  0.00     0.110 A 
ATOM     12  C   UNL d   1       3.938  -1.279 -16.574  0.00  0.00     0.026 A 
ATOM     13  C   UNL d   1       4.625  -1.616 -17.748  0.00  0.00     0.002 A 
ATOM     14  C   UNL d   1       5.932  -1.146 -17.942  0.00  0.00     0.002 A 
ATOM     15  C   UNL d   1       6.543  -0.361 -16.957  0.00  0.00     0.019 A 
BRANCH  11  16
ATOM     16  O   UNL d   1       3.786  -0.018 -14.517  0.00  0.00    -0.327 OA
ATOM     17  C   UNL d   1       2.751  -0.836 -14.037  0.00  0.00     0.181 C 
ENDBRANCH  11  16
ENDBRANCH   7  10
ENDBRANCH   3   4
ENDBRANCH   2   3
ENDBRANCH   1   2
BRANCH   1  18
ATOM     18  C   UNL d   1       9.068   7.602 -12.096  0.00  0.00     0.049 C 
BRANCH  18  19
ATOM     19  C   UNL d   1       9.602   7.429 -10.695  0.00  0.00     0.101 A 
ATOM     20  N   UNL d   1       9.874   6.173 -10.165  0.00  0.00    -0.133 NA
ATOM     21  N   UNL d   1      10.227   6.281  -8.939  0.00  0.00    -0.060 NA
ATOM     22  N   UNL d   1      10.306   7.596  -8.664  0.00  0.00    -0.209 N 
ATOM     23  C   UNL d   1       9.928   8.359  -9.765  0.00  0.00     0.119 A 
BRANCH  22  24
ATOM     24  C   UNL d   1      10.761   8.017  -7.400  0.00  0.00     0.085 A 
ATOM     25  C   UNL d   1      10.877   7.110  -6.324  0.00  0.00     0.019 A 
ATOM     26  C   UNL d   1      11.357   7.561  -5.081  0.00  0.00     0.002 A 
ATOM     27  C   UNL d   1      11.704   8.915  -4.886  0.00  0.00     0.000 A 
ATOM     28  C   UNL d   1      11.478   6.656  -4.019  0.00  0.00     0.000 A 
ATOM     29  C   UNL d   1      11.597   9.818  -5.967  0.00  0.00     0.002 A 
ATOM     30  C   UNL d   1      12.157   9.339  -3.619  0.00  0.00     0.000 A 
ATOM     31  C   UNL d   1      11.148   9.349  -7.215  0.00  0.00     0.019 A 
ATOM     32  C   UNL d   1      12.281   8.422  -2.562  0.00  0.00     0.000 A 
ATOM     33  C   UNL d   1      11.938   7.075  -2.760  0.00  0.00     0.000 A 
ENDBRANCH  22  24
ENDBRANCH  18  19
ENDBRANCH   1  18
TORSDOF 8
