REMARK  5 active torsions:
REMARK  status: ('A' for Active; 'I' for Inactive)
REMARK    1  A    between atoms: N_11  and  C_12 
REMARK    2  A    between atoms: C_12  and  C_13 
REMARK    3  A    between atoms: C_13  and  C_14 
REMARK    4  A    between atoms: C_14  and  N_15 
REMARK    5  A    between atoms: N_18  and  C_19 
ROOT
ATOM      1  C   UNL d   1       9.660   5.517 -11.053  0.00  0.00     0.252 C 
ENDROOT
BRANCH   1   2
ATOM      2  C   UNL d   1       8.375   5.098 -11.778  0.00  0.00     0.060 C 
BRANCH   2   3
ATOM      3  C   UNL d   1       8.541   5.132 -13.317  0.00  0.00     0.111 C 
BRANCH   3   4
ATOM      4  N   UNL d   1       9.144   3.902 -13.863  0.00  0.00    -0.299 N 
ATOM      5  C   UNL d   1      10.487   3.828 -14.042  0.00  0.00     0.238 C 
ATOM      6  O   UNL d   1      11.260   4.762 -13.818  0.00  0.00    -0.272 OA
ATOM      7  C   UNL d   1      11.099   2.499 -14.516  0.00  0.00     0.093 C 
ATOM      8  C   UNL d   1      10.180   1.737 -15.474  0.00  0.00     0.038 C 
ATOM      9  C   UNL d   1       8.745   1.710 -14.961  0.00  0.00    -0.006 A 
ATOM     10  C   UNL d   1       8.262   2.803 -14.193  0.00  0.00     0.058 A 
ATOM     11  C   UNL d   1       7.901   0.620 -15.281  0.00  0.00    -0.003 A 
ATOM     12  C   UNL d   1       6.913   2.761 -13.756  0.00  0.00     0.017 A 
ATOM     13  C   UNL d   1       6.088   1.662 -14.045  0.00  0.00     0.002 A 
ATOM     14  C   UNL d   1       6.571   0.596 -14.823  0.00  0.00    -0.000 A 
ENDBRANCH   3   4
ENDBRANCH   2   3
ENDBRANCH   1   2
BRANCH   1  15
ATOM     15  N   UNL d   1       9.390   6.394  -9.922  0.00  0.00     0.141 N 
ATOM     16  C   UNL d   1      10.486   7.352  -9.738  0.00  0.00     0.274 C 
ATOM     17  C   UNL d   1      10.164   8.338  -8.599  0.00  0.00     0.137 C 
ATOM     18  N   UNL d   1       9.880   7.587  -7.387  0.00  0.00    -0.344 N 
ATOM     19  C   UNL d   1       8.848   6.567  -7.507  0.00  0.00     0.137 C 
ATOM     20  C   UNL d   1       9.165   5.628  -8.691  0.00  0.00     0.274 C 
BRANCH  18  21
ATOM     21  C   UNL d   1      10.533   7.871  -6.179  0.00  0.00     0.056 A 
ATOM     22  C   UNL d   1      10.708   9.204  -5.751  0.00  0.00     0.018 A 
ATOM     23  C   UNL d   1      11.360   9.481  -4.532  0.00  0.00     0.013 A 
ATOM     24  C   UNL d   1      11.868   8.430  -3.747  0.00  0.00     0.058 A 
ATOM     25  C   UNL d   1      11.704   7.100  -4.164  0.00  0.00     0.013 A 
ATOM     26 CL   UNL d   1      12.659   8.760  -2.248  0.00  0.00    -0.082 Cl
ATOM     27  C   UNL d   1      11.038   6.828  -5.375  0.00  0.00     0.018 A 
ENDBRANCH  18  21
ENDBRANCH   1  15
TORSDOF 5
