REMARK  2 active torsions:
REMARK  status: ('A' for Active; 'I' for Inactive)
REMARK    1  A    between atoms: N_5  and  C_6 
REMARK    2  A    between atoms: C_18  and  C_19 
ROOT
ATOM      1  C   UNL d   1       9.630   3.250 -16.670  0.00  0.00     0.246 C 
ATOM      2  C   UNL d   1       9.163   2.570 -15.362  0.00  0.00     0.065 C 
ATOM      3  C   UNL d   1       8.775   3.523 -14.240  0.00  0.00    -0.014 A 
ATOM      4  C   UNL d   1       7.426   3.704 -13.876  0.00  0.00    -0.004 A 
ATOM      5  C   UNL d   1       7.094   4.586 -12.827  0.00  0.00    -0.000 A 
ATOM      6  C   UNL d   1       8.109   5.279 -12.138  0.00  0.00     0.001 A 
ATOM      7  C   UNL d   1       9.456   5.092 -12.495  0.00  0.00     0.006 A 
ATOM      8  C   UNL d   1       9.783   4.210 -13.543  0.00  0.00     0.025 A 
ATOM      9  S   UNL d   1      11.453   3.994 -14.042  0.00  0.00    -0.087 SA
ATOM     10  C   UNL d   1      11.366   4.894 -15.553  0.00  0.00     0.027 A 
ATOM     11  C   UNL d   1      12.216   6.013 -15.680  0.00  0.00     0.006 A 
ATOM     12  C   UNL d   1      12.234   6.769 -16.866  0.00  0.00     0.004 A 
ATOM     13  C   UNL d   1      11.372   6.431 -17.925  0.00  0.00     0.037 A 
ATOM     14  C   UNL d   1      10.484   5.340 -17.777  0.00  0.00     0.001 A 
ATOM     15  C   UNL d   1      10.494   4.525 -16.618  0.00  0.00     0.015 A 
ENDROOT
BRANCH   1  16
ATOM     16  N   UNL d   1      10.215   2.237 -17.587  0.00  0.00     0.144 N 
ATOM     17  C   UNL d   1      11.637   1.988 -17.307  0.00  0.00     0.286 C 
ATOM     18  C   UNL d   1      12.226   0.897 -18.218  0.00  0.00     0.286 C 
ATOM     19  N   UNL d   1      12.047   1.236 -19.627  0.00  0.00     0.143 N 
ATOM     20  C   UNL d   1      12.630   0.215 -20.488  0.00  0.00     0.285 C 
ATOM     21  C   UNL d   1      10.628   1.433 -19.908  0.00  0.00     0.286 C 
ATOM     22  C   UNL d   1      10.061   2.545 -19.016  0.00  0.00     0.286 C 
ENDBRANCH   1  16
BRANCH  13  23
ATOM     23  C   UNL d   1      11.386   7.194 -19.177  0.00  0.00     0.183 A 
ATOM     24  N   UNL d   1      10.250   7.519 -19.796  0.00  0.00    -0.148 NA
ATOM     25  N   UNL d   1      10.699   8.216 -20.861  0.00  0.00    -0.228 N 
ATOM     26  C   UNL d   1      12.039   8.238 -20.816  0.00  0.00     0.197 A 
ATOM     27  C   UNL d   1       9.772   8.780 -21.816  0.00  0.00     0.156 C 
ATOM     28  N   UNL d   1      12.551   7.605 -19.769  0.00  0.00    -0.204 NA
ENDBRANCH  13  23
TORSDOF 2
