REMARK  10 active torsions:
REMARK  status: ('A' for Active; 'I' for Inactive)
REMARK    1  A    between atoms: C_2  and  C_3 
REMARK       I    between atoms: C_2  and  N_26 
REMARK    2  A    between atoms: C_3  and  C_4 
REMARK    3  A    between atoms: C_4  and  C_5 
REMARK    4  A    between atoms: C_5  and  C_6 
REMARK    5  A    between atoms: C_6  and  C_7 
REMARK    6  A    between atoms: C_7  and  N_8 
REMARK    7  A    between atoms: N_11  and  C_12 
REMARK    8  A    between atoms: C_17  and  C_18 
REMARK    9  A    between atoms: N_26  and  C_27 
REMARK   10  A    between atoms: C_27  and  C_28 
ROOT
ATOM      1  N   UNL d   1       8.197   4.322 -12.967  0.00  0.00     0.141 N 
ATOM      2  C   UNL d   1       7.081   4.238 -13.908  0.00  0.00     0.274 C 
ATOM      3  C   UNL d   1       6.857   2.799 -14.326  0.00  0.00     0.137 C 
ATOM      4  N   UNL d   1       8.077   2.211 -14.884  0.00  0.00    -0.344 N 
ATOM      5  C   UNL d   1       9.244   2.346 -14.043  0.00  0.00     0.137 C 
ATOM      6  C   UNL d   1       9.413   3.810 -13.639  0.00  0.00     0.274 C 
ENDROOT
BRANCH   1   7
ATOM      7  C   UNL d   1       8.340   5.734 -12.631  0.00  0.00     0.250 C 
BRANCH   7   8
ATOM      8  C   UNL d   1       9.458   5.997 -11.629  0.00  0.00     0.035 C 
BRANCH   8   9
ATOM      9  C   UNL d   1       9.059   6.064 -10.170  0.00  0.00     0.003 C 
BRANCH   9  10
ATOM     10  C   UNL d   1      10.185   6.576  -9.270  0.00  0.00     0.010 C 
BRANCH  10  11
ATOM     11  C   UNL d   1       9.641   7.156  -7.953  0.00  0.00     0.090 C 
BRANCH  11  12
ATOM     12  C   UNL d   1      10.663   8.045  -7.253  0.00  0.00     0.252 C 
ATOM     13  O   UNL d   1      11.863   7.885  -7.420  0.00  0.00    -0.271 OA
ATOM     14  N   UNL d   1      10.150   8.960  -6.409  0.00  0.00    -0.233 NA
BRANCH  14  15
ATOM     15  C   UNL d   1      10.921   9.724  -5.432  0.00  0.00     0.155 C 
BRANCH  15  16
ATOM     16  C   UNL d   1      11.479   8.910  -4.262  0.00  0.00     0.005 A 
ATOM     17  C   UNL d   1      11.859   9.562  -3.073  0.00  0.00     0.018 A 
ATOM     18  C   UNL d   1      12.376   8.794  -2.016  0.00  0.00     0.099 A 
ATOM     19  N   UNL d   1      12.523   7.451  -2.058  0.00  0.00    -0.243 NA
ATOM     20  C   UNL d   1      12.158   6.829  -3.191  0.00  0.00     0.099 A 
ATOM     21  C   UNL d   1      11.633   7.502  -4.303  0.00  0.00     0.018 A 
ENDBRANCH  15  16
ENDBRANCH  14  15
ENDBRANCH  11  12
ENDBRANCH  10  11
ENDBRANCH   9  10
ENDBRANCH   8   9
ENDBRANCH   7   8
ENDBRANCH   1   7
BRANCH   4  22
ATOM     22  C   UNL d   1       8.134   1.475 -16.074  0.00  0.00     0.056 A 
ATOM     23  C   UNL d   1       7.151   0.490 -16.436  0.00  0.00     0.015 A 
ATOM     24  C   UNL d   1       7.275  -0.107 -17.705  0.00  0.00     0.001 A 
ATOM     25  C   UNL d   1       8.333   0.179 -18.580  0.00  0.00     0.000 A 
ATOM     26  C   UNL d   1       9.327   1.091 -18.189  0.00  0.00     0.002 A 
ATOM     27  C   UNL d   1       9.226   1.726 -16.945  0.00  0.00     0.017 A 
BRANCH  23  28
ATOM     28  C   UNL d   1       6.034   0.061 -15.556  0.00  0.00     0.001 C 
ATOM     29  C   UNL d   1       6.114   0.120 -14.148  0.00  0.00     0.000 C 
ATOM     30  C   UNL d   1       5.002  -0.103 -13.342  0.00  0.00     0.000 C 
ATOM     31  C   UNL d   1       3.790  -0.558 -13.908  0.00  0.00     0.000 C 
ATOM     32  C   UNL d   1       3.726  -0.775 -15.293  0.00  0.00     0.000 C 
ATOM     33  C   UNL d   1       4.819  -0.435 -16.115  0.00  0.00     0.000 C 
ENDBRANCH  23  28
ENDBRANCH   4  22
TORSDOF 10
