REMARK  10 active torsions:
REMARK  status: ('A' for Active; 'I' for Inactive)
REMARK    1  A    between atoms: S_2  and  N_4 
REMARK    2  A    between atoms: S_2  and  C_25 
REMARK    3  A    between atoms: N_4  and  C_5 
REMARK    4  A    between atoms: C_5  and  C_6 
REMARK    5  A    between atoms: C_6  and  C_7 
REMARK    6  A    between atoms: C_7  and  C_8 
REMARK    7  A    between atoms: C_8  and  N_9 
REMARK    8  A    between atoms: C_12  and  C_13 
REMARK    9  A    between atoms: C_28  and  O_29 
REMARK   10  A    between atoms: O_29  and  C_30 
ROOT
ATOM      1  C   UNL d   1       8.440   5.248 -10.967  0.00  0.00     0.037 C 
ENDROOT
BRANCH   1   2
ATOM      2  C   UNL d   1       9.267   6.407 -10.457  0.00  0.00     0.029 C 
BRANCH   2   3
ATOM      3  C   UNL d   1       8.993   6.725  -8.978  0.00  0.00     0.139 C 
BRANCH   3   4
ATOM      4  N   UNL d   1       9.475   8.065  -8.666  0.00  0.00    -0.185 NA
BRANCH   4   5
ATOM      5  S   UNL d   1      11.107   8.475  -8.699  0.00  0.00     0.281 S 
ATOM      6  O   UNL d   1      11.859   7.411  -9.321  0.00  0.00    -0.199 OA
ATOM      7  O   UNL d   1      11.133   9.832  -9.292  0.00  0.00    -0.199 OA
BRANCH   5   8
ATOM      8  C   UNL d   1      11.448   8.504  -6.930  0.00  0.00     0.105 A 
ATOM      9  C   UNL d   1      11.043   7.441  -6.105  0.00  0.00     0.015 A 
ATOM     10  C   UNL d   1      11.377   7.445  -4.734  0.00  0.00     0.025 A 
ATOM     11  C   UNL d   1      12.123   8.518  -4.202  0.00  0.00     0.102 A 
ATOM     12  C   UNL d   1      12.560   9.546  -5.040  0.00  0.00     0.025 A 
ATOM     13  C   UNL d   1      12.182   9.567  -6.374  0.00  0.00     0.015 A 
BRANCH  11  14
ATOM     14  O   UNL d   1      12.495   8.640  -2.898  0.00  0.00    -0.253 OA
BRANCH  14  15
ATOM     15  C   UNL d   1      12.371   7.601  -2.049  0.00  0.00     0.530 C 
ATOM     16  F   UNL d   1      12.924   7.979  -0.893  0.00  0.00    -0.144 F 
ATOM     17  F   UNL d   1      11.065   7.224  -1.882  0.00  0.00    -0.144 F 
ATOM     18  F   UNL d   1      13.057   6.506  -2.444  0.00  0.00    -0.144 F 
ENDBRANCH  14  15
ENDBRANCH  11  14
ENDBRANCH   5   8
ENDBRANCH   4   5
ENDBRANCH   3   4
ENDBRANCH   2   3
ENDBRANCH   1   2
BRANCH   1  19
ATOM     19  C   UNL d   1       9.028   4.728 -12.293  0.00  0.00     0.250 C 
BRANCH  19  20
ATOM     20  N   UNL d   1       8.227   3.663 -12.862  0.00  0.00     0.137 N 
ATOM     21  C   UNL d   1       6.907   4.099 -13.304  0.00  0.00     0.251 C 
ATOM     22  C   UNL d   1       6.058   2.897 -13.717  0.00  0.00     0.041 C 
ATOM     23  C   UNL d   1       6.741   2.062 -14.819  0.00  0.00     0.047 C 
ATOM     24  C   UNL d   1       8.178   1.724 -14.420  0.00  0.00     0.041 C 
ATOM     25  C   UNL d   1       8.948   2.973 -13.940  0.00  0.00     0.251 C 
BRANCH  23  26
ATOM     26  C   UNL d   1       5.963   0.808 -15.203  0.00  0.00     0.087 A 
ATOM     27  C   UNL d   1       5.615   0.304 -16.477  0.00  0.00     0.041 A 
ATOM     28  C   UNL d   1       4.844  -0.851 -16.310  0.00  0.00     0.129 A 
ATOM     29  C   UNL d   1       5.880   0.772 -17.784  0.00  0.00     0.006 A 
ATOM     30  O   UNL d   1       4.740  -1.029 -14.940  0.00  0.00    -0.211 OA
ATOM     31  C   UNL d   1       4.332  -1.588 -17.380  0.00  0.00     0.057 A 
ATOM     32  N   UNL d   1       5.470  -0.011 -14.267  0.00  0.00    -0.131 NA
ATOM     33  C   UNL d   1       4.615  -1.135 -18.687  0.00  0.00     0.142 A 
ATOM     34  F   UNL d   1       4.159  -1.835 -19.753  0.00  0.00    -0.204 F 
ATOM     35  C   UNL d   1       5.379   0.043 -18.887  0.00  0.00     0.030 A 
ENDBRANCH  23  26
ENDBRANCH  19  20
ENDBRANCH   1  19
TORSDOF 10
