REMARK  6 active torsions:
REMARK  status: ('A' for Active; 'I' for Inactive)
REMARK    1  A    between atoms: C_2  and  N_3 
REMARK       I    between atoms: N_3  and  C_4 
REMARK    2  A    between atoms: C_4  and  C_6 
REMARK    3  A    between atoms: C_9  and  C_10 
REMARK    4  A    between atoms: N_18  and  C_19 
REMARK    5  A    between atoms: C_19  and  C_20 
REMARK    6  A    between atoms: C_20  and  N_21 
ROOT
ATOM      1  C   UNL d   1       8.697   4.773 -11.880  0.00  0.00    -0.000 A 
ATOM      2  C   UNL d   1       7.357   4.452 -12.161  0.00  0.00     0.000 A 
ATOM      3  C   UNL d   1       7.057   3.613 -13.242  0.00  0.00     0.004 A 
ATOM      4  C   UNL d   1       8.091   3.073 -14.042  0.00  0.00     0.052 A 
ATOM      5  C   UNL d   1       9.435   3.402 -13.764  0.00  0.00    -0.016 A 
ATOM      6  C   UNL d   1       9.726   4.250 -12.690  0.00  0.00    -0.004 A 
ATOM      7  C   UNL d   1      10.544   2.815 -14.608  0.00  0.00     0.051 C 
ATOM      8  C   UNL d   1      10.063   2.525 -16.036  0.00  0.00     0.109 C 
ATOM      9  N   UNL d   1       8.732   1.880 -16.070  0.00  0.00    -0.314 N 
ATOM     10  C   UNL d   1       7.781   2.098 -15.132  0.00  0.00     0.257 C 
ATOM     11  O   UNL d   1       6.663   1.565 -15.164  0.00  0.00    -0.267 OA
ENDROOT
BRANCH   1  12
ATOM     12  C   UNL d   1       9.042   5.632 -10.751  0.00  0.00    -0.000 A 
ATOM     13  C   UNL d   1       9.659   6.877 -10.982  0.00  0.00     0.000 A 
ATOM     14  C   UNL d   1      10.003   7.714  -9.907  0.00  0.00     0.005 A 
ATOM     15  C   UNL d   1       9.726   7.303  -8.583  0.00  0.00     0.058 A 
ATOM     16  C   UNL d   1       9.097   6.065  -8.357  0.00  0.00     0.005 A 
ATOM     17  C   UNL d   1       8.755   5.219  -9.431  0.00  0.00     0.000 A 
BRANCH  15  18
ATOM     18  C   UNL d   1       9.961   8.224  -7.425  0.00  0.00     0.275 C 
ATOM     19  N   UNL d   1      11.114   8.922  -7.475  0.00  0.00    -0.234 NA
ATOM     20  O   UNL d   1       9.163   8.274  -6.498  0.00  0.00    -0.266 OA
BRANCH  19  21
ATOM     21  C   UNL d   1      11.644   9.884  -6.505  0.00  0.00     0.129 C 
ATOM     22  C   UNL d   1      11.134   9.728  -5.065  0.00  0.00     0.029 C 
ENDBRANCH  19  21
ENDBRANCH  15  18
ENDBRANCH   1  12
BRANCH   9  23
ATOM     23  C   UNL d   1       8.466   1.024 -17.232  0.00  0.00     0.140 C 
BRANCH  23  24
ATOM     24  C   UNL d   1       7.469   1.698 -18.191  0.00  0.00     0.274 C 
BRANCH  24  25
ATOM     25  N   UNL d   1       7.191   0.829 -19.323  0.00  0.00     0.137 N 
ATOM     26  C   UNL d   1       5.831   0.935 -19.854  0.00  0.00     0.220 C 
ATOM     27  C   UNL d   1       5.946   0.259 -21.227  0.00  0.00     0.035 C 
ATOM     28  C   UNL d   1       4.795   0.254 -18.941  0.00  0.00     0.035 C 
ATOM     29  C   UNL d   1       7.411   0.419 -21.623  0.00  0.00     0.037 C 
ATOM     30  C   UNL d   1       8.043   1.165 -20.454  0.00  0.00     0.250 C 
ENDBRANCH  24  25
ENDBRANCH  23  24
ENDBRANCH   9  23
TORSDOF 6
