REMARK  4 active torsions:
REMARK  status: ('A' for Active; 'I' for Inactive)
REMARK    1  A    between atoms: S_2  and  C_4 
REMARK    2  A    between atoms: S_2  and  C_14 
REMARK    3  A    between atoms: C_20  and  N_21 
REMARK    4  A    between atoms: N_21  and  C_22 
ROOT
ATOM      1  C   UNL d   1       9.497   4.558 -13.424  0.00  0.00     0.192 A 
ATOM      2  N   UNL d   1      10.642   5.163 -13.644  0.00  0.00    -0.136 NA
ATOM      3  N   UNL d   1      11.387   4.272 -14.342  0.00  0.00    -0.147 NA
ATOM      4  C   UNL d   1      10.719   3.100 -14.634  0.00  0.00     0.105 A 
ATOM      5  C   UNL d   1      11.074   1.942 -15.340  0.00  0.00     0.022 A 
ATOM      6  C   UNL d   1      10.137   0.894 -15.446  0.00  0.00     0.020 A 
ATOM      7  C   UNL d   1       8.857   1.034 -14.862  0.00  0.00     0.076 A 
ATOM      8  C   UNL d   1       8.513   2.214 -14.184  0.00  0.00     0.022 A 
ATOM      9  C   UNL d   1       9.441   3.266 -14.032  0.00  0.00     0.051 A 
ENDROOT
BRANCH   1  10
ATOM     10  S   UNL d   1       8.161   5.322 -12.527  0.00  0.00     0.228 S 
ATOM     11  O   UNL d   1       7.095   4.320 -12.358  0.00  0.00    -0.216 OA
ATOM     12  O   UNL d   1       7.883   6.588 -13.218  0.00  0.00    -0.216 OA
BRANCH  10  13
ATOM     13  C   UNL d   1       8.856   5.697 -10.933  0.00  0.00     0.089 A 
ATOM     14  C   UNL d   1       9.744   6.781 -10.806  0.00  0.00     0.011 A 
ATOM     15  C   UNL d   1      10.306   7.078  -9.547  0.00  0.00     0.001 A 
ATOM     16  C   UNL d   1       9.952   6.299  -8.417  0.00  0.00     0.000 A 
ATOM     17  C   UNL d   1      11.235   8.131  -9.405  0.00  0.00     0.000 A 
ATOM     18  C   UNL d   1       9.055   5.226  -8.563  0.00  0.00     0.001 A 
ATOM     19  C   UNL d   1      10.506   6.593  -7.154  0.00  0.00     0.000 A 
ATOM     20  C   UNL d   1       8.514   4.915  -9.819  0.00  0.00     0.011 A 
ATOM     21  C   UNL d   1      11.427   7.647  -7.018  0.00  0.00     0.000 A 
ATOM     22  C   UNL d   1      11.807   8.402  -8.144  0.00  0.00     0.000 A 
ENDBRANCH  10  13
ENDBRANCH   1  10
BRANCH   7  23
ATOM     23  N   UNL d   1       7.939  -0.007 -14.912  0.00  0.00    -0.273 NA
BRANCH  23  24
ATOM     24  C   UNL d   1       6.610   0.197 -15.471  0.00  0.00     0.108 C 
ATOM     25  C   UNL d   1       6.566  -0.081 -16.993  0.00  0.00     0.062 C 
ATOM     26  C   UNL d   1       5.120  -0.021 -17.520  0.00  0.00     0.292 C 
ATOM     27  N   UNL d   1       4.277  -0.976 -16.804  0.00  0.00     0.339 N 
ATOM     28  C   UNL d   1       4.230  -0.654 -15.382  0.00  0.00     0.292 C 
ATOM     29  C   UNL d   1       5.626  -0.748 -14.766  0.00  0.00     0.062 C 
ENDBRANCH  23  24
ENDBRANCH   7  23
TORSDOF 4
