REMARK  3 active torsions:
REMARK  status: ('A' for Active; 'I' for Inactive)
REMARK    1  A    between atoms: C_10  and  C_11 
REMARK    2  A    between atoms: C_11  and  N_12 
REMARK    3  A    between atoms: C_15  and  C_16 
ROOT
ATOM      1  N   UNL d   1       8.493   5.234 -12.705  0.00  0.00     0.137 N 
ATOM      2  C   UNL d   1       8.723   4.610 -11.403  0.00  0.00     0.251 C 
ATOM      3  C   UNL d   1       9.648   5.477 -10.548  0.00  0.00     0.040 C 
ATOM      4  C   UNL d   1       9.115   6.875 -10.318  0.00  0.00     0.028 C 
ATOM      5  C   UNL d   1       8.756   7.454 -11.722  0.00  0.00     0.040 C 
ATOM      6  C   UNL d   1       7.830   6.522 -12.497  0.00  0.00     0.251 C 
ENDROOT
BRANCH   1   7
ATOM      7  C   UNL d   1       7.641   4.399 -13.547  0.00  0.00     0.251 C 
BRANCH   7   8
ATOM      8  C   UNL d   1       8.377   3.169 -14.109  0.00  0.00     0.048 C 
ATOM      9  C   UNL d   1       7.358   2.235 -14.834  0.00  0.00     0.072 C 
ATOM     10  C   UNL d   1       7.998   1.051 -15.566  0.00  0.00     0.176 C 
ATOM     11  C   UNL d   1       9.350   1.299 -16.086  0.00  0.00     0.071 A 
ATOM     12  O   UNL d   1       7.364   0.008 -15.722  0.00  0.00    -0.291 OA
ATOM     13  C   UNL d   1      10.220   0.523 -16.907  0.00  0.00     0.091 A 
ATOM     14  C   UNL d   1      10.028   2.439 -15.815  0.00  0.00     0.107 A 
ATOM     15  C   UNL d   1      10.018  -0.829 -17.502  0.00  0.00     0.055 C 
ATOM     16  N   UNL d   1      11.346   1.196 -17.117  0.00  0.00    -0.131 NA
ATOM     17  O   UNL d   1      11.236   2.425 -16.432  0.00  0.00    -0.216 OA
ATOM     18  C   UNL d   1       9.588   3.586 -14.988  0.00  0.00     0.056 C 
ENDBRANCH   7   8
ENDBRANCH   1   7
BRANCH   4  19
ATOM     19  C   UNL d   1      10.112   7.704  -9.595  0.00  0.00    -0.002 A 
ATOM     20  C   UNL d   1      10.355   7.779  -8.173  0.00  0.00     0.015 A 
ATOM     21  C   UNL d   1      11.416   8.713  -7.956  0.00  0.00     0.083 A 
ATOM     22  C   UNL d   1       9.797   7.158  -7.032  0.00  0.00     0.004 A 
ATOM     23  N   UNL d   1      11.806   9.103  -9.212  0.00  0.00    -0.244 NA
ATOM     24  C   UNL d   1      11.858   9.059  -6.673  0.00  0.00     0.049 A 
ATOM     25  C   UNL d   1      11.027   8.540 -10.172  0.00  0.00     0.095 A 
ATOM     26  C   UNL d   1      11.291   8.420  -5.558  0.00  0.00     0.142 A 
ATOM     27  F   UNL d   1      11.737   8.713  -4.311  0.00  0.00    -0.204 F 
ATOM     28  C   UNL d   1      10.277   7.459  -5.742  0.00  0.00     0.030 A 
ENDBRANCH   4  19
TORSDOF 3
