REMARK  8 active torsions:
REMARK  status: ('A' for Active; 'I' for Inactive)
REMARK    1  A    between atoms: S_2  and  N_5 
REMARK    2  A    between atoms: N_5  and  C_6 
REMARK    3  A    between atoms: C_10  and  O_11 
REMARK    4  A    between atoms: O_11  and  C_12 
REMARK    5  A    between atoms: C_12  and  C_13 
REMARK    6  A    between atoms: C_13  and  N_14 
REMARK    7  A    between atoms: C_21  and  C_22 
REMARK    8  A    between atoms: C_22  and  C_23 
ROOT
ATOM      1  N   UNL d   1      11.726   3.929 -15.492  0.00  0.00     0.140 N 
ATOM      2  C   UNL d   1      11.769   3.945 -14.021  0.00  0.00     0.250 C 
ATOM      3  C   UNL d   1      10.386   4.077 -13.329  0.00  0.00     0.034 C 
ATOM      4  C   UNL d   1       9.392   2.968 -13.727  0.00  0.00     0.002 C 
ATOM      5  C   UNL d   1       8.642   3.525 -14.931  0.00  0.00     0.002 C 
ATOM      6  C   UNL d   1       9.341   4.869 -15.232  0.00  0.00     0.034 C 
ATOM      7  C   UNL d   1      10.658   4.785 -16.067  0.00  0.00     0.250 C 
ATOM      8  C   UNL d   1       9.720   5.358 -13.828  0.00  0.00     0.008 C 
ENDROOT
BRANCH   1   9
ATOM      9  C   UNL d   1      11.831   2.560 -16.023  0.00  0.00     0.283 C 
BRANCH   9  10
ATOM     10  C   UNL d   1      12.168   2.530 -17.546  0.00  0.00     0.184 C 
BRANCH  10  11
ATOM     11  O   UNL d   1      11.765   1.322 -18.206  0.00  0.00    -0.329 OA
BRANCH  11  12
ATOM     12  C   UNL d   1      10.413   1.020 -18.267  0.00  0.00     0.096 C 
ATOM     13  C   UNL d   1       9.406   1.786 -17.656  0.00  0.00     0.024 C 
ATOM     14  C   UNL d   1       8.071   1.359 -17.604  0.00  0.00     0.004 C 
ATOM     15  C   UNL d   1       7.678   0.215 -18.306  0.00  0.00     0.020 C 
ATOM     16  C   UNL d   1       8.652  -0.528 -19.018  0.00  0.00     0.096 C 
ATOM     17  C   UNL d   1      10.022  -0.140 -18.976  0.00  0.00     0.044 C 
BRANCH  16  18
ATOM     18  N   UNL d   1       8.297  -1.637 -19.780  0.00  0.00    -0.162 NA
BRANCH  18  19
ATOM     19  S   UNL d   1       6.761  -2.411 -19.973  0.00  0.00     0.266 S 
ATOM     20  C   UNL d   1       6.093  -1.527 -21.435  0.00  0.00     0.165 C 
ATOM     21  O   UNL d   1       5.943  -2.104 -18.794  0.00  0.00    -0.203 OA
ATOM     22  O   UNL d   1       7.094  -3.798 -20.340  0.00  0.00    -0.203 OA
ENDBRANCH  18  19
ENDBRANCH  16  18
ENDBRANCH  11  12
ENDBRANCH  10  11
ENDBRANCH   9  10
ENDBRANCH   1   9
BRANCH   8  23
ATOM     23  C   UNL d   1       8.502   5.849 -13.012  0.00  0.00     0.026 C 
BRANCH  23  24
ATOM     24  C   UNL d   1       8.810   5.992 -11.541  0.00  0.00    -0.021 A 
ATOM     25  C   UNL d   1       9.461   7.144 -11.076  0.00  0.00     0.015 A 
ATOM     26  C   UNL d   1       9.776   7.268  -9.705  0.00  0.00     0.080 A 
ATOM     27  C   UNL d   1       9.402   6.247  -8.807  0.00  0.00    -0.004 A 
ATOM     28  N   UNL d   1      10.427   8.439  -9.220  0.00  0.00    -0.212 NA
ATOM     29  C   UNL d   1       8.749   5.094  -9.271  0.00  0.00    -0.003 A 
ATOM     30  C   UNL d   1       9.667   6.471  -7.330  0.00  0.00     0.038 C 
ATOM     31  C   UNL d   1       8.454   4.965 -10.642  0.00  0.00    -0.004 A 
ATOM     32  C   UNL d   1      10.927   7.320  -7.092  0.00  0.00     0.095 C 
ATOM     33  C   UNL d   1      10.950   8.551  -7.988  0.00  0.00     0.256 C 
ATOM     34  O   UNL d   1      11.484   9.604  -7.574  0.00  0.00    -0.270 OA
ENDBRANCH  23  24
ENDBRANCH   8  23
TORSDOF 8
