REMARK  4 active torsions:
REMARK  status: ('A' for Active; 'I' for Inactive)
REMARK    1  A    between atoms: O_2  and  C_3 
REMARK    2  A    between atoms: C_8  and  O_9 
REMARK    3  A    between atoms: C_14  and  C_15 
REMARK    4  A    between atoms: C_21  and  O_22 
ROOT
ATOM      1  C   UNL d   1      10.928   1.280 -16.778  0.00  0.00     0.275 C 
ATOM      2  C   UNL d   1      10.187   2.082 -15.623  0.00  0.00     0.032 A 
ATOM      3  C   UNL d   1       8.825   1.728 -15.352  0.00  0.00    -0.018 A 
ATOM      4  C   UNL d   1       8.058   2.495 -14.445  0.00  0.00     0.022 A 
ATOM      5  C   UNL d   1       8.666   3.590 -13.828  0.00  0.00     0.121 A 
ATOM      6  C   UNL d   1       9.987   3.909 -14.078  0.00  0.00     0.141 A 
ATOM      7  C   UNL d   1      10.806   3.160 -14.966  0.00  0.00     0.116 A 
ATOM      8  O   UNL d   1      10.284   5.047 -13.329  0.00  0.00    -0.298 OA
ATOM      9  C   UNL d   1       9.120   5.351 -12.616  0.00  0.00     0.304 A 
ATOM     10  O   UNL d   1       8.109   4.449 -12.948  0.00  0.00    -0.299 OA
ATOM     11  C   UNL d   1       8.197   0.548 -16.021  0.00  0.00     0.061 C 
ATOM     12  C   UNL d   1       8.934   0.011 -17.269  0.00  0.00     0.255 C 
ATOM     13  N   UNL d   1      10.360  -0.058 -16.996  0.00  0.00     0.144 N 
ATOM     14  C   UNL d   1      11.046  -0.848 -18.027  0.00  0.00     0.286 C 
ENDROOT
BRANCH   1  15
ATOM     15  C   UNL d   1      10.959   2.093 -18.125  0.00  0.00     0.183 A 
ATOM     16  C   UNL d   1      12.007   3.148 -18.144  0.00  0.00     0.015 A 
ATOM     17  C   UNL d   1      13.393   2.990 -18.121  0.00  0.00     0.001 A 
ATOM     18  C   UNL d   1      11.391   4.375 -18.210  0.00  0.00     0.086 A 
ATOM     19  C   UNL d   1      14.174   4.161 -18.132  0.00  0.00     0.026 A 
ATOM     20  C   UNL d   1      13.556   5.439 -18.139  0.00  0.00     0.116 A 
ATOM     21  C   UNL d   1      12.139   5.553 -18.208  0.00  0.00     0.121 A 
ATOM     22  C   UNL d   1       9.936   4.175 -18.300  0.00  0.00     0.298 A 
ATOM     23  O   UNL d   1       9.069   5.024 -18.354  0.00  0.00    -0.259 OA
ATOM     24  O   UNL d   1       9.753   2.835 -18.310  0.00  0.00    -0.294 OA
BRANCH  20  25
ATOM     25  O   UNL d   1      14.405   6.515 -18.090  0.00  0.00    -0.326 OA
ATOM     26  C   UNL d   1      14.143   7.452 -17.058  0.00  0.00     0.181 C 
ENDBRANCH  20  25
BRANCH  21  27
ATOM     27  O   UNL d   1      11.455   6.740 -18.282  0.00  0.00    -0.326 OA
ATOM     28  C   UNL d   1      11.638   7.408 -19.509  0.00  0.00     0.181 C 
ENDBRANCH  21  27
ENDBRANCH   1  15
BRANCH   7  29
ATOM     29  O   UNL d   1      12.124   3.444 -15.258  0.00  0.00    -0.326 OA
ATOM     30  C   UNL d   1      12.738   4.631 -14.773  0.00  0.00     0.181 C 
ENDBRANCH   7  29
TORSDOF 4
