REMARK  4 active torsions:
REMARK  status: ('A' for Active; 'I' for Inactive)
REMARK    1  A    between atoms: O_2  and  C_3 
REMARK    2  A    between atoms: C_3  and  C_4 
REMARK    3  A    between atoms: N_8  and  N_9 
REMARK    4  A    between atoms: N_12  and  C_13 
ROOT
ATOM      1  N   UNL d   1       9.581   0.649 -17.016  0.00  0.00    -0.241 N 
ATOM      2  C   UNL d   1      10.395  -0.010 -16.013  0.00  0.00     0.149 A 
ATOM      3  C   UNL d   1       9.959   0.732 -14.753  0.00  0.00     0.137 A 
ATOM      4  N   UNL d   1       8.944   1.664 -15.240  0.00  0.00    -0.279 N 
ATOM      5  C   UNL d   1       8.775   1.603 -16.568  0.00  0.00     0.342 A 
ATOM      6  O   UNL d   1       8.021   2.300 -17.254  0.00  0.00    -0.245 OA
ENDROOT
BRANCH   1   7
ATOM      7  N   UNL d   1       9.657   0.318 -18.359  0.00  0.00    -0.193 NA
ATOM      8  C   UNL d   1      10.964   0.058 -18.941  0.00  0.00     0.108 C 
ATOM      9  C   UNL d   1      10.613  -0.459 -20.340  0.00  0.00     0.022 C 
ATOM     10  C   UNL d   1       9.169  -1.006 -20.223  0.00  0.00     0.021 C 
ATOM     11  C   UNL d   1       8.796  -0.775 -18.763  0.00  0.00     0.095 C 
BRANCH   8  12
ATOM     12  C   UNL d   1      11.924   1.264 -18.938  0.00  0.00     0.160 C 
BRANCH  12  13
ATOM     13  O   UNL d   1      13.198   0.833 -19.388  0.00  0.00    -0.350 OA
ATOM     14  C   UNL d   1      14.147   1.885 -19.429  0.00  0.00     0.174 C 
ENDBRANCH  12  13
ENDBRANCH   8  12
ENDBRANCH   1   7
BRANCH   4  15
ATOM     15  C   UNL d   1       8.288   2.600 -14.419  0.00  0.00     0.065 A 
ATOM     16  C   UNL d   1       9.033   3.471 -13.605  0.00  0.00     0.029 A 
ATOM     17  C   UNL d   1       8.369   4.408 -12.783  0.00  0.00     0.059 A 
ATOM     18  C   UNL d   1       6.958   4.460 -12.776  0.00  0.00     0.011 A 
ATOM     19 CL   UNL d   1       9.280   5.493 -11.799  0.00  0.00    -0.082 Cl
ATOM     20  C   UNL d   1       6.210   3.591 -13.593  0.00  0.00     0.002 A 
ATOM     21  C   UNL d   1       6.876   2.659 -14.414  0.00  0.00     0.017 A 
ENDBRANCH   4  15
TORSDOF 4
