REMARK  6 active torsions:
REMARK  status: ('A' for Active; 'I' for Inactive)
REMARK    1  A    between atoms: C_2  and  C_4 
REMARK    2  A    between atoms: C_7  and  S_8 
REMARK    3  A    between atoms: S_8  and  C_11 
REMARK    4  A    between atoms: N_14  and  C_15 
REMARK    5  A    between atoms: C_15  and  C_16 
REMARK    6  A    between atoms: C_16  and  C_17 
ROOT
ATOM      1  C   UNL d   1       8.518   6.133 -10.936  0.00  0.00     0.116 C 
ATOM      2  C   UNL d   1       9.261   7.419 -10.568  0.00  0.00     0.052 C 
ATOM      3  C   UNL d   1       9.421   7.499  -9.057  0.00  0.00     0.251 C 
ATOM      4  N   UNL d   1      10.184   6.345  -8.583  0.00  0.00     0.137 N 
ATOM      5  C   UNL d   1       9.472   5.094  -8.885  0.00  0.00     0.251 C 
ATOM      6  C   UNL d   1       9.280   4.935 -10.393  0.00  0.00     0.052 C 
ENDROOT
BRANCH   1   7
ATOM      7  S   UNL d   1       8.408   6.044 -12.729  0.00  0.00     0.189 S 
ATOM      8  O   UNL d   1       9.783   5.925 -13.243  0.00  0.00    -0.222 OA
ATOM      9  O   UNL d   1       7.543   7.149 -13.147  0.00  0.00    -0.222 OA
BRANCH   7  10
ATOM     10  C   UNL d   1       7.571   4.531 -13.092  0.00  0.00     0.084 A 
ATOM     11  C   UNL d   1       8.212   3.543 -13.869  0.00  0.00     0.011 A 
ATOM     12  C   UNL d   1       7.543   2.338 -14.137  0.00  0.00     0.005 A 
ATOM     13  C   UNL d   1       6.229   2.127 -13.654  0.00  0.00     0.059 A 
ATOM     14  C   UNL d   1       5.612   3.122 -12.853  0.00  0.00     0.005 A 
ATOM     15  C   UNL d   1       6.272   4.340 -12.593  0.00  0.00     0.011 A 
BRANCH  13  16
ATOM     16  C   UNL d   1       5.588   0.785 -13.815  0.00  0.00     0.297 C 
ATOM     17  N   UNL d   1       5.769   0.202 -15.002  0.00  0.00    -0.102 N 
ATOM     18  O   UNL d   1       4.918   0.279 -12.930  0.00  0.00    -0.264 OA
ENDBRANCH  13  16
ENDBRANCH   7  10
ENDBRANCH   1   7
BRANCH   4  19
ATOM     19  C   UNL d   1      10.390   6.416  -7.143  0.00  0.00     0.255 C 
BRANCH  19  20
ATOM     20  C   UNL d   1      10.824   7.814  -6.630  0.00  0.00     0.064 C 
BRANCH  20  21
ATOM     21  C   UNL d   1      11.306   7.884  -5.197  0.00  0.00     0.007 A 
ATOM     22  C   UNL d   1      11.591   9.151  -4.635  0.00  0.00     0.138 A 
ATOM     23  C   UNL d   1      12.049   9.243  -3.304  0.00  0.00     0.059 A 
ATOM     24  F   UNL d   1      11.408  10.280  -5.366  0.00  0.00    -0.204 F 
ATOM     25  C   UNL d   1      12.234   8.073  -2.541  0.00  0.00     0.142 A 
ATOM     26  C   UNL d   1      11.934   6.814  -3.096  0.00  0.00     0.029 A 
ATOM     27  F   UNL d   1      12.664   8.161  -1.262  0.00  0.00    -0.204 F 
ATOM     28  C   UNL d   1      11.466   6.724  -4.415  0.00  0.00     0.000 A 
ENDBRANCH  20  21
ENDBRANCH  19  20
ENDBRANCH   4  19
TORSDOF 6
