REMARK  9 active torsions:
REMARK  status: ('A' for Active; 'I' for Inactive)
REMARK       I    between atoms: C_2  and  N_3 
REMARK       I    between atoms: C_2  and  N_19 
REMARK    1  A    between atoms: N_3  and  C_4 
REMARK    2  A    between atoms: C_4  and  C_5 
REMARK    3  A    between atoms: C_5  and  C_6 
REMARK    4  A    between atoms: C_6  and  N_7 
REMARK    5  A    between atoms: N_10  and  C_11 
REMARK    6  A    between atoms: N_19  and  N_20 
REMARK    7  A    between atoms: N_20  and  C_21 
REMARK    8  A    between atoms: N_20  and  C_29 
REMARK    9  A    between atoms: C_21  and  C_22 
ROOT
ATOM      1  O   UNL d   1       9.471   4.832 -14.976  0.00  0.00    -0.241 OA
ATOM      2  C   UNL d   1       9.031   4.136 -14.057  0.00  0.00     0.381 C 
ATOM      3  N   UNL d   1       8.959   4.543 -12.784  0.00  0.00    -0.216 NA
ATOM      4  N   UNL d   1       8.579   2.881 -14.216  0.00  0.00    -0.110 NA
ENDROOT
BRANCH   3   5
ATOM      5  C   UNL d   1       9.425   5.837 -12.288  0.00  0.00     0.133 C 
BRANCH   5   6
ATOM      6  C   UNL d   1       9.394   5.870 -10.752  0.00  0.00     0.062 C 
BRANCH   6   7
ATOM      7  C   UNL d   1      10.132   7.084 -10.142  0.00  0.00     0.253 C 
BRANCH   7   8
ATOM      8  N   UNL d   1       9.776   7.234  -8.732  0.00  0.00     0.141 N 
ATOM      9  C   UNL d   1      10.093   8.589  -8.272  0.00  0.00     0.275 C 
ATOM     10  C   UNL d   1       9.695   8.758  -6.799  0.00  0.00     0.155 C 
ATOM     11  N   UNL d   1      10.389   7.768  -5.974  0.00  0.00    -0.179 N 
ATOM     12  C   UNL d   1      10.142   6.404  -6.433  0.00  0.00     0.155 C 
ATOM     13  C   UNL d   1      10.516   6.272  -7.915  0.00  0.00     0.275 C 
BRANCH  11  14
ATOM     14  C   UNL d   1      11.160   8.090  -4.863  0.00  0.00     0.727 A 
ATOM     15  N   UNL d   1      11.158   9.357  -4.446  0.00  0.00    -0.060 NA
ATOM     16  C   UNL d   1      11.857   9.657  -3.342  0.00  0.00     0.120 A 
ATOM     17  C   UNL d   1      12.596   8.690  -2.634  0.00  0.00     0.043 A 
ATOM     18  C   UNL d   1      12.526   7.386  -3.148  0.00  0.00     0.120 A 
ATOM     19  N   UNL d   1      11.823   7.093  -4.249  0.00  0.00    -0.060 NA
ENDBRANCH  11  14
ENDBRANCH   7   8
ENDBRANCH   6   7
ENDBRANCH   5   6
ENDBRANCH   3   5
BRANCH   4  20
ATOM     20  N   UNL d   1       8.260   2.311 -15.459  0.00  0.00    -0.243 N 
BRANCH  20  21
ATOM     21  C   UNL d   1       6.809   2.173 -15.645  0.00  0.00     0.154 C 
BRANCH  21  22
ATOM     22  C   UNL d   1       6.259   0.751 -15.654  0.00  0.00     0.002 C 
ATOM     23  C   UNL d   1       5.766   0.183 -16.859  0.00  0.00    -0.000 C 
ATOM     24  C   UNL d   1       5.406  -1.162 -16.919  0.00  0.00     0.029 C 
ATOM     25  C   UNL d   1       5.370  -1.923 -15.742  0.00  0.00     0.140 C 
ATOM     26  C   UNL d   1       5.764  -1.351 -14.525  0.00  0.00     0.029 C 
ATOM     27  F   UNL d   1       5.043  -3.238 -15.816  0.00  0.00    -0.204 F 
ATOM     28  C   UNL d   1       6.201  -0.002 -14.472  0.00  0.00    -0.000 C 
ENDBRANCH  21  22
ENDBRANCH  20  21
BRANCH  20  29
ATOM     29  C   UNL d   1       9.211   1.625 -16.263  0.00  0.00     0.079 A 
ATOM     30  C   UNL d   1       8.802   0.809 -17.358  0.00  0.00     0.019 A 
ATOM     31  C   UNL d   1       9.759   0.037 -18.049  0.00  0.00     0.002 A 
ATOM     32  C   UNL d   1      11.143   0.151 -17.777  0.00  0.00     0.000 A 
ATOM     33  C   UNL d   1      11.562   1.055 -16.772  0.00  0.00     0.002 A 
ATOM     34  C   UNL d   1      10.609   1.770 -15.995  0.00  0.00     0.019 A 
ENDBRANCH  20  29
ENDBRANCH   4  20
TORSDOF 9
