REMARK  5 active torsions:
REMARK  status: ('A' for Active; 'I' for Inactive)
REMARK    1  A    between atoms: C_2  and  C_4 
REMARK    2  A    between atoms: C_4  and  C_5 
REMARK    3  A    between atoms: C_5  and  C_7 
REMARK    4  A    between atoms: C_5  and  C_11 
REMARK    5  A    between atoms: C_7  and  C_8 
ROOT
ATOM      1  C   UNL d   1      10.636   7.871  -6.633  0.00  0.00     0.224 C 
ATOM      2  O   UNL d   1      10.231   9.163  -6.249  0.00  0.00    -0.214 OA
ENDROOT
BRANCH   1   3
ATOM      3  C   UNL d   1      10.889   7.026  -5.330  0.00  0.00     0.139 C 
BRANCH   3   4
ATOM      4  C   UNL d   1      11.843   7.557  -4.252  0.00  0.00     0.188 C 
ATOM      5  O   UNL d   1      12.348   8.691  -4.276  0.00  0.00    -0.647 OA
ATOM      6  O   UNL d   1      12.045   6.658  -3.256  0.00  0.00    -0.647 OA
ENDBRANCH   3   4
ENDBRANCH   1   3
BRANCH   1   7
ATOM      7  C   UNL d   1      11.957   8.049  -7.446  0.00  0.00     0.139 C 
BRANCH   7   8
ATOM      8  C   UNL d   1      11.861   8.513  -8.903  0.00  0.00     0.188 C 
ATOM      9  O   UNL d   1      11.065   9.333  -9.315  0.00  0.00    -0.647 OA
ATOM     10  O   UNL d   1      12.893   8.005  -9.649  0.00  0.00    -0.647 OA
ENDBRANCH   7   8
ENDBRANCH   1   7
BRANCH   1  11
ATOM     11  C   UNL d   1       9.484   7.235  -7.430  0.00  0.00     0.215 C 
ATOM     12  O   UNL d   1       9.634   6.544  -8.441  0.00  0.00    -0.646 OA
ATOM     13  O   UNL d   1       8.282   7.535  -6.849  0.00  0.00    -0.646 OA
ENDBRANCH   1  11
TORSDOF 5
