REMARK  5 active torsions:
REMARK  status: ('A' for Active; 'I' for Inactive)
REMARK    1  A    between atoms: C_2  and  C_3 
REMARK    2  A    between atoms: C_3  and  N_4 
REMARK    3  A    between atoms: N_4  and  C_5 
REMARK    4  A    between atoms: N_4  and  C_8 
REMARK    5  A    between atoms: C_5  and  C_6 
ROOT
ATOM      1  C   UNL d   1      10.640   7.298  -7.249  0.00  0.00     0.254 C 
ATOM      2  C   UNL d   1      11.702   6.244  -6.857  0.00  0.00     0.182 C 
ATOM      3  O   UNL d   1      11.771   6.054  -5.451  0.00  0.00    -0.329 OA
ATOM      4  C   UNL d   1      11.776   7.178  -4.674  0.00  0.00     0.092 A 
ATOM      5  C   UNL d   1      12.186   7.049  -3.339  0.00  0.00     0.024 A 
ATOM      6  C   UNL d   1      12.243   8.200  -2.520  0.00  0.00     0.004 A 
ATOM      7  C   UNL d   1      11.882   9.436  -3.007  0.00  0.00     0.027 A 
ATOM      8  C   UNL d   1      11.440   9.581  -4.366  0.00  0.00     0.129 A 
ATOM      9  O   UNL d   1      11.061  10.780  -4.836  0.00  0.00    -0.190 OA
ATOM     10  C   UNL d   1      11.404   8.453  -5.175  0.00  0.00     0.028 A 
ATOM     11  C   UNL d   1      10.954   8.626  -6.612  0.00  0.00     0.066 C 
ENDROOT
BRANCH   1  12
ATOM     12  N   UNL d   1      10.461   7.325  -8.702  0.00  0.00     0.138 N 
BRANCH  12  13
ATOM     13  C   UNL d   1       9.698   8.476  -9.198  0.00  0.00     0.250 C 
BRANCH  13  14
ATOM     14  C   UNL d   1       9.765   8.727 -10.717  0.00  0.00     0.035 C 
ATOM     15  C   UNL d   1       9.443   7.551 -11.649  0.00  0.00     0.002 C 
ENDBRANCH  13  14
ENDBRANCH  12  13
BRANCH  12  16
ATOM     16  C   UNL d   1       9.901   6.017  -9.118  0.00  0.00     0.250 C 
BRANCH  16  17
ATOM     17  C   UNL d   1       8.849   5.380  -8.240  0.00  0.00     0.035 C 
ATOM     18  C   UNL d   1       8.534   3.991  -8.718  0.00  0.00     0.002 C 
ENDBRANCH  16  17
ENDBRANCH  12  16
ENDBRANCH   1  12
TORSDOF 5
