REMARK  6 active torsions:
REMARK  status: ('A' for Active; 'I' for Inactive)
REMARK    1  A    between atoms: C_2  and  C_3 
REMARK       I    between atoms: C_3  and  N_5 
REMARK    2  A    between atoms: N_5  and  C_6 
REMARK    3  A    between atoms: C_10  and  C_11 
REMARK    4  A    between atoms: N_13  and  S_14 
REMARK    5  A    between atoms: S_14  and  C_17 
REMARK    6  A    between atoms: C_30  and  O_31 
ROOT
ATOM      1  C   UNL d   1       9.229   3.899 -14.086  0.00  0.00     0.039 A 
ATOM      2  C   UNL d   1      10.317   4.448 -14.724  0.00  0.00     0.093 A 
ATOM      3  N   UNL d   1      10.631   3.696 -15.846  0.00  0.00    -0.231 N 
ATOM      4  C   UNL d   1       9.730   2.639 -15.974  0.00  0.00     0.075 A 
ATOM      5  C   UNL d   1       9.605   1.615 -16.947  0.00  0.00     0.020 C 
ATOM      6  C   UNL d   1       8.556   0.669 -16.817  0.00  0.00     0.026 C 
ATOM      7  C   UNL d   1       7.687   0.718 -15.693  0.00  0.00     0.094 C 
ATOM      8  C   UNL d   1       7.923   1.675 -14.701  0.00  0.00     0.026 C 
ATOM      9  C   UNL d   1       8.860   2.714 -14.833  0.00  0.00     0.022 A 
ENDROOT
BRANCH   3  10
ATOM     10  S   UNL d   1      11.921   4.040 -16.928  0.00  0.00     0.271 S 
ATOM     11  O   UNL d   1      12.634   5.202 -16.340  0.00  0.00    -0.200 OA
ATOM     12  O   UNL d   1      12.595   2.768 -17.164  0.00  0.00    -0.200 OA
BRANCH  10  13
ATOM     13  C   UNL d   1      11.074   4.570 -18.408  0.00  0.00     0.104 A 
ATOM     14  C   UNL d   1      10.009   5.484 -18.309  0.00  0.00     0.013 A 
ATOM     15  C   UNL d   1       9.329   5.888 -19.474  0.00  0.00     0.001 A 
ATOM     16  C   UNL d   1       9.719   5.374 -20.737  0.00  0.00     0.000 A 
ATOM     17  C   UNL d   1       8.259   6.798 -19.389  0.00  0.00     0.000 A 
ATOM     18  C   UNL d   1      10.786   4.456 -20.824  0.00  0.00     0.001 A 
ATOM     19  C   UNL d   1       9.035   5.787 -21.900  0.00  0.00     0.000 A 
ATOM     20  C   UNL d   1      11.465   4.049 -19.658  0.00  0.00     0.013 A 
ATOM     21  C   UNL d   1       7.969   6.703 -21.806  0.00  0.00     0.000 A 
ATOM     22  C   UNL d   1       7.582   7.210 -20.552  0.00  0.00     0.000 A 
ENDBRANCH  10  13
ENDBRANCH   3  10
BRANCH   1  23
ATOM     23  C   UNL d   1       8.542   4.391 -12.879  0.00  0.00     0.115 A 
ATOM     24  C   UNL d   1       7.205   4.400 -12.503  0.00  0.00     0.096 A 
ATOM     25  N   UNL d   1       7.193   4.996 -11.264  0.00  0.00    -0.062 NA
ATOM     26  C   UNL d   1       5.906   3.956 -13.156  0.00  0.00     0.054 C 
ATOM     27  C   UNL d   1       8.439   5.339 -10.928  0.00  0.00     0.752 A 
ATOM     28  N   UNL d   1       9.313   5.017 -11.876  0.00  0.00    -0.058 NA
BRANCH  27  29
ATOM     29  N   UNL d   1       8.696   5.946  -9.665  0.00  0.00    -0.023 NA
ATOM     30  C   UNL d   1       9.781   6.639  -9.296  0.00  0.00     0.272 C 
ATOM     31  O   UNL d   1      10.756   6.830 -10.010  0.00  0.00    -0.270 OA
BRANCH  30  32
ATOM     32  C   UNL d   1       9.763   7.226  -7.878  0.00  0.00     0.091 C 
ATOM     33  C   UNL d   1       9.988   8.745  -7.874  0.00  0.00     0.010 C 
ENDBRANCH  30  32
ENDBRANCH  27  29
ENDBRANCH   1  23
BRANCH   7  34
ATOM     34  O   UNL d   1       6.679  -0.231 -15.636  0.00  0.00    -0.328 OA
ATOM     35  C   UNL d   1       5.805  -0.205 -14.504  0.00  0.00     0.181 C 
ENDBRANCH   7  34
TORSDOF 6
