REMARK  8 active torsions:
REMARK  status: ('A' for Active; 'I' for Inactive)
REMARK    1  A    between atoms: C_2  and  O_4 
REMARK    2  A    between atoms: O_4  and  C_5 
REMARK    3  A    between atoms: C_5  and  C_6 
REMARK    4  A    between atoms: N_15  and  C_16 
REMARK    5  A    between atoms: C_16  and  C_17 
REMARK    6  A    between atoms: C_17  and  C_18 
REMARK    7  A    between atoms: C_18  and  C_19 
REMARK    8  A    between atoms: C_19  and  C_21 
ROOT
ATOM      1  C   UNL d   1       9.199   4.090 -14.185  0.00  0.00     0.124 C 
ATOM      2  C   UNL d   1      10.321   3.667 -13.206  0.00  0.00     0.068 C 
ATOM      3  C   UNL d   1       9.766   3.858 -11.786  0.00  0.00     0.253 C 
ATOM      4  N   UNL d   1       9.471   5.261 -11.449  0.00  0.00     0.137 N 
ATOM      5  C   UNL d   1       8.339   5.691 -12.242  0.00  0.00     0.253 C 
ATOM      6  C   UNL d   1       8.810   5.499 -13.703  0.00  0.00     0.068 C 
ENDROOT
BRANCH   4   7
ATOM      7  C   UNL d   1       9.151   5.412 -10.040  0.00  0.00     0.251 C 
BRANCH   7   8
ATOM      8  C   UNL d   1       9.607   6.772  -9.505  0.00  0.00     0.043 C 
BRANCH   8   9
ATOM      9  C   UNL d   1       9.482   6.781  -7.970  0.00  0.00     0.071 C 
BRANCH   9  10
ATOM     10  C   UNL d   1       9.844   8.137  -7.323  0.00  0.00     0.173 C 
ATOM     11  O   UNL d   1       9.484   9.167  -7.877  0.00  0.00    -0.291 OA
BRANCH  10  12
ATOM     12  C   UNL d   1      10.602   8.153  -6.024  0.00  0.00     0.035 A 
ATOM     13  C   UNL d   1      11.059   6.970  -5.399  0.00  0.00     0.005 A 
ATOM     14  C   UNL d   1      11.756   7.011  -4.176  0.00  0.00     0.030 A 
ATOM     15  C   UNL d   1      12.004   8.245  -3.543  0.00  0.00     0.140 A 
ATOM     16  C   UNL d   1      11.541   9.431  -4.146  0.00  0.00     0.030 A 
ATOM     17  F   UNL d   1      12.662   8.286  -2.360  0.00  0.00    -0.204 F 
ATOM     18  C   UNL d   1      10.859   9.387  -5.381  0.00  0.00     0.005 A 
ENDBRANCH  10  12
ENDBRANCH   9  10
ENDBRANCH   8   9
ENDBRANCH   7   8
ENDBRANCH   4   7
BRANCH   1  19
ATOM     19  O   UNL d   1       9.694   4.122 -15.530  0.00  0.00    -0.302 OA
BRANCH  19  20
ATOM     20  C   UNL d   1      10.796   4.794 -15.981  0.00  0.00     0.273 C 
ATOM     21  C   UNL d   1      11.077   4.571 -17.452  0.00  0.00     0.106 C 
ATOM     22  O   UNL d   1      11.539   5.543 -15.317  0.00  0.00    -0.264 OA
ENDBRANCH  19  20
ENDBRANCH   1  19
BRANCH   1  23
ATOM     23  C   UNL d   1       8.005   3.116 -14.158  0.00  0.00     0.003 A 
ATOM     24  C   UNL d   1       6.686   3.516 -13.719  0.00  0.00    -0.001 A 
ATOM     25  C   UNL d   1       5.686   2.549 -13.575  0.00  0.00     0.011 A 
ATOM     26  C   UNL d   1       5.886   1.190 -13.992  0.00  0.00     0.058 A 
ATOM     27  C   UNL d   1       7.138   0.814 -14.479  0.00  0.00     0.011 A 
ATOM     28 CL   UNL d   1       4.615   0.014 -13.950  0.00  0.00    -0.082 Cl
ATOM     29  C   UNL d   1       8.185   1.768 -14.529  0.00  0.00    -0.001 A 
ENDBRANCH   1  23
TORSDOF 8
