REMARK  7 active torsions:
REMARK  status: ('A' for Active; 'I' for Inactive)
REMARK    1  A    between atoms: C_1  and  C_9 
REMARK    2  A    between atoms: C_2  and  C_3 
REMARK    3  A    between atoms: C_9  and  O_10 
REMARK    4  A    between atoms: O_10  and  C_11 
REMARK    5  A    between atoms: N_14  and  C_15 
REMARK    6  A    between atoms: C_15  and  C_16 
REMARK    7  A    between atoms: C_16  and  C_17 
ROOT
ATOM      1  C   UNL d   1       9.325   6.136 -11.381  0.00  0.00     0.121 C 
ATOM      2  C   UNL d   1       8.620   5.439 -10.206  0.00  0.00     0.065 C 
ATOM      3  C   UNL d   1       9.487   5.531  -8.948  0.00  0.00     0.253 C 
ATOM      4  N   UNL d   1       9.756   6.933  -8.628  0.00  0.00     0.138 N 
ATOM      5  C   UNL d   1      10.515   7.576  -9.699  0.00  0.00     0.253 C 
ATOM      6  C   UNL d   1       9.691   7.575 -10.994  0.00  0.00     0.065 C 
ENDROOT
BRANCH   1   7
ATOM      7  O   UNL d   1       8.485   6.145 -12.531  0.00  0.00    -0.343 OA
BRANCH   7   8
ATOM      8  C   UNL d   1       8.509   4.956 -13.309  0.00  0.00     0.218 C 
BRANCH   8   9
ATOM      9  C   UNL d   1       9.671   4.992 -14.210  0.00  0.00    -0.054 C 
ATOM     10  C   UNL d   1      10.655   5.062 -14.934  0.00  0.00    -0.062 C 
BRANCH  10  11
ATOM     11  C   UNL d   1      11.815   5.158 -15.794  0.00  0.00     0.042 A 
ATOM     12  C   UNL d   1      12.420   6.408 -16.037  0.00  0.00     0.008 A 
ATOM     13  C   UNL d   1      13.550   6.492 -16.878  0.00  0.00     0.001 A 
ATOM     14  C   UNL d   1      14.070   5.327 -17.476  0.00  0.00     0.000 A 
ATOM     15  C   UNL d   1      13.460   4.078 -17.235  0.00  0.00     0.001 A 
ATOM     16  C   UNL d   1      12.338   3.994 -16.390  0.00  0.00     0.008 A 
ENDBRANCH  10  11
ENDBRANCH   8   9
ENDBRANCH   7   8
ENDBRANCH   1   7
BRANCH   4  17
ATOM     17  C   UNL d   1      10.493   6.972  -7.370  0.00  0.00     0.255 C 
BRANCH  17  18
ATOM     18  C   UNL d   1      10.440   8.344  -6.680  0.00  0.00     0.062 C 
BRANCH  18  19
ATOM     19  C   UNL d   1      11.085   8.345  -5.293  0.00  0.00    -0.020 A 
ATOM     20  C   UNL d   1      11.283   9.575  -4.621  0.00  0.00    -0.004 A 
ATOM     21  C   UNL d   1      11.863   9.587  -3.334  0.00  0.00    -0.000 A 
ATOM     22  C   UNL d   1      12.263   8.390  -2.712  0.00  0.00    -0.000 A 
ATOM     23  C   UNL d   1      12.066   7.168  -3.377  0.00  0.00    -0.000 A 
ATOM     24  C   UNL d   1      11.479   7.146  -4.655  0.00  0.00    -0.004 A 
ENDBRANCH  18  19
ENDBRANCH  17  18
ENDBRANCH   4  17
TORSDOF 7
