REMARK  7 active torsions:
REMARK  status: ('A' for Active; 'I' for Inactive)
REMARK    1  A    between atoms: C_4  and  N_5 
REMARK    2  A    between atoms: N_8  and  C_9 
REMARK    3  A    between atoms: C_9  and  C_10 
REMARK    4  A    between atoms: C_10  and  C_11 
REMARK    5  A    between atoms: C_11  and  C_12 
REMARK    6  A    between atoms: C_12  and  N_13 
REMARK    7  A    between atoms: N_13  and  C_14 
ROOT
ATOM      1  C   UNL d   1       9.414   7.326 -11.939  0.00  0.00     0.037 C 
ENDROOT
BRANCH   1   2
ATOM      2  C   UNL d   1       8.196   6.439 -11.668  0.00  0.00     0.251 C 
BRANCH   2   3
ATOM      3  N   UNL d   1       7.768   5.631 -12.794  0.00  0.00     0.141 N 
ATOM      4  C   UNL d   1       6.497   5.000 -12.411  0.00  0.00     0.275 C 
ATOM      5  C   UNL d   1       5.963   4.160 -13.575  0.00  0.00     0.155 C 
ATOM      6  N   UNL d   1       6.973   3.194 -13.995  0.00  0.00    -0.179 N 
ATOM      7  C   UNL d   1       8.294   3.771 -14.252  0.00  0.00     0.155 C 
ATOM      8  C   UNL d   1       8.754   4.594 -13.059  0.00  0.00     0.275 C 
BRANCH   6   9
ATOM      9  C   UNL d   1       6.706   1.847 -14.116  0.00  0.00     0.727 A 
ATOM     10  N   UNL d   1       7.575   1.141 -14.834  0.00  0.00    -0.060 NA
ATOM     11  C   UNL d   1       7.333  -0.171 -14.956  0.00  0.00     0.120 A 
ATOM     12  C   UNL d   1       6.219  -0.781 -14.359  0.00  0.00     0.043 A 
ATOM     13  C   UNL d   1       5.365   0.059 -13.640  0.00  0.00     0.120 A 
ATOM     14  N   UNL d   1       5.614   1.373 -13.509  0.00  0.00    -0.060 NA
ENDBRANCH   6   9
ENDBRANCH   2   3
ENDBRANCH   1   2
BRANCH   1  15
ATOM     15  C   UNL d   1       9.728   8.376 -10.864  0.00  0.00     0.028 C 
BRANCH  15  16
ATOM     16  C   UNL d   1      10.117   7.724  -9.542  0.00  0.00     0.127 C 
BRANCH  16  17
ATOM     17  N   UNL d   1      10.311   8.679  -8.467  0.00  0.00    -0.255 NA
BRANCH  17  18
ATOM     18  C   UNL d   1      10.757   8.342  -7.192  0.00  0.00     0.165 C 
ATOM     19  C   UNL d   1      11.250   6.886  -7.030  0.00  0.00     0.214 C 
ATOM     20  O   UNL d   1      11.229   6.394  -5.700  0.00  0.00    -0.321 OA
ATOM     21  C   UNL d   1      11.476   7.308  -4.722  0.00  0.00     0.112 A 
ATOM     22  C   UNL d   1      11.304   8.690  -4.972  0.00  0.00     0.105 A 
ATOM     23  C   UNL d   1      11.904   6.840  -3.467  0.00  0.00     0.026 A 
ATOM     24  N   UNL d   1      10.825   9.173  -6.205  0.00  0.00    -0.227 NA
ATOM     25  C   UNL d   1      11.585   9.587  -3.931  0.00  0.00     0.021 A 
ATOM     26  C   UNL d   1      12.044   9.127  -2.681  0.00  0.00     0.002 A 
ATOM     27  C   UNL d   1      12.202   7.751  -2.445  0.00  0.00     0.002 A 
ENDBRANCH  17  18
ENDBRANCH  16  17
ENDBRANCH  15  16
ENDBRANCH   1  15
TORSDOF 7
