REMARK  2 active torsions:
REMARK  status: ('A' for Active; 'I' for Inactive)
REMARK    1  A    between atoms: C_5  and  C_6 
REMARK    2  A    between atoms: C_7  and  C_8 
ROOT
ATOM      1  C   UNL d   1      10.750   7.862  -6.911  0.00  0.00     0.000 C 
ATOM      2  C   UNL d   1      10.026   6.827  -7.391  0.00  0.00     0.000 C 
ENDROOT
BRANCH   2   3
ATOM      3  C   UNL d   1       9.569   6.662  -8.787  0.00  0.00     0.004 A 
ATOM      4  C   UNL d   1       9.930   7.585  -9.790  0.00  0.00     0.028 A 
ATOM      5  C   UNL d   1       9.460   7.427 -11.099  0.00  0.00     0.133 A 
ATOM      6  C   UNL d   1       8.662   6.341 -11.467  0.00  0.00     0.055 A 
ATOM      7  O   UNL d   1       9.818   8.319 -12.040  0.00  0.00    -0.190 OA
ATOM      8  C   UNL d   1       8.293   5.412 -10.485  0.00  0.00     0.133 A 
ATOM      9  C   UNL d   1       8.738   5.568  -9.147  0.00  0.00     0.028 A 
ATOM     10  O   UNL d   1       7.462   4.390 -10.832  0.00  0.00    -0.190 OA
ENDBRANCH   2   3
BRANCH   1  11
ATOM     11  C   UNL d   1      11.263   7.990  -5.541  0.00  0.00     0.000 A 
ATOM     12  C   UNL d   1      11.456   6.852  -4.727  0.00  0.00     0.002 A 
ATOM     13  C   UNL d   1      11.926   6.984  -3.412  0.00  0.00     0.027 A 
ATOM     14  C   UNL d   1      12.206   8.261  -2.894  0.00  0.00     0.131 A 
ATOM     15  O   UNL d   1      12.659   8.398  -1.621  0.00  0.00    -0.190 OA
ATOM     16  C   UNL d   1      12.016   9.405  -3.690  0.00  0.00     0.027 A 
ATOM     17  C   UNL d   1      11.548   9.272  -5.014  0.00  0.00     0.002 A 
ENDBRANCH   1  11
TORSDOF 2
