REMARK  6 active torsions:
REMARK  status: ('A' for Active; 'I' for Inactive)
REMARK       I    between atoms: C_2  and  N_3 
REMARK    1  A    between atoms: C_2  and  C_27 
REMARK    2  A    between atoms: N_3  and  C_4 
REMARK    3  A    between atoms: C_7  and  C_8 
REMARK    4  A    between atoms: C_8  and  C_9 
REMARK    5  A    between atoms: C_9  and  N_10 
REMARK    6  A    between atoms: C_13  and  C_14 
ROOT
ATOM      1  C   UNL d   1       7.823   6.222 -11.492  0.00  0.00     0.035 C 
ENDROOT
BRANCH   1   2
ATOM      2  C   UNL d   1       7.522   5.300 -12.685  0.00  0.00     0.002 C 
ATOM      3  C   UNL d   1       8.444   4.069 -12.707  0.00  0.00     0.002 C 
ATOM      4  C   UNL d   1       8.096   3.101 -13.825  0.00  0.00     0.024 C 
ATOM      5  C   UNL d   1       6.627   2.668 -13.762  0.00  0.00     0.107 C 
ATOM      6  C   UNL d   1       5.678   3.876 -13.751  0.00  0.00     0.024 C 
ATOM      7  C   UNL d   1       6.042   4.857 -12.627  0.00  0.00     0.002 C 
BRANCH   5   8
ATOM      8  N   UNL d   1       6.368   1.748 -14.847  0.00  0.00    -0.236 NA
ATOM      9  C   UNL d   1       5.872   0.509 -14.750  0.00  0.00     0.275 C 
ATOM     10  O   UNL d   1       5.604  -0.040 -13.681  0.00  0.00    -0.266 OA
BRANCH   9  11
ATOM     11  C   UNL d   1       5.542  -0.140 -16.066  0.00  0.00     0.058 A 
ATOM     12  C   UNL d   1       6.218   0.220 -17.259  0.00  0.00     0.005 A 
ATOM     13  C   UNL d   1       5.893  -0.410 -18.478  0.00  0.00     0.000 A 
ATOM     14  C   UNL d   1       4.899  -1.403 -18.512  0.00  0.00     0.000 A 
ATOM     15  C   UNL d   1       4.222  -1.762 -17.332  0.00  0.00     0.000 A 
ATOM     16  C   UNL d   1       4.544  -1.134 -16.114  0.00  0.00     0.005 A 
ENDBRANCH   9  11
ENDBRANCH   5   8
ENDBRANCH   1   2
BRANCH   1  17
ATOM     17  C   UNL d   1       9.319   6.474 -11.221  0.00  0.00     0.250 C 
BRANCH  17  18
ATOM     18  N   UNL d   1       9.587   7.155  -9.963  0.00  0.00     0.137 N 
ATOM     19  C   UNL d   1       9.272   6.293  -8.813  0.00  0.00     0.251 C 
ATOM     20  C   UNL d   1       9.497   7.059  -7.509  0.00  0.00     0.040 C 
ATOM     21  C   UNL d   1      10.943   7.549  -7.408  0.00  0.00     0.028 C 
ATOM     22  C   UNL d   1      11.336   8.299  -8.694  0.00  0.00     0.040 C 
ATOM     23  C   UNL d   1      11.009   7.489  -9.951  0.00  0.00     0.251 C 
BRANCH  21  24
ATOM     24  C   UNL d   1      11.115   8.420  -6.181  0.00  0.00     0.004 A 
ATOM     25  C   UNL d   1      11.502   8.000  -4.871  0.00  0.00     0.021 A 
ATOM     26  C   UNL d   1      11.519   9.180  -4.087  0.00  0.00     0.100 A 
ATOM     27  C   UNL d   1      11.852   6.796  -4.224  0.00  0.00     0.002 A 
ATOM     28  O   UNL d   1      11.112  10.251  -4.843  0.00  0.00    -0.305 OA
ATOM     29  C   UNL d   1      11.891   9.199  -2.739  0.00  0.00     0.025 A 
ATOM     30  C   UNL d   1      10.928   9.763  -6.105  0.00  0.00     0.118 A 
ATOM     31  C   UNL d   1      12.259   7.987  -2.123  0.00  0.00     0.002 A 
ATOM     32  C   UNL d   1      12.229   6.788  -2.862  0.00  0.00     0.000 A 
ENDBRANCH  21  24
ENDBRANCH  17  18
ENDBRANCH   1  17
TORSDOF 6
