REMARK  3 active torsions:
REMARK  status: ('A' for Active; 'I' for Inactive)
REMARK    1  A    between atoms: O_2  and  C_3 
REMARK    2  A    between atoms: N_15  and  C_16 
REMARK    3  A    between atoms: C_16  and  C_17 
ROOT
ATOM      1  C   UNL d   1       9.101   0.308 -15.994  0.00  0.00     0.096 A 
ATOM      2  C   UNL d   1       7.919   0.305 -15.217  0.00  0.00     0.024 A 
ATOM      3  C   UNL d   1       7.559   1.425 -14.445  0.00  0.00     0.004 A 
ATOM      4  C   UNL d   1       8.385   2.556 -14.435  0.00  0.00     0.019 A 
ATOM      5  C   UNL d   1       8.103   3.775 -13.691  0.00  0.00    -0.015 A 
ATOM      6  C   UNL d   1       8.961   4.798 -13.780  0.00  0.00     0.071 A 
ATOM      7  C   UNL d   1      10.226   4.709 -14.569  0.00  0.00     0.298 A 
ATOM      8  O   UNL d   1      11.081   5.572 -14.607  0.00  0.00    -0.259 OA
ATOM      9  O   UNL d   1      10.434   3.589 -15.238  0.00  0.00    -0.273 OA
ATOM     10  C   UNL d   1       9.572   2.543 -15.199  0.00  0.00     0.105 A 
ATOM     11  C   UNL d   1       9.924   1.449 -15.963  0.00  0.00     0.049 A 
ATOM     12  C   UNL d   1       8.770   6.081 -13.006  0.00  0.00     0.282 C 
ATOM     13  N   UNL d   1       7.874   5.952 -11.846  0.00  0.00     0.146 N 
ATOM     14  C   UNL d   1       6.627   5.315 -12.286  0.00  0.00     0.256 C 
ATOM     15  C   UNL d   1       6.861   3.884 -12.816  0.00  0.00     0.062 C 
ENDROOT
BRANCH  13  16
ATOM     16  C   UNL d   1       8.479   5.296 -10.672  0.00  0.00     0.277 C 
BRANCH  16  17
ATOM     17  C   UNL d   1       9.384   6.193  -9.804  0.00  0.00     0.012 A 
ATOM     18  C   UNL d   1       9.346   6.069  -8.389  0.00  0.00     0.009 A 
ATOM     19  C   UNL d   1      10.194   6.896  -7.596  0.00  0.00     0.058 A 
ATOM     20  C   UNL d   1      11.091   7.815  -8.184  0.00  0.00     0.011 A 
ATOM     21 CL   UNL d   1      10.181   6.808  -5.875  0.00  0.00    -0.082 Cl
ATOM     22  C   UNL d   1      11.122   7.929  -9.576  0.00  0.00     0.001 A 
ATOM     23  C   UNL d   1      10.258   7.166 -10.367  0.00  0.00    -0.002 A 
ENDBRANCH  16  17
ENDBRANCH  13  16
BRANCH   1  24
ATOM     24  O   UNL d   1       9.422  -0.792 -16.758  0.00  0.00    -0.328 OA
ATOM     25  C   UNL d   1      10.533  -0.692 -17.634  0.00  0.00     0.181 C 
ENDBRANCH   1  24
TORSDOF 3
