REMARK  4 active torsions:
REMARK  status: ('A' for Active; 'I' for Inactive)
REMARK    1  A    between atoms: C_6  and  N_7 
REMARK       I    between atoms: N_7  and  C_8 
REMARK    2  A    between atoms: C_8  and  C_10 
REMARK    3  A    between atoms: C_10  and  N_11 
REMARK    4  A    between atoms: C_14  and  C_15 
ROOT
ATOM      1  N   UNL d   1      10.203   7.089  -9.055  0.00  0.00     0.147 N 
ATOM      2  C   UNL d   1       9.120   7.519  -8.165  0.00  0.00     0.251 C 
ATOM      3  C   UNL d   1       9.565   7.469  -6.700  0.00  0.00     0.041 C 
ATOM      4  C   UNL d   1      10.819   8.327  -6.479  0.00  0.00     0.045 C 
ATOM      5  C   UNL d   1      11.897   7.959  -7.506  0.00  0.00     0.041 C 
ATOM      6  C   UNL d   1      11.349   8.000  -8.938  0.00  0.00     0.251 C 
ENDROOT
BRANCH   1   7
ATOM      7  C   UNL d   1       9.721   7.051 -10.449  0.00  0.00     0.339 C 
BRANCH   7   8
ATOM      8  C   UNL d   1       8.983   5.766 -10.862  0.00  0.00     0.290 C 
ATOM      9  N   UNL d   1       8.904   5.576 -12.189  0.00  0.00    -0.210 NA
ATOM     10  O   UNL d   1       8.564   4.966 -10.025  0.00  0.00    -0.268 OA
BRANCH   9  11
ATOM     11  C   UNL d   1       8.263   4.520 -12.886  0.00  0.00     0.084 A 
ATOM     12  C   UNL d   1       8.905   4.000 -14.027  0.00  0.00     0.019 A 
ATOM     13  C   UNL d   1       8.305   2.967 -14.771  0.00  0.00     0.001 A 
ATOM     14  C   UNL d   1       7.041   2.475 -14.397  0.00  0.00    -0.004 A 
ATOM     15  C   UNL d   1       6.379   3.001 -13.269  0.00  0.00    -0.020 A 
ATOM     16  C   UNL d   1       5.048   2.427 -12.835  0.00  0.00     0.031 C 
ATOM     17  C   UNL d   1       6.992   4.022 -12.508  0.00  0.00     0.015 A 
ENDBRANCH   9  11
ENDBRANCH   7   8
ENDBRANCH   1   7
BRANCH   4  18
ATOM     18  C   UNL d   1      11.341   8.188  -5.041  0.00  0.00     0.068 A 
ATOM     19  N   UNL d   1      11.421   9.299  -4.236  0.00  0.00    -0.188 N 
ATOM     20  C   UNL d   1      11.880   9.184  -2.951  0.00  0.00     0.108 A 
ATOM     21  O   UNL d   1      11.028  10.442  -4.665  0.00  0.00    -0.080 OA
ATOM     22  C   UNL d   1      12.266   7.942  -2.413  0.00  0.00     0.021 A 
ATOM     23  C   UNL d   1      12.179   6.794  -3.215  0.00  0.00     0.003 A 
ATOM     24  C   UNL d   1      11.722   6.926  -4.533  0.00  0.00     0.015 A 
ENDBRANCH   4  18
TORSDOF 4
