REMARK  2 active torsions:
REMARK  status: ('A' for Active; 'I' for Inactive)
REMARK    1  A    between atoms: C_3  and  N_4 
REMARK    2  A    between atoms: C_12  and  C_13 
ROOT
ATOM      1  C   UNL d   1       6.025   4.375 -12.752  0.00  0.00    -0.012 C 
ATOM      2  C   UNL d   1       7.141   4.794 -12.499  0.00  0.00    -0.042 C 
ATOM      3  C   UNL d   1       8.501   5.292 -12.211  0.00  0.00     0.326 C 
ENDROOT
BRANCH   3   4
ATOM      4  N   UNL d   1       8.585   5.976 -10.923  0.00  0.00     0.150 N 
ATOM      5  C   UNL d   1       9.786   6.808 -10.870  0.00  0.00     0.254 C 
ATOM      6  C   UNL d   1       9.871   7.628  -9.565  0.00  0.00     0.071 C 
ATOM      7  C   UNL d   1       9.789   6.745  -8.303  0.00  0.00     0.157 A 
ATOM      8  C   UNL d   1       8.662   5.729  -8.460  0.00  0.00     0.071 C 
ATOM      9  C   UNL d   1       9.716   7.559  -7.026  0.00  0.00     0.200 A 
ATOM     10  O   UNL d   1      11.000   6.020  -8.095  0.00  0.00    -0.326 OA
ATOM     11  C   UNL d   1       8.592   5.014  -9.815  0.00  0.00     0.254 C 
ATOM     12  C   UNL d   1      10.940   7.375  -6.285  0.00  0.00     0.061 A 
ATOM     13  O   UNL d   1       8.753   8.246  -6.692  0.00  0.00    -0.289 OA
ATOM     14  C   UNL d   1      11.606   6.455  -6.985  0.00  0.00     0.119 A 
BRANCH  12  15
ATOM     15  C   UNL d   1      11.321   7.879  -4.993  0.00  0.00     0.005 A 
ATOM     16  C   UNL d   1      11.862   7.009  -4.018  0.00  0.00     0.000 A 
ATOM     17  C   UNL d   1      12.205   7.511  -2.754  0.00  0.00     0.000 A 
ATOM     18  C   UNL d   1      12.014   8.874  -2.468  0.00  0.00     0.000 A 
ATOM     19  C   UNL d   1      11.475   9.724  -3.452  0.00  0.00     0.000 A 
ATOM     20  C   UNL d   1      11.140   9.240  -4.720  0.00  0.00     0.000 A 
ENDBRANCH  12  15
ENDBRANCH   3   4
TORSDOF 2
