REMARK  7 active torsions:
REMARK  status: ('A' for Active; 'I' for Inactive)
REMARK    1  A    between atoms: C_2  and  C_3 
REMARK    2  A    between atoms: C_3  and  C_4 
REMARK    3  A    between atoms: C_4  and  C_5 
REMARK    4  A    between atoms: C_5  and  O_6 
REMARK    5  A    between atoms: C_5  and  C_15 
REMARK    6  A    between atoms: O_6  and  C_7 
REMARK    7  A    between atoms: C_20  and  N_21 
ROOT
ATOM      1  C   UNL d   1       9.905   4.394 -13.455  0.00  0.00     0.203 A 
ATOM      2  N   UNL d   1       9.693   3.098 -13.689  0.00  0.00    -0.039 NA
ATOM      3  C   UNL d   1      10.544   2.596 -14.575  0.00  0.00     0.785 A 
ATOM      4  N   UNL d   1      10.411   1.266 -14.839  0.00  0.00     0.063 N 
ATOM      5  N   UNL d   1      11.492   3.228 -15.247  0.00  0.00     0.134 NA
ATOM      6  C   UNL d   1      11.567   4.530 -14.943  0.00  0.00     0.744 A 
ATOM      7  N   UNL d   1      10.816   5.176 -14.040  0.00  0.00    -0.043 NA
ENDROOT
BRANCH   1   8
ATOM      8  C   UNL d   1       8.985   5.049 -12.446  0.00  0.00     0.180 C 
BRANCH   8   9
ATOM      9  C   UNL d   1       7.825   5.775 -13.152  0.00  0.00     0.038 C 
BRANCH   9  10
ATOM     10  C   UNL d   1       6.987   6.671 -12.227  0.00  0.00     0.003 C 
BRANCH  10  11
ATOM     11  C   UNL d   1       5.877   7.451 -12.930  0.00  0.00     0.000 C 
ATOM     12  C   UNL d   1       5.148   8.453 -12.047  0.00  0.00     0.000 C 
ENDBRANCH  10  11
ENDBRANCH   9  10
ENDBRANCH   8   9
BRANCH   8  13
ATOM     13  O   UNL d   1       9.728   5.946 -11.603  0.00  0.00    -0.325 OA
BRANCH  13  14
ATOM     14  C   UNL d   1       9.435   6.079 -10.257  0.00  0.00     0.106 A 
ATOM     15  C   UNL d   1       9.926   7.214  -9.559  0.00  0.00     0.090 A 
ATOM     16  C   UNL d   1       9.704   7.374  -8.171  0.00  0.00     0.070 A 
ATOM     17 CL   UNL d   1      10.762   8.461 -10.402  0.00  0.00    -0.079 Cl
ATOM     18  C   UNL d   1       8.973   6.407  -7.470  0.00  0.00     0.012 A 
ATOM     19 CL   UNL d   1      10.312   8.749  -7.311  0.00  0.00    -0.081 Cl
ATOM     20  C   UNL d   1       8.451   5.306  -8.159  0.00  0.00     0.003 A 
ATOM     21  C   UNL d   1       8.674   5.136  -9.527  0.00  0.00     0.025 A 
ENDBRANCH  13  14
ENDBRANCH   8  13
ENDBRANCH   1   8
BRANCH   6  22
ATOM     22  N   UNL d   1      12.521   5.283 -15.625  0.00  0.00    -0.178 N 
ATOM     23  C   UNL d   1      12.535   6.752 -15.665  0.00  0.00     0.155 C 
ATOM     24  C   UNL d   1      12.611   7.252 -17.121  0.00  0.00     0.275 C 
ATOM     25  N   UNL d   1      13.790   6.696 -17.784  0.00  0.00     0.143 N 
ATOM     26  C   UNL d   1      13.671   5.239 -17.811  0.00  0.00     0.275 C 
ATOM     27  C   UNL d   1      13.856   7.195 -19.150  0.00  0.00     0.286 C 
ATOM     28  C   UNL d   1      13.632   4.691 -16.378  0.00  0.00     0.155 C 
ENDBRANCH   6  22
TORSDOF 7
