REMARK  5 active torsions:
REMARK  status: ('A' for Active; 'I' for Inactive)
REMARK    1  A    between atoms: C_2  and  C_3 
REMARK    2  A    between atoms: C_2  and  C_9 
REMARK    3  A    between atoms: C_2  and  C_15 
REMARK    4  A    between atoms: C_3  and  N_4 
REMARK    5  A    between atoms: C_9  and  N_10 
ROOT
ATOM      1  O   UNL d   1       8.909  -0.409 -16.788  0.00  0.00    -0.217 OA
ATOM      2  C   UNL d   1       9.105   0.981 -16.555  0.00  0.00     0.192 C 
ENDROOT
BRANCH   2   3
ATOM      3  C   UNL d   1       7.916   1.714 -17.244  0.00  0.00     0.166 C 
BRANCH   3   4
ATOM      4  N   UNL d   1       7.793   1.446 -18.662  0.00  0.00    -0.227 N 
ATOM      5  N   UNL d   1       8.267   2.309 -19.590  0.00  0.00    -0.145 NA
ATOM      6  C   UNL d   1       7.935   1.710 -20.735  0.00  0.00     0.221 A 
ATOM      7  N   UNL d   1       7.243   0.538 -20.617  0.00  0.00    -0.201 NA
ATOM      8  C   UNL d   1       7.196   0.438 -19.299  0.00  0.00     0.197 A 
ENDBRANCH   3   4
ENDBRANCH   2   3
BRANCH   2   9
ATOM      9  C   UNL d   1       9.068   1.135 -15.002  0.00  0.00     0.166 C 
BRANCH   9  10
ATOM     10  N   UNL d   1       7.728   1.034 -14.437  0.00  0.00    -0.227 N 
ATOM     11  N   UNL d   1       7.002   2.146 -14.152  0.00  0.00    -0.145 NA
ATOM     12  C   UNL d   1       5.870   1.645 -13.654  0.00  0.00     0.221 A 
ATOM     13  N   UNL d   1       5.792   0.280 -13.617  0.00  0.00    -0.201 NA
ATOM     14  C   UNL d   1       6.980  -0.024 -14.118  0.00  0.00     0.197 A 
ENDBRANCH   9  10
ENDBRANCH   2   9
BRANCH   2  15
ATOM     15  C   UNL d   1      10.455   1.454 -17.134  0.00  0.00     0.037 A 
ATOM     16  C   UNL d   1      10.921   2.778 -16.919  0.00  0.00     0.141 A 
ATOM     17  C   UNL d   1      12.153   3.202 -17.454  0.00  0.00     0.059 A 
ATOM     18  F   UNL d   1      10.188   3.667 -16.209  0.00  0.00    -0.204 F 
ATOM     19  C   UNL d   1      12.925   2.329 -18.241  0.00  0.00     0.142 A 
ATOM     20  C   UNL d   1      12.467   1.022 -18.485  0.00  0.00     0.030 A 
ATOM     21  F   UNL d   1      14.101   2.744 -18.770  0.00  0.00    -0.204 F 
ATOM     22  C   UNL d   1      11.246   0.589 -17.933  0.00  0.00     0.003 A 
ENDBRANCH   2  15
TORSDOF 5
