REMARK  6 active torsions:
REMARK  status: ('A' for Active; 'I' for Inactive)
REMARK    1  A    between atoms: C_5  and  C_6 
REMARK    2  A    between atoms: C_6  and  O_7 
REMARK    3  A    between atoms: O_7  and  C_8 
REMARK    4  A    between atoms: C_8  and  C_9 
REMARK    5  A    between atoms: C_8  and  C_15 
REMARK    6  A    between atoms: C_9  and  N_10 
ROOT
ATOM      1  C   UNL d   1       8.167   2.902 -14.412  0.00  0.00     0.161 C 
ENDROOT
BRANCH   1   2
ATOM      2  O   UNL d   1       8.136   3.581 -13.143  0.00  0.00    -0.345 OA
BRANCH   2   3
ATOM      3  C   UNL d   1       7.447   4.825 -13.070  0.00  0.00     0.170 C 
BRANCH   3   4
ATOM      4  C   UNL d   1       8.245   5.872 -12.305  0.00  0.00     0.018 C 
ATOM      5  C   UNL d   1       9.318   5.437 -11.486  0.00  0.00    -0.000 C 
ATOM      6  C   UNL d   1      10.116   6.394 -10.825  0.00  0.00     0.011 C 
ATOM      7  C   UNL d   1       9.874   7.751 -10.922  0.00  0.00     0.059 C 
ATOM      8 CL   UNL d   1      10.809   8.861  -9.989  0.00  0.00    -0.082 Cl
ATOM      9  C   UNL d   1       8.801   8.207 -11.744  0.00  0.00     0.023 C 
ATOM     10  C   UNL d   1       7.968   7.266 -12.340  0.00  0.00     0.057 C 
ATOM     11 CL   UNL d   1       6.416   7.835 -12.852  0.00  0.00    -0.083 Cl
ENDBRANCH   3   4
ENDBRANCH   2   3
ENDBRANCH   1   2
BRANCH   1  12
ATOM     12  C   UNL d   1       9.553   2.218 -14.513  0.00  0.00     0.142 C 
BRANCH  12  13
ATOM     13  N   UNL d   1      10.627   3.188 -14.652  0.00  0.00    -0.305 N 
ATOM     14  C   UNL d   1      11.149   3.959 -13.661  0.00  0.00     0.179 A 
ATOM     15  N   UNL d   1      12.119   4.787 -14.085  0.00  0.00    -0.223 NA
ATOM     16  C   UNL d   1      12.257   4.481 -15.446  0.00  0.00     0.119 A 
ATOM     17  C   UNL d   1      11.332   3.503 -15.802  0.00  0.00     0.098 A 
ENDBRANCH  12  13
ENDBRANCH   1  12
BRANCH   1  18
ATOM     18  C   UNL d   1       7.017   1.903 -14.603  0.00  0.00     0.017 A 
ATOM     19  C   UNL d   1       6.832   1.212 -15.828  0.00  0.00     0.057 A 
ATOM     20  C   UNL d   1       5.811   0.249 -15.960  0.00  0.00     0.023 A 
ATOM     21 CL   UNL d   1       7.815   1.549 -17.211  0.00  0.00    -0.083 Cl
ATOM     22  C   UNL d   1       4.943  -0.019 -14.887  0.00  0.00     0.059 A 
ATOM     23  C   UNL d   1       5.106   0.664 -13.670  0.00  0.00     0.011 A 
ATOM     24 CL   UNL d   1       3.654  -1.152 -15.078  0.00  0.00    -0.082 Cl
ATOM     25  C   UNL d   1       6.121   1.631 -13.543  0.00  0.00    -0.000 A 
ENDBRANCH   1  18
TORSDOF 6
