REMARK  5 active torsions:
REMARK  status: ('A' for Active; 'I' for Inactive)
REMARK    1  A    between atoms: C_2  and  C_3 
REMARK    2  A    between atoms: C_3  and  N_4 
REMARK    3  A    between atoms: N_4  and  C_5 
REMARK    4  A    between atoms: N_4  and  C_8 
REMARK    5  A    between atoms: C_5  and  C_6 
ROOT
ATOM      1  C   UNL d   1       8.615   6.470 -11.996  0.00  0.00     0.228 C 
ATOM      2  C   UNL d   1       7.107   6.143 -12.194  0.00  0.00     0.060 C 
ATOM      3  C   UNL d   1       7.127   4.821 -12.895  0.00  0.00    -0.024 A 
ATOM      4  C   UNL d   1       6.034   3.985 -13.137  0.00  0.00    -0.003 A 
ATOM      5  C   UNL d   1       6.263   2.751 -13.780  0.00  0.00     0.019 A 
ATOM      6  C   UNL d   1       7.551   2.356 -14.166  0.00  0.00     0.089 A 
ATOM      7  N   UNL d   1       7.841   1.151 -14.789  0.00  0.00    -0.225 NA
ATOM      8  C   UNL d   1       9.166   1.096 -14.989  0.00  0.00     0.181 A 
ATOM      9  N   UNL d   1       9.745   0.010 -15.616  0.00  0.00    -0.072 NA
ATOM     10  S   UNL d   1      10.153   2.502 -14.443  0.00  0.00    -0.053 SA
ATOM     11  C   UNL d   1       8.641   3.230 -13.898  0.00  0.00     0.045 A 
ATOM     12  C   UNL d   1       8.416   4.453 -13.278  0.00  0.00    -0.017 A 
ATOM     13  C   UNL d   1       9.436   5.492 -12.896  0.00  0.00     0.060 C 
ENDROOT
BRANCH   1  14
ATOM     14  N   UNL d   1       9.011   6.345 -10.582  0.00  0.00     0.136 N 
BRANCH  14  15
ATOM     15  C   UNL d   1       8.966   4.941 -10.113  0.00  0.00     0.250 C 
BRANCH  15  16
ATOM     16  C   UNL d   1       8.868   4.754  -8.593  0.00  0.00     0.035 C 
ATOM     17  C   UNL d   1       9.777   5.643  -7.750  0.00  0.00     0.002 C 
ENDBRANCH  15  16
ENDBRANCH  14  15
BRANCH  14  18
ATOM     18  C   UNL d   1      10.319   6.988 -10.334  0.00  0.00     0.250 C 
BRANCH  18  19
ATOM     19  C   UNL d   1      10.189   8.531 -10.402  0.00  0.00     0.035 C 
ATOM     20  C   UNL d   1      11.521   9.150  -9.957  0.00  0.00     0.002 C 
ENDBRANCH  18  19
ENDBRANCH  14  18
ENDBRANCH   1  14
TORSDOF 5
