REMARK  7 active torsions:
REMARK  status: ('A' for Active; 'I' for Inactive)
REMARK    1  A    between atoms: C_7  and  N_8 
REMARK    2  A    between atoms: N_11  and  C_12 
REMARK    3  A    between atoms: C_12  and  C_13 
REMARK    4  A    between atoms: C_13  and  C_14 
REMARK    5  A    between atoms: C_14  and  C_15 
REMARK    6  A    between atoms: C_15  and  N_16 
REMARK    7  A    between atoms: N_16  and  C_17 
ROOT
ATOM      1  N   UNL d   1      10.573   8.435  -6.468  0.00  0.00    -0.344 N 
ATOM      2  C   UNL d   1       9.152   8.145  -6.632  0.00  0.00     0.137 C 
ATOM      3  C   UNL d   1       8.950   6.871  -7.466  0.00  0.00     0.274 C 
ATOM      4  N   UNL d   1       9.618   7.002  -8.757  0.00  0.00     0.141 N 
ATOM      5  C   UNL d   1      11.056   7.181  -8.544  0.00  0.00     0.274 C 
ATOM      6  C   UNL d   1      11.350   8.445  -7.700  0.00  0.00     0.137 C 
ENDROOT
BRANCH   4   7
ATOM      7  C   UNL d   1       9.358   5.799  -9.551  0.00  0.00     0.251 C 
BRANCH   7   8
ATOM      8  C   UNL d   1       9.460   6.125 -11.040  0.00  0.00     0.037 C 
BRANCH   8   9
ATOM      9  C   UNL d   1       9.366   4.858 -11.899  0.00  0.00     0.028 C 
BRANCH   9  10
ATOM     10  C   UNL d   1       9.382   5.156 -13.419  0.00  0.00     0.127 C 
BRANCH  10  11
ATOM     11  N   UNL d   1       9.401   3.959 -14.245  0.00  0.00    -0.253 NA
BRANCH  11  12
ATOM     12  C   UNL d   1       8.309   3.087 -14.282  0.00  0.00     0.158 A 
ATOM     13  N   UNL d   1       8.514   1.936 -14.953  0.00  0.00    -0.226 NA
ATOM     14  C   UNL d   1       7.517   1.034 -15.006  0.00  0.00     0.101 A 
ATOM     15  C   UNL d   1       6.268   1.227 -14.385  0.00  0.00     0.021 A 
ATOM     16  C   UNL d   1       6.053   2.429 -13.682  0.00  0.00     0.005 A 
ATOM     17  C   UNL d   1       7.073   3.395 -13.664  0.00  0.00     0.038 A 
ENDBRANCH  11  12
ENDBRANCH  10  11
ENDBRANCH   9  10
ENDBRANCH   8   9
ENDBRANCH   7   8
ENDBRANCH   4   7
BRANCH   1  18
ATOM     18  C   UNL d   1      11.167   8.552  -5.205  0.00  0.00     0.052 A 
ATOM     19  C   UNL d   1      11.806   7.469  -4.556  0.00  0.00    -0.006 A 
ATOM     20  C   UNL d   1      11.862   6.125  -5.190  0.00  0.00     0.033 C 
ATOM     21  C   UNL d   1      12.405   7.617  -3.279  0.00  0.00    -0.003 A 
ATOM     22  C   UNL d   1      12.386   8.863  -2.649  0.00  0.00    -0.000 A 
ATOM     23  C   UNL d   1      11.765   9.946  -3.284  0.00  0.00     0.002 A 
ATOM     24  C   UNL d   1      11.147   9.796  -4.552  0.00  0.00     0.017 A 
ENDBRANCH   1  18
TORSDOF 7
