REMARK  7 active torsions:
REMARK  status: ('A' for Active; 'I' for Inactive)
REMARK    1  A    between atoms: C_2  and  O_3 
REMARK    2  A    between atoms: O_3  and  N_4 
REMARK    3  A    between atoms: C_5  and  C_6 
REMARK    4  A    between atoms: C_5  and  C_20 
REMARK    5  A    between atoms: C_6  and  C_7 
REMARK    6  A    between atoms: C_7  and  N_8 
REMARK    7  A    between atoms: N_11  and  C_12 
ROOT
ATOM      1  C   UNL d   1      10.986   4.438 -15.036  0.00  0.00     0.257 C 
ENDROOT
BRANCH   1   2
ATOM      2  C   UNL d   1       9.464   4.500 -15.274  0.00  0.00     0.083 C 
BRANCH   2   3
ATOM      3  C   UNL d   1       8.650   4.061 -14.052  0.00  0.00     0.087 C 
ATOM      4  N   UNL d   1       8.552   4.756 -12.993  0.00  0.00    -0.136 NA
BRANCH   4   5
ATOM      5  O   UNL d   1       9.337   5.920 -13.018  0.00  0.00    -0.237 OA
BRANCH   5   6
ATOM      6  C   UNL d   1       8.931   6.762 -11.946  0.00  0.00     0.176 C 
ATOM      7  C   UNL d   1       9.291   6.166 -10.576  0.00  0.00     0.038 C 
ENDBRANCH   5   6
ENDBRANCH   4   5
BRANCH   3   8
ATOM      8  C   UNL d   1       7.884   2.799 -14.201  0.00  0.00     0.016 A 
ATOM      9  C   UNL d   1       6.579   2.691 -13.663  0.00  0.00     0.001 A 
ATOM     10  C   UNL d   1       5.860   1.482 -13.766  0.00  0.00     0.000 A 
ATOM     11  C   UNL d   1       6.432   0.379 -14.431  0.00  0.00     0.000 A 
ATOM     12  C   UNL d   1       7.728   0.476 -14.965  0.00  0.00     0.000 A 
ATOM     13  C   UNL d   1       8.454   1.674 -14.841  0.00  0.00     0.001 A 
ENDBRANCH   3   8
ENDBRANCH   2   3
ENDBRANCH   1   2
BRANCH   1  14
ATOM     14  N   UNL d   1      11.717   4.689 -16.272  0.00  0.00     0.141 N 
ATOM     15  C   UNL d   1      11.727   6.123 -16.580  0.00  0.00     0.275 C 
ATOM     16  C   UNL d   1      12.503   6.393 -17.881  0.00  0.00     0.155 C 
ATOM     17  N   UNL d   1      13.870   5.875 -17.780  0.00  0.00    -0.179 N 
ATOM     18  C   UNL d   1      13.903   4.463 -17.393  0.00  0.00     0.155 C 
ATOM     19  C   UNL d   1      13.100   4.247 -16.100  0.00  0.00     0.275 C 
BRANCH  17  20
ATOM     20  C   UNL d   1      15.011   6.636 -18.042  0.00  0.00     0.727 A 
ATOM     21  N   UNL d   1      14.834   7.873 -18.520  0.00  0.00    -0.060 NA
ATOM     22  C   UNL d   1      15.931   8.611 -18.783  0.00  0.00     0.120 A 
ATOM     23  C   UNL d   1      17.224   8.114 -18.552  0.00  0.00     0.043 A 
ATOM     24  C   UNL d   1      17.300   6.805 -18.049  0.00  0.00     0.120 A 
ATOM     25  N   UNL d   1      16.198   6.074 -17.795  0.00  0.00    -0.060 NA
ENDBRANCH  17  20
ENDBRANCH   1  14
TORSDOF 7
