REMARK  8 active torsions:
REMARK  status: ('A' for Active; 'I' for Inactive)
REMARK    1  A    between atoms: C_6  and  C_7 
REMARK    2  A    between atoms: C_10  and  S_11 
REMARK    3  A    between atoms: S_11  and  C_12 
REMARK    4  A    between atoms: C_12  and  C_13 
REMARK    5  A    between atoms: C_13  and  C_14 
REMARK    6  A    between atoms: C_14  and  N_15 
REMARK    7  A    between atoms: C_19  and  C_20 
REMARK    8  A    between atoms: C_23  and  C_24 
ROOT
ATOM      1  N   UNL d   1       8.386   3.588 -13.359  0.00  0.00     0.143 N 
ATOM      2  C   UNL d   1       7.208   4.297 -13.823  0.00  0.00     0.282 C 
ATOM      3  C   UNL d   1       6.283   4.741 -12.684  0.00  0.00     0.178 C 
ATOM      4  O   UNL d   1       7.035   5.561 -11.788  0.00  0.00    -0.348 OA
ATOM      5  C   UNL d   1       8.165   4.873 -11.252  0.00  0.00     0.171 C 
ATOM      6  C   UNL d   1       9.085   4.420 -12.401  0.00  0.00     0.284 C 
ENDROOT
BRANCH   1   7
ATOM      7  C   UNL d   1       9.230   3.203 -14.485  0.00  0.00     0.251 C 
BRANCH   7   8
ATOM      8  C   UNL d   1      10.227   2.068 -14.215  0.00  0.00     0.047 C 
BRANCH   8   9
ATOM      9  C   UNL d   1      11.300   1.884 -15.294  0.00  0.00     0.067 C 
BRANCH   9  10
ATOM     10  S   UNL d   1      10.777   2.303 -16.987  0.00  0.00    -0.075 SA
BRANCH  10  11
ATOM     11  C   UNL d   1       9.843   0.863 -17.386  0.00  0.00     0.193 A 
ATOM     12  N   UNL d   1      10.411  -0.295 -17.698  0.00  0.00    -0.122 NA
ATOM     13  N   UNL d   1       9.373  -1.133 -18.017  0.00  0.00    -0.126 NA
ATOM     14  C   UNL d   1       8.250  -0.422 -17.835  0.00  0.00     0.191 A 
ATOM     15  N   UNL d   1       8.495   0.849 -17.462  0.00  0.00    -0.287 N 
ATOM     16  C   UNL d   1       7.553   1.945 -17.235  0.00  0.00     0.134 C 
BRANCH  14  17
ATOM     17  C   UNL d   1       6.923  -1.009 -18.043  0.00  0.00     0.151 A 
ATOM     18  C   UNL d   1       6.504  -2.245 -18.457  0.00  0.00     0.087 A 
ATOM     19  C   UNL d   1       7.312  -3.449 -18.841  0.00  0.00     0.054 C 
ATOM     20  N   UNL d   1       5.112  -2.261 -18.499  0.00  0.00    -0.221 NA
ATOM     21  C   UNL d   1       4.752  -1.052 -18.085  0.00  0.00     0.225 A 
ATOM     22  O   UNL d   1       5.809  -0.235 -17.809  0.00  0.00    -0.282 OA
ENDBRANCH  14  17
ENDBRANCH  10  11
ENDBRANCH   9  10
ENDBRANCH   8   9
ENDBRANCH   7   8
ENDBRANCH   1   7
BRANCH   5  23
ATOM     23  C   UNL d   1       8.922   5.767 -10.282  0.00  0.00     0.007 A 
ATOM     24  C   UNL d   1       9.549   6.946 -10.750  0.00  0.00    -0.002 A 
ATOM     25  C   UNL d   1      10.267   7.771  -9.862  0.00  0.00     0.004 A 
ATOM     26  C   UNL d   1      10.358   7.420  -8.501  0.00  0.00     0.071 A 
ATOM     27  C   UNL d   1       9.729   6.248  -8.032  0.00  0.00     0.004 A 
ATOM     28  C   UNL d   1       9.027   5.414  -8.919  0.00  0.00    -0.002 A 
BRANCH  26  29
ATOM     29  C   UNL d   1      11.140   8.304  -7.539  0.00  0.00     0.419 C 
ATOM     30  F   UNL d   1      10.397   9.356  -7.202  0.00  0.00    -0.166 F 
ATOM     31  F   UNL d   1      11.457   7.638  -6.429  0.00  0.00    -0.166 F 
ATOM     32  F   UNL d   1      12.266   8.732  -8.110  0.00  0.00    -0.166 F 
ENDBRANCH  26  29
ENDBRANCH   5  23
TORSDOF 8
