REMARK  8 active torsions:
REMARK  status: ('A' for Active; 'I' for Inactive)
REMARK    1  A    between atoms: C_6  and  N_7 
REMARK    2  A    between atoms: N_10  and  C_11 
REMARK    3  A    between atoms: C_11  and  C_12 
REMARK    4  A    between atoms: C_12  and  C_13 
REMARK    5  A    between atoms: C_13  and  C_14 
REMARK    6  A    between atoms: C_14  and  O_15 
REMARK    7  A    between atoms: O_15  and  C_16 
REMARK    8  A    between atoms: C_22  and  C_23 
ROOT
ATOM      1  N   UNL d   1      11.215   1.867 -16.508  0.00  0.00    -0.247 NA
ATOM      2  C   UNL d   1       9.734   1.973 -16.526  0.00  0.00     0.112 C 
ATOM      3  C   UNL d   1       9.164   2.060 -15.088  0.00  0.00     0.268 C 
ATOM      4  N   UNL d   1       9.736   3.213 -14.387  0.00  0.00     0.140 N 
ATOM      5  C   UNL d   1      11.170   2.977 -14.266  0.00  0.00     0.268 C 
ATOM      6  C   UNL d   1      11.734   2.949 -15.633  0.00  0.00     0.112 C 
ENDROOT
BRANCH   4   7
ATOM      7  C   UNL d   1       9.183   3.333 -13.044  0.00  0.00     0.251 C 
BRANCH   7   8
ATOM      8  C   UNL d   1       9.542   4.680 -12.371  0.00  0.00     0.038 C 
BRANCH   8   9
ATOM      9  C   UNL d   1       9.413   4.639 -10.842  0.00  0.00     0.035 C 
BRANCH   9  10
ATOM     10  C   UNL d   1       9.780   5.976 -10.204  0.00  0.00     0.149 C 
BRANCH  10  11
ATOM     11  O   UNL d   1      10.105   5.738  -8.837  0.00  0.00    -0.331 OA
BRANCH  11  12
ATOM     12  C   UNL d   1      10.250   6.825  -8.007  0.00  0.00     0.097 A 
ATOM     13  C   UNL d   1      10.858   6.631  -6.780  0.00  0.00     0.043 A 
ATOM     14  C   UNL d   1      10.992   7.709  -5.857  0.00  0.00     0.088 A 
ATOM     15  N   UNL d   1      10.487   8.960  -6.244  0.00  0.00    -0.228 N 
ATOM     16  C   UNL d   1      11.474   7.914  -4.588  0.00  0.00     0.060 A 
ATOM     17  C   UNL d   1       9.860   9.128  -7.433  0.00  0.00     0.102 A 
ATOM     18  N   UNL d   1      10.668   9.928  -5.276  0.00  0.00    -0.164 NA
ATOM     19  C   UNL d   1       9.760   8.114  -8.326  0.00  0.00     0.045 A 
ATOM     20  C   UNL d   1      11.272   9.283  -4.295  0.00  0.00     0.124 A 
BRANCH  16  21
ATOM     21  C   UNL d   1      12.074   6.920  -3.704  0.00  0.00     0.134 C 
ATOM     22  N   UNL d   1      12.443   7.174  -2.529  0.00  0.00    -0.095 NA
ATOM     23  O   UNL d   1      13.025   5.995  -2.001  0.00  0.00    -0.061 OA
ENDBRANCH  16  21
ENDBRANCH  11  12
ENDBRANCH  10  11
ENDBRANCH   9  10
ENDBRANCH   8   9
ENDBRANCH   7   8
ENDBRANCH   4   7
BRANCH   1  24
ATOM     24  C   UNL d   1      11.855   1.796 -17.910  0.00  0.00     0.061 A 
ATOM     25  C   UNL d   1      12.813   2.762 -18.366  0.00  0.00     0.125 A 
ATOM     26  O   UNL d   1      13.184   3.851 -17.609  0.00  0.00    -0.318 OA
ATOM     27  C   UNL d   1      13.364   2.659 -19.668  0.00  0.00     0.133 A 
ATOM     28  C   UNL d   1      14.490   4.356 -17.783  0.00  0.00     0.238 C 
ATOM     29  C   UNL d   1      14.811   4.549 -19.275  0.00  0.00     0.287 C 
ATOM     30  O   UNL d   1      15.533   5.487 -19.629  0.00  0.00    -0.267 OA
ATOM     31  N   UNL d   1      14.288   3.655 -20.107  0.00  0.00    -0.205 NA
ATOM     32  C   UNL d   1      12.934   1.633 -20.534  0.00  0.00     0.151 A 
ATOM     33  C   UNL d   1      11.982   0.688 -20.091  0.00  0.00     0.030 A 
ATOM     34  O   UNL d   1      13.391   1.561 -21.813  0.00  0.00    -0.189 OA
ATOM     35  C   UNL d   1      11.463   0.753 -18.783  0.00  0.00     0.015 A 
ENDBRANCH   1  24
TORSDOF 8
