REMARK  9 active torsions:
REMARK  status: ('A' for Active; 'I' for Inactive)
REMARK    1  A    between atoms: O_2  and  C_3 
REMARK    2  A    between atoms: C_8  and  N_9 
REMARK    3  A    between atoms: N_12  and  C_13 
REMARK    4  A    between atoms: C_13  and  C_14 
REMARK    5  A    between atoms: C_14  and  C_15 
REMARK    6  A    between atoms: C_15  and  C_16 
REMARK    7  A    between atoms: C_16  and  N_17 
REMARK       I    between atoms: N_17  and  C_18 
REMARK    8  A    between atoms: C_18  and  C_20 
REMARK    9  A    between atoms: C_20  and  C_21 
ROOT
ATOM      1  C   UNL d   1       9.259   5.792 -12.856  0.00  0.00     0.037 C 
ENDROOT
BRANCH   1   2
ATOM      2  C   UNL d   1       9.813   4.342 -12.987  0.00  0.00     0.251 C 
BRANCH   2   3
ATOM      3  N   UNL d   1      10.326   4.029 -14.324  0.00  0.00     0.141 N 
ATOM      4  C   UNL d   1      11.596   4.733 -14.593  0.00  0.00     0.274 C 
ATOM      5  C   UNL d   1      12.158   4.308 -15.971  0.00  0.00     0.137 C 
ATOM      6  N   UNL d   1      11.151   4.564 -16.983  0.00  0.00    -0.343 N 
ATOM      7  C   UNL d   1       9.870   3.935 -16.766  0.00  0.00     0.137 C 
ATOM      8  C   UNL d   1       9.329   4.304 -15.365  0.00  0.00     0.274 C 
BRANCH   6   9
ATOM      9  C   UNL d   1      11.403   5.427 -18.118  0.00  0.00     0.079 A 
ATOM     10  C   UNL d   1      12.059   6.644 -17.943  0.00  0.00     0.110 A 
ATOM     11  C   UNL d   1      12.340   7.440 -19.108  0.00  0.00     0.026 A 
ATOM     12  C   UNL d   1      11.913   7.016 -20.377  0.00  0.00     0.002 A 
ATOM     13  C   UNL d   1      11.217   5.812 -20.514  0.00  0.00     0.002 A 
ATOM     14  C   UNL d   1      10.962   5.006 -19.372  0.00  0.00     0.019 A 
BRANCH  10  15
ATOM     15  O   UNL d   1      12.416   7.049 -16.674  0.00  0.00    -0.327 OA
ATOM     16  C   UNL d   1      13.359   8.107 -16.535  0.00  0.00     0.181 C 
ENDBRANCH  10  15
ENDBRANCH   6   9
ENDBRANCH   2   3
ENDBRANCH   1   2
BRANCH   1  17
ATOM     17  C   UNL d   1       9.261   6.366 -11.433  0.00  0.00     0.029 C 
BRANCH  17  18
ATOM     18  C   UNL d   1       9.399   7.908 -11.509  0.00  0.00     0.129 C 
BRANCH  18  19
ATOM     19  N   UNL d   1       9.473   8.481 -10.191  0.00  0.00    -0.238 NA
ATOM     20  C   UNL d   1      10.543   8.526  -9.414  0.00  0.00     0.256 C 
ATOM     21  O   UNL d   1      11.635   8.011  -9.710  0.00  0.00    -0.270 OA
BRANCH  20  22
ATOM     22  C   UNL d   1      10.430   9.328  -8.126  0.00  0.00     0.116 C 
BRANCH  22  23
ATOM     23  C   UNL d   1      10.861   8.671  -6.843  0.00  0.00    -0.013 A 
ATOM     24  C   UNL d   1      11.172   9.467  -5.709  0.00  0.00    -0.004 A 
ATOM     25  C   UNL d   1      11.585   8.854  -4.500  0.00  0.00    -0.000 A 
ATOM     26  C   UNL d   1      11.706   7.444  -4.451  0.00  0.00    -0.000 A 
ATOM     27  C   UNL d   1      11.869   9.599  -3.332  0.00  0.00    -0.000 A 
ATOM     28  C   UNL d   1      11.415   6.664  -5.593  0.00  0.00    -0.000 A 
ATOM     29  C   UNL d   1      12.099   6.787  -3.276  0.00  0.00    -0.000 A 
ATOM     30  C   UNL d   1      10.971   7.259  -6.764  0.00  0.00    -0.004 A 
ATOM     31  C   UNL d   1      12.365   7.526  -2.123  0.00  0.00    -0.000 A 
ATOM     32  C   UNL d   1      12.259   8.922  -2.153  0.00  0.00    -0.000 A 
ENDBRANCH  22  23
ENDBRANCH  20  22
ENDBRANCH  18  19
ENDBRANCH  17  18
ENDBRANCH   1  17
TORSDOF 9
