REMARK  5 active torsions:
REMARK  status: ('A' for Active; 'I' for Inactive)
REMARK    1  A    between atoms: C_2  and  C_4 
REMARK    2  A    between atoms: C_8  and  C_9 
REMARK    3  A    between atoms: C_12  and  S_13 
REMARK    4  A    between atoms: S_13  and  C_14 
REMARK    5  A    between atoms: C_17  and  C_18 
REMARK       I    between atoms: C_18  and  N_20 
ROOT
ATOM      1  C   UNL d   1      10.861   8.275  -4.908  0.00  0.00     0.131 A 
ATOM      2  C   UNL d   1      11.875   8.965  -5.798  0.00  0.00     0.241 A 
ATOM      3  O   UNL d   1      12.400  10.071  -5.801  0.00  0.00    -0.272 OA
ATOM      4  N   UNL d   1      11.748   7.952  -6.735  0.00  0.00    -0.295 N 
ATOM      5  C   UNL d   1      11.615   7.859  -8.100  0.00  0.00     0.129 C 
ATOM      6  C   UNL d   1      10.395   7.438  -8.435  0.00  0.00     0.026 C 
ATOM      7  C   UNL d   1       9.621   7.178  -7.161  0.00  0.00     0.051 C 
ATOM      8  C   UNL d   1       8.551   8.197  -6.930  0.00  0.00     0.007 C 
ATOM      9  C   UNL d   1      10.693   7.227  -6.048  0.00  0.00     0.104 A 
ENDROOT
BRANCH   6  10
ATOM     10  S   UNL d   1       9.773   7.326 -10.077  0.00  0.00    -0.115 SA
BRANCH  10  11
ATOM     11  C   UNL d   1       8.529   6.045  -9.949  0.00  0.00     0.090 C 
ATOM     12  C   UNL d   1       7.763   5.902 -11.273  0.00  0.00     0.059 C 
ATOM     13  C   UNL d   1       8.205   4.534 -11.748  0.00  0.00     0.335 C 
ATOM     14  N   UNL d   1       9.470   4.338 -11.079  0.00  0.00     0.347 N 
ATOM     15  C   UNL d   1       9.271   4.749  -9.718  0.00  0.00     0.302 C 
BRANCH  13  16
ATOM     16  C   UNL d   1       8.459   4.412 -13.261  0.00  0.00     0.268 C 
ATOM     17  O   UNL d   1       9.403   5.015 -13.754  0.00  0.00    -0.270 OA
ATOM     18  N   UNL d   1       7.703   3.569 -14.010  0.00  0.00    -0.315 N 
ATOM     19  C   UNL d   1       8.261   3.034 -15.254  0.00  0.00     0.128 C 
ATOM     20  C   UNL d   1       6.338   3.151 -13.678  0.00  0.00     0.128 C 
ENDBRANCH  13  16
ENDBRANCH  10  11
ENDBRANCH   6  10
BRANCH   5  21
ATOM     21  C   UNL d   1      12.627   8.224  -8.999  0.00  0.00     0.228 C 
ATOM     22  O   UNL d   1      12.756   7.998 -10.195  0.00  0.00    -0.643 OA
ATOM     23  O   UNL d   1      13.493   8.990  -8.354  0.00  0.00    -0.643 OA
ENDBRANCH   5  21
BRANCH   1  24
ATOM     24  C   UNL d   1      11.452   7.842  -3.563  0.00  0.00     0.163 C 
ATOM     25  C   UNL d   1      12.796   7.110  -3.667  0.00  0.00     0.036 C 
ATOM     26  O   UNL d   1      11.690   8.984  -2.776  0.00  0.00    -0.223 OA
ENDBRANCH   1  24
TORSDOF 5
