REMARK  8 active torsions:
REMARK  status: ('A' for Active; 'I' for Inactive)
REMARK    1  A    between atoms: C_2  and  C_3 
REMARK    2  A    between atoms: C_3  and  C_4 
REMARK    3  A    between atoms: C_4  and  O_5 
REMARK    4  A    between atoms: O_5  and  C_6 
REMARK    5  A    between atoms: C_11  and  C_12 
REMARK    6  A    between atoms: C_12  and  N_13 
REMARK    7  A    between atoms: N_16  and  C_17 
REMARK    8  A    between atoms: C_17  and  C_18 
ROOT
ATOM      1  N   UNL d   1       9.557   4.493 -15.104  0.00  0.00     0.146 N 
ATOM      2  C   UNL d   1      10.373   5.094 -14.060  0.00  0.00     0.286 C 
ATOM      3  C   UNL d   1       9.532   5.643 -12.918  0.00  0.00     0.286 C 
ATOM      4  N   UNL d   1       8.721   4.608 -12.277  0.00  0.00     0.148 N 
ATOM      5  C   UNL d   1       7.886   3.998 -13.314  0.00  0.00     0.286 C 
ATOM      6  C   UNL d   1       8.736   3.448 -14.483  0.00  0.00     0.286 C 
ENDROOT
BRANCH   1   7
ATOM      7  C   UNL d   1      10.392   3.977 -16.188  0.00  0.00     0.279 C 
BRANCH   7   8
ATOM      8  C   UNL d   1      11.095   5.068 -16.998  0.00  0.00     0.033 A 
ATOM      9  C   UNL d   1      10.511   5.567 -18.187  0.00  0.00     0.092 A 
ATOM     10  C   UNL d   1      11.203   6.569 -18.917  0.00  0.00     0.024 A 
ATOM     11  C   UNL d   1      12.425   7.086 -18.459  0.00  0.00     0.002 A 
ATOM     12  C   UNL d   1      12.998   6.589 -17.278  0.00  0.00    -0.000 A 
ATOM     13  C   UNL d   1      12.339   5.576 -16.559  0.00  0.00    -0.000 A 
BRANCH   9  14
ATOM     14  O   UNL d   1       9.297   5.036 -18.578  0.00  0.00    -0.331 OA
BRANCH  14  15
ATOM     15  C   UNL d   1       8.678   5.524 -19.762  0.00  0.00     0.152 C 
BRANCH  15  16
ATOM     16  C   UNL d   1       8.071   6.919 -19.517  0.00  0.00     0.071 C 
BRANCH  16  17
ATOM     17  C   UNL d   1       7.311   7.453 -20.733  0.00  0.00     0.196 C 
ATOM     18  F   UNL d   1       6.793   8.649 -20.453  0.00  0.00    -0.234 F 
ENDBRANCH  16  17
ENDBRANCH  15  16
ENDBRANCH  14  15
ENDBRANCH   9  14
ENDBRANCH   7   8
ENDBRANCH   1   7
BRANCH   4  19
ATOM     19  C   UNL d   1       7.917   5.128 -11.158  0.00  0.00     0.301 C 
BRANCH  19  20
ATOM     20  C   UNL d   1       8.697   5.759 -10.044  0.00  0.00     0.111 A 
ATOM     21  O   UNL d   1       9.573   6.751 -10.390  0.00  0.00    -0.309 OA
ATOM     22  C   UNL d   1      10.211   7.151  -9.255  0.00  0.00     0.100 A 
ATOM     23  C   UNL d   1       9.648   6.481  -8.130  0.00  0.00     0.025 A 
ATOM     24  C   UNL d   1      11.274   8.075  -9.150  0.00  0.00     0.025 A 
ATOM     25  C   UNL d   1       8.660   5.588  -8.670  0.00  0.00     0.024 A 
ATOM     26  C   UNL d   1      10.164   6.836  -6.857  0.00  0.00     0.002 A 
ATOM     27  C   UNL d   1      11.213   7.785  -6.732  0.00  0.00     0.000 A 
ATOM     28  C   UNL d   1      11.779   8.389  -7.874  0.00  0.00     0.002 A 
ENDBRANCH  19  20
ENDBRANCH   4  19
TORSDOF 8
