REMARK  7 active torsions:
REMARK  status: ('A' for Active; 'I' for Inactive)
REMARK    1  A    between atoms: C_2  and  C_3 
REMARK    2  A    between atoms: C_3  and  N_4 
REMARK    3  A    between atoms: N_4  and  C_5 
REMARK    4  A    between atoms: N_4  and  C_24 
REMARK    5  A    between atoms: C_5  and  C_6 
REMARK    6  A    between atoms: C_6  and  N_7 
REMARK    7  A    between atoms: N_10  and  C_11 
ROOT
ATOM      1  N   UNL d   1       8.760   6.728 -11.241  0.00  0.00     0.143 N 
ATOM      2  C   UNL d   1       8.377   6.680 -12.639  0.00  0.00     0.274 C 
ATOM      3  C   UNL d   1       7.843   5.298 -13.026  0.00  0.00     0.137 C 
ATOM      4  N   UNL d   1       8.845   4.296 -12.716  0.00  0.00    -0.344 N 
ATOM      5  C   UNL d   1       9.376   4.315 -11.364  0.00  0.00     0.137 C 
ATOM      6  C   UNL d   1       9.815   5.739 -11.009  0.00  0.00     0.274 C 
ENDROOT
BRANCH   1   7
ATOM      7  C   UNL d   1       9.235   8.073 -10.967  0.00  0.00     0.286 C 
BRANCH   7   8
ATOM      8  C   UNL d   1       9.702   8.277  -9.503  0.00  0.00     0.285 C 
BRANCH   8   9
ATOM      9  N   UNL d   1      11.124   8.022  -9.212  0.00  0.00     0.137 N 
BRANCH   9  10
ATOM     10  C   UNL d   1      12.025   8.679 -10.148  0.00  0.00     0.250 C 
BRANCH  10  11
ATOM     11  C   UNL d   1      13.252   7.846 -10.475  0.00  0.00     0.035 C 
ATOM     12  C   UNL d   1      14.262   7.697  -9.483  0.00  0.00     0.002 C 
ENDBRANCH  10  11
ENDBRANCH   9  10
BRANCH   9  13
ATOM     13  C   UNL d   1      11.492   8.281  -7.800  0.00  0.00     0.224 C 
ATOM     14  C   UNL d   1      11.185   7.132  -6.833  0.00  0.00     0.059 C 
ATOM     15  C   UNL d   1      11.444   7.523  -5.374  0.00  0.00    -0.022 A 
ATOM     16  C   UNL d   1      11.614   8.855  -4.929  0.00  0.00    -0.001 A 
ATOM     17  C   UNL d   1      11.501   6.499  -4.431  0.00  0.00    -0.004 A 
ATOM     18  C   UNL d   1      11.591   9.993  -5.922  0.00  0.00     0.030 C 
ATOM     19  C   UNL d   1      11.794   9.114  -3.548  0.00  0.00     0.127 A 
ATOM     20  C   UNL d   1      10.952   9.600  -7.244  0.00  0.00     0.038 C 
ATOM     21  O   UNL d   1      11.808  10.381  -3.075  0.00  0.00    -0.191 OA
ATOM     22  C   UNL d   1      11.874   8.064  -2.617  0.00  0.00     0.027 A 
ATOM     23  C   UNL d   1      11.725   6.745  -3.064  0.00  0.00     0.002 A 
ENDBRANCH   9  13
ENDBRANCH   8   9
ENDBRANCH   7   8
ENDBRANCH   1   7
BRANCH   4  24
ATOM     24  C   UNL d   1       9.250   3.345 -13.669  0.00  0.00     0.058 A 
ATOM     25  C   UNL d   1       8.337   2.446 -14.272  0.00  0.00     0.035 A 
ATOM     26  C   UNL d   1       8.791   1.455 -15.196  0.00  0.00     0.108 A 
ATOM     27  C   UNL d   1       6.963   2.436 -13.923  0.00  0.00     0.005 A 
ATOM     28  C   UNL d   1      10.171   1.421 -15.516  0.00  0.00     0.149 A 
ATOM     29  N   UNL d   1       7.945   0.551 -15.737  0.00  0.00    -0.242 NA
ATOM     30  C   UNL d   1      11.064   2.332 -14.933  0.00  0.00     0.030 A 
ATOM     31  O   UNL d   1      10.661   0.498 -16.402  0.00  0.00    -0.189 OA
ATOM     32  C   UNL d   1      10.614   3.283 -14.005  0.00  0.00     0.019 A 
ATOM     33  C   UNL d   1       6.645   0.554 -15.386  0.00  0.00     0.099 A 
ATOM     34  C   UNL d   1       6.117   1.461 -14.449  0.00  0.00     0.021 A 
ENDBRANCH   4  24
TORSDOF 7
