REMARK  6 active torsions:
REMARK  status: ('A' for Active; 'I' for Inactive)
REMARK    1  A    between atoms: C_2  and  C_3 
REMARK    2  A    between atoms: N_13  and  C_14 
REMARK    3  A    between atoms: C_14  and  C_15 
REMARK    4  A    between atoms: C_15  and  C_17 
REMARK    5  A    between atoms: C_17  and  N_18 
REMARK    6  A    between atoms: N_21  and  C_22 
ROOT
ATOM      1  C   UNL d   1       7.329   2.247 -15.062  0.00  0.00     0.148 C 
ENDROOT
BRANCH   1   2
ATOM      2  N   UNL d   1       6.941   3.180 -13.966  0.00  0.00    -0.247 N 
ATOM      3  C   UNL d   1       5.965   2.866 -13.101  0.00  0.00     0.348 A 
ATOM      4  N   UNL d   1       5.805   3.873 -12.212  0.00  0.00    -0.209 NA
ATOM      5  O   UNL d   1       5.324   1.820 -13.096  0.00  0.00    -0.245 OA
ATOM      6  C   UNL d   1       6.716   4.983 -12.477  0.00  0.00     0.179 A 
ATOM      7  C   UNL d   1       5.890   6.240 -12.800  0.00  0.00     0.039 C 
ATOM      8  C   UNL d   1       7.443   4.399 -13.667  0.00  0.00     0.265 A 
ATOM      9  O   UNL d   1       8.358   4.997 -14.236  0.00  0.00    -0.269 OA
BRANCH   6  10
ATOM     10  C   UNL d   1       7.793   5.255 -11.413  0.00  0.00     0.006 A 
ATOM     11  C   UNL d   1       8.750   6.283 -11.572  0.00  0.00     0.000 A 
ATOM     12  C   UNL d   1       9.716   6.524 -10.565  0.00  0.00     0.029 A 
ATOM     13  C   UNL d   1       9.738   5.746  -9.399  0.00  0.00     0.140 A 
ATOM     14  C   UNL d   1       8.828   4.687  -9.271  0.00  0.00     0.029 A 
ATOM     15  F   UNL d   1      10.649   5.994  -8.429  0.00  0.00    -0.204 F 
ATOM     16  C   UNL d   1       7.878   4.434 -10.281  0.00  0.00     0.000 A 
ENDBRANCH   6  10
ENDBRANCH   1   2
BRANCH   1  17
ATOM     17  C   UNL d   1       8.476   1.258 -14.735  0.00  0.00     0.208 C 
ATOM     18  O   UNL d   1       7.998   0.242 -13.886  0.00  0.00    -0.219 OA
BRANCH  17  19
ATOM     19  C   UNL d   1       9.774   1.933 -14.216  0.00  0.00     0.285 C 
BRANCH  19  20
ATOM     20  N   UNL d   1      10.718   2.423 -15.222  0.00  0.00     0.144 N 
ATOM     21  C   UNL d   1      11.797   3.154 -14.529  0.00  0.00     0.274 C 
ATOM     22  C   UNL d   1      12.842   3.711 -15.533  0.00  0.00     0.137 C 
ATOM     23  N   UNL d   1      12.172   4.494 -16.559  0.00  0.00    -0.344 N 
ATOM     24  C   UNL d   1      11.073   3.839 -17.251  0.00  0.00     0.137 C 
ATOM     25  C   UNL d   1      10.103   3.277 -16.235  0.00  0.00     0.274 C 
BRANCH  23  26
ATOM     26  C   UNL d   1      12.591   5.788 -16.904  0.00  0.00     0.067 A 
ATOM     27  C   UNL d   1      12.918   6.126 -18.242  0.00  0.00     0.073 A 
ATOM     28  C   UNL d   1      13.363   7.436 -18.530  0.00  0.00     0.013 A 
ATOM     29 CL   UNL d   1      12.872   4.981 -19.540  0.00  0.00    -0.081 Cl
ATOM     30  C   UNL d   1      13.470   8.377 -17.506  0.00  0.00     0.001 A 
ATOM     31  C   UNL d   1      13.111   8.064 -16.192  0.00  0.00     0.002 A 
ATOM     32  C   UNL d   1      12.671   6.759 -15.885  0.00  0.00     0.018 A 
ENDBRANCH  23  26
ENDBRANCH  19  20
ENDBRANCH  17  19
ENDBRANCH   1  17
TORSDOF 6
