REMARK  5 active torsions:
REMARK  status: ('A' for Active; 'I' for Inactive)
REMARK    1  A    between atoms: N_5  and  C_6 
REMARK    2  A    between atoms: C_6  and  C_7 
REMARK    3  A    between atoms: C_7  and  C_8 
REMARK    4  A    between atoms: N_12  and  S_13 
REMARK    5  A    between atoms: S_13  and  C_16 
ROOT
ATOM      1  C   UNL d   1       9.623   4.086 -14.044  0.00  0.00     0.094 C 
ATOM      2  C   UNL d   1       8.395   3.278 -14.488  0.00  0.00     0.025 C 
ATOM      3  C   UNL d   1       8.692   2.885 -15.935  0.00  0.00     0.027 C 
ATOM      4  C   UNL d   1       9.605   4.002 -16.432  0.00  0.00     0.113 C 
ATOM      5  N   UNL d   1      10.398   4.356 -15.264  0.00  0.00    -0.276 N 
ENDROOT
BRANCH   5   6
ATOM      6  S   UNL d   1      12.085   4.017 -15.312  0.00  0.00     0.264 S 
ATOM      7  O   UNL d   1      12.627   4.186 -13.958  0.00  0.00    -0.200 OA
ATOM      8  O   UNL d   1      12.245   2.754 -16.043  0.00  0.00    -0.200 OA
BRANCH   6   9
ATOM      9  C   UNL d   1      12.748   5.359 -16.280  0.00  0.00     0.104 A 
ATOM     10  C   UNL d   1      13.716   5.117 -17.275  0.00  0.00     0.020 A 
ATOM     11  C   UNL d   1      14.210   6.199 -18.034  0.00  0.00     0.035 A 
ATOM     12  C   UNL d   1      13.741   7.506 -17.791  0.00  0.00     0.007 A 
ATOM     13 BR   UNL d   1      15.505   5.894 -19.395  0.00  0.00    -0.049 Br
ATOM     14  C   UNL d   1      12.792   7.738 -16.779  0.00  0.00     0.001 A 
ATOM     15  C   UNL d   1      12.290   6.664 -16.025  0.00  0.00     0.013 A 
ENDBRANCH   6   9
ENDBRANCH   5   6
BRANCH   1  16
ATOM     16  C   UNL d   1       9.248   5.430 -13.404  0.00  0.00     0.058 C 
BRANCH  16  17
ATOM     17  C   UNL d   1       8.549   5.314 -12.037  0.00  0.00     0.252 C 
BRANCH  17  18
ATOM     18  N   UNL d   1       9.391   5.781 -10.941  0.00  0.00     0.137 N 
ATOM     19  C   UNL d   1       8.711   5.456  -9.683  0.00  0.00     0.250 C 
ATOM     20  C   UNL d   1       9.610   5.815  -8.491  0.00  0.00     0.035 C 
ATOM     21  C   UNL d   1       9.988   7.302  -8.497  0.00  0.00     0.004 C 
ATOM     22  C   UNL d   1      10.992   7.628  -7.383  0.00  0.00     0.000 C 
ATOM     23  C   UNL d   1      10.546   7.673  -9.876  0.00  0.00     0.035 C 
ATOM     24  C   UNL d   1       9.602   7.232 -10.999  0.00  0.00     0.250 C 
ENDBRANCH  17  18
ENDBRANCH  16  17
ENDBRANCH   1  16
TORSDOF 5
