REMARK  6 active torsions:
REMARK  status: ('A' for Active; 'I' for Inactive)
REMARK       I    between atoms: C_2  and  N_3 
REMARK    1  A    between atoms: C_2  and  C_25 
REMARK    2  A    between atoms: N_3  and  C_4 
REMARK    3  A    between atoms: C_7  and  C_8 
REMARK    4  A    between atoms: C_8  and  C_9 
REMARK    5  A    between atoms: C_9  and  N_10 
REMARK    6  A    between atoms: N_13  and  C_14 
ROOT
ATOM      1  C   UNL d   1      10.954   8.900  -7.702  0.00  0.00     0.106 C 
ATOM      2  C   UNL d   1       9.481   8.350  -7.613  0.00  0.00     0.024 C 
ATOM      3  C   UNL d   1       9.344   7.067  -8.446  0.00  0.00     0.002 C 
ATOM      4  C   UNL d   1       9.724   7.365  -9.903  0.00  0.00     0.002 C 
ATOM      5  C   UNL d   1      11.128   7.963  -9.993  0.00  0.00     0.002 C 
ATOM      6  C   UNL d   1      11.270   9.230  -9.154  0.00  0.00     0.024 C 
ENDROOT
BRANCH   4   7
ATOM      7  C   UNL d   1       9.530   6.159 -10.827  0.00  0.00     0.035 C 
BRANCH   7   8
ATOM      8  C   UNL d   1       8.102   5.564 -10.826  0.00  0.00     0.250 C 
BRANCH   8   9
ATOM      9  N   UNL d   1       7.721   5.060 -12.140  0.00  0.00     0.141 N 
ATOM     10  C   UNL d   1       8.684   4.057 -12.615  0.00  0.00     0.274 C 
ATOM     11  C   UNL d   1       8.287   3.552 -13.998  0.00  0.00     0.137 C 
ATOM     12  N   UNL d   1       6.926   3.046 -13.986  0.00  0.00    -0.344 N 
ATOM     13  C   UNL d   1       5.925   3.941 -13.422  0.00  0.00     0.137 C 
ATOM     14  C   UNL d   1       6.381   4.457 -12.043  0.00  0.00     0.274 C 
BRANCH  12  15
ATOM     15  C   UNL d   1       6.612   1.759 -14.467  0.00  0.00     0.067 A 
ATOM     16  C   UNL d   1       7.153   1.244 -15.680  0.00  0.00     0.073 A 
ATOM     17  C   UNL d   1       6.760  -0.015 -16.128  0.00  0.00     0.013 A 
ATOM     18 CL   UNL d   1       8.255   2.087 -16.722  0.00  0.00    -0.081 Cl
ATOM     19  C   UNL d   1       5.847  -0.802 -15.405  0.00  0.00     0.001 A 
ATOM     20  C   UNL d   1       5.306  -0.307 -14.208  0.00  0.00     0.002 A 
ATOM     21  C   UNL d   1       5.689   0.964 -13.740  0.00  0.00     0.018 A 
ENDBRANCH  12  15
ENDBRANCH   8   9
ENDBRANCH   7   8
ENDBRANCH   4   7
BRANCH   1  22
ATOM     22  N   UNL d   1      11.140  10.042  -6.838  0.00  0.00    -0.240 NA
ATOM     23  C   UNL d   1      11.101   9.973  -5.493  0.00  0.00     0.251 C 
ATOM     24  O   UNL d   1      10.667  10.895  -4.846  0.00  0.00    -0.271 OA
BRANCH  23  25
ATOM     25  C   UNL d   1      11.735   8.803  -4.770  0.00  0.00     0.081 C 
ATOM     26  C   UNL d   1      11.808   9.055  -3.235  0.00  0.00     0.009 C 
ATOM     27  C   UNL d   1      12.447   7.857  -2.511  0.00  0.00     0.001 C 
ATOM     28  C   UNL d   1      11.749   6.533  -2.844  0.00  0.00     0.000 C 
ATOM     29  C   UNL d   1      11.681   6.398  -4.360  0.00  0.00     0.001 C 
ATOM     30  C   UNL d   1      11.032   7.491  -5.097  0.00  0.00     0.009 C 
ENDBRANCH  23  25
ENDBRANCH   1  22
TORSDOF 6
