REMARK  4 active torsions:
REMARK  status: ('A' for Active; 'I' for Inactive)
REMARK       I    between atoms: N_2  and  C_4 
REMARK       I    between atoms: C_4  and  N_6 
REMARK    1  A    between atoms: N_6  and  C_7 
REMARK    2  A    between atoms: C_10  and  C_11 
REMARK    3  A    between atoms: C_11  and  C_12 
REMARK    4  A    between atoms: C_12  and  N_13 
ROOT
ATOM      1  C   UNL d   1      10.248   7.117  -7.381  0.00  0.00     0.108 C 
ATOM      2  C   UNL d   1       8.760   6.840  -7.575  0.00  0.00     0.025 C 
ATOM      3  C   UNL d   1       8.528   5.851  -8.720  0.00  0.00     0.002 C 
ATOM      4  C   UNL d   1       9.138   6.341 -10.057  0.00  0.00     0.002 C 
ATOM      5  C   UNL d   1      10.606   6.654  -9.840  0.00  0.00     0.002 C 
ATOM      6  C   UNL d   1      10.872   7.630  -8.691  0.00  0.00     0.025 C 
ENDROOT
BRANCH   4   7
ATOM      7  C   UNL d   1       8.892   5.320 -11.187  0.00  0.00     0.035 C 
BRANCH   7   8
ATOM      8  C   UNL d   1       7.431   5.335 -11.685  0.00  0.00     0.251 C 
BRANCH   8   9
ATOM      9  N   UNL d   1       7.010   4.018 -12.167  0.00  0.00     0.142 N 
ATOM     10  C   UNL d   1       7.630   3.715 -13.455  0.00  0.00     0.276 C 
ATOM     11  C   UNL d   1       7.153   2.406 -14.071  0.00  0.00     0.007 A 
ATOM     12  C   UNL d   1       5.936   1.825 -13.656  0.00  0.00    -0.022 A 
ATOM     13  C   UNL d   1       7.928   1.782 -15.069  0.00  0.00    -0.003 A 
ATOM     14  C   UNL d   1       5.127   2.498 -12.561  0.00  0.00     0.061 C 
ATOM     15  C   UNL d   1       5.493   0.622 -14.243  0.00  0.00    -0.004 A 
ATOM     16  C   UNL d   1       5.559   3.957 -12.302  0.00  0.00     0.255 C 
ATOM     17  C   UNL d   1       6.261   0.008 -15.253  0.00  0.00    -0.000 A 
ATOM     18  C   UNL d   1       7.480   0.586 -15.661  0.00  0.00    -0.000 A 
ENDBRANCH   8   9
ENDBRANCH   7   8
ENDBRANCH   4   7
BRANCH   1  19
ATOM     19  N   UNL d   1      10.414   8.116  -6.340  0.00  0.00    -0.221 NA
ATOM     20  C   UNL d   1      11.095   7.937  -5.202  0.00  0.00     0.342 C 
ATOM     21  N   UNL d   1      11.280   9.060  -4.480  0.00  0.00    -0.297 N 
ATOM     22  O   UNL d   1      11.530   6.840  -4.851  0.00  0.00    -0.245 OA
ATOM     23  C   UNL d   1      11.989   9.027  -3.200  0.00  0.00     0.130 C 
ATOM     24  C   UNL d   1      10.791  10.366  -4.901  0.00  0.00     0.130 C 
ENDBRANCH   1  19
TORSDOF 4
