REMARK  6 active torsions:
REMARK  status: ('A' for Active; 'I' for Inactive)
REMARK       I    between atoms: C_2  and  N_3 
REMARK    1  A    between atoms: C_2  and  C_22 
REMARK    2  A    between atoms: N_3  and  C_4 
REMARK    3  A    between atoms: C_4  and  C_5 
REMARK    4  A    between atoms: C_6  and  C_7 
REMARK    5  A    between atoms: C_7  and  N_8 
REMARK    6  A    between atoms: N_11  and  C_12 
ROOT
ATOM      1  N   UNL d   1       8.898   4.363 -13.111  0.00  0.00     0.145 N 
ATOM      2  C   UNL d   1       9.440   3.180 -13.792  0.00  0.00     0.275 C 
ATOM      3  C   UNL d   1       8.560   2.768 -14.972  0.00  0.00     0.137 C 
ATOM      4  N   UNL d   1       7.179   2.591 -14.532  0.00  0.00    -0.344 N 
ATOM      5  C   UNL d   1       6.620   3.714 -13.770  0.00  0.00     0.137 C 
ATOM      6  C   UNL d   1       7.536   4.126 -12.616  0.00  0.00     0.275 C 
ENDROOT
BRANCH   1   7
ATOM      7  C   UNL d   1       9.834   4.681 -12.040  0.00  0.00     0.276 C 
BRANCH   7   8
ATOM      8  C   UNL d   1       9.312   5.691 -11.043  0.00  0.00     0.006 C 
ATOM      9  C   UNL d   1       9.535   5.615  -9.726  0.00  0.00    -0.003 C 
BRANCH   9  10
ATOM     10  C   UNL d   1       8.963   6.596  -8.735  0.00  0.00     0.155 C 
BRANCH  10  11
ATOM     11  N   UNL d   1       9.886   6.850  -7.647  0.00  0.00    -0.229 NA
ATOM     12  C   UNL d   1      10.056   8.050  -7.057  0.00  0.00     0.276 C 
ATOM     13  O   UNL d   1       9.539   9.078  -7.484  0.00  0.00    -0.266 OA
BRANCH  12  14
ATOM     14  C   UNL d   1      10.927   8.034  -5.820  0.00  0.00     0.068 A 
ATOM     15  C   UNL d   1      11.563   9.198  -5.299  0.00  0.00     0.062 A 
ATOM     16  C   UNL d   1      12.326   9.120  -4.107  0.00  0.00     0.012 A 
ATOM     17 CL   UNL d   1      11.453  10.742  -6.057  0.00  0.00    -0.082 Cl
ATOM     18  C   UNL d   1      12.468   7.908  -3.408  0.00  0.00     0.001 A 
ATOM     19  C   UNL d   1      11.838   6.766  -3.913  0.00  0.00     0.000 A 
ATOM     20  C   UNL d   1      11.075   6.835  -5.092  0.00  0.00     0.006 A 
ENDBRANCH  12  14
ENDBRANCH  10  11
ENDBRANCH   9  10
ENDBRANCH   7   8
ENDBRANCH   1   7
BRANCH   4  21
ATOM     21  C   UNL d   1       6.429   1.433 -14.816  0.00  0.00     0.068 A 
ATOM     22  C   UNL d   1       6.401   0.806 -16.102  0.00  0.00     0.084 A 
ATOM     23  C   UNL d   1       5.588  -0.329 -16.330  0.00  0.00     0.070 A 
ATOM     24 CL   UNL d   1       7.239   1.504 -17.454  0.00  0.00    -0.080 Cl
ATOM     25  C   UNL d   1       4.780  -0.830 -15.299  0.00  0.00     0.012 A 
ATOM     26 CL   UNL d   1       5.513  -1.070 -17.887  0.00  0.00    -0.081 Cl
ATOM     27  C   UNL d   1       4.761  -0.199 -14.050  0.00  0.00     0.002 A 
ATOM     28  C   UNL d   1       5.597   0.899 -13.802  0.00  0.00     0.018 A 
ENDBRANCH   4  21
TORSDOF 6
