REMARK  1 active torsions:
REMARK  status: ('A' for Active; 'I' for Inactive)
REMARK    1  A    between atoms: C_6  and  C_7 
ROOT
ATOM      1  C   UNL d   1      10.674   2.315 -18.998  0.00  0.00     0.285 C 
ATOM      2  N   UNL d   1      10.756   2.493 -17.558  0.00  0.00     0.139 N 
ATOM      3  C   UNL d   1       9.996   3.680 -17.174  0.00  0.00     0.250 C 
ATOM      4  C   UNL d   1      10.856   4.505 -16.200  0.00  0.00     0.036 C 
ATOM      5  C   UNL d   1      10.098   5.085 -15.005  0.00  0.00     0.012 C 
ATOM      6  C   UNL d   1       9.889   4.153 -13.804  0.00  0.00     0.062 C 
ATOM      7  C   UNL d   1       8.904   3.065 -14.116  0.00  0.00     0.059 A 
ATOM      8  N   UNL d   1       7.583   3.180 -13.747  0.00  0.00    -0.250 NA
ATOM      9  C   UNL d   1       6.877   2.031 -14.035  0.00  0.00     0.081 A 
ATOM     10  C   UNL d   1       5.571   1.608 -13.740  0.00  0.00     0.019 A 
ATOM     11  C   UNL d   1       5.118   0.372 -14.267  0.00  0.00     0.002 A 
ATOM     12  C   UNL d   1       6.011  -0.439 -15.002  0.00  0.00     0.000 A 
ATOM     13  C   UNL d   1       7.336  -0.013 -15.226  0.00  0.00     0.001 A 
ATOM     14  C   UNL d   1       7.805   1.224 -14.739  0.00  0.00     0.015 A 
ATOM     15  C   UNL d   1       9.090   1.859 -14.756  0.00  0.00    -0.005 A 
ATOM     16  C   UNL d   1      10.360   1.282 -15.351  0.00  0.00     0.063 C 
ATOM     17  C   UNL d   1      10.322   1.262 -16.893  0.00  0.00     0.255 C 
ENDROOT
BRANCH   6  18
ATOM     18  C   UNL d   1       9.525   4.902 -12.506  0.00  0.00    -0.017 A 
ATOM     19  C   UNL d   1       9.198   6.281 -12.447  0.00  0.00    -0.004 A 
ATOM     20  C   UNL d   1       9.053   6.914 -11.197  0.00  0.00    -0.000 A 
ATOM     21  C   UNL d   1       9.071   6.171  -9.985  0.00  0.00    -0.000 A 
ATOM     22  C   UNL d   1       9.341   4.795 -10.052  0.00  0.00    -0.000 A 
ATOM     23  C   UNL d   1       9.558   4.174 -11.304  0.00  0.00    -0.004 A 
ENDBRANCH   6  18
TORSDOF 1
