REMARK  6 active torsions:
REMARK  status: ('A' for Active; 'I' for Inactive)
REMARK    1  A    between atoms: C_5  and  C_6 
REMARK    2  A    between atoms: N_14  and  C_15 
REMARK    3  A    between atoms: C_15  and  C_16 
REMARK    4  A    between atoms: C_18  and  C_19 
REMARK    5  A    between atoms: C_19  and  N_20 
REMARK       I    between atoms: N_20  and  C_21 
REMARK    6  A    between atoms: C_21  and  C_23 
ROOT
ATOM      1  C   UNL d   1      10.159   2.661 -14.178  0.00  0.00     0.035 A 
ATOM      2  C   UNL d   1       9.944   1.372 -14.934  0.00  0.00     0.004 A 
ATOM      3  C   UNL d   1      10.907   2.413 -15.464  0.00  0.00     0.026 A 
ENDROOT
BRANCH   1   4
ATOM      4  C   UNL d   1       9.066   3.705 -14.178  0.00  0.00     0.250 C 
BRANCH   4   5
ATOM      5  N   UNL d   1       8.434   3.955 -12.897  0.00  0.00     0.140 N 
ATOM      6  C   UNL d   1       7.088   4.508 -13.055  0.00  0.00     0.249 C 
ATOM      7  C   UNL d   1       6.090   3.568 -13.777  0.00  0.00     0.038 C 
ATOM      8  C   UNL d   1       6.500   4.842 -11.694  0.00  0.00     0.176 C 
ATOM      9  O   UNL d   1       7.369   5.749 -11.029  0.00  0.00    -0.348 OA
ATOM     10  C   UNL d   1       8.655   5.220 -10.754  0.00  0.00     0.172 C 
ATOM     11  C   UNL d   1       9.269   4.871 -12.117  0.00  0.00     0.284 C 
BRANCH  10  12
ATOM     12  C   UNL d   1       9.474   6.213  -9.955  0.00  0.00     0.026 A 
ATOM     13  C   UNL d   1       9.860   5.927  -8.619  0.00  0.00     0.099 A 
ATOM     14  N   UNL d   1      10.603   6.765  -7.872  0.00  0.00    -0.224 NA
ATOM     15  C   UNL d   1      10.974   7.940  -8.413  0.00  0.00     0.184 A 
ATOM     16  C   UNL d   1      10.635   8.330  -9.730  0.00  0.00     0.040 A 
ATOM     17  N   UNL d   1      11.734   8.777  -7.622  0.00  0.00    -0.127 N 
ATOM     18  C   UNL d   1       9.859   7.447 -10.494  0.00  0.00     0.003 A 
ENDBRANCH  10  12
ENDBRANCH   4   5
ENDBRANCH   1   4
BRANCH   3  19
ATOM     19  C   UNL d   1      10.603   3.192 -16.745  0.00  0.00     0.129 C 
BRANCH  19  20
ATOM     20  N   UNL d   1      11.670   4.087 -17.172  0.00  0.00    -0.233 NA
ATOM     21  C   UNL d   1      12.051   5.207 -16.547  0.00  0.00     0.293 C 
ATOM     22  O   UNL d   1      11.534   5.638 -15.514  0.00  0.00    -0.264 OA
BRANCH  21  23
ATOM     23  C   UNL d   1      13.098   5.965 -17.244  0.00  0.00     0.139 A 
ATOM     24  N   UNL d   1      13.127   7.347 -17.144  0.00  0.00    -0.241 NA
ATOM     25  C   UNL d   1      14.197   7.861 -17.854  0.00  0.00     0.082 A 
ATOM     26  C   UNL d   1      14.874   6.732 -18.396  0.00  0.00     0.019 A 
ATOM     27  C   UNL d   1      14.653   9.177 -18.072  0.00  0.00     0.019 A 
ATOM     28  C   UNL d   1      14.162   5.550 -18.001  0.00  0.00     0.025 A 
ATOM     29  C   UNL d   1      16.037   6.971 -19.162  0.00  0.00     0.002 A 
ATOM     30  C   UNL d   1      16.505   8.286 -19.377  0.00  0.00     0.000 A 
ATOM     31  C   UNL d   1      15.813   9.384 -18.840  0.00  0.00     0.002 A 
ENDBRANCH  21  23
ENDBRANCH  19  20
ENDBRANCH   3  19
TORSDOF 6
