REMARK  5 active torsions:
REMARK  status: ('A' for Active; 'I' for Inactive)
REMARK    1  A    between atoms: C_5  and  C_6 
REMARK    2  A    between atoms: C_6  and  N_7 
REMARK    3  A    between atoms: C_11  and  C_12 
REMARK    4  A    between atoms: C_12  and  S_13 
REMARK    5  A    between atoms: S_13  and  C_14 
ROOT
ATOM      1  N   UNL d   1      10.142   2.966 -15.647  0.00  0.00     0.147 N 
ATOM      2  C   UNL d   1      11.490   3.510 -15.778  0.00  0.00     0.283 C 
ATOM      3  C   UNL d   1      11.552   4.996 -15.375  0.00  0.00     0.178 C 
ATOM      4  O   UNL d   1      11.058   5.168 -14.047  0.00  0.00    -0.352 OA
ATOM      5  C   UNL d   1       9.717   4.696 -13.895  0.00  0.00     0.160 C 
ATOM      6  C   UNL d   1       9.665   3.213 -14.287  0.00  0.00     0.281 C 
ENDROOT
BRANCH   1   7
ATOM      7  C   UNL d   1      10.103   1.546 -16.006  0.00  0.00     0.277 C 
BRANCH   7   8
ATOM      8  C   UNL d   1       8.699   0.961 -16.035  0.00  0.00     0.011 A 
ATOM      9  C   UNL d   1       7.979   0.901 -17.245  0.00  0.00    -0.003 A 
ATOM     10  C   UNL d   1       6.673   0.373 -17.267  0.00  0.00    -0.005 A 
ATOM     11  C   UNL d   1       6.070  -0.092 -16.078  0.00  0.00    -0.026 A 
ATOM     12  C   UNL d   1       4.669  -0.677 -16.130  0.00  0.00     0.031 C 
ATOM     13  C   UNL d   1       6.788  -0.025 -14.860  0.00  0.00    -0.026 A 
ATOM     14  C   UNL d   1       8.104   0.478 -14.851  0.00  0.00    -0.007 A 
ATOM     15  C   UNL d   1       6.180  -0.532 -13.566  0.00  0.00     0.031 C 
ENDBRANCH   7   8
ENDBRANCH   1   7
BRANCH   5  16
ATOM     16  C   UNL d   1       9.261   4.906 -12.441  0.00  0.00     0.094 C 
BRANCH  16  17
ATOM     17  S   UNL d   1       9.060   6.662 -12.038  0.00  0.00    -0.111 SA
BRANCH  17  18
ATOM     18  C   UNL d   1       9.611   6.842 -10.364  0.00  0.00     0.025 A 
ATOM     19  C   UNL d   1       9.077   6.025  -9.349  0.00  0.00     0.006 A 
ATOM     20  C   UNL d   1       9.498   6.201  -8.018  0.00  0.00     0.001 A 
ATOM     21  C   UNL d   1      10.459   7.178  -7.697  0.00  0.00     0.000 A 
ATOM     22  C   UNL d   1      10.998   7.993  -8.710  0.00  0.00     0.001 A 
ATOM     23  C   UNL d   1      10.567   7.829 -10.043  0.00  0.00     0.006 A 
ENDBRANCH  17  18
ENDBRANCH  16  17
ENDBRANCH   5  16
TORSDOF 5
