REMARK  1 active torsions:
REMARK  status: ('A' for Active; 'I' for Inactive)
REMARK    1  A    between atoms: N_2  and  C_4 
ROOT
ATOM      1  C   UNL d   1       5.578  -0.314 -13.698  0.00  0.00     0.241 C 
ATOM      2  C   UNL d   1       5.519   1.185 -13.956  0.00  0.00     0.002 C 
ATOM      3  C   UNL d   1       6.502   1.844 -14.641  0.00  0.00    -0.021 C 
ATOM      4  C   UNL d   1       7.851   1.288 -15.095  0.00  0.00     0.056 C 
ATOM      5  C   UNL d   1       8.068  -0.018 -14.297  0.00  0.00     0.015 C 
ATOM      6  C   UNL d   1       6.814  -0.911 -14.323  0.00  0.00     0.039 C 
ATOM      7  C   UNL d   1       7.875   0.972 -16.631  0.00  0.00    -0.015 A 
ATOM      8  C   UNL d   1       6.717   1.185 -17.419  0.00  0.00    -0.004 A 
ATOM      9  C   UNL d   1       6.673   0.863 -18.803  0.00  0.00    -0.000 A 
ATOM     10  C   UNL d   1       7.780   0.272 -19.425  0.00  0.00    -0.000 A 
ATOM     11  C   UNL d   1       8.931   0.020 -18.674  0.00  0.00    -0.000 A 
ATOM     12  C   UNL d   1       9.001   0.384 -17.298  0.00  0.00    -0.003 A 
ATOM     13  C   UNL d   1      10.272   0.107 -16.643  0.00  0.00    -0.000 C 
ATOM     14  C   UNL d   1      10.835   0.799 -15.649  0.00  0.00    -0.000 C 
ATOM     15  C   UNL d   1      10.332   2.009 -14.961  0.00  0.00    -0.003 A 
ATOM     16  C   UNL d   1      11.325   2.911 -14.534  0.00  0.00     0.001 A 
ATOM     17  C   UNL d   1      10.992   4.109 -13.861  0.00  0.00     0.011 A 
ATOM     18  C   UNL d   1       9.635   4.388 -13.612  0.00  0.00     0.058 A 
ATOM     19 CL   UNL d   1       9.169   5.835 -12.786  0.00  0.00    -0.082 Cl
ATOM     20  C   UNL d   1       8.652   3.489 -14.037  0.00  0.00     0.008 A 
ATOM     21  C   UNL d   1       8.957   2.293 -14.727  0.00  0.00    -0.014 A 
ENDROOT
BRANCH   1  22
ATOM     22  N   UNL d   1       4.345  -1.053 -14.086  0.00  0.00     0.143 N 
ATOM     23  C   UNL d   1       3.138  -0.272 -14.117  0.00  0.00     0.286 C 
ATOM     24  C   UNL d   1       4.380  -1.831 -15.346  0.00  0.00     0.286 C 
ENDBRANCH   1  22
TORSDOF 1
