REMARK  8 active torsions:
REMARK  status: ('A' for Active; 'I' for Inactive)
REMARK    1  A    between atoms: O_2  and  C_3 
REMARK    2  A    between atoms: C_7  and  O_8 
REMARK    3  A    between atoms: C_11  and  C_12 
REMARK    4  A    between atoms: C_12  and  C_13 
REMARK    5  A    between atoms: C_13  and  N_14 
REMARK    6  A    between atoms: N_14  and  C_15 
REMARK    7  A    between atoms: C_15  and  C_16 
REMARK    8  A    between atoms: C_21  and  O_22 
ROOT
ATOM      1  C   UNL d   1       8.310   5.269 -12.614  0.00  0.00     0.067 C 
ENDROOT
BRANCH   1   2
ATOM      2  C   UNL d   1       8.500   4.259 -13.745  0.00  0.00     0.004 A 
ATOM      3  C   UNL d   1       7.525   3.285 -14.042  0.00  0.00     0.089 A 
ATOM      4  C   UNL d   1       7.793   2.323 -15.042  0.00  0.00     0.032 A 
ATOM      5  C   UNL d   1       9.002   2.366 -15.780  0.00  0.00     0.054 A 
ATOM      6  I   UNL d   1       9.332   0.957 -17.290  0.00  0.00    -0.041 I 
ATOM      7  C   UNL d   1       9.971   3.357 -15.504  0.00  0.00     0.099 A 
ATOM      8  C   UNL d   1       9.701   4.293 -14.479  0.00  0.00     0.022 A 
BRANCH   3   9
ATOM      9  O   UNL d   1       6.345   3.193 -13.339  0.00  0.00    -0.354 OA
ATOM     10  C   UNL d   1       5.397   4.247 -13.496  0.00  0.00     0.210 C 
ENDBRANCH   3   9
BRANCH   7  11
ATOM     11  O   UNL d   1      11.125   3.341 -16.261  0.00  0.00    -0.328 OA
ATOM     12  C   UNL d   1      12.146   4.278 -15.936  0.00  0.00     0.181 C 
ENDBRANCH   7  11
ENDBRANCH   1   2
BRANCH   1  13
ATOM     13  C   UNL d   1       9.246   4.986 -11.453  0.00  0.00     0.295 C 
BRANCH  13  14
ATOM     14  N   UNL d   1       9.023   5.973 -10.426  0.00  0.00     0.344 N 
BRANCH  14  15
ATOM     15  C   UNL d   1       9.707   5.599  -9.218  0.00  0.00     0.319 C 
BRANCH  15  16
ATOM     16  C   UNL d   1      10.360   6.824  -8.607  0.00  0.00     0.036 A 
ATOM     17  C   UNL d   1      10.166   7.194  -7.263  0.00  0.00     0.090 A 
ATOM     18  C   UNL d   1      10.909   8.266  -6.709  0.00  0.00     0.024 A 
ATOM     19  C   UNL d   1      11.803   9.008  -7.511  0.00  0.00     0.002 A 
ATOM     20  C   UNL d   1      11.960   8.653  -8.869  0.00  0.00    -0.000 A 
ATOM     21  C   UNL d   1      11.234   7.585  -9.404  0.00  0.00    -0.000 A 
BRANCH  17  22
ATOM     22  O   UNL d   1       9.342   6.481  -6.438  0.00  0.00    -0.354 OA
ATOM     23  C   UNL d   1       7.955   6.473  -6.745  0.00  0.00     0.210 C 
ENDBRANCH  17  22
ENDBRANCH  15  16
ENDBRANCH  14  15
ENDBRANCH  13  14
ENDBRANCH   1  13
TORSDOF 8
