REMARK  7 active torsions:
REMARK  status: ('A' for Active; 'I' for Inactive)
REMARK    1  A    between atoms: S_2  and  N_4 
REMARK    2  A    between atoms: S_2  and  C_19 
REMARK    3  A    between atoms: N_4  and  C_5 
REMARK    4  A    between atoms: N_8  and  C_9 
REMARK    5  A    between atoms: C_9  and  C_10 
REMARK    6  A    between atoms: C_10  and  O_11 
REMARK    7  A    between atoms: O_11  and  C_12 
ROOT
ATOM      1  C   UNL d   1       8.638   5.089 -10.568  0.00  0.00     0.151 C 
ATOM      2  C   UNL d   1       9.335   4.229  -9.513  0.00  0.00     0.063 C 
ATOM      3  C   UNL d   1      10.041   5.231  -8.661  0.00  0.00     0.253 C 
ATOM      4  N   UNL d   1       9.286   6.445  -8.819  0.00  0.00     0.142 N 
ATOM      5  C   UNL d   1       9.068   6.508 -10.251  0.00  0.00     0.275 C 
ENDROOT
BRANCH   1   6
ATOM      6  N   UNL d   1       9.022   4.748 -11.948  0.00  0.00    -0.184 NA
BRANCH   6   7
ATOM      7  S   UNL d   1       7.938   5.078 -13.231  0.00  0.00     0.287 S 
ATOM      8  O   UNL d   1       7.029   6.160 -12.809  0.00  0.00    -0.198 OA
ATOM      9  O   UNL d   1       8.728   5.163 -14.459  0.00  0.00    -0.198 OA
BRANCH   7  10
ATOM     10  C   UNL d   1       6.973   3.601 -13.328  0.00  0.00     0.135 A 
ATOM     11  S   UNL d   1       7.382   2.382 -14.515  0.00  0.00    -0.062 SA
ATOM     12  C   UNL d   1       6.115   1.362 -13.919  0.00  0.00     0.088 A 
ATOM     13  C   UNL d   1       5.457   1.940 -12.880  0.00  0.00     0.019 A 
ATOM     14 CL   UNL d   1       5.854  -0.184 -14.606  0.00  0.00    -0.075 Cl
ATOM     15  C   UNL d   1       5.930   3.225 -12.528  0.00  0.00     0.021 A 
ENDBRANCH   7  10
ENDBRANCH   6   7
ENDBRANCH   1   6
BRANCH   4  16
ATOM     16  C   UNL d   1      10.089   7.550  -8.321  0.00  0.00     0.283 C 
BRANCH  16  17
ATOM     17  C   UNL d   1       9.278   8.336  -7.268  0.00  0.00     0.184 C 
BRANCH  17  18
ATOM     18  O   UNL d   1      10.133   9.193  -6.511  0.00  0.00    -0.329 OA
BRANCH  18  19
ATOM     19  C   UNL d   1      10.863   8.662  -5.475  0.00  0.00     0.094 A 
ATOM     20  C   UNL d   1      11.011   7.269  -5.226  0.00  0.00     0.024 A 
ATOM     21  C   UNL d   1      11.804   6.820  -4.159  0.00  0.00     0.002 A 
ATOM     22  C   UNL d   1      12.413   7.741  -3.287  0.00  0.00     0.000 A 
ATOM     23  C   UNL d   1      12.236   9.122  -3.506  0.00  0.00     0.002 A 
ATOM     24  C   UNL d   1      11.479   9.579  -4.601  0.00  0.00     0.024 A 
ENDBRANCH  18  19
ENDBRANCH  17  18
ENDBRANCH  16  17
ENDBRANCH   4  16
TORSDOF 7
