REMARK  9 active torsions:
REMARK  status: ('A' for Active; 'I' for Inactive)
REMARK    1  A    between atoms: O_2  and  C_3 
REMARK    2  A    between atoms: C_6  and  C_7 
REMARK    3  A    between atoms: N_12  and  C_13 
REMARK    4  A    between atoms: C_13  and  C_14 
REMARK    5  A    between atoms: C_14  and  C_15 
REMARK    6  A    between atoms: C_15  and  C_16 
REMARK    7  A    between atoms: C_16  and  N_17 
REMARK    8  A    between atoms: C_21  and  C_22 
REMARK    9  A    between atoms: C_28  and  O_29 
ROOT
ATOM      1  C   UNL d   1       7.569   0.871 -19.441  0.00  0.00     0.114 C 
ENDROOT
BRANCH   1   2
ATOM      2  N   UNL d   1       7.063   0.829 -18.073  0.00  0.00    -0.249 N 
ATOM      3  C   UNL d   1       6.035  -0.084 -17.769  0.00  0.00     0.333 A 
ATOM      4  N   UNL d   1       5.608  -0.151 -16.421  0.00  0.00    -0.285 N 
ATOM      5  O   UNL d   1       5.525  -0.785 -18.649  0.00  0.00    -0.246 OA
ATOM      6  C   UNL d   1       6.179   0.677 -15.442  0.00  0.00     0.046 A 
ATOM      7  C   UNL d   1       4.560  -1.119 -16.167  0.00  0.00     0.110 C 
ATOM      8  C   UNL d   1       7.195   1.544 -15.738  0.00  0.00     0.068 A 
ATOM      9  C   UNL d   1       5.616   0.556 -14.008  0.00  0.00     0.044 C 
ATOM     10  C   UNL d   1       7.667   1.677 -17.121  0.00  0.00     0.265 A 
ATOM     11  O   UNL d   1       8.525   2.497 -17.469  0.00  0.00    -0.267 OA
ATOM     12  C   UNL d   1       4.274  -0.155 -13.893  0.00  0.00     0.008 C 
ATOM     13  C   UNL d   1       4.311  -1.426 -14.697  0.00  0.00     0.025 C 
BRANCH   8  14
ATOM     14  C   UNL d   1       7.765   2.446 -14.714  0.00  0.00     0.006 A 
ATOM     15  C   UNL d   1       6.938   3.387 -14.075  0.00  0.00     0.002 A 
ATOM     16  C   UNL d   1       7.450   4.247 -13.094  0.00  0.00     0.024 A 
ATOM     17  C   UNL d   1       8.828   4.206 -12.759  0.00  0.00     0.094 A 
ATOM     18  C   UNL d   1       9.660   3.290 -13.431  0.00  0.00     0.024 A 
ATOM     19  C   UNL d   1       9.139   2.402 -14.396  0.00  0.00     0.002 A 
BRANCH  17  20
ATOM     20  O   UNL d   1       9.404   5.007 -11.793  0.00  0.00    -0.328 OA
ATOM     21  C   UNL d   1       8.529   5.908 -11.104  0.00  0.00     0.181 C 
ENDBRANCH  17  20
ENDBRANCH   8  14
ENDBRANCH   1   2
BRANCH   1  22
ATOM     22  C   UNL d   1       8.785  -0.054 -19.695  0.00  0.00     0.027 C 
BRANCH  22  23
ATOM     23  C   UNL d   1      10.114   0.474 -19.144  0.00  0.00     0.037 C 
BRANCH  23  24
ATOM     24  C   UNL d   1      11.317  -0.368 -19.616  0.00  0.00     0.250 C 
BRANCH  24  25
ATOM     25  N   UNL d   1      12.548   0.405 -19.695  0.00  0.00     0.137 N 
ATOM     26  C   UNL d   1      12.516   1.370 -20.809  0.00  0.00     0.255 C 
ATOM     27  C   UNL d   1      13.741   2.300 -20.750  0.00  0.00     0.057 C 
ATOM     28  C   UNL d   1      15.013   1.443 -20.901  0.00  0.00     0.009 C 
ATOM     29  C   UNL d   1      15.027   0.359 -19.813  0.00  0.00     0.036 C 
ATOM     30  C   UNL d   1      13.722  -0.465 -19.826  0.00  0.00     0.250 C 
BRANCH  27  31
ATOM     31  C   UNL d   1      13.756   3.169 -19.506  0.00  0.00     0.000 A 
ATOM     32  C   UNL d   1      14.651   4.254 -19.264  0.00  0.00     0.017 A 
ATOM     33  C   UNL d   1      14.396   4.797 -17.977  0.00  0.00     0.081 A 
ATOM     34  C   UNL d   1      15.686   4.825 -20.032  0.00  0.00     0.025 A 
ATOM     35  N   UNL d   1      13.349   4.058 -17.470  0.00  0.00    -0.244 NA
ATOM     36  C   UNL d   1      15.153   5.874 -17.464  0.00  0.00     0.021 A 
ATOM     37  C   UNL d   1      12.958   3.103 -18.392  0.00  0.00     0.095 A 
ATOM     38  C   UNL d   1      16.186   6.420 -18.259  0.00  0.00     0.026 A 
ATOM     39  C   UNL d   1      16.471   5.907 -19.537  0.00  0.00     0.094 A 
BRANCH  39  40
ATOM     40  O   UNL d   1      17.515   6.474 -20.236  0.00  0.00    -0.328 OA
ATOM     41  C   UNL d   1      17.838   5.896 -21.506  0.00  0.00     0.181 C 
ENDBRANCH  39  40
ENDBRANCH  27  31
ENDBRANCH  24  25
ENDBRANCH  23  24
ENDBRANCH  22  23
ENDBRANCH   1  22
TORSDOF 9
