REMARK  6 active torsions:
REMARK  status: ('A' for Active; 'I' for Inactive)
REMARK       I    between atoms: C_2  and  N_3 
REMARK    1  A    between atoms: C_2  and  C_27 
REMARK    2  A    between atoms: N_3  and  C_4 
REMARK    3  A    between atoms: C_7  and  C_8 
REMARK    4  A    between atoms: C_8  and  C_9 
REMARK    5  A    between atoms: C_9  and  N_10 
REMARK    6  A    between atoms: N_13  and  C_14 
ROOT
ATOM      1  C   UNL d   1       9.261   5.397 -13.167  0.00  0.00     0.250 C 
ENDROOT
BRANCH   1   2
ATOM      2  C   UNL d   1       8.563   5.102 -11.829  0.00  0.00     0.035 C 
BRANCH   2   3
ATOM      3  C   UNL d   1       9.302   5.645 -10.609  0.00  0.00     0.002 C 
ATOM      4  C   UNL d   1       9.595   7.151 -10.755  0.00  0.00     0.002 C 
ATOM      5  C   UNL d   1      10.270   7.722  -9.506  0.00  0.00     0.024 C 
ATOM      6  C   UNL d   1       9.410   7.440  -8.266  0.00  0.00     0.106 C 
ATOM      7  C   UNL d   1       9.120   5.932  -8.101  0.00  0.00     0.024 C 
ATOM      8  C   UNL d   1       8.460   5.364  -9.361  0.00  0.00     0.002 C 
BRANCH   6   9
ATOM      9  N   UNL d   1       9.948   8.052  -7.069  0.00  0.00    -0.240 NA
ATOM     10  C   UNL d   1      11.018   7.641  -6.377  0.00  0.00     0.253 C 
ATOM     11  O   UNL d   1      11.751   6.722  -6.750  0.00  0.00    -0.271 OA
BRANCH  10  12
ATOM     12  C   UNL d   1      11.258   8.359  -5.052  0.00  0.00     0.113 C 
ATOM     13  C   UNL d   1      12.287   9.478  -5.155  0.00  0.00     0.152 C 
ATOM     14  O   UNL d   1      12.866   9.574  -3.857  0.00  0.00    -0.354 OA
ATOM     15  C   UNL d   1      12.489   8.489  -3.035  0.00  0.00     0.143 C 
ATOM     16  C   UNL d   1      11.853   7.469  -3.969  0.00  0.00     0.044 C 
ENDBRANCH  10  12
ENDBRANCH   6   9
ENDBRANCH   2   3
ENDBRANCH   1   2
BRANCH   1  17
ATOM     17  N   UNL d   1      10.385   4.520 -13.463  0.00  0.00     0.141 N 
ATOM     18  C   UNL d   1      11.055   4.941 -14.697  0.00  0.00     0.274 C 
ATOM     19  C   UNL d   1      10.113   4.846 -15.899  0.00  0.00     0.138 C 
ATOM     20  N   UNL d   1       9.526   3.505 -15.995  0.00  0.00    -0.330 N 
ATOM     21  C   UNL d   1       9.001   2.921 -14.754  0.00  0.00     0.138 C 
ATOM     22  C   UNL d   1      10.028   3.098 -13.614  0.00  0.00     0.274 C 
BRANCH  20  23
ATOM     23  C   UNL d   1       9.549   2.789 -17.184  0.00  0.00     0.138 A 
ATOM     24  C   UNL d   1       9.419   3.409 -18.448  0.00  0.00     0.036 A 
ATOM     25  C   UNL d   1       9.426   2.650 -19.604  0.00  0.00     0.095 A 
ATOM     26  C   UNL d   1       9.218   4.844 -18.822  0.00  0.00     0.064 C 
ATOM     27  C   UNL d   1       9.586   1.252 -19.524  0.00  0.00     0.045 A 
ATOM     28  O   UNL d   1       9.234   3.390 -20.737  0.00  0.00    -0.331 OA
ATOM     29  C   UNL d   1       9.710   0.700 -18.226  0.00  0.00     0.103 A 
ATOM     30  N   UNL d   1       9.684   1.446 -17.098  0.00  0.00    -0.228 NA
ATOM     31  C   UNL d   1       8.941   4.741 -20.333  0.00  0.00     0.154 C 
ENDBRANCH  20  23
ENDBRANCH   1  17
TORSDOF 6
