REMARK  9 active torsions:
REMARK  status: ('A' for Active; 'I' for Inactive)
REMARK    1  A    between atoms: O_2  and  C_3 
REMARK    2  A    between atoms: C_9  and  C_10 
REMARK    3  A    between atoms: C_12  and  C_13 
REMARK    4  A    between atoms: C_13  and  N_14 
REMARK    5  A    between atoms: N_14  and  C_15 
REMARK    6  A    between atoms: C_15  and  C_16 
REMARK    7  A    between atoms: C_16  and  C_17 
REMARK    8  A    between atoms: C_17  and  O_18 
REMARK    9  A    between atoms: O_18  and  C_19 
ROOT
ATOM      1  C   UNL d   1       6.340   5.017 -12.406  0.00  0.00     0.293 C 
ENDROOT
BRANCH   1   2
ATOM      2  N   UNL d   1       7.523   5.477 -11.712  0.00  0.00     0.339 N 
BRANCH   2   3
ATOM      3  C   UNL d   1       8.056   4.417 -10.867  0.00  0.00     0.290 C 
BRANCH   3   4
ATOM      4  C   UNL d   1       9.176   4.934 -10.030  0.00  0.00     0.041 A 
ATOM      5  C   UNL d   1       8.925   5.513  -8.648  0.00  0.00     0.026 A 
ATOM      6  C   UNL d   1       9.617   4.180  -8.826  0.00  0.00     0.007 A 
BRANCH   5   7
ATOM      7  C   UNL d   1       9.686   6.721  -8.206  0.00  0.00     0.001 A 
ATOM      8  C   UNL d   1       9.939   7.777  -9.111  0.00  0.00     0.090 A 
ATOM      9  C   UNL d   1      10.666   8.908  -8.671  0.00  0.00     0.025 A 
ATOM     10  C   UNL d   1      11.148   8.973  -7.341  0.00  0.00     0.013 A 
ATOM     11  C   UNL d   1      10.869   7.923  -6.454  0.00  0.00     0.058 A 
ATOM     12 CL   UNL d   1      11.435   8.008  -4.822  0.00  0.00    -0.082 Cl
ATOM     13  C   UNL d   1      10.153   6.804  -6.880  0.00  0.00     0.009 A 
BRANCH   8  14
ATOM     14  O   UNL d   1       9.478   7.638 -10.403  0.00  0.00    -0.328 OA
ATOM     15  C   UNL d   1       9.379   8.784 -11.214  0.00  0.00     0.181 C 
ENDBRANCH   8  14
ENDBRANCH   5   7
ENDBRANCH   3   4
ENDBRANCH   2   3
ENDBRANCH   1   2
BRANCH   1  16
ATOM     16  C   UNL d   1       6.559   3.717 -13.228  0.00  0.00     0.071 C 
BRANCH  16  17
ATOM     17  C   UNL d   1       5.539   2.604 -12.859  0.00  0.00     0.151 C 
BRANCH  17  18
ATOM     18  O   UNL d   1       5.916   1.292 -13.256  0.00  0.00    -0.331 OA
BRANCH  18  19
ATOM     19  C   UNL d   1       6.164   1.051 -14.588  0.00  0.00     0.096 A 
ATOM     20  C   UNL d   1       5.373   0.069 -15.217  0.00  0.00     0.043 A 
ATOM     21  C   UNL d   1       5.459  -0.132 -16.604  0.00  0.00     0.082 A 
ATOM     22  C   UNL d   1       6.365   0.623 -17.364  0.00  0.00    -0.004 A 
ATOM     23  N   UNL d   1       4.629  -1.112 -17.218  0.00  0.00    -0.212 NA
ATOM     24  C   UNL d   1       7.210   1.568 -16.753  0.00  0.00    -0.001 A 
ATOM     25  C   UNL d   1       6.468   0.370 -18.853  0.00  0.00     0.038 C 
ATOM     26  C   UNL d   1       7.138   1.759 -15.351  0.00  0.00     0.024 A 
ATOM     27  C   UNL d   1       5.131  -0.135 -19.433  0.00  0.00     0.095 C 
ATOM     28  C   UNL d   1       4.462  -1.211 -18.549  0.00  0.00     0.256 C 
ATOM     29  O   UNL d   1       3.799  -2.105 -19.059  0.00  0.00    -0.270 OA
ENDBRANCH  18  19
ENDBRANCH  17  18
ENDBRANCH  16  17
ENDBRANCH   1  16
TORSDOF 9
