REMARK  5 active torsions:
REMARK  status: ('A' for Active; 'I' for Inactive)
REMARK    1  A    between atoms: N_12  and  C_13 
REMARK    2  A    between atoms: C_13  and  C_14 
REMARK    3  A    between atoms: C_19  and  C_20 
REMARK    4  A    between atoms: C_20  and  N_21 
REMARK    5  A    between atoms: N_24  and  C_25 
ROOT
ATOM      1  C   UNL d   1      10.722   2.528 -18.689  0.00  0.00     0.025 C 
ATOM      2  C   UNL d   1      10.209   2.372 -20.134  0.00  0.00     0.002 C 
ATOM      3  C   UNL d   1      11.290   1.753 -21.042  0.00  0.00     0.000 C 
ATOM      4  C   UNL d   1      12.596   2.561 -21.002  0.00  0.00     0.000 C 
ATOM      5  C   UNL d   1      13.095   2.762 -19.561  0.00  0.00     0.002 C 
ATOM      6  C   UNL d   1      11.995   3.421 -18.692  0.00  0.00     0.035 C 
ENDROOT
BRANCH   6   7
ATOM      7  C   UNL d   1      12.502   3.773 -17.251  0.00  0.00     0.250 C 
BRANCH   7   8
ATOM      8  N   UNL d   1      13.072   5.110 -17.092  0.00  0.00     0.141 N 
ATOM      9  C   UNL d   1      12.319   6.115 -17.862  0.00  0.00     0.274 C 
ATOM     10  C   UNL d   1      12.880   7.528 -17.643  0.00  0.00     0.138 C 
ATOM     11  N   UNL d   1      14.287   7.534 -17.999  0.00  0.00    -0.329 N 
ATOM     12  C   UNL d   1      15.088   6.541 -17.288  0.00  0.00     0.138 C 
ATOM     13  C   UNL d   1      14.489   5.138 -17.483  0.00  0.00     0.274 C 
BRANCH  11  14
ATOM     14  C   UNL d   1      14.824   8.397 -18.979  0.00  0.00     0.148 A 
ATOM     15  C   UNL d   1      14.147   8.713 -20.231  0.00  0.00     0.042 A 
ATOM     16  C   UNL d   1      14.932   9.657 -20.966  0.00  0.00     0.050 A 
ATOM     17  C   UNL d   1      12.938   8.293 -20.845  0.00  0.00     0.004 A 
ATOM     18  S   UNL d   1      16.388   9.978 -20.047  0.00  0.00     0.015 SA
ATOM     19  C   UNL d   1      14.525  10.170 -22.211  0.00  0.00     0.008 A 
ATOM     20  N   UNL d   1      16.003   8.946 -18.779  0.00  0.00    -0.192 NA
ATOM     21  C   UNL d   1      13.310   9.734 -22.780  0.00  0.00     0.001 A 
ATOM     22  C   UNL d   1      12.523   8.789 -22.094  0.00  0.00     0.000 A 
ENDBRANCH  11  14
ENDBRANCH   7   8
ENDBRANCH   6   7
BRANCH   1  23
ATOM     23  C   UNL d   1      10.958   1.150 -17.999  0.00  0.00     0.112 C 
BRANCH  23  24
ATOM     24  N   UNL d   1       9.803   0.704 -17.211  0.00  0.00    -0.271 N 
ATOM     25  C   UNL d   1       8.620   0.335 -17.728  0.00  0.00     0.239 A 
ATOM     26  O   UNL d   1       8.316   0.275 -18.917  0.00  0.00    -0.272 OA
ATOM     27  C   UNL d   1       7.655  -0.072 -16.632  0.00  0.00     0.088 A 
ATOM     28  C   UNL d   1       8.490   0.117 -15.354  0.00  0.00     0.088 A 
ATOM     29  C   UNL d   1       6.467   0.882 -16.399  0.00  0.00     0.009 C 
ATOM     30  C   UNL d   1       7.675   1.151 -14.547  0.00  0.00     0.009 C 
ATOM     31  C   UNL d   1       9.815   0.646 -15.874  0.00  0.00     0.239 A 
ATOM     32  C   UNL d   1       6.418   0.434 -14.032  0.00  0.00     0.001 C 
ATOM     33  C   UNL d   1       7.083   2.052 -15.629  0.00  0.00     0.001 C 
ATOM     34  C   UNL d   1       5.580   0.248 -15.316  0.00  0.00     0.001 C 
ATOM     35  O   UNL d   1      10.755   0.944 -15.144  0.00  0.00    -0.272 OA
ENDBRANCH  23  24
ENDBRANCH   1  23
TORSDOF 5
