REMARK  8 active torsions:
REMARK  status: ('A' for Active; 'I' for Inactive)
REMARK    1  A    between atoms: C_3  and  S_4 
REMARK    2  A    between atoms: S_4  and  C_5 
REMARK    3  A    between atoms: C_5  and  C_6 
REMARK    4  A    between atoms: C_6  and  C_7 
REMARK    5  A    between atoms: C_7  and  N_8 
REMARK    6  A    between atoms: N_13  and  C_14 
REMARK    7  A    between atoms: C_20  and  C_21 
REMARK    8  A    between atoms: C_29  and  C_30 
ROOT
ATOM      1  N   UNL d   1      10.397   4.871 -18.030  0.00  0.00     0.138 N 
ATOM      2  C   UNL d   1      11.437   3.908 -17.670  0.00  0.00     0.252 C 
ATOM      3  C   UNL d   1      10.779   3.088 -16.558  0.00  0.00     0.052 C 
ATOM      4  C   UNL d   1      11.642   2.806 -15.324  0.00  0.00     0.021 C 
ATOM      5  C   UNL d   1      10.669   3.010 -14.168  0.00  0.00     0.077 C 
ATOM      6  N   UNL d   1       9.750   4.062 -14.588  0.00  0.00    -0.250 NA
ATOM      7  C   UNL d   1       9.694   4.019 -16.045  0.00  0.00     0.097 C 
ATOM      8  C   UNL d   1       9.869   5.326 -16.751  0.00  0.00     0.266 C 
ENDROOT
BRANCH   1   9
ATOM      9  C   UNL d   1      10.871   6.027 -18.766  0.00  0.00     0.251 C 
BRANCH   9  10
ATOM     10  C   UNL d   1      11.513   5.593 -20.094  0.00  0.00     0.047 C 
BRANCH  10  11
ATOM     11  C   UNL d   1      11.622   6.753 -21.115  0.00  0.00     0.067 C 
BRANCH  11  12
ATOM     12  S   UNL d   1      12.193   8.357 -20.440  0.00  0.00    -0.075 SA
BRANCH  12  13
ATOM     13  C   UNL d   1      13.780   7.876 -19.826  0.00  0.00     0.193 A 
ATOM     14  N   UNL d   1      14.827   8.774 -19.680  0.00  0.00    -0.287 N 
ATOM     15  C   UNL d   1      14.798  10.173 -19.989  0.00  0.00     0.134 C 
ATOM     16  C   UNL d   1      15.784   7.958 -19.223  0.00  0.00     0.186 A 
ATOM     17  N   UNL d   1      15.409   6.689 -19.065  0.00  0.00    -0.127 NA
ATOM     18  N   UNL d   1      14.112   6.674 -19.455  0.00  0.00    -0.122 NA
BRANCH  16  19
ATOM     19  C   UNL d   1      17.156   8.310 -18.841  0.00  0.00     0.136 A 
ATOM     20  N   UNL d   1      18.093   7.318 -18.879  0.00  0.00    -0.238 NA
ATOM     21  C   UNL d   1      19.336   7.682 -18.528  0.00  0.00     0.120 A 
ATOM     22  C   UNL d   1      19.644   8.997 -18.136  0.00  0.00     0.120 A 
ATOM     23  N   UNL d   1      18.716   9.969 -18.075  0.00  0.00    -0.239 NA
ATOM     24  C   UNL d   1      17.472   9.603 -18.434  0.00  0.00     0.121 A 
ENDBRANCH  16  19
ENDBRANCH  12  13
ENDBRANCH  11  12
ENDBRANCH  10  11
ENDBRANCH   9  10
ENDBRANCH   1   9
BRANCH   6  25
ATOM     25  C   UNL d   1       8.507   4.080 -13.912  0.00  0.00     0.068 A 
ATOM     26  C   UNL d   1       7.493   3.081 -14.076  0.00  0.00     0.084 A 
ATOM     27  C   UNL d   1       6.296   3.235 -13.317  0.00  0.00     0.005 A 
ATOM     28  C   UNL d   1       6.093   4.319 -12.435  0.00  0.00     0.002 A 
ATOM     29  C   UNL d   1       7.086   5.291 -12.284  0.00  0.00     0.031 A 
ATOM     30  C   UNL d   1       8.293   5.180 -13.013  0.00  0.00     0.150 A 
ATOM     31  F   UNL d   1       9.236   6.133 -12.841  0.00  0.00    -0.203 F 
BRANCH  26  32
ATOM     32  C   UNL d   1       7.577   1.788 -14.979  0.00  0.00     0.420 C 
ATOM     33  F   UNL d   1       6.431   1.129 -14.923  0.00  0.00    -0.166 F 
ATOM     34  F   UNL d   1       7.777   1.995 -16.305  0.00  0.00    -0.166 F 
ATOM     35  F   UNL d   1       8.514   0.934 -14.547  0.00  0.00    -0.166 F 
ENDBRANCH  26  32
ENDBRANCH   6  25
TORSDOF 8
