REMARK  8 active torsions:
REMARK  status: ('A' for Active; 'I' for Inactive)
REMARK    1  A    between atoms: C_2  and  C_3 
REMARK    2  A    between atoms: C_3  and  N_4 
REMARK    3  A    between atoms: N_4  and  C_5 
REMARK    4  A    between atoms: N_4  and  C_8 
REMARK    5  A    between atoms: C_5  and  C_6 
REMARK    6  A    between atoms: C_12  and  O_13 
REMARK    7  A    between atoms: O_13  and  S_14 
REMARK    8  A    between atoms: S_14  and  C_17 
ROOT
ATOM      1  C   UNL d   1       7.539   3.833 -12.595  0.00  0.00     0.224 C 
ATOM      2  C   UNL d   1       8.133   4.191 -13.942  0.00  0.00     0.038 C 
ATOM      3  C   UNL d   1       8.499   3.011 -14.791  0.00  0.00     0.030 C 
ATOM      4  C   UNL d   1       7.439   1.922 -14.825  0.00  0.00    -0.002 A 
ATOM      5  C   UNL d   1       7.503   0.935 -15.828  0.00  0.00     0.109 A 
ATOM      6  C   UNL d   1       6.547  -0.095 -15.877  0.00  0.00     0.025 A 
ATOM      7  C   UNL d   1       5.539  -0.172 -14.895  0.00  0.00     0.002 A 
ATOM      8  C   UNL d   1       5.472   0.804 -13.885  0.00  0.00    -0.004 A 
ATOM      9  C   UNL d   1       6.396   1.864 -13.858  0.00  0.00    -0.023 A 
ATOM     10  C   UNL d   1       6.200   2.954 -12.787  0.00  0.00     0.053 C 
ATOM     11  C   UNL d   1       5.007   3.779 -13.105  0.00  0.00     0.007 C 
ENDROOT
BRANCH   5  12
ATOM     12  O   UNL d   1       8.498   0.985 -16.771  0.00  0.00    -0.225 OA
BRANCH  12  13
ATOM     13  S   UNL d   1       9.946   0.189 -16.413  0.00  0.00     0.374 S 
ATOM     14  O   UNL d   1      10.240   0.362 -14.976  0.00  0.00    -0.189 OA
ATOM     15  O   UNL d   1       9.884  -1.148 -17.009  0.00  0.00    -0.189 OA
BRANCH  13  16
ATOM     16  C   UNL d   1      11.110   1.236 -17.395  0.00  0.00     0.524 C 
ATOM     17  F   UNL d   1      11.700   0.466 -18.307  0.00  0.00    -0.155 F 
ATOM     18  F   UNL d   1      10.432   2.211 -18.003  0.00  0.00    -0.155 F 
ATOM     19  F   UNL d   1      12.021   1.764 -16.579  0.00  0.00    -0.155 F 
ENDBRANCH  13  16
ENDBRANCH  12  13
ENDBRANCH   5  12
BRANCH   1  20
ATOM     20  N   UNL d   1       7.307   5.037 -11.763  0.00  0.00     0.135 N 
BRANCH  20  21
ATOM     21  C   UNL d   1       8.227   5.139 -10.624  0.00  0.00     0.250 C 
BRANCH  21  22
ATOM     22  C   UNL d   1       9.625   5.639 -11.061  0.00  0.00     0.035 C 
ATOM     23  C   UNL d   1      10.370   6.291  -9.893  0.00  0.00     0.002 C 
ENDBRANCH  21  22
ENDBRANCH  20  21
BRANCH  20  24
ATOM     24  C   UNL d   1       7.157   6.343 -12.398  0.00  0.00     0.250 C 
BRANCH  24  25
ATOM     25  C   UNL d   1       5.723   6.873 -12.281  0.00  0.00     0.035 C 
ATOM     26  C   UNL d   1       5.706   8.326 -12.722  0.00  0.00     0.002 C 
ENDBRANCH  24  25
ENDBRANCH  20  24
ENDBRANCH   1  20
TORSDOF 8
