REMARK  8 active torsions:
REMARK  status: ('A' for Active; 'I' for Inactive)
REMARK    1  A    between atoms: O_2  and  C_3 
REMARK    2  A    between atoms: C_8  and  N_9 
REMARK    3  A    between atoms: N_13  and  C_14 
REMARK    4  A    between atoms: C_14  and  C_15 
REMARK    5  A    between atoms: C_15  and  C_16 
REMARK    6  A    between atoms: C_16  and  C_17 
REMARK    7  A    between atoms: C_17  and  O_18 
REMARK    8  A    between atoms: O_18  and  C_19 
ROOT
ATOM      1  C   UNL d   1       8.265   5.269 -11.813  0.00  0.00     0.250 C 
ENDROOT
BRANCH   1   2
ATOM      2  N   UNL d   1       7.738   5.298 -13.165  0.00  0.00     0.139 N 
ATOM      3  C   UNL d   1       6.376   4.754 -13.257  0.00  0.00     0.252 C 
ATOM      4  C   UNL d   1       6.228   3.324 -12.708  0.00  0.00     0.059 C 
ATOM      5  C   UNL d   1       6.563   2.217 -13.747  0.00  0.00     0.104 C 
ATOM      6  N   UNL d   1       7.808   2.421 -14.496  0.00  0.00    -0.345 N 
ATOM      7  C   UNL d   1       8.906   3.188 -13.912  0.00  0.00     0.137 C 
ATOM      8  C   UNL d   1       8.672   4.721 -14.120  0.00  0.00     0.274 C 
BRANCH   6   9
ATOM      9  C   UNL d   1       7.943   1.789 -15.759  0.00  0.00     0.079 A 
ATOM     10  C   UNL d   1       8.763   2.327 -16.790  0.00  0.00     0.110 A 
ATOM     11  C   UNL d   1       8.814   1.659 -18.038  0.00  0.00     0.026 A 
ATOM     12  C   UNL d   1       8.072   0.485 -18.267  0.00  0.00     0.002 A 
ATOM     13  C   UNL d   1       7.274  -0.042 -17.236  0.00  0.00     0.002 A 
ATOM     14  C   UNL d   1       7.219   0.601 -15.994  0.00  0.00     0.019 A 
BRANCH  10  15
ATOM     15  O   UNL d   1       9.460   3.499 -16.557  0.00  0.00    -0.327 OA
ATOM     16  C   UNL d   1      10.250   4.074 -17.584  0.00  0.00     0.181 C 
ENDBRANCH  10  15
ENDBRANCH   6   9
ENDBRANCH   1   2
BRANCH   1  17
ATOM     17  C   UNL d   1       9.014   6.543 -11.461  0.00  0.00     0.038 C 
BRANCH  17  18
ATOM     18  C   UNL d   1       9.775   6.299 -10.153  0.00  0.00     0.035 C 
BRANCH  18  19
ATOM     19  C   UNL d   1       8.848   5.813  -9.002  0.00  0.00     0.151 C 
BRANCH  19  20
ATOM     20  O   UNL d   1       9.603   5.661  -7.826  0.00  0.00    -0.315 OA
BRANCH  20  21
ATOM     21  C   UNL d   1      10.006   6.798  -7.158  0.00  0.00     0.179 A 
ATOM     22  N   UNL d   1      10.691   6.526  -6.022  0.00  0.00    -0.204 NA
ATOM     23  C   UNL d   1      11.124   7.525  -5.260  0.00  0.00     0.163 A 
ATOM     24  C   UNL d   1      10.969   8.859  -5.659  0.00  0.00     0.014 A 
ATOM     25  N   UNL d   1      11.700   7.232  -3.992  0.00  0.00    -0.193 NA
ATOM     26  C   UNL d   1      10.299   9.144  -6.856  0.00  0.00     0.002 A 
ATOM     27  C   UNL d   1      11.422   9.979  -4.787  0.00  0.00     0.039 C 
ATOM     28  C   UNL d   1       9.757   8.110  -7.620  0.00  0.00     0.044 A 
ATOM     29  C   UNL d   1      12.470   9.561  -3.741  0.00  0.00     0.095 C 
ATOM     30  C   UNL d   1      12.250   8.149  -3.179  0.00  0.00     0.257 C 
ATOM     31  O   UNL d   1      12.581   7.907  -2.018  0.00  0.00    -0.270 OA
ENDBRANCH  20  21
ENDBRANCH  19  20
ENDBRANCH  18  19
ENDBRANCH  17  18
ENDBRANCH   1  17
TORSDOF 8
