REMARK  10 active torsions:
REMARK  status: ('A' for Active; 'I' for Inactive)
REMARK    1  A    between atoms: C_2  and  C_3 
REMARK    2  A    between atoms: C_3  and  N_4 
REMARK    3  A    between atoms: N_4  and  C_5 
REMARK    4  A    between atoms: N_4  and  C_23 
REMARK    5  A    between atoms: C_5  and  C_6 
REMARK    6  A    between atoms: C_6  and  C_7 
REMARK    7  A    between atoms: C_7  and  C_8 
REMARK    8  A    between atoms: C_8  and  N_9 
REMARK    9  A    between atoms: N_12  and  C_13 
REMARK   10  A    between atoms: C_23  and  C_24 
ROOT
ATOM      1  C   UNL d   1       8.119   2.191 -15.886  0.00  0.00     0.037 C 
ENDROOT
BRANCH   1   2
ATOM      2  C   UNL d   1       9.097   2.967 -16.814  0.00  0.00     0.251 C 
BRANCH   2   3
ATOM      3  N   UNL d   1       9.184   2.414 -18.170  0.00  0.00     0.141 N 
BRANCH   3   4
ATOM      4  C   UNL d   1       9.588   1.005 -18.193  0.00  0.00     0.251 C 
BRANCH   4   5
ATOM      5  C   UNL d   1      11.035   0.748 -17.698  0.00  0.00     0.035 C 
ATOM      6  C   UNL d   1      11.468  -0.671 -18.011  0.00  0.00     0.002 C 
ENDBRANCH   4   5
ENDBRANCH   3   4
BRANCH   3   7
ATOM      7  C   UNL d   1      10.106   3.217 -18.982  0.00  0.00     0.277 C 
BRANCH   7   8
ATOM      8  C   UNL d   1       9.528   4.494 -19.542  0.00  0.00     0.011 A 
ATOM      9  C   UNL d   1       8.749   4.431 -20.711  0.00  0.00    -0.002 A 
ATOM     10  C   UNL d   1       8.239   5.609 -21.281  0.00  0.00    -0.000 A 
ATOM     11  C   UNL d   1       8.520   6.863 -20.683  0.00  0.00    -0.000 A 
ATOM     12  C   UNL d   1       7.437   5.545 -22.442  0.00  0.00    -0.000 A 
ATOM     13  C   UNL d   1       9.328   6.922 -19.525  0.00  0.00    -0.000 A 
ATOM     14  C   UNL d   1       7.994   8.040 -21.250  0.00  0.00    -0.000 A 
ATOM     15  C   UNL d   1       9.828   5.739 -18.956  0.00  0.00    -0.002 A 
ATOM     16  C   UNL d   1       7.181   7.970 -22.399  0.00  0.00    -0.000 A 
ATOM     17  C   UNL d   1       6.903   6.725 -22.995  0.00  0.00    -0.000 A 
ENDBRANCH   7   8
ENDBRANCH   3   7
ENDBRANCH   2   3
ENDBRANCH   1   2
BRANCH   1  18
ATOM     18  C   UNL d   1       7.766   2.894 -14.575  0.00  0.00     0.037 C 
BRANCH  18  19
ATOM     19  C   UNL d   1       9.002   3.497 -13.910  0.00  0.00     0.251 C 
BRANCH  19  20
ATOM     20  N   UNL d   1       8.623   4.178 -12.682  0.00  0.00     0.141 N 
ATOM     21  C   UNL d   1       9.706   3.991 -11.727  0.00  0.00     0.274 C 
ATOM     22  C   UNL d   1       9.369   4.688 -10.389  0.00  0.00     0.137 C 
ATOM     23  N   UNL d   1       9.115   6.094 -10.639  0.00  0.00    -0.344 N 
ATOM     24  C   UNL d   1       8.106   6.369 -11.655  0.00  0.00     0.137 C 
ATOM     25  C   UNL d   1       8.467   5.613 -12.939  0.00  0.00     0.274 C 
BRANCH  23  26
ATOM     26  C   UNL d   1       9.683   7.109  -9.871  0.00  0.00     0.068 A 
ATOM     27  C   UNL d   1       9.602   7.162  -8.458  0.00  0.00     0.084 A 
ATOM     28  C   UNL d   1      10.254   8.195  -7.739  0.00  0.00     0.070 A 
ATOM     29 CL   UNL d   1       8.656   5.994  -7.633  0.00  0.00    -0.080 Cl
ATOM     30  C   UNL d   1      10.975   9.180  -8.423  0.00  0.00     0.012 A 
ATOM     31 CL   UNL d   1      10.208   8.265  -6.032  0.00  0.00    -0.081 Cl
ATOM     32  C   UNL d   1      11.051   9.146  -9.823  0.00  0.00     0.002 A 
ATOM     33  C   UNL d   1      10.364   8.140 -10.533  0.00  0.00     0.018 A 
ENDBRANCH  23  26
ENDBRANCH  19  20
ENDBRANCH  18  19
ENDBRANCH   1  18
TORSDOF 10
