REMARK  5 active torsions:
REMARK  status: ('A' for Active; 'I' for Inactive)
REMARK    1  A    between atoms: O_2  and  C_3 
REMARK    2  A    between atoms: C_8  and  N_9 
REMARK    3  A    between atoms: N_12  and  C_13 
REMARK    4  A    between atoms: C_13  and  C_14 
REMARK    5  A    between atoms: C_20  and  N_21 
ROOT
ATOM      1  N   UNL d   1       6.839   3.502 -13.289  0.00  0.00    -0.343 N 
ATOM      2  C   UNL d   1       6.484   4.148 -12.011  0.00  0.00     0.137 C 
ATOM      3  C   UNL d   1       7.765   4.622 -11.292  0.00  0.00     0.275 C 
ATOM      4  N   UNL d   1       8.655   5.444 -12.097  0.00  0.00     0.145 N 
ATOM      5  C   UNL d   1       9.065   4.633 -13.241  0.00  0.00     0.275 C 
ATOM      6  C   UNL d   1       7.825   4.276 -14.043  0.00  0.00     0.137 C 
ENDROOT
BRANCH   4   7
ATOM      7  C   UNL d   1       9.846   5.773 -11.305  0.00  0.00     0.278 C 
BRANCH   7   8
ATOM      8  C   UNL d   1       9.838   7.000 -10.458  0.00  0.00     0.029 A 
ATOM      9  C   UNL d   1      10.197   7.149  -9.072  0.00  0.00     0.055 A 
ATOM     10  C   UNL d   1      10.063   8.512  -8.721  0.00  0.00     0.182 A 
ATOM     11  C   UNL d   1      10.628   6.317  -8.024  0.00  0.00     0.121 A 
ATOM     12  N   UNL d   1       9.661   9.153  -9.867  0.00  0.00    -0.231 NA
ATOM     13  N   UNL d   1      10.294   9.067  -7.499  0.00  0.00    -0.042 NA
ATOM     14  C   UNL d   1       9.491   8.247 -10.902  0.00  0.00     0.059 A 
ATOM     15  C   UNL d   1       9.007   8.652 -12.252  0.00  0.00     0.052 C 
ATOM     16  C   UNL d   1      10.726   8.163  -6.609  0.00  0.00     0.729 A 
ATOM     17  N   UNL d   1      10.910   6.852  -6.819  0.00  0.00    -0.059 NA
BRANCH  16  18
ATOM     18  N   UNL d   1      11.042   8.631  -5.335  0.00  0.00    -0.179 N 
ATOM     19  C   UNL d   1      11.473   7.716  -4.280  0.00  0.00     0.144 C 
ATOM     20  C   UNL d   1      10.886  10.041  -4.989  0.00  0.00     0.144 C 
ENDBRANCH  16  18
ENDBRANCH   7   8
ENDBRANCH   4   7
BRANCH   1  21
ATOM     21  C   UNL d   1       6.424   2.207 -13.654  0.00  0.00     0.079 A 
ATOM     22  C   UNL d   1       7.212   1.318 -14.431  0.00  0.00     0.110 A 
ATOM     23  C   UNL d   1       6.674   0.043 -14.844  0.00  0.00     0.026 A 
ATOM     24  C   UNL d   1       5.391  -0.354 -14.447  0.00  0.00     0.002 A 
ATOM     25  C   UNL d   1       4.642   0.484 -13.634  0.00  0.00     0.002 A 
ATOM     26  C   UNL d   1       5.149   1.753 -13.241  0.00  0.00     0.019 A 
BRANCH  22  27
ATOM     27  O   UNL d   1       8.511   1.684 -14.707  0.00  0.00    -0.327 OA
ATOM     28  C   UNL d   1       9.325   0.816 -15.492  0.00  0.00     0.181 C 
ENDBRANCH  22  27
ENDBRANCH   1  21
TORSDOF 5
