REMARK  8 active torsions:
REMARK  status: ('A' for Active; 'I' for Inactive)
REMARK    1  A    between atoms: O_2  and  C_3 
REMARK    2  A    between atoms: C_8  and  N_9 
REMARK    3  A    between atoms: N_12  and  C_13 
REMARK    4  A    between atoms: C_13  and  C_14 
REMARK    5  A    between atoms: C_16  and  C_17 
REMARK    6  A    between atoms: C_17  and  N_18 
REMARK    7  A    between atoms: N_21  and  C_22 
REMARK    8  A    between atoms: C_27  and  O_28 
ROOT
ATOM      1  C   UNL d   1      11.605   1.888 -19.064  0.00  0.00    -0.007 A 
ATOM      2  C   UNL d   1      11.809   3.293 -19.209  0.00  0.00     0.048 A 
ATOM      3  C   UNL d   1      13.108   3.509 -19.768  0.00  0.00    -0.007 A 
ATOM      4  C   UNL d   1      13.723   2.247 -19.963  0.00  0.00    -0.006 A 
ATOM      5  C   UNL d   1      14.994   2.057 -20.515  0.00  0.00    -0.001 A 
ATOM      6  C   UNL d   1      15.688   0.823 -20.727  0.00  0.00    -0.000 A 
ATOM      7  C   UNL d   1      15.248  -0.516 -20.479  0.00  0.00    -0.000 A 
ATOM      8  C   UNL d   1      13.992  -0.968 -19.955  0.00  0.00    -0.000 A 
ATOM      9  C   UNL d   1      12.873  -0.185 -19.517  0.00  0.00    -0.001 A 
ATOM     10  C   UNL d   1      12.754   1.208 -19.505  0.00  0.00    -0.006 A 
ENDROOT
BRANCH   1  11
ATOM     11  C   UNL d   1      10.321   1.265 -18.583  0.00  0.00     0.273 C 
BRANCH  11  12
ATOM     12  N   UNL d   1      10.441   0.625 -17.275  0.00  0.00     0.145 N 
ATOM     13  C   UNL d   1       9.742  -0.661 -17.256  0.00  0.00     0.275 C 
ATOM     14  C   UNL d   1       8.238  -0.446 -17.498  0.00  0.00     0.137 C 
ATOM     15  N   UNL d   1       7.696   0.466 -16.495  0.00  0.00    -0.343 N 
ATOM     16  C   UNL d   1       8.414   1.729 -16.308  0.00  0.00     0.137 C 
ATOM     17  C   UNL d   1       9.934   1.456 -16.171  0.00  0.00     0.275 C 
BRANCH  15  18
ATOM     18  C   UNL d   1       6.541   0.151 -15.769  0.00  0.00     0.079 A 
ATOM     19  C   UNL d   1       5.438  -0.512 -16.373  0.00  0.00     0.110 A 
ATOM     20  C   UNL d   1       4.295  -0.814 -15.581  0.00  0.00     0.026 A 
ATOM     21  C   UNL d   1       4.241  -0.426 -14.229  0.00  0.00     0.002 A 
ATOM     22  C   UNL d   1       5.333   0.232 -13.637  0.00  0.00     0.002 A 
ATOM     23  C   UNL d   1       6.478   0.505 -14.406  0.00  0.00     0.019 A 
BRANCH  19  24
ATOM     24  O   UNL d   1       5.498  -0.788 -17.725  0.00  0.00    -0.327 OA
ATOM     25  C   UNL d   1       4.437  -1.501 -18.336  0.00  0.00     0.181 C 
ENDBRANCH  19  24
ENDBRANCH  15  18
ENDBRANCH  11  12
ENDBRANCH   1  11
BRANCH   3  26
ATOM     26  C   UNL d   1      13.639   4.883 -20.122  0.00  0.00     0.273 C 
BRANCH  26  27
ATOM     27  N   UNL d   1      15.029   5.076 -19.710  0.00  0.00     0.145 N 
ATOM     28  C   UNL d   1      15.800   5.657 -20.810  0.00  0.00     0.275 C 
ATOM     29  C   UNL d   1      17.282   5.780 -20.413  0.00  0.00     0.137 C 
ATOM     30  N   UNL d   1      17.410   6.537 -19.171  0.00  0.00    -0.343 N 
ATOM     31  C   UNL d   1      16.563   6.096 -18.063  0.00  0.00     0.137 C 
ATOM     32  C   UNL d   1      15.102   5.935 -18.527  0.00  0.00     0.275 C 
BRANCH  30  33
ATOM     33  C   UNL d   1      18.236   7.661 -19.070  0.00  0.00     0.079 A 
ATOM     34  C   UNL d   1      19.563   7.640 -19.579  0.00  0.00     0.110 A 
ATOM     35  C   UNL d   1      20.378   8.794 -19.446  0.00  0.00     0.026 A 
ATOM     36  C   UNL d   1      19.886   9.950 -18.809  0.00  0.00     0.002 A 
ATOM     37  C   UNL d   1      18.576   9.965 -18.303  0.00  0.00     0.002 A 
ATOM     38  C   UNL d   1      17.756   8.831 -18.444  0.00  0.00     0.019 A 
BRANCH  34  39
ATOM     39  O   UNL d   1      20.016   6.465 -20.150  0.00  0.00    -0.327 OA
ATOM     40  C   UNL d   1      21.270   6.468 -20.809  0.00  0.00     0.181 C 
ENDBRANCH  34  39
ENDBRANCH  30  33
ENDBRANCH  26  27
ENDBRANCH   3  26
TORSDOF 8
