REMARK  9 active torsions:
REMARK  status: ('A' for Active; 'I' for Inactive)
REMARK    1  A    between atoms: O_2  and  C_3 
REMARK    2  A    between atoms: C_8  and  N_9 
REMARK    3  A    between atoms: N_12  and  C_13 
REMARK    4  A    between atoms: C_13  and  C_14 
REMARK    5  A    between atoms: C_14  and  C_15 
REMARK    6  A    between atoms: C_15  and  C_16 
REMARK    7  A    between atoms: C_16  and  O_17 
REMARK    8  A    between atoms: O_17  and  C_18 
REMARK    9  A    between atoms: C_24  and  C_25 
ROOT
ATOM      1  C   UNL d   1       8.197   5.760 -10.670  0.00  0.00     0.038 C 
ENDROOT
BRANCH   1   2
ATOM      2  C   UNL d   1       9.393   5.494  -9.747  0.00  0.00     0.251 C 
BRANCH   2   3
ATOM      3  N   UNL d   1       9.640   6.629  -8.867  0.00  0.00     0.141 N 
ATOM      4  C   UNL d   1       8.916   6.489  -7.603  0.00  0.00     0.274 C 
ATOM      5  C   UNL d   1       9.138   7.715  -6.683  0.00  0.00     0.137 C 
ATOM      6  N   UNL d   1      10.552   7.939  -6.505  0.00  0.00    -0.343 N 
ATOM      7  C   UNL d   1      11.327   7.906  -7.727  0.00  0.00     0.137 C 
ATOM      8  C   UNL d   1      11.051   6.678  -8.541  0.00  0.00     0.274 C 
BRANCH   6   9
ATOM      9  C   UNL d   1      11.155   7.976  -5.223  0.00  0.00     0.079 A 
ATOM     10  C   UNL d   1      11.435   9.212  -4.606  0.00  0.00     0.110 A 
ATOM     11  C   UNL d   1      11.998   9.220  -3.303  0.00  0.00     0.026 A 
ATOM     12  C   UNL d   1      12.283   8.015  -2.634  0.00  0.00     0.002 A 
ATOM     13  C   UNL d   1      11.987   6.794  -3.244  0.00  0.00     0.002 A 
ATOM     14  C   UNL d   1      11.437   6.766  -4.554  0.00  0.00     0.019 A 
BRANCH  10  15
ATOM     15  O   UNL d   1      11.120  10.429  -5.173  0.00  0.00    -0.327 OA
ATOM     16  C   UNL d   1      11.896  10.790  -6.316  0.00  0.00     0.181 C 
ENDBRANCH  10  15
ENDBRANCH   6   9
ENDBRANCH   2   3
ENDBRANCH   1   2
BRANCH   1  17
ATOM     17  C   UNL d   1       7.903   4.568 -11.578  0.00  0.00     0.035 C 
BRANCH  17  18
ATOM     18  C   UNL d   1       7.046   4.937 -12.804  0.00  0.00     0.149 C 
BRANCH  18  19
ATOM     19  O   UNL d   1       6.490   3.768 -13.416  0.00  0.00    -0.331 OA
BRANCH  19  20
ATOM     20  C   UNL d   1       7.311   2.895 -14.099  0.00  0.00     0.097 A 
ATOM     21  C   UNL d   1       8.616   3.185 -14.455  0.00  0.00     0.043 A 
ATOM     22  C   UNL d   1       9.393   2.209 -15.126  0.00  0.00     0.088 A 
ATOM     23  N   UNL d   1       8.796   0.962 -15.402  0.00  0.00    -0.228 N 
ATOM     24  C   UNL d   1      10.661   2.132 -15.628  0.00  0.00     0.060 A 
ATOM     25  C   UNL d   1       7.518   0.659 -15.051  0.00  0.00     0.102 A 
ATOM     26  N   UNL d   1       9.666   0.122 -16.065  0.00  0.00    -0.164 NA
ATOM     27  C   UNL d   1       6.765   1.621 -14.410  0.00  0.00     0.045 A 
ATOM     28  C   UNL d   1      10.757   0.845 -16.203  0.00  0.00     0.124 A 
BRANCH  24  29
ATOM     29  C   UNL d   1      11.729   3.149 -15.612  0.00  0.00     0.134 C 
ATOM     30  N   UNL d   1      11.664   4.272 -15.027  0.00  0.00    -0.095 NA
ATOM     31  O   UNL d   1      12.902   4.957 -15.237  0.00  0.00    -0.061 OA
ENDBRANCH  24  29
ENDBRANCH  19  20
ENDBRANCH  18  19
ENDBRANCH  17  18
ENDBRANCH   1  17
TORSDOF 9
