REMARK  7 active torsions:
REMARK  status: ('A' for Active; 'I' for Inactive)
REMARK    1  A    between atoms: O_2  and  C_3 
REMARK    2  A    between atoms: C_7  and  N_8 
REMARK    3  A    between atoms: N_11  and  C_12 
REMARK    4  A    between atoms: C_12  and  C_13 
REMARK    5  A    between atoms: C_13  and  N_14 
REMARK       I    between atoms: N_14  and  C_15 
REMARK    6  A    between atoms: C_15  and  C_17 
REMARK    7  A    between atoms: C_27  and  O_28 
ROOT
ATOM      1  C   UNL d   1       8.735   5.377 -11.960  0.00  0.00     0.164 C 
ENDROOT
BRANCH   1   2
ATOM      2  C   UNL d   1       9.185   4.915 -10.567  0.00  0.00     0.277 C 
BRANCH   2   3
ATOM      3  N   UNL d   1       8.990   5.954  -9.562  0.00  0.00     0.143 N 
ATOM      4  C   UNL d   1       9.940   7.053  -9.756  0.00  0.00     0.274 C 
ATOM      5  C   UNL d   1       9.709   8.155  -8.716  0.00  0.00     0.137 C 
ATOM      6  N   UNL d   1       9.809   7.588  -7.368  0.00  0.00    -0.344 N 
ATOM      7  C   UNL d   1       8.925   6.445  -7.157  0.00  0.00     0.137 C 
ATOM      8  C   UNL d   1       9.191   5.380  -8.234  0.00  0.00     0.274 C 
BRANCH   6   9
ATOM      9  C   UNL d   1      10.659   8.107  -6.396  0.00  0.00     0.058 A 
ATOM     10  C   UNL d   1      11.171   9.422  -6.502  0.00  0.00     0.017 A 
ATOM     11  C   UNL d   1      12.037   9.944  -5.536  0.00  0.00     0.004 A 
ATOM     12  C   UNL d   1      12.398   9.186  -4.411  0.00  0.00     0.024 A 
ATOM     13  C   UNL d   1      11.886   7.891  -4.258  0.00  0.00     0.096 A 
ATOM     14  C   UNL d   1      11.062   7.337  -5.264  0.00  0.00     0.041 A 
BRANCH  13  15
ATOM     15  O   UNL d   1      12.275   7.178  -3.158  0.00  0.00    -0.328 OA
ATOM     16  C   UNL d   1      11.199   6.627  -2.417  0.00  0.00     0.181 C 
ENDBRANCH  13  15
ENDBRANCH   6   9
ENDBRANCH   2   3
ENDBRANCH   1   2
BRANCH   1  17
ATOM     17  N   UNL d   1       9.327   4.511 -12.969  0.00  0.00    -0.232 NA
ATOM     18  C   UNL d   1       8.627   3.716 -13.783  0.00  0.00     0.277 C 
ATOM     19  O   UNL d   1       7.414   3.557 -13.656  0.00  0.00    -0.266 OA
BRANCH  18  20
ATOM     20  C   UNL d   1       9.442   3.019 -14.844  0.00  0.00     0.080 A 
ATOM     21  C   UNL d   1       9.113   1.722 -15.328  0.00  0.00     0.099 A 
ATOM     22  C   UNL d   1       9.948   1.103 -16.300  0.00  0.00     0.023 A 
ATOM     23  C   UNL d   1      11.065   1.790 -16.841  0.00  0.00     0.008 A 
ATOM     24  C   UNL d   1       9.676  -0.211 -16.744  0.00  0.00     0.002 A 
ATOM     25  C   UNL d   1      11.351   3.100 -16.397  0.00  0.00     0.035 A 
ATOM     26  C   UNL d   1      11.874   1.161 -17.821  0.00  0.00     0.001 A 
ATOM     27  C   UNL d   1      10.539   3.701 -15.422  0.00  0.00     0.013 A 
ATOM     28 BR   UNL d   1      12.824   4.096 -17.083  0.00  0.00    -0.049 Br
ATOM     29  C   UNL d   1      11.591  -0.150 -18.253  0.00  0.00     0.000 A 
ATOM     30  C   UNL d   1      10.489  -0.834 -17.712  0.00  0.00     0.000 A 
BRANCH  21  31
ATOM     31  O   UNL d   1       8.025   1.044 -14.831  0.00  0.00    -0.328 OA
ATOM     32  C   UNL d   1       6.811   1.288 -15.529  0.00  0.00     0.181 C 
ENDBRANCH  21  31
ENDBRANCH  18  20
ENDBRANCH   1  17
TORSDOF 7
