REMARK  7 active torsions:
REMARK  status: ('A' for Active; 'I' for Inactive)
REMARK    1  A    between atoms: C_6  and  C_7 
REMARK    2  A    between atoms: C_10  and  S_11 
REMARK    3  A    between atoms: S_11  and  C_12 
REMARK    4  A    between atoms: C_12  and  C_13 
REMARK    5  A    between atoms: C_13  and  C_14 
REMARK    6  A    between atoms: C_14  and  N_15 
REMARK    7  A    between atoms: C_23  and  C_24 
ROOT
ATOM      1  C   UNL d   1       7.616   0.723 -21.191  0.00  0.00     0.047 C 
ENDROOT
BRANCH   1   2
ATOM      2  C   UNL d   1       7.072  -0.225 -22.278  0.00  0.00     0.067 C 
BRANCH   2   3
ATOM      3  S   UNL d   1       6.046  -1.600 -21.607  0.00  0.00    -0.075 SA
BRANCH   3   4
ATOM      4  C   UNL d   1       6.371  -1.467 -19.880  0.00  0.00     0.193 A 
ATOM      5  N   UNL d   1       7.583  -1.604 -19.327  0.00  0.00    -0.122 NA
ATOM      6  N   UNL d   1       7.439  -1.266 -18.035  0.00  0.00    -0.128 NA
ATOM      7  C   UNL d   1       6.141  -0.988 -17.850  0.00  0.00     0.167 A 
ATOM      8  N   UNL d   1       5.415  -1.135 -18.984  0.00  0.00    -0.289 N 
ATOM      9  C   UNL d   1       3.981  -0.962 -19.218  0.00  0.00     0.134 C 
BRANCH   7  10
ATOM     10  C   UNL d   1       5.579  -0.644 -16.532  0.00  0.00     0.037 A 
ATOM     11  C   UNL d   1       6.057   0.415 -15.717  0.00  0.00     0.021 A 
ATOM     12  C   UNL d   1       7.112   1.268 -16.137  0.00  0.00     0.003 A 
ATOM     13  C   UNL d   1       5.458   0.661 -14.444  0.00  0.00     0.081 A 
ATOM     14  C   UNL d   1       7.534   2.304 -15.291  0.00  0.00     0.015 A 
ATOM     15  C   UNL d   1       6.867   2.474 -14.059  0.00  0.00     0.059 A 
ATOM     16  C   UNL d   1       7.277   3.603 -13.142  0.00  0.00     0.052 C 
ATOM     17  N   UNL d   1       5.857   1.683 -13.642  0.00  0.00    -0.250 NA
ATOM     18  C   UNL d   1       4.400  -0.163 -14.026  0.00  0.00     0.019 A 
ATOM     19  C   UNL d   1       3.927  -1.203 -14.824  0.00  0.00     0.002 A 
ATOM     20  C   UNL d   1       4.534  -1.467 -16.056  0.00  0.00     0.003 A 
ENDBRANCH   7  10
ENDBRANCH   3   4
ENDBRANCH   2   3
ENDBRANCH   1   2
BRANCH   1  21
ATOM     21  C   UNL d   1       8.606   1.785 -21.711  0.00  0.00     0.251 C 
BRANCH  21  22
ATOM     22  N   UNL d   1       9.049   2.667 -20.615  0.00  0.00     0.138 N 
ATOM     23  C   UNL d   1       9.845   3.735 -21.230  0.00  0.00     0.257 C 
ATOM     24  C   UNL d   1      10.503   4.721 -20.251  0.00  0.00     0.081 C 
ATOM     25  C   UNL d   1      11.703   4.152 -19.557  0.00  0.00     0.058 A 
ATOM     26  C   UNL d   1      12.014   2.847 -19.294  0.00  0.00     0.075 A 
ATOM     27  N   UNL d   1      12.740   4.907 -19.031  0.00  0.00    -0.293 N 
ATOM     28  C   UNL d   1      11.165   1.649 -19.581  0.00  0.00     0.082 C 
ATOM     29  N   UNL d   1      13.225   2.738 -18.625  0.00  0.00    -0.231 NA
ATOM     30  C   UNL d   1       9.665   1.987 -19.442  0.00  0.00     0.257 C 
ATOM     31  C   UNL d   1      13.662   3.985 -18.475  0.00  0.00     0.147 A 
ATOM     32  C   UNL d   1      14.833   4.512 -17.875  0.00  0.00     0.037 A 
ATOM     33  C   UNL d   1      15.042   5.869 -17.851  0.00  0.00     0.009 A 
ATOM     34  C   UNL d   1      14.099   6.757 -18.428  0.00  0.00     0.089 A 
ATOM     35  C   UNL d   1      12.951   6.255 -19.001  0.00  0.00     0.085 A 
BRANCH  34  36
ATOM     36  C   UNL d   1      14.356   8.257 -18.409  0.00  0.00     0.420 C 
ATOM     37  F   UNL d   1      13.860   8.765 -17.282  0.00  0.00    -0.166 F 
ATOM     38  F   UNL d   1      15.664   8.511 -18.456  0.00  0.00    -0.166 F 
ATOM     39  F   UNL d   1      13.784   8.847 -19.458  0.00  0.00    -0.166 F 
ENDBRANCH  34  36
ENDBRANCH  21  22
ENDBRANCH   1  21
TORSDOF 7
