REMARK  7 active torsions:
REMARK  status: ('A' for Active; 'I' for Inactive)
REMARK    1  A    between atoms: C_2  and  C_3 
REMARK    2  A    between atoms: C_3  and  N_4 
REMARK    3  A    between atoms: N_4  and  C_5 
REMARK    4  A    between atoms: N_4  and  C_23 
REMARK    5  A    between atoms: C_5  and  C_6 
REMARK    6  A    between atoms: C_6  and  N_7 
REMARK    7  A    between atoms: N_10  and  C_11 
ROOT
ATOM      1  C   UNL d   1       9.811   7.032 -10.891  0.00  0.00     0.286 C 
ENDROOT
BRANCH   1   2
ATOM      2  C   UNL d   1       9.558   5.778 -11.813  0.00  0.00     0.285 C 
BRANCH   2   3
ATOM      3  N   UNL d   1       8.270   5.098 -11.747  0.00  0.00     0.137 N 
BRANCH   3   4
ATOM      4  C   UNL d   1       7.192   6.015 -11.436  0.00  0.00     0.250 C 
BRANCH   4   5
ATOM      5  C   UNL d   1       7.042   7.175 -12.475  0.00  0.00     0.035 C 
ATOM      6  C   UNL d   1       5.601   7.559 -12.613  0.00  0.00     0.002 C 
ENDBRANCH   4   5
ENDBRANCH   3   4
BRANCH   3   7
ATOM      7  C   UNL d   1       7.995   4.259 -12.926  0.00  0.00     0.224 C 
ATOM      8  C   UNL d   1       9.098   3.230 -13.308  0.00  0.00     0.059 C 
ATOM      9  C   UNL d   1       8.672   2.285 -14.437  0.00  0.00    -0.022 A 
ATOM     10  C   UNL d   1       7.318   2.176 -14.847  0.00  0.00    -0.026 A 
ATOM     11  C   UNL d   1       9.645   1.499 -15.094  0.00  0.00     0.023 A 
ATOM     12  C   UNL d   1       6.227   2.991 -14.201  0.00  0.00     0.028 C 
ATOM     13  C   UNL d   1       6.955   1.297 -15.887  0.00  0.00    -0.003 A 
ATOM     14  C   UNL d   1       6.607   3.567 -12.851  0.00  0.00     0.038 C 
ATOM     15  C   UNL d   1       7.931   0.527 -16.541  0.00  0.00     0.027 A 
ATOM     16  C   UNL d   1       9.277   0.627 -16.142  0.00  0.00     0.131 A 
ATOM     17  O   UNL d   1      10.227  -0.122 -16.768  0.00  0.00    -0.190 OA
ENDBRANCH   3   7
ENDBRANCH   2   3
ENDBRANCH   1   2
BRANCH   1  18
ATOM     18  N   UNL d   1      10.176   6.758  -9.523  0.00  0.00     0.143 N 
ATOM     19  C   UNL d   1      11.404   7.470  -9.196  0.00  0.00     0.274 C 
ATOM     20  C   UNL d   1      11.812   7.217  -7.744  0.00  0.00     0.138 C 
ATOM     21  N   UNL d   1      10.729   7.549  -6.858  0.00  0.00    -0.330 N 
ATOM     22  C   UNL d   1       9.419   7.014  -7.131  0.00  0.00     0.138 C 
ATOM     23  C   UNL d   1       9.130   7.247  -8.596  0.00  0.00     0.274 C 
BRANCH  21  24
ATOM     24  C   UNL d   1      10.945   8.396  -5.780  0.00  0.00     0.140 C 
ATOM     25  C   UNL d   1      11.489   7.926  -4.574  0.00  0.00     0.034 A 
ATOM     26  C   UNL d   1      11.686   8.842  -3.521  0.00  0.00     0.004 A 
ATOM     27  C   UNL d   1      11.859   6.605  -4.365  0.00  0.00     0.003 A 
ATOM     28  C   UNL d   1      11.266  10.128  -3.723  0.00  0.00     0.021 C 
ATOM     29  C   UNL d   1      12.240   8.489  -2.290  0.00  0.00     0.000 A 
ATOM     30  C   UNL d   1      10.677  10.482  -4.934  0.00  0.00     0.101 C 
ATOM     31  N   UNL d   1      10.598   9.666  -5.994  0.00  0.00    -0.227 NA
ATOM     32  C   UNL d   1      12.596   7.168  -2.094  0.00  0.00     0.000 A 
ATOM     33  C   UNL d   1      12.400   6.260  -3.131  0.00  0.00     0.000 A 
ENDBRANCH  21  24
ENDBRANCH   1  18
TORSDOF 7
