REMARK  7 active torsions:
REMARK  status: ('A' for Active; 'I' for Inactive)
REMARK    1  A    between atoms: S_2  and  N_4 
REMARK    2  A    between atoms: S_2  and  C_23 
REMARK    3  A    between atoms: N_4  and  C_5 
REMARK    4  A    between atoms: C_5  and  C_6 
REMARK    5  A    between atoms: C_6  and  C_7 
REMARK    6  A    between atoms: C_7  and  N_8 
REMARK    7  A    between atoms: N_11  and  C_12 
ROOT
ATOM      1  C   UNL d   1       8.666   6.772 -11.390  0.00  0.00     0.062 C 
ENDROOT
BRANCH   1   2
ATOM      2  C   UNL d   1       9.090   8.294 -11.470  0.00  0.00     0.141 C 
BRANCH   2   3
ATOM      3  N   UNL d   1       9.634   8.767 -10.164  0.00  0.00    -0.184 NA
BRANCH   3   4
ATOM      4  S   UNL d   1      11.139   8.228  -9.687  0.00  0.00     0.287 S 
ATOM      5  O   UNL d   1      11.193   6.811 -10.001  0.00  0.00    -0.198 OA
ATOM      6  O   UNL d   1      12.108   9.162 -10.278  0.00  0.00    -0.198 OA
BRANCH   4   7
ATOM      7  C   UNL d   1      11.229   8.217  -7.944  0.00  0.00     0.134 A 
ATOM      8  S   UNL d   1      11.530   9.616  -7.019  0.00  0.00    -0.074 SA
ATOM      9  C   UNL d   1      11.630   8.722  -5.562  0.00  0.00     0.031 A 
ATOM     10  C   UNL d   1      11.346   7.357  -5.816  0.00  0.00     0.007 A 
ATOM     11  C   UNL d   1      11.948   9.192  -4.284  0.00  0.00     0.018 A 
ATOM     12  C   UNL d   1      11.113   7.073  -7.199  0.00  0.00     0.020 A 
ATOM     13  C   UNL d   1      11.341   6.521  -4.684  0.00  0.00     0.001 A 
ATOM     14  C   UNL d   1      11.647   6.958  -3.394  0.00  0.00     0.011 A 
ATOM     15  C   UNL d   1      11.966   8.297  -3.203  0.00  0.00     0.058 A 
ATOM     16 CL   UNL d   1      12.280   8.827  -1.635  0.00  0.00    -0.082 Cl
ENDBRANCH   4   7
ENDBRANCH   3   4
ENDBRANCH   2   3
ENDBRANCH   1   2
BRANCH   1  17
ATOM     17  C   UNL d   1       7.651   6.396 -12.481  0.00  0.00     0.253 C 
BRANCH  17  18
ATOM     18  N   UNL d   1       7.603   4.949 -12.641  0.00  0.00     0.141 N 
ATOM     19  C   UNL d   1       8.581   4.503 -13.657  0.00  0.00     0.274 C 
ATOM     20  C   UNL d   1       8.569   2.979 -13.829  0.00  0.00     0.138 C 
ATOM     21  N   UNL d   1       7.217   2.501 -14.094  0.00  0.00    -0.329 N 
ATOM     22  C   UNL d   1       6.165   3.008 -13.219  0.00  0.00     0.138 C 
ATOM     23  C   UNL d   1       6.263   4.526 -13.075  0.00  0.00     0.274 C 
BRANCH  21  24
ATOM     24  C   UNL d   1       6.918   1.655 -15.226  0.00  0.00     0.148 A 
ATOM     25  C   UNL d   1       5.892   0.635 -15.220  0.00  0.00     0.042 A 
ATOM     26  C   UNL d   1       5.846  -0.003 -16.479  0.00  0.00     0.050 A 
ATOM     27  C   UNL d   1       4.962   0.174 -14.232  0.00  0.00     0.004 A 
ATOM     28  S   UNL d   1       7.063   0.725 -17.506  0.00  0.00     0.015 SA
ATOM     29  C   UNL d   1       4.943  -1.041 -16.784  0.00  0.00     0.008 A 
ATOM     30  N   UNL d   1       7.618   1.798 -16.347  0.00  0.00    -0.192 NA
ATOM     31  C   UNL d   1       4.024  -1.441 -15.793  0.00  0.00     0.001 A 
ATOM     32  C   UNL d   1       4.019  -0.822 -14.543  0.00  0.00     0.000 A 
ENDBRANCH  21  24
ENDBRANCH  17  18
ENDBRANCH   1  17
TORSDOF 7
