REMARK  12 active torsions:
REMARK  status: ('A' for Active; 'I' for Inactive)
REMARK    1  A    between atoms: N_2  and  C_3 
REMARK    2  A    between atoms: N_2  and  C_19 
REMARK    3  A    between atoms: C_3  and  C_4 
REMARK    4  A    between atoms: C_4  and  C_5 
REMARK    5  A    between atoms: C_5  and  S_6 
REMARK    6  A    between atoms: S_6  and  C_7 
REMARK    7  A    between atoms: C_10  and  C_11 
REMARK    8  A    between atoms: C_19  and  C_20 
REMARK    9  A    between atoms: C_22  and  C_23 
REMARK   10  A    between atoms: C_29  and  O_30 
REMARK   11  A    between atoms: O_30  and  C_31 
REMARK   12  A    between atoms: C_31  and  C_32 
ROOT
ATOM      1  C   UNL d   1      10.656   0.897 -14.997  0.00  0.00     0.285 C 
ATOM      2  N   UNL d   1      10.811   2.323 -14.719  0.00  0.00     0.139 N 
ENDROOT
BRANCH   2   3
ATOM      3  C   UNL d   1       9.598   2.796 -14.060  0.00  0.00     0.251 C 
BRANCH   3   4
ATOM      4  C   UNL d   1       9.802   4.180 -13.422  0.00  0.00     0.047 C 
BRANCH   4   5
ATOM      5  C   UNL d   1       8.508   4.670 -12.774  0.00  0.00     0.067 C 
BRANCH   5   6
ATOM      6  S   UNL d   1       8.636   6.414 -12.311  0.00  0.00    -0.075 SA
BRANCH   6   7
ATOM      7  C   UNL d   1       9.282   6.301 -10.662  0.00  0.00     0.193 A 
ATOM      8  N   UNL d   1       9.787   7.386 -10.019  0.00  0.00    -0.289 N 
ATOM      9  C   UNL d   1      10.099   6.857  -8.806  0.00  0.00     0.167 A 
ATOM     10  C   UNL d   1       9.875   8.773 -10.558  0.00  0.00     0.134 C 
ATOM     11  N   UNL d   1       9.806   5.540  -8.732  0.00  0.00    -0.128 NA
ATOM     12  N   UNL d   1       9.267   5.178  -9.943  0.00  0.00    -0.122 NA
BRANCH   9  13
ATOM     13  C   UNL d   1      10.671   7.536  -7.623  0.00  0.00     0.036 A 
ATOM     14  C   UNL d   1      11.414   8.759  -7.762  0.00  0.00     0.003 A 
ATOM     15  C   UNL d   1      11.868   9.384  -6.569  0.00  0.00     0.000 A 
ATOM     16  C   UNL d   1      11.710   8.809  -5.278  0.00  0.00     0.000 A 
ATOM     17  C   UNL d   1      11.046   7.564  -5.189  0.00  0.00     0.000 A 
ATOM     18  C   UNL d   1      10.496   6.945  -6.332  0.00  0.00     0.003 A 
ENDBRANCH   9  13
ENDBRANCH   6   7
ENDBRANCH   5   6
ENDBRANCH   4   5
ENDBRANCH   3   4
ENDBRANCH   2   3
BRANCH   2  19
ATOM     19  C   UNL d   1      10.960   3.016 -15.995  0.00  0.00     0.251 C 
BRANCH  19  20
ATOM     20  C   UNL d   1      12.383   2.995 -16.523  0.00  0.00     0.038 A 
ATOM     21  C   UNL d   1      12.686   3.702 -17.832  0.00  0.00     0.026 A 
ATOM     22  C   UNL d   1      13.190   4.271 -16.526  0.00  0.00     0.007 A 
BRANCH  21  23
ATOM     23  C   UNL d   1      11.597   4.378 -18.620  0.00  0.00     0.002 A 
ATOM     24  C   UNL d   1      11.607   5.777 -18.832  0.00  0.00     0.090 A 
ATOM     25  C   UNL d   1      10.504   6.369 -19.497  0.00  0.00     0.026 A 
ATOM     26  C   UNL d   1       9.424   5.591 -19.945  0.00  0.00     0.032 A 
ATOM     27  C   UNL d   1       9.443   4.200 -19.760  0.00  0.00     0.140 A 
ATOM     28  C   UNL d   1      10.534   3.597 -19.119  0.00  0.00     0.027 A 
ATOM     29  F   UNL d   1       8.402   3.443 -20.178  0.00  0.00    -0.204 F 
BRANCH  24  30
ATOM     30  O   UNL d   1      12.678   6.484 -18.325  0.00  0.00    -0.328 OA
BRANCH  30  31
ATOM     31  C   UNL d   1      12.754   7.888 -18.528  0.00  0.00     0.187 C 
BRANCH  31  32
ATOM     32  C   UNL d   1      13.710   8.487 -17.497  0.00  0.00     0.226 C 
ATOM     33  F   UNL d   1      13.185   8.396 -16.273  0.00  0.00    -0.232 F 
ENDBRANCH  31  32
ENDBRANCH  30  31
ENDBRANCH  24  30
ENDBRANCH  21  23
ENDBRANCH  19  20
ENDBRANCH   2  19
TORSDOF 12
