REMARK  8 active torsions:
REMARK  status: ('A' for Active; 'I' for Inactive)
REMARK       I    between atoms: C_2  and  N_4 
REMARK    1  A    between atoms: N_4  and  C_5 
REMARK    2  A    between atoms: C_7  and  O_8 
REMARK    3  A    between atoms: O_8  and  C_9 
REMARK    4  A    between atoms: C_9  and  C_10 
REMARK    5  A    between atoms: C_10  and  C_11 
REMARK    6  A    between atoms: C_11  and  C_12 
REMARK    7  A    between atoms: C_12  and  N_13 
REMARK    8  A    between atoms: N_16  and  C_17 
ROOT
ATOM      1  C   UNL d   1       8.173   5.984 -10.840  0.00  0.00     0.038 C 
ENDROOT
BRANCH   1   2
ATOM      2  C   UNL d   1       7.717   4.628 -11.383  0.00  0.00     0.035 C 
BRANCH   2   3
ATOM      3  C   UNL d   1       6.551   4.796 -12.396  0.00  0.00     0.149 C 
BRANCH   3   4
ATOM      4  O   UNL d   1       6.183   3.551 -12.991  0.00  0.00    -0.331 OA
BRANCH   4   5
ATOM      5  C   UNL d   1       7.113   2.880 -13.761  0.00  0.00     0.096 A 
ATOM      6  C   UNL d   1       8.414   3.369 -13.989  0.00  0.00     0.043 A 
ATOM      7  C   UNL d   1       9.400   2.592 -14.649  0.00  0.00     0.082 A 
ATOM      8  C   UNL d   1       9.029   1.314 -15.143  0.00  0.00    -0.004 A 
ATOM      9  C   UNL d   1       7.707   0.832 -14.959  0.00  0.00    -0.001 A 
ATOM     10  C   UNL d   1      10.018   0.461 -15.927  0.00  0.00     0.033 C 
ATOM     11  C   UNL d   1       6.758   1.612 -14.263  0.00  0.00     0.024 A 
BRANCH   7  12
ATOM     12  N   UNL d   1      10.756   3.024 -14.826  0.00  0.00    -0.212 NA
ATOM     13  C   UNL d   1      11.293   4.242 -14.609  0.00  0.00     0.256 C 
ATOM     14  C   UNL d   1      12.727   4.441 -15.076  0.00  0.00     0.100 C 
ATOM     15  O   UNL d   1      10.732   5.176 -14.050  0.00  0.00    -0.270 OA
ENDBRANCH   7  12
ENDBRANCH   4   5
ENDBRANCH   3   4
ENDBRANCH   2   3
ENDBRANCH   1   2
BRANCH   1  16
ATOM     16  C   UNL d   1       9.495   5.874 -10.068  0.00  0.00     0.251 C 
BRANCH  16  17
ATOM     17  N   UNL d   1       9.798   7.087  -9.298  0.00  0.00     0.141 N 
ATOM     18  C   UNL d   1       8.966   7.111  -8.088  0.00  0.00     0.274 C 
ATOM     19  C   UNL d   1       9.211   8.403  -7.290  0.00  0.00     0.137 C 
ATOM     20  N   UNL d   1      10.621   8.524  -6.967  0.00  0.00    -0.344 N 
ATOM     21  C   UNL d   1      11.551   8.332  -8.070  0.00  0.00     0.137 C 
ATOM     22  C   UNL d   1      11.194   7.067  -8.874  0.00  0.00     0.274 C 
BRANCH  20  23
ATOM     23  C   UNL d   1      11.064   8.644  -5.645  0.00  0.00     0.068 A 
ATOM     24  C   UNL d   1      11.628   7.560  -4.949  0.00  0.00     0.084 A 
ATOM     25  C   UNL d   1      12.052   7.689  -3.603  0.00  0.00     0.070 A 
ATOM     26 CL   UNL d   1      11.850   6.078  -5.767  0.00  0.00    -0.080 Cl
ATOM     27  C   UNL d   1      12.012   8.934  -2.972  0.00  0.00     0.012 A 
ATOM     28 CL   UNL d   1      12.587   6.393  -2.646  0.00  0.00    -0.081 Cl
ATOM     29  C   UNL d   1      11.465   9.997  -3.684  0.00  0.00     0.002 A 
ATOM     30  C   UNL d   1      10.972   9.871  -4.992  0.00  0.00     0.018 A 
ENDBRANCH  20  23
ENDBRANCH  16  17
ENDBRANCH   1  16
TORSDOF 8
