REMARK  5 active torsions:
REMARK  status: ('A' for Active; 'I' for Inactive)
REMARK    1  A    between atoms: C_2  and  C_5 
REMARK    2  A    between atoms: C_8  and  N_9 
REMARK    3  A    between atoms: N_12  and  C_13 
REMARK    4  A    between atoms: C_13  and  C_14 
REMARK    5  A    between atoms: C_14  and  N_15 
ROOT
ATOM      1  N   UNL d   1       8.642   4.995 -12.151  0.00  0.00    -0.280 N 
ATOM      2  C   UNL d   1       7.280   4.530 -12.347  0.00  0.00     0.135 A 
ATOM      3  C   UNL d   1       7.335   3.874 -13.726  0.00  0.00     0.131 A 
ATOM      4  N   UNL d   1       8.720   4.055 -14.116  0.00  0.00    -0.298 N 
ATOM      5  C   UNL d   1       9.448   4.671 -13.175  0.00  0.00     0.328 A 
ATOM      6  O   UNL d   1      10.656   4.905 -13.252  0.00  0.00    -0.247 OA
ENDROOT
BRANCH   4   7
ATOM      7  C   UNL d   1       9.234   3.554 -15.387  0.00  0.00     0.141 C 
BRANCH   7   8
ATOM      8  C   UNL d   1       9.582   4.714 -16.345  0.00  0.00     0.275 C 
BRANCH   8   9
ATOM      9  N   UNL d   1      10.244   4.177 -17.533  0.00  0.00     0.148 N 
ATOM     10  C   UNL d   1      11.289   5.107 -18.010  0.00  0.00     0.277 C 
ATOM     11  C   UNL d   1      10.583   6.034 -18.961  0.00  0.00     0.009 A 
ATOM     12  C   UNL d   1       9.400   5.440 -19.350  0.00  0.00     0.009 A 
ATOM     13  C   UNL d   1      10.987   7.282 -19.466  0.00  0.00    -0.003 A 
ATOM     14  C   UNL d   1       9.290   4.103 -18.661  0.00  0.00     0.277 C 
ATOM     15  C   UNL d   1       8.538   6.055 -20.272  0.00  0.00    -0.003 A 
ATOM     16  C   UNL d   1       8.918   7.317 -20.787  0.00  0.00    -0.000 A 
ATOM     17  C   UNL d   1      10.133   7.924 -20.388  0.00  0.00    -0.000 A 
ENDBRANCH   8   9
ENDBRANCH   7   8
ENDBRANCH   4   7
BRANCH   1  18
ATOM     18  C   UNL d   1       9.058   5.652 -10.970  0.00  0.00     0.064 A 
ATOM     19  C   UNL d   1       9.682   6.909 -11.051  0.00  0.00     0.017 A 
ATOM     20  C   UNL d   1      10.118   7.565  -9.889  0.00  0.00    -0.003 A 
ATOM     21  C   UNL d   1       9.951   6.967  -8.618  0.00  0.00    -0.023 A 
ATOM     22  C   UNL d   1       9.306   5.711  -8.547  0.00  0.00    -0.003 A 
ATOM     23  C   UNL d   1       8.853   5.063  -9.711  0.00  0.00     0.017 A 
BRANCH  21  24
ATOM     24  C   UNL d   1      10.428   7.713  -7.363  0.00  0.00     0.019 C 
ATOM     25  C   UNL d   1      10.506   6.809  -6.115  0.00  0.00     0.004 C 
ATOM     26  C   UNL d   1       9.436   8.840  -7.051  0.00  0.00     0.004 C 
ATOM     27  C   UNL d   1      11.837   8.314  -7.586  0.00  0.00     0.004 C 
ENDBRANCH  21  24
ENDBRANCH   1  18
TORSDOF 5
