REMARK  7 active torsions:
REMARK  status: ('A' for Active; 'I' for Inactive)
REMARK    1  A    between atoms: S_2  and  N_4 
REMARK    2  A    between atoms: S_2  and  C_22 
REMARK    3  A    between atoms: N_4  and  C_5 
REMARK    4  A    between atoms: N_8  and  C_9 
REMARK    5  A    between atoms: C_9  and  C_10 
REMARK    6  A    between atoms: C_10  and  C_11 
REMARK    7  A    between atoms: C_11  and  C_12 
ROOT
ATOM      1  C   UNL d   1       9.085   4.716 -10.786  0.00  0.00     0.151 C 
ATOM      2  C   UNL d   1       9.638   4.021  -9.484  0.00  0.00     0.063 C 
ATOM      3  C   UNL d   1       9.715   5.182  -8.524  0.00  0.00     0.252 C 
ATOM      4  N   UNL d   1       9.859   6.369  -9.333  0.00  0.00     0.139 N 
ATOM      5  C   UNL d   1       8.886   6.167 -10.385  0.00  0.00     0.275 C 
ENDROOT
BRANCH   1   6
ATOM      6  N   UNL d   1       7.791   4.225 -11.263  0.00  0.00    -0.185 NA
BRANCH   6   7
ATOM      7  S   UNL d   1       7.137   4.577 -12.821  0.00  0.00     0.281 S 
ATOM      8  O   UNL d   1       5.672   4.535 -12.658  0.00  0.00    -0.199 OA
ATOM      9  O   UNL d   1       7.813   5.801 -13.270  0.00  0.00    -0.199 OA
BRANCH   7  10
ATOM     10  C   UNL d   1       7.602   3.159 -13.878  0.00  0.00     0.105 A 
ATOM     11  C   UNL d   1       8.899   2.964 -14.444  0.00  0.00     0.012 A 
ATOM     12  C   UNL d   1       9.135   1.834 -15.282  0.00  0.00     0.001 A 
ATOM     13  C   UNL d   1       9.975   3.853 -14.219  0.00  0.00     0.001 A 
ATOM     14  C   UNL d   1       8.102   0.912 -15.553  0.00  0.00     0.000 A 
ATOM     15  C   UNL d   1      10.405   1.629 -15.867  0.00  0.00     0.000 A 
ATOM     16  C   UNL d   1       6.830   1.096 -14.986  0.00  0.00     0.001 A 
ATOM     17  C   UNL d   1       6.588   2.207 -14.152  0.00  0.00     0.013 A 
ATOM     18  C   UNL d   1      11.458   2.531 -15.620  0.00  0.00     0.000 A 
ATOM     19  C   UNL d   1      11.241   3.638 -14.786  0.00  0.00     0.000 A 
ENDBRANCH   7  10
ENDBRANCH   6   7
ENDBRANCH   1   6
BRANCH   4  20
ATOM     20  C   UNL d   1       9.519   7.538  -8.537  0.00  0.00     0.251 C 
BRANCH  20  21
ATOM     21  C   UNL d   1      10.593   7.778  -7.471  0.00  0.00     0.042 C 
BRANCH  21  22
ATOM     22  C   UNL d   1      10.047   8.621  -6.341  0.00  0.00     0.050 C 
BRANCH  22  23
ATOM     23  C   UNL d   1      11.113   8.871  -5.338  0.00  0.00     0.088 C 
ATOM     24  C   UNL d   1      11.532   8.098  -4.248  0.00  0.00     0.041 C 
ATOM     25  C   UNL d   1      12.486   8.825  -3.548  0.00  0.00     0.126 C 
ATOM     26  C   UNL d   1      11.155   6.820  -3.782  0.00  0.00     0.003 C 
ATOM     27  O   UNL d   1      12.752   9.910  -4.322  0.00  0.00    -0.211 OA
ATOM     28  C   UNL d   1      13.052   8.404  -2.327  0.00  0.00     0.027 C 
ATOM     29  N   UNL d   1      11.857   9.969  -5.406  0.00  0.00    -0.131 NA
ATOM     30  C   UNL d   1      12.647   7.170  -1.839  0.00  0.00     0.002 C 
ATOM     31  C   UNL d   1      11.651   6.407  -2.549  0.00  0.00     0.000 C 
ENDBRANCH  22  23
ENDBRANCH  21  22
ENDBRANCH  20  21
ENDBRANCH   4  20
TORSDOF 7
