REMARK  12 active torsions:
REMARK  status: ('A' for Active; 'I' for Inactive)
REMARK    1  A    between atoms: O_2  and  C_3 
REMARK    2  A    between atoms: C_8  and  C_9 
REMARK    3  A    between atoms: C_9  and  C_10 
REMARK    4  A    between atoms: C_9  and  N_18 
REMARK    5  A    between atoms: C_15  and  O_16 
REMARK    6  A    between atoms: N_21  and  C_22 
REMARK    7  A    between atoms: C_22  and  C_23 
REMARK    8  A    between atoms: C_23  and  C_24 
REMARK    9  A    between atoms: C_24  and  C_25 
REMARK   10  A    between atoms: C_25  and  N_26 
REMARK       I    between atoms: N_26  and  C_27 
REMARK   11  A    between atoms: C_27  and  C_29 
REMARK   12  A    between atoms: C_30  and  C_31 
ROOT
ATOM      1  N   UNL d   1       8.782   2.876 -15.536  0.00  0.00     0.147 N 
ATOM      2  C   UNL d   1       7.949   2.307 -14.466  0.00  0.00     0.286 C 
ATOM      3  C   UNL d   1       7.168   3.420 -13.713  0.00  0.00     0.285 C 
ATOM      4  N   UNL d   1       8.054   4.426 -13.135  0.00  0.00     0.141 N 
ATOM      5  C   UNL d   1       8.900   4.972 -14.188  0.00  0.00     0.285 C 
ATOM      6  C   UNL d   1       9.671   3.864 -14.926  0.00  0.00     0.286 C 
ENDROOT
BRANCH   1   7
ATOM      7  C   UNL d   1       9.517   1.871 -16.327  0.00  0.00     0.268 C 
BRANCH   7   8
ATOM      8  C   UNL d   1      10.584   2.454 -17.290  0.00  0.00     0.035 A 
ATOM      9  C   UNL d   1      10.363   3.586 -18.132  0.00  0.00     0.092 A 
ATOM     10  C   UNL d   1      11.404   4.003 -19.010  0.00  0.00     0.024 A 
ATOM     11  C   UNL d   1      12.611   3.288 -19.095  0.00  0.00     0.002 A 
ATOM     12  C   UNL d   1      12.823   2.181 -18.256  0.00  0.00    -0.000 A 
ATOM     13  C   UNL d   1      11.844   1.804 -17.317  0.00  0.00    -0.000 A 
BRANCH   9  14
ATOM     14  O   UNL d   1       9.150   4.242 -18.069  0.00  0.00    -0.328 OA
ATOM     15  C   UNL d   1       9.048   5.526 -18.683  0.00  0.00     0.181 C 
ENDBRANCH   9  14
ENDBRANCH   7   8
BRANCH   7  16
ATOM     16  C   UNL d   1       8.616   0.871 -17.085  0.00  0.00     0.035 A 
ATOM     17  C   UNL d   1       9.134  -0.350 -17.595  0.00  0.00     0.092 A 
ATOM     18  C   UNL d   1       8.274  -1.273 -18.242  0.00  0.00     0.024 A 
ATOM     19  C   UNL d   1       6.897  -1.020 -18.346  0.00  0.00     0.002 A 
ATOM     20  C   UNL d   1       6.377   0.190 -17.854  0.00  0.00    -0.000 A 
ATOM     21  C   UNL d   1       7.233   1.153 -17.270  0.00  0.00    -0.000 A 
BRANCH  17  22
ATOM     22  O   UNL d   1      10.462  -0.663 -17.420  0.00  0.00    -0.328 OA
ATOM     23  C   UNL d   1      11.202  -0.843 -18.618  0.00  0.00     0.181 C 
ENDBRANCH  17  22
ENDBRANCH   7  16
ENDBRANCH   1   7
BRANCH   4  24
ATOM     24  C   UNL d   1       7.287   5.458 -12.434  0.00  0.00     0.251 C 
BRANCH  24  25
ATOM     25  C   UNL d   1       8.012   6.788 -12.191  0.00  0.00     0.037 C 
BRANCH  25  26
ATOM     26  C   UNL d   1       8.934   6.731 -10.960  0.00  0.00     0.029 C 
BRANCH  26  27
ATOM     27  C   UNL d   1       9.658   8.060 -10.682  0.00  0.00     0.129 C 
BRANCH  27  28
ATOM     28  N   UNL d   1       9.945   8.301  -9.271  0.00  0.00    -0.234 NA
ATOM     29  C   UNL d   1      10.315   7.402  -8.351  0.00  0.00     0.275 C 
ATOM     30  O   UNL d   1      10.379   6.190  -8.565  0.00  0.00    -0.266 OA
BRANCH  29  31
ATOM     31  C   UNL d   1      10.650   8.039  -7.090  0.00  0.00     0.062 C 
ATOM     32  C   UNL d   1      11.057   7.275  -6.064  0.00  0.00     0.005 C 
BRANCH  32  33
ATOM     33  C   UNL d   1      11.459   7.747  -4.745  0.00  0.00     0.000 A 
ATOM     34  C   UNL d   1      11.862   6.791  -3.786  0.00  0.00     0.000 A 
ATOM     35  C   UNL d   1      12.258   7.196  -2.502  0.00  0.00     0.000 A 
ATOM     36  C   UNL d   1      12.264   8.565  -2.176  0.00  0.00     0.000 A 
ATOM     37  C   UNL d   1      11.861   9.523  -3.122  0.00  0.00     0.000 A 
ATOM     38  C   UNL d   1      11.462   9.119  -4.406  0.00  0.00     0.000 A 
ENDBRANCH  32  33
ENDBRANCH  29  31
ENDBRANCH  27  28
ENDBRANCH  26  27
ENDBRANCH  25  26
ENDBRANCH  24  25
ENDBRANCH   4  24
TORSDOF 12
