REMARK  7 active torsions:
REMARK  status: ('A' for Active; 'I' for Inactive)
REMARK    1  A    between atoms: O_2  and  C_3 
REMARK    2  A    between atoms: C_8  and  N_9 
REMARK    3  A    between atoms: N_12  and  C_13 
REMARK    4  A    between atoms: C_13  and  C_14 
REMARK    5  A    between atoms: C_14  and  C_16 
REMARK    6  A    between atoms: C_16  and  N_17 
REMARK    7  A    between atoms: C_21  and  C_23 
ROOT
ATOM      1  C   UNL d   1      11.258   0.454 -18.246  0.00  0.00     0.208 C 
ATOM      2  O   UNL d   1      11.058  -0.320 -19.407  0.00  0.00    -0.219 OA
ENDROOT
BRANCH   1   3
ATOM      3  C   UNL d   1      10.156   1.536 -18.147  0.00  0.00     0.285 C 
BRANCH   3   4
ATOM      4  N   UNL d   1      10.092   2.216 -16.851  0.00  0.00     0.144 N 
ATOM      5  C   UNL d   1       9.493   1.367 -15.813  0.00  0.00     0.274 C 
ATOM      6  C   UNL d   1       9.439   2.059 -14.441  0.00  0.00     0.137 C 
ATOM      7  N   UNL d   1       8.795   3.358 -14.564  0.00  0.00    -0.343 N 
ATOM      8  C   UNL d   1       9.307   4.237 -15.609  0.00  0.00     0.137 C 
ATOM      9  C   UNL d   1       9.342   3.471 -16.950  0.00  0.00     0.274 C 
BRANCH   7  10
ATOM     10  C   UNL d   1       7.727   3.723 -13.743  0.00  0.00     0.079 A 
ATOM     11  C   UNL d   1       7.774   4.932 -13.003  0.00  0.00     0.110 A 
ATOM     12  C   UNL d   1       6.684   5.251 -12.160  0.00  0.00     0.026 A 
ATOM     13  C   UNL d   1       5.580   4.391 -12.058  0.00  0.00     0.002 A 
ATOM     14  C   UNL d   1       5.529   3.203 -12.806  0.00  0.00     0.002 A 
ATOM     15  C   UNL d   1       6.605   2.873 -13.649  0.00  0.00     0.019 A 
BRANCH  11  16
ATOM     16  O   UNL d   1       8.896   5.730 -13.122  0.00  0.00    -0.327 OA
ATOM     17  C   UNL d   1       8.934   6.944 -12.389  0.00  0.00     0.181 C 
ENDBRANCH  11  16
ENDBRANCH   7  10
ENDBRANCH   3   4
ENDBRANCH   1   3
BRANCH   1  18
ATOM     18  C   UNL d   1      12.712   0.994 -18.235  0.00  0.00     0.148 C 
BRANCH  18  19
ATOM     19  N   UNL d   1      12.881   2.210 -19.042  0.00  0.00    -0.247 N 
ATOM     20  C   UNL d   1      12.775   3.468 -18.587  0.00  0.00     0.265 A 
ATOM     21  C   UNL d   1      12.834   4.427 -19.770  0.00  0.00     0.179 A 
ATOM     22  O   UNL d   1      12.657   3.836 -17.416  0.00  0.00    -0.269 OA
ATOM     23  N   UNL d   1      13.102   3.451 -20.814  0.00  0.00    -0.209 NA
ATOM     24  C   UNL d   1      14.047   5.365 -19.627  0.00  0.00     0.039 C 
ATOM     25  C   UNL d   1      13.091   2.192 -20.371  0.00  0.00     0.348 A 
ATOM     26  O   UNL d   1      13.248   1.198 -21.076  0.00  0.00    -0.245 OA
BRANCH  21  27
ATOM     27  C   UNL d   1      11.487   5.166 -19.942  0.00  0.00     0.006 A 
ATOM     28  C   UNL d   1      11.227   6.356 -19.219  0.00  0.00    -0.002 A 
ATOM     29  C   UNL d   1      10.022   7.062 -19.391  0.00  0.00    -0.004 A 
ATOM     30  C   UNL d   1       9.036   6.583 -20.274  0.00  0.00    -0.022 A 
ATOM     31  C   UNL d   1       9.270   5.394 -20.991  0.00  0.00    -0.004 A 
ATOM     32  C   UNL d   1       7.742   7.351 -20.449  0.00  0.00     0.031 C 
ATOM     33  C   UNL d   1      10.482   4.691 -20.826  0.00  0.00    -0.002 A 
ENDBRANCH  21  27
ENDBRANCH  18  19
ENDBRANCH   1  18
TORSDOF 7
