REMARK  9 active torsions:
REMARK  status: ('A' for Active; 'I' for Inactive)
REMARK    1  A    between atoms: C_2  and  C_5 
REMARK    2  A    between atoms: C_7  and  N_8 
REMARK    3  A    between atoms: N_11  and  C_12 
REMARK    4  A    between atoms: C_12  and  C_13 
REMARK    5  A    between atoms: C_13  and  C_14 
REMARK    6  A    between atoms: C_14  and  C_15 
REMARK    7  A    between atoms: C_15  and  N_16 
REMARK       I    between atoms: N_16  and  C_17 
REMARK    8  A    between atoms: C_17  and  C_19 
REMARK    9  A    between atoms: C_31  and  C_32 
ROOT
ATOM      1  N   UNL d   1       8.772   3.382 -14.821  0.00  0.00    -0.330 N 
ATOM      2  C   UNL d   1       9.788   4.387 -14.602  0.00  0.00     0.138 C 
ATOM      3  C   UNL d   1       9.069   5.584 -13.929  0.00  0.00     0.274 C 
ATOM      4  N   UNL d   1       8.428   5.287 -12.661  0.00  0.00     0.141 N 
ATOM      5  C   UNL d   1       7.354   4.340 -12.984  0.00  0.00     0.274 C 
ATOM      6  C   UNL d   1       7.992   3.085 -13.630  0.00  0.00     0.138 C 
ENDROOT
BRANCH   4   7
ATOM      7  C   UNL d   1       7.858   6.536 -12.143  0.00  0.00     0.251 C 
BRANCH   7   8
ATOM      8  C   UNL d   1       8.929   7.593 -11.761  0.00  0.00     0.037 C 
BRANCH   8   9
ATOM      9  C   UNL d   1       9.682   7.154 -10.500  0.00  0.00     0.029 C 
BRANCH   9  10
ATOM     10  C   UNL d   1      10.658   8.238  -9.999  0.00  0.00     0.129 C 
BRANCH  10  11
ATOM     11  N   UNL d   1      11.059   8.060  -8.610  0.00  0.00    -0.234 NA
ATOM     12  C   UNL d   1      10.242   8.178  -7.562  0.00  0.00     0.281 C 
ATOM     13  O   UNL d   1       9.034   8.394  -7.622  0.00  0.00    -0.265 OA
BRANCH  12  14
ATOM     14  C   UNL d   1      10.864   8.093  -6.258  0.00  0.00     0.088 A 
ATOM     15  S   UNL d   1      11.189   9.637  -5.538  0.00  0.00    -0.063 SA
ATOM     16  C   UNL d   1      11.753   8.836  -4.099  0.00  0.00     0.111 A 
ATOM     17  C   UNL d   1      11.696   7.421  -4.222  0.00  0.00     0.025 A 
ATOM     18  N   UNL d   1      12.191   9.546  -3.017  0.00  0.00    -0.237 NA
ATOM     19  C   UNL d   1      11.143   7.004  -5.490  0.00  0.00     0.013 A 
ATOM     20  C   UNL d   1      12.139   6.694  -3.112  0.00  0.00     0.004 A 
ATOM     21  C   UNL d   1      12.636   7.379  -2.011  0.00  0.00     0.021 A 
ATOM     22  C   UNL d   1      12.648   8.784  -2.004  0.00  0.00     0.100 A 
ENDBRANCH  12  14
ENDBRANCH  10  11
ENDBRANCH   9  10
ENDBRANCH   8   9
ENDBRANCH   7   8
ENDBRANCH   4   7
BRANCH   1  23
ATOM     23  C   UNL d   1       8.592   2.674 -16.037  0.00  0.00     0.143 A 
ATOM     24  N   UNL d   1       7.688   1.678 -16.048  0.00  0.00    -0.214 NA
ATOM     25  C   UNL d   1       7.384   1.077 -17.209  0.00  0.00     0.140 A 
ATOM     26  N   UNL d   1       7.904   1.403 -18.395  0.00  0.00    -0.227 NA
ATOM     27  C   UNL d   1       8.845   2.383 -18.405  0.00  0.00     0.157 A 
ATOM     28  C   UNL d   1       9.213   3.067 -17.237  0.00  0.00     0.060 A 
BRANCH  25  29
ATOM     29  C   UNL d   1       6.284  -0.003 -17.205  0.00  0.00     0.052 C 
ATOM     30  C   UNL d   1       5.068   0.474 -18.003  0.00  0.00     0.008 C 
ATOM     31  C   UNL d   1       5.846  -0.362 -15.754  0.00  0.00     0.008 C 
ATOM     32  C   UNL d   1       6.829  -1.263 -17.874  0.00  0.00     0.008 C 
ENDBRANCH  25  29
BRANCH  27  33
ATOM     33  C   UNL d   1       9.454   2.740 -19.755  0.00  0.00     0.435 C 
ATOM     34  F   UNL d   1      10.212   3.837 -19.669  0.00  0.00    -0.165 F 
ATOM     35  F   UNL d   1      10.217   1.731 -20.173  0.00  0.00    -0.165 F 
ATOM     36  F   UNL d   1       8.486   2.968 -20.642  0.00  0.00    -0.165 F 
ENDBRANCH  27  33
ENDBRANCH   1  23
TORSDOF 9
