REMARK  5 active torsions:
REMARK  status: ('A' for Active; 'I' for Inactive)
REMARK    1  A    between atoms: C_4  and  C_5 
REMARK    2  A    between atoms: N_14  and  C_15 
REMARK    3  A    between atoms: C_15  and  C_16 
REMARK    4  A    between atoms: C_16  and  N_17 
REMARK    5  A    between atoms: N_20  and  C_21 
ROOT
ATOM      1  C   UNL d   1       8.953   5.842 -13.137  0.00  0.00     0.002 C 
ATOM      2  C   UNL d   1       9.193   4.578 -13.982  0.00  0.00     0.034 C 
ATOM      3  C   UNL d   1       9.522   4.974 -15.450  0.00  0.00     0.006 C 
ATOM      4  C   UNL d   1       9.711   3.749 -16.405  0.00  0.00     0.024 C 
ATOM      5  C   UNL d   1      10.463   2.590 -15.675  0.00  0.00     0.038 C 
ATOM      6  C   UNL d   1      10.051   2.425 -14.213  0.00  0.00     0.220 C 
ATOM      7  C   UNL d   1      10.331   3.717 -13.455  0.00  0.00     0.035 C 
ATOM      8  N   UNL d   1       8.608   2.256 -14.056  0.00  0.00     0.137 N 
ATOM      9  C   UNL d   1       8.008   3.584 -13.920  0.00  0.00     0.250 C 
ENDROOT
BRANCH   8  10
ATOM     10  C   UNL d   1       7.959   1.299 -14.937  0.00  0.00     0.274 C 
BRANCH  10  11
ATOM     11  C   UNL d   1       6.499   1.091 -14.524  0.00  0.00     0.141 C 
BRANCH  11  12
ATOM     12  N   UNL d   1       5.952  -0.016 -15.291  0.00  0.00    -0.298 N 
ATOM     13  C   UNL d   1       5.840  -0.121 -16.618  0.00  0.00     0.328 A 
ATOM     14  N   UNL d   1       5.424  -1.346 -16.949  0.00  0.00    -0.280 N 
ATOM     15  O   UNL d   1       6.115   0.804 -17.427  0.00  0.00    -0.247 OA
ATOM     16  C   UNL d   1       5.118  -2.127 -15.739  0.00  0.00     0.135 A 
ATOM     17  C   UNL d   1       5.531  -1.212 -14.589  0.00  0.00     0.131 A 
BRANCH  14  18
ATOM     18  C   UNL d   1       5.176  -1.839 -18.287  0.00  0.00     0.065 A 
ATOM     19  C   UNL d   1       4.177  -2.808 -18.505  0.00  0.00     0.029 A 
ATOM     20  C   UNL d   1       3.903  -3.285 -19.803  0.00  0.00     0.059 A 
ATOM     21  C   UNL d   1       4.641  -2.809 -20.904  0.00  0.00     0.011 A 
ATOM     22 CL   UNL d   1       2.659  -4.454 -20.047  0.00  0.00    -0.082 Cl
ATOM     23  C   UNL d   1       5.654  -1.854 -20.691  0.00  0.00     0.002 A 
ATOM     24  C   UNL d   1       5.945  -1.392 -19.395  0.00  0.00     0.017 A 
ENDBRANCH  14  18
ENDBRANCH  11  12
ENDBRANCH  10  11
ENDBRANCH   8  10
BRANCH   4  25
ATOM     25  C   UNL d   1      10.352   4.108 -17.739  0.00  0.00    -0.022 A 
ATOM     26  C   UNL d   1      10.186   5.401 -18.294  0.00  0.00    -0.004 A 
ATOM     27  C   UNL d   1      10.773   5.729 -19.529  0.00  0.00    -0.000 A 
ATOM     28  C   UNL d   1      11.541   4.768 -20.225  0.00  0.00    -0.000 A 
ATOM     29  C   UNL d   1      11.694   3.469 -19.692  0.00  0.00    -0.000 A 
ATOM     30  C   UNL d   1      11.105   3.147 -18.460  0.00  0.00    -0.004 A 
ENDBRANCH   4  25
TORSDOF 5
