REMARK  8 active torsions:
REMARK  status: ('A' for Active; 'I' for Inactive)
REMARK    1  A    between atoms: O_2  and  C_3 
REMARK    2  A    between atoms: C_6  and  C_7 
REMARK    3  A    between atoms: C_7  and  C_8 
REMARK    4  A    between atoms: C_8  and  C_10 
REMARK       I    between atoms: C_10  and  N_12 
REMARK    5  A    between atoms: N_12  and  C_13 
REMARK    6  A    between atoms: C_14  and  C_15 
REMARK    7  A    between atoms: C_18  and  N_19 
REMARK    8  A    between atoms: C_23  and  N_24 
ROOT
ATOM      1  C   UNL d   1       8.439   5.091 -10.281  0.00  0.00     0.171 C 
ATOM      2  C   UNL d   1       9.737   4.337 -10.443  0.00  0.00     0.175 C 
ATOM      3  O   UNL d   1       9.648   3.653 -11.668  0.00  0.00    -0.332 OA
ATOM      4  C   UNL d   1       8.888   4.460 -12.513  0.00  0.00     0.241 C 
ATOM      5  C   UNL d   1       7.830   5.159 -11.653  0.00  0.00     0.226 C 
ATOM      6  O   UNL d   1       7.592   6.477 -12.104  0.00  0.00    -0.216 OA
ENDROOT
BRANCH   1   7
ATOM      7  N   UNL d   1       8.752   6.397  -9.783  0.00  0.00    -0.233 NA
ATOM      8  C   UNL d   1       9.551   6.808  -8.836  0.00  0.00     0.289 C 
ATOM      9  O   UNL d   1      10.101   5.979  -8.160  0.00  0.00    -0.268 OA
BRANCH   8  10
ATOM     10  C   UNL d   1       9.949   8.259  -8.705  0.00  0.00     0.385 C 
ATOM     11  N   UNL d   1       9.479   9.038  -9.835  0.00  0.00     0.626 N 
BRANCH  10  12
ATOM     12  C   UNL d   1       9.520   8.864  -7.348  0.00  0.00     0.075 C 
BRANCH  12  13
ATOM     13  C   UNL d   1      10.398   8.528  -6.125  0.00  0.00    -0.019 A 
ATOM     14  C   UNL d   1      10.938   9.580  -5.341  0.00  0.00    -0.002 A 
ATOM     15  C   UNL d   1      11.714   9.249  -4.217  0.00  0.00     0.024 A 
ATOM     16  C   UNL d   1      12.018   7.915  -3.860  0.00  0.00     0.094 A 
ATOM     17  C   UNL d   1      11.496   6.884  -4.661  0.00  0.00     0.024 A 
ATOM     18  C   UNL d   1      10.653   7.202  -5.707  0.00  0.00    -0.002 A 
BRANCH  16  19
ATOM     19  O   UNL d   1      12.745   7.544  -2.762  0.00  0.00    -0.328 OA
ATOM     20  C   UNL d   1      12.529   8.357  -1.633  0.00  0.00     0.181 C 
ENDBRANCH  16  19
ENDBRANCH  12  13
ENDBRANCH  10  12
ENDBRANCH   8  10
ENDBRANCH   1   7
BRANCH   2  21
ATOM     21  C   UNL d   1      10.153   3.428  -9.245  0.00  0.00     0.214 C 
ATOM     22  O   UNL d   1       9.090   3.162  -8.376  0.00  0.00    -0.218 OA
ENDBRANCH   2  21
BRANCH   4  23
ATOM     23  N   UNL d   1       8.253   3.614 -13.555  0.00  0.00    -0.270 N 
ATOM     24  C   UNL d   1       8.923   2.877 -14.498  0.00  0.00     0.169 A 
ATOM     25  C   UNL d   1       7.918   2.272 -15.312  0.00  0.00     0.151 A 
ATOM     26  N   UNL d   1      10.270   2.743 -14.668  0.00  0.00    -0.205 NA
ATOM     27  N   UNL d   1       6.669   2.631 -14.841  0.00  0.00    -0.219 NA
ATOM     28  C   UNL d   1       8.372   1.461 -16.395  0.00  0.00     0.163 A 
ATOM     29  C   UNL d   1       6.918   3.433 -13.844  0.00  0.00     0.182 A 
ATOM     30  N   UNL d   1       9.715   1.324 -16.529  0.00  0.00    -0.205 NA
ATOM     31  C   UNL d   1      10.555   1.939 -15.693  0.00  0.00     0.202 A 
BRANCH  28  32
ATOM     32  N   UNL d   1       7.559   0.821 -17.286  0.00  0.00    -0.329 N 
ATOM     33  C   UNL d   1       6.125   1.063 -17.296  0.00  0.00     0.127 C 
ATOM     34  C   UNL d   1       8.110  -0.189 -18.185  0.00  0.00     0.127 C 
ENDBRANCH  28  32
ENDBRANCH   4  23
TORSDOF 8
