REMARK  3 active torsions:
REMARK  status: ('A' for Active; 'I' for Inactive)
REMARK    1  A    between atoms: C_2  and  C_3 
REMARK       I    between atoms: C_2  and  N_10 
REMARK    2  A    between atoms: C_13  and  C_14 
REMARK    3  A    between atoms: C_14  and  C_15 
ROOT
ATOM      1  O   UNL d   1       8.712   7.729 -12.436  0.00  0.00    -0.267 OA
ATOM      2  C   UNL d   1       8.699   6.622 -11.880  0.00  0.00     0.258 C 
ATOM      3  N   UNL d   1       9.397   6.371 -10.746  0.00  0.00    -0.317 N 
ATOM      4  C   UNL d   1      10.380   7.322 -10.239  0.00  0.00     0.104 C 
ATOM      5  C   UNL d   1      10.054   7.733  -8.805  0.00  0.00     0.025 C 
ATOM      6  C   UNL d   1       9.906   6.523  -7.863  0.00  0.00     0.008 C 
ATOM      7  C   UNL d   1       8.902   5.533  -8.480  0.00  0.00     0.025 C 
ATOM      8  C   UNL d   1       9.264   5.161  -9.929  0.00  0.00     0.104 C 
ENDROOT
BRANCH   2   9
ATOM      9  C   UNL d   1       7.925   5.510 -12.500  0.00  0.00     0.066 A 
ATOM     10  C   UNL d   1       8.564   4.529 -13.296  0.00  0.00     0.062 A 
ATOM     11  C   UNL d   1       7.807   3.487 -13.863  0.00  0.00     0.012 A 
ATOM     12 CL   UNL d   1      10.264   4.577 -13.611  0.00  0.00    -0.082 Cl
ATOM     13  C   UNL d   1       6.421   3.411 -13.637  0.00  0.00     0.001 A 
ATOM     14  C   UNL d   1       5.783   4.390 -12.847  0.00  0.00     0.000 A 
ATOM     15  C   UNL d   1       6.534   5.439 -12.282  0.00  0.00     0.006 A 
ENDBRANCH   2   9
BRANCH   6  16
ATOM     16  C   UNL d   1       9.484   6.946  -6.439  0.00  0.00     0.026 C 
BRANCH  16  17
ATOM     17  C   UNL d   1      10.554   7.719  -5.687  0.00  0.00    -0.022 A 
ATOM     18  C   UNL d   1      11.299   7.104  -4.655  0.00  0.00    -0.004 A 
ATOM     19  C   UNL d   1      12.259   7.848  -3.936  0.00  0.00    -0.000 A 
ATOM     20  C   UNL d   1      12.520   9.188  -4.283  0.00  0.00    -0.000 A 
ATOM     21  C   UNL d   1      11.792   9.790  -5.327  0.00  0.00    -0.000 A 
ATOM     22  C   UNL d   1      10.781   9.076  -5.994  0.00  0.00    -0.004 A 
ENDBRANCH  16  17
ENDBRANCH   6  16
TORSDOF 3
