REMARK  8 active torsions:
REMARK  status: ('A' for Active; 'I' for Inactive)
REMARK    1  A    between atoms: C_7  and  N_8 
REMARK    2  A    between atoms: N_11  and  C_12 
REMARK    3  A    between atoms: C_12  and  C_13 
REMARK    4  A    between atoms: C_13  and  C_14 
REMARK    5  A    between atoms: C_14  and  C_15 
REMARK    6  A    between atoms: C_15  and  N_16 
REMARK       I    between atoms: N_16  and  C_17 
REMARK    7  A    between atoms: C_17  and  C_19 
REMARK    8  A    between atoms: C_22  and  C_23 
ROOT
ATOM      1  C   UNL d   1       9.384   4.421 -12.647  0.00  0.00     0.029 C 
ENDROOT
BRANCH   1   2
ATOM      2  C   UNL d   1       8.775   3.990 -13.987  0.00  0.00     0.037 C 
BRANCH   2   3
ATOM      3  C   UNL d   1       9.177   2.553 -14.361  0.00  0.00     0.251 C 
BRANCH   3   4
ATOM      4  N   UNL d   1       8.644   2.188 -15.675  0.00  0.00     0.141 N 
ATOM      5  C   UNL d   1       9.378   1.013 -16.143  0.00  0.00     0.274 C 
ATOM      6  C   UNL d   1       8.883   0.579 -17.530  0.00  0.00     0.137 C 
ATOM      7  N   UNL d   1       7.443   0.356 -17.521  0.00  0.00    -0.344 N 
ATOM      8  C   UNL d   1       6.659   1.445 -16.941  0.00  0.00     0.137 C 
ATOM      9  C   UNL d   1       7.224   1.841 -15.563  0.00  0.00     0.274 C 
BRANCH   7  10
ATOM     10  C   UNL d   1       6.846  -0.820 -18.000  0.00  0.00     0.052 A 
ATOM     11  C   UNL d   1       7.277  -1.460 -19.198  0.00  0.00    -0.006 A 
ATOM     12  C   UNL d   1       8.368  -0.897 -20.098  0.00  0.00     0.033 C 
ATOM     13  C   UNL d   1       6.653  -2.658 -19.614  0.00  0.00    -0.003 A 
ATOM     14  C   UNL d   1       5.601  -3.222 -18.872  0.00  0.00    -0.000 A 
ATOM     15  C   UNL d   1       5.158  -2.589 -17.699  0.00  0.00     0.002 A 
ATOM     16  C   UNL d   1       5.777  -1.398 -17.271  0.00  0.00     0.017 A 
ENDBRANCH   7  10
ENDBRANCH   3   4
ENDBRANCH   2   3
ENDBRANCH   1   2
BRANCH   1  17
ATOM     17  C   UNL d   1       8.930   5.826 -12.227  0.00  0.00     0.129 C 
BRANCH  17  18
ATOM     18  N   UNL d   1       9.460   6.175 -10.914  0.00  0.00    -0.234 NA
ATOM     19  C   UNL d   1       9.846   7.402 -10.523  0.00  0.00     0.275 C 
ATOM     20  O   UNL d   1       9.854   8.390 -11.256  0.00  0.00    -0.266 OA
BRANCH  19  21
ATOM     21  C   UNL d   1      10.290   7.512  -9.096  0.00  0.00     0.058 A 
ATOM     22  C   UNL d   1       9.613   6.803  -8.082  0.00  0.00     0.005 A 
ATOM     23  C   UNL d   1      10.001   6.949  -6.738  0.00  0.00     0.000 A 
ATOM     24  C   UNL d   1      11.058   7.813  -6.386  0.00  0.00     0.001 A 
ATOM     25  C   UNL d   1      11.727   8.534  -7.403  0.00  0.00     0.000 A 
ATOM     26  C   UNL d   1      11.342   8.384  -8.751  0.00  0.00     0.005 A 
BRANCH  24  27
ATOM     27  C   UNL d   1      11.459   7.940  -4.985  0.00  0.00     0.007 A 
ATOM     28  C   UNL d   1      11.491   6.938  -4.048  0.00  0.00     0.035 A 
ATOM     29  S   UNL d   1      12.036   7.495  -2.492  0.00  0.00    -0.086 SA
ATOM     30  C   UNL d   1      12.204   9.116  -3.103  0.00  0.00     0.035 A 
ATOM     31  C   UNL d   1      11.876   9.191  -4.433  0.00  0.00     0.007 A 
ENDBRANCH  24  27
ENDBRANCH  19  21
ENDBRANCH  17  18
ENDBRANCH   1  17
TORSDOF 8
