REMARK  6 active torsions:
REMARK  status: ('A' for Active; 'I' for Inactive)
REMARK    1  A    between atoms: C_6  and  N_7 
REMARK    2  A    between atoms: N_7  and  C_8 
REMARK    3  A    between atoms: C_8  and  C_9 
REMARK    4  A    between atoms: C_9  and  C_10 
REMARK    5  A    between atoms: C_10  and  N_11 
REMARK    6  A    between atoms: N_14  and  C_15 
ROOT
ATOM      1  N   UNL d   1       9.632   7.415  -8.905  0.00  0.00     0.141 N 
ATOM      2  C   UNL d   1       9.399   8.629  -8.115  0.00  0.00     0.274 C 
ATOM      3  C   UNL d   1       9.188   8.270  -6.638  0.00  0.00     0.137 C 
ATOM      4  N   UNL d   1      10.355   7.533  -6.142  0.00  0.00    -0.344 N 
ATOM      5  C   UNL d   1      10.697   6.369  -6.956  0.00  0.00     0.137 C 
ATOM      6  C   UNL d   1      10.855   6.774  -8.422  0.00  0.00     0.274 C 
ENDROOT
BRANCH   1   7
ATOM      7  C   UNL d   1       9.794   7.775 -10.314  0.00  0.00     0.253 C 
BRANCH   7   8
ATOM      8  C   UNL d   1       9.572   6.570 -11.256  0.00  0.00     0.062 C 
BRANCH   8   9
ATOM      9  C   UNL d   1       8.149   6.503 -11.805  0.00  0.00     0.129 C 
BRANCH   9  10
ATOM     10  N   UNL d   1       8.069   5.624 -12.973  0.00  0.00    -0.252 NA
BRANCH  10  11
ATOM     11  C   UNL d   1       7.247   4.495 -12.996  0.00  0.00     0.178 A 
ATOM     12  C   UNL d   1       6.223   4.273 -12.041  0.00  0.00     0.137 A 
ATOM     13  N   UNL d   1       5.454   3.163 -12.084  0.00  0.00    -0.237 NA
ATOM     14  C   UNL d   1       5.670   2.292 -13.095  0.00  0.00     0.130 A 
ATOM     15  C   UNL d   1       6.678   2.514 -14.061  0.00  0.00     0.159 A 
ATOM     16 CL   UNL d   1       6.924   1.312 -15.285  0.00  0.00    -0.060 Cl
ATOM     17  N   UNL d   1       7.463   3.616 -14.004  0.00  0.00    -0.212 NA
ENDBRANCH  10  11
ENDBRANCH   9  10
ENDBRANCH   8   9
ENDBRANCH   7   8
ENDBRANCH   1   7
BRANCH   4  18
ATOM     18  C   UNL d   1      11.072   7.894  -5.003  0.00  0.00     0.056 A 
ATOM     19  C   UNL d   1      11.766   6.911  -4.234  0.00  0.00     0.017 A 
ATOM     20  C   UNL d   1      12.488   7.266  -3.080  0.00  0.00     0.002 A 
ATOM     21  C   UNL d   1      12.531   8.600  -2.657  0.00  0.00     0.000 A 
ATOM     22  C   UNL d   1      11.859   9.591  -3.398  0.00  0.00     0.002 A 
ATOM     23  C   UNL d   1      11.146   9.240  -4.563  0.00  0.00     0.017 A 
ENDBRANCH   4  18
TORSDOF 6
