REMARK  4 active torsions:
REMARK  status: ('A' for Active; 'I' for Inactive)
REMARK    1  A    between atoms: O_2  and  C_3 
REMARK    2  A    between atoms: C_7  and  N_8 
REMARK       I    between atoms: N_11  and  C_12 
REMARK    3  A    between atoms: C_12  and  C_14 
REMARK    4  A    between atoms: C_26  and  O_27 
ROOT
ATOM      1  C   UNL d   1      11.046   7.726  -5.472  0.00  0.00     0.118 A 
ATOM      2  C   UNL d   1      10.369   6.807  -6.317  0.00  0.00     0.046 A 
ATOM      3  C   UNL d   1      10.275   6.996  -7.711  0.00  0.00     0.104 A 
ATOM      4  N   UNL d   1       9.663   6.131  -8.528  0.00  0.00    -0.061 NA
ATOM      5  C   UNL d   1       9.669   6.388  -9.842  0.00  0.00     0.728 A 
ATOM      6  N   UNL d   1      10.264   7.433 -10.427  0.00  0.00    -0.047 NA
ATOM      7  C   UNL d   1      10.893   8.301  -9.622  0.00  0.00     0.171 A 
ATOM      8  N   UNL d   1      11.637   9.277 -10.270  0.00  0.00    -0.079 NA
ATOM      9  C   UNL d   1      10.896   8.157  -8.230  0.00  0.00     0.052 A 
ATOM     10  C   UNL d   1      11.493   9.082  -7.369  0.00  0.00     0.030 A 
ATOM     11  C   UNL d   1      11.612   8.882  -6.011  0.00  0.00     0.117 A 
ENDROOT
BRANCH   5  12
ATOM     12  N   UNL d   1       9.055   5.464 -10.693  0.00  0.00    -0.179 N 
ATOM     13  C   UNL d   1       9.516   5.160 -12.052  0.00  0.00     0.144 C 
ATOM     14  C   UNL d   1       8.428   5.515 -13.093  0.00  0.00     0.129 C 
ATOM     15  N   UNL d   1       7.224   4.780 -12.749  0.00  0.00    -0.311 N 
ATOM     16  C   UNL d   1       6.687   5.199 -11.451  0.00  0.00     0.129 C 
ATOM     17  C   UNL d   1       6.589   3.864 -13.506  0.00  0.00     0.280 C 
ATOM     18  C   UNL d   1       7.750   4.942 -10.338  0.00  0.00     0.144 C 
ATOM     19  O   UNL d   1       5.361   3.808 -13.526  0.00  0.00    -0.265 OA
BRANCH  17  20
ATOM     20  C   UNL d   1       7.371   2.786 -14.145  0.00  0.00     0.156 A 
ATOM     21  O   UNL d   1       6.727   1.639 -14.533  0.00  0.00    -0.300 OA
ATOM     22  C   UNL d   1       7.661   0.803 -15.059  0.00  0.00     0.123 A 
ATOM     23  C   UNL d   1       8.884   1.413 -15.055  0.00  0.00     0.029 A 
ATOM     24  C   UNL d   1       8.695   2.693 -14.464  0.00  0.00     0.032 A 
ENDBRANCH  17  20
ENDBRANCH   5  12
BRANCH   1  25
ATOM     25  O   UNL d   1      11.141   7.645  -4.120  0.00  0.00    -0.326 OA
ATOM     26  C   UNL d   1      11.392   6.361  -3.629  0.00  0.00     0.181 C 
ENDBRANCH   1  25
BRANCH  11  27
ATOM     27  O   UNL d   1      12.256   9.829  -5.285  0.00  0.00    -0.326 OA
ATOM     28  C   UNL d   1      13.393   9.392  -4.543  0.00  0.00     0.181 C 
ENDBRANCH  11  27
TORSDOF 4
