REMARK  6 active torsions:
REMARK  status: ('A' for Active; 'I' for Inactive)
REMARK    1  A    between atoms: N_17  and  C_18 
REMARK    2  A    between atoms: C_18  and  C_19 
REMARK    3  A    between atoms: C_19  and  C_20 
REMARK    4  A    between atoms: C_20  and  C_21 
REMARK    5  A    between atoms: C_21  and  N_22 
REMARK    6  A    between atoms: N_25  and  C_26 
ROOT
ATOM      1  C   UNL d   1      11.134   4.231 -14.920  0.00  0.00     0.052 C 
ATOM      2  C   UNL d   1       9.931   3.347 -15.021  0.00  0.00     0.073 A 
ATOM      3  C   UNL d   1       9.585   2.433 -15.996  0.00  0.00     0.112 A 
ATOM      4  N   UNL d   1       8.415   1.835 -15.675  0.00  0.00    -0.132 N 
ATOM      5  C   UNL d   1       7.458   0.910 -16.047  0.00  0.00     0.172 A 
ATOM      6  C   UNL d   1       7.376   0.070 -17.229  0.00  0.00     0.284 A 
ATOM      7  O   UNL d   1       8.255   0.107 -18.095  0.00  0.00    -0.265 OA
ATOM      8  N   UNL d   1       6.250  -0.705 -17.272  0.00  0.00    -0.246 N 
ATOM      9  C   UNL d   1       6.112  -1.566 -18.459  0.00  0.00     0.139 C 
ATOM     10  C   UNL d   1       5.267  -0.728 -16.295  0.00  0.00     0.335 A 
ATOM     11  O   UNL d   1       4.262  -1.434 -16.406  0.00  0.00    -0.246 OA
ATOM     12  N   UNL d   1       5.417   0.078 -15.193  0.00  0.00    -0.263 N 
ATOM     13  C   UNL d   1       4.377   0.101 -14.159  0.00  0.00     0.137 C 
ATOM     14  C   UNL d   1       6.540   0.938 -15.058  0.00  0.00     0.187 A 
ATOM     15  N   UNL d   1       6.840   1.869 -14.059  0.00  0.00    -0.043 NA
ATOM     16  C   UNL d   1       7.982   2.359 -14.492  0.00  0.00     0.718 A 
ATOM     17  N   UNL d   1       8.879   3.291 -14.072  0.00  0.00    -0.165 N 
ENDROOT
BRANCH  17  18
ATOM     18  C   UNL d   1       8.660   3.972 -12.802  0.00  0.00     0.124 C 
BRANCH  18  19
ATOM     19  C   UNL d   1       8.554   5.498 -12.972  0.00  0.00     0.027 C 
BRANCH  19  20
ATOM     20  C   UNL d   1       8.415   6.246 -11.641  0.00  0.00     0.037 C 
BRANCH  20  21
ATOM     21  C   UNL d   1       9.682   6.132 -10.772  0.00  0.00     0.251 C 
BRANCH  21  22
ATOM     22  N   UNL d   1       9.621   7.099  -9.679  0.00  0.00     0.141 N 
ATOM     23  C   UNL d   1       9.041   6.454  -8.497  0.00  0.00     0.274 C 
ATOM     24  C   UNL d   1       8.917   7.460  -7.337  0.00  0.00     0.137 C 
ATOM     25  N   UNL d   1      10.202   8.098  -7.089  0.00  0.00    -0.344 N 
ATOM     26  C   UNL d   1      10.855   8.685  -8.245  0.00  0.00     0.137 C 
ATOM     27  C   UNL d   1      10.946   7.635  -9.369  0.00  0.00     0.274 C 
BRANCH  25  28
ATOM     28  C   UNL d   1      10.775   8.155  -5.822  0.00  0.00     0.056 A 
ATOM     29  C   UNL d   1      11.073   9.405  -5.239  0.00  0.00     0.018 A 
ATOM     30  C   UNL d   1      11.648   9.462  -3.955  0.00  0.00     0.013 A 
ATOM     31  C   UNL d   1      11.952   8.281  -3.258  0.00  0.00     0.058 A 
ATOM     32  C   UNL d   1      11.668   7.033  -3.833  0.00  0.00     0.013 A 
ATOM     33 CL   UNL d   1      12.650   8.382  -1.690  0.00  0.00    -0.082 Cl
ATOM     34  C   UNL d   1      11.063   6.970  -5.111  0.00  0.00     0.018 A 
ENDBRANCH  25  28
ENDBRANCH  21  22
ENDBRANCH  20  21
ENDBRANCH  19  20
ENDBRANCH  18  19
ENDBRANCH  17  18
TORSDOF 6
