REMARK  6 active torsions:
REMARK  status: ('A' for Active; 'I' for Inactive)
REMARK    1  A    between atoms: C_6  and  C_7 
REMARK    2  A    between atoms: C_10  and  S_11 
REMARK    3  A    between atoms: S_11  and  C_12 
REMARK    4  A    between atoms: C_12  and  C_13 
REMARK    5  A    between atoms: C_13  and  C_14 
REMARK    6  A    between atoms: C_14  and  N_15 
ROOT
ATOM      1  N   UNL d   1      10.500   3.559 -15.827  0.00  0.00     0.138 N 
ATOM      2  C   UNL d   1      11.414   4.656 -15.484  0.00  0.00     0.255 C 
ATOM      3  C   UNL d   1      12.882   4.231 -15.569  0.00  0.00     0.061 C 
ATOM      4  C   UNL d   1      13.455   4.331 -16.963  0.00  0.00    -0.022 A 
ATOM      5  C   UNL d   1      14.536   5.202 -17.203  0.00  0.00     0.021 A 
ATOM      6  C   UNL d   1      15.085   5.312 -18.491  0.00  0.00     0.110 A 
ATOM      7  C   UNL d   1      14.576   4.530 -19.552  0.00  0.00     0.084 A 
ATOM      8  C   UNL d   1      13.489   3.657 -19.303  0.00  0.00     0.015 A 
ATOM      9  C   UNL d   1      12.924   3.557 -18.015  0.00  0.00    -0.022 A 
ATOM     10  C   UNL d   1      11.760   2.607 -17.778  0.00  0.00     0.061 C 
ATOM     11  C   UNL d   1      10.482   3.300 -17.272  0.00  0.00     0.255 C 
ATOM     12  N   UNL d   1      15.197   4.617 -20.837  0.00  0.00    -0.293 N 
ATOM     13  C   UNL d   1      14.880   3.619 -21.865  0.00  0.00     0.134 C 
ATOM     14  C   UNL d   1      16.062   5.624 -21.101  0.00  0.00     0.268 C 
ATOM     15  O   UNL d   1      16.673   5.742 -22.164  0.00  0.00    -0.269 OA
ATOM     16  C   UNL d   1      16.250   6.697 -20.017  0.00  0.00     0.236 C 
ATOM     17  O   UNL d   1      16.144   6.161 -18.698  0.00  0.00    -0.319 OA
ENDROOT
BRANCH   1  18
ATOM     18  C   UNL d   1       9.141   3.901 -15.408  0.00  0.00     0.251 C 
BRANCH  18  19
ATOM     19  C   UNL d   1       8.920   3.814 -13.886  0.00  0.00     0.047 C 
BRANCH  19  20
ATOM     20  C   UNL d   1       7.615   4.510 -13.469  0.00  0.00     0.067 C 
BRANCH  20  21
ATOM     21  S   UNL d   1       7.402   4.479 -11.669  0.00  0.00    -0.075 SA
BRANCH  21  22
ATOM     22  C   UNL d   1       8.536   5.732 -11.181  0.00  0.00     0.193 A 
ATOM     23  N   UNL d   1       8.964   6.702 -11.992  0.00  0.00    -0.122 NA
ATOM     24  N   UNL d   1       9.763   7.506 -11.201  0.00  0.00    -0.126 NA
ATOM     25  C   UNL d   1       9.761   6.956  -9.979  0.00  0.00     0.191 A 
ATOM     26  N   UNL d   1       9.029   5.821  -9.928  0.00  0.00    -0.287 N 
ATOM     27  C   UNL d   1       8.787   4.941  -8.783  0.00  0.00     0.134 C 
BRANCH  25  28
ATOM     28  C   UNL d   1      10.530   7.553  -8.908  0.00  0.00     0.151 A 
ATOM     29  C   UNL d   1      10.284   7.807  -7.574  0.00  0.00     0.087 A 
ATOM     30  C   UNL d   1       9.074   7.520  -6.745  0.00  0.00     0.054 C 
ATOM     31  N   UNL d   1      11.401   8.426  -7.037  0.00  0.00    -0.221 NA
ATOM     32  C   UNL d   1      12.254   8.515  -8.050  0.00  0.00     0.225 A 
ATOM     33  O   UNL d   1      11.782   8.000  -9.208  0.00  0.00    -0.282 OA
ENDBRANCH  25  28
ENDBRANCH  21  22
ENDBRANCH  20  21
ENDBRANCH  19  20
ENDBRANCH  18  19
ENDBRANCH   1  18
TORSDOF 6
