REMARK  4 active torsions:
REMARK  status: ('A' for Active; 'I' for Inactive)
REMARK    1  A    between atoms: C_2  and  C_3 
REMARK    2  A    between atoms: C_3  and  O_4 
REMARK    3  A    between atoms: O_4  and  C_5 
REMARK    4  A    between atoms: C_10  and  C_11 
ROOT
ATOM      1  C   UNL d   1       5.521   0.660 -14.212  0.00  0.00     0.097 A 
ATOM      2  C   UNL d   1       4.258   0.046 -14.013  0.00  0.00     0.024 A 
ATOM      3  C   UNL d   1       3.780  -0.944 -14.878  0.00  0.00     0.002 A 
ATOM      4  C   UNL d   1       4.590  -1.393 -15.931  0.00  0.00     0.000 A 
ATOM      5  C   UNL d   1       5.857  -0.820 -16.131  0.00  0.00     0.005 A 
ATOM      6  C   UNL d   1       6.353   0.200 -15.278  0.00  0.00     0.058 A 
ENDROOT
BRANCH   6   7
ATOM      7  C   UNL d   1       7.731   0.759 -15.560  0.00  0.00     0.169 A 
ATOM      8  N   UNL d   1       8.623  -0.010 -16.371  0.00  0.00    -0.187 NA
ATOM      9  C   UNL d   1       9.884   0.340 -16.706  0.00  0.00     0.303 A 
ATOM     10  C   UNL d   1      10.250   1.623 -16.132  0.00  0.00     0.200 A 
ATOM     11  O   UNL d   1      10.643  -0.331 -17.403  0.00  0.00    -0.263 OA
ATOM     12  C   UNL d   1       9.422   2.356 -15.366  0.00  0.00     0.211 A 
ATOM     13  N   UNL d   1      11.404   2.358 -16.199  0.00  0.00    -0.121 NA
ATOM     14  N   UNL d   1       8.121   1.920 -15.077  0.00  0.00    -0.204 NA
ATOM     15  N   UNL d   1      10.068   3.524 -14.969  0.00  0.00    -0.107 NA
ATOM     16  N   UNL d   1      11.273   3.511 -15.482  0.00  0.00    -0.040 NA
ENDBRANCH   6   7
BRANCH   1  17
ATOM     17  O   UNL d   1       5.957   1.714 -13.432  0.00  0.00    -0.331 OA
BRANCH  17  18
ATOM     18  C   UNL d   1       5.101   2.299 -12.463  0.00  0.00     0.149 C 
BRANCH  18  19
ATOM     19  C   UNL d   1       5.675   3.661 -12.055  0.00  0.00     0.033 C 
ATOM     20  C   UNL d   1       5.673   4.640 -13.236  0.00  0.00     0.003 C 
ENDBRANCH  18  19
ENDBRANCH  17  18
ENDBRANCH   1  17
TORSDOF 4
