REMARK  6 active torsions:
REMARK  status: ('A' for Active; 'I' for Inactive)
REMARK    1  A    between atoms: C_2  and  C_4 
REMARK    2  A    between atoms: C_7  and  C_8 
REMARK       I    between atoms: C_8  and  N_10 
REMARK    3  A    between atoms: N_10  and  C_11 
REMARK    4  A    between atoms: C_14  and  C_15 
REMARK    5  A    between atoms: C_15  and  C_16 
REMARK    6  A    between atoms: C_16  and  N_17 
ROOT
ATOM      1  N   UNL d   1       9.039   3.297 -15.256  0.00  0.00     0.138 N 
ATOM      2  C   UNL d   1      10.367   2.816 -15.618  0.00  0.00     0.253 C 
ATOM      3  C   UNL d   1      10.202   2.141 -16.991  0.00  0.00     0.070 C 
ATOM      4  C   UNL d   1      10.875   0.756 -17.029  0.00  0.00     0.151 C 
ATOM      5  O   UNL d   1      10.498   0.016 -18.181  0.00  0.00    -0.331 OA
ATOM      6  C   UNL d   1       9.143  -0.155 -18.344  0.00  0.00     0.090 A 
ATOM      7  C   UNL d   1       8.695  -1.293 -19.041  0.00  0.00     0.025 A 
ATOM      8  C   UNL d   1       7.318  -1.520 -19.214  0.00  0.00     0.012 A 
ATOM      9  C   UNL d   1       6.380  -0.601 -18.703  0.00  0.00     0.068 A 
ATOM     10  C   UNL d   1       4.959  -0.833 -18.895  0.00  0.00     0.101 C 
ATOM     11  N   UNL d   1       3.831  -1.017 -19.050  0.00  0.00    -0.191 NA
ATOM     12  C   UNL d   1       6.821   0.555 -18.026  0.00  0.00     0.008 A 
ATOM     13  C   UNL d   1       8.203   0.783 -17.850  0.00  0.00     0.003 A 
ATOM     14  C   UNL d   1       8.686   2.062 -17.187  0.00  0.00     0.062 C 
ATOM     15  C   UNL d   1       8.137   2.277 -15.776  0.00  0.00     0.255 C 
ENDROOT
BRANCH   1  16
ATOM     16  C   UNL d   1       8.889   3.532 -13.822  0.00  0.00     0.255 C 
BRANCH  16  17
ATOM     17  C   UNL d   1       8.230   4.894 -13.563  0.00  0.00     0.062 C 
BRANCH  17  18
ATOM     18  C   UNL d   1       8.631   5.451 -12.203  0.00  0.00    -0.020 A 
ATOM     19  C   UNL d   1       9.429   6.611 -12.122  0.00  0.00    -0.003 A 
ATOM     20  C   UNL d   1       9.834   7.121 -10.872  0.00  0.00     0.019 A 
ATOM     21  C   UNL d   1       9.446   6.474  -9.680  0.00  0.00     0.085 A 
ATOM     22  C   UNL d   1       8.656   5.306  -9.762  0.00  0.00     0.019 A 
ATOM     23  C   UNL d   1       8.228   4.812 -11.013  0.00  0.00    -0.003 A 
BRANCH  21  24
ATOM     24  N   UNL d   1       9.808   6.938  -8.390  0.00  0.00    -0.208 NA
ATOM     25  C   UNL d   1      10.359   8.112  -8.014  0.00  0.00     0.279 C 
ATOM     26  O   UNL d   1      10.479   9.113  -8.723  0.00  0.00    -0.265 OA
BRANCH  25  27
ATOM     27  C   UNL d   1      10.800   8.136  -6.577  0.00  0.00     0.058 A 
ATOM     28  C   UNL d   1      11.132   6.934  -5.918  0.00  0.00     0.005 A 
ATOM     29  C   UNL d   1      11.614   6.940  -4.605  0.00  0.00     0.003 A 
ATOM     30  C   UNL d   1      11.797   8.159  -3.917  0.00  0.00     0.035 A 
ATOM     31  C   UNL d   1      11.458   9.369  -4.568  0.00  0.00     0.003 A 
ATOM     32  C   UNL d   1      10.978   9.361  -5.896  0.00  0.00     0.005 A 
BRANCH  30  33
ATOM     33  C   UNL d   1      12.248   8.174  -2.510  0.00  0.00     0.173 C 
ATOM     34  C   UNL d   1      12.666   6.841  -1.895  0.00  0.00     0.077 C 
ATOM     35  O   UNL d   1      12.253   9.186  -1.810  0.00  0.00    -0.291 OA
ENDBRANCH  30  33
ENDBRANCH  25  27
ENDBRANCH  21  24
ENDBRANCH  17  18
ENDBRANCH  16  17
ENDBRANCH   1  16
TORSDOF 6
