REMARK  6 active torsions:
REMARK  status: ('A' for Active; 'I' for Inactive)
REMARK    1  A    between atoms: C_5  and  N_6 
REMARK    2  A    between atoms: N_10  and  C_11 
REMARK    3  A    between atoms: C_11  and  C_12 
REMARK    4  A    between atoms: C_12  and  C_13 
REMARK    5  A    between atoms: C_13  and  C_14 
REMARK    6  A    between atoms: C_14  and  C_15 
ROOT
ATOM      1  N   UNL d   1       7.670   3.061 -14.428  0.00  0.00    -0.346 N 
ATOM      2  C   UNL d   1       9.078   2.893 -14.748  0.00  0.00     0.103 C 
ATOM      3  C   UNL d   1       9.985   3.904 -14.021  0.00  0.00     0.059 C 
ATOM      4  C   UNL d   1       9.713   4.034 -12.510  0.00  0.00     0.252 C 
ATOM      5  N   UNL d   1       8.701   5.048 -12.178  0.00  0.00     0.139 N 
ATOM      6  C   UNL d   1       7.354   4.578 -12.471  0.00  0.00     0.274 C 
ATOM      7  C   UNL d   1       7.154   4.341 -13.968  0.00  0.00     0.137 C 
ENDROOT
BRANCH   5   8
ATOM      8  C   UNL d   1       8.737   5.335 -10.738  0.00  0.00     0.250 C 
BRANCH   8   9
ATOM      9  C   UNL d   1       9.618   6.553 -10.451  0.00  0.00     0.036 C 
BRANCH   9  10
ATOM     10  C   UNL d   1       9.838   6.742  -8.944  0.00  0.00     0.009 C 
BRANCH  10  11
ATOM     11  C   UNL d   1      10.927   7.779  -8.628  0.00  0.00     0.053 C 
BRANCH  11  12
ATOM     12  C   UNL d   1      11.116   7.987  -7.160  0.00  0.00     0.088 A 
ATOM     13  S   UNL d   1      11.049   9.596  -6.431  0.00  0.00    -0.071 SA
ATOM     14  C   UNL d   1      11.414   8.867  -4.871  0.00  0.00     0.048 A 
ATOM     15  C   UNL d   1      11.534   7.457  -5.030  0.00  0.00     0.087 A 
ATOM     16  C   UNL d   1      11.570   9.481  -3.617  0.00  0.00     0.008 A 
ATOM     17  N   UNL d   1      11.385   6.978  -6.326  0.00  0.00    -0.243 NA
ATOM     18  C   UNL d   1      11.850   6.698  -3.884  0.00  0.00     0.020 A 
ATOM     19  C   UNL d   1      12.011   7.298  -2.622  0.00  0.00     0.002 A 
ATOM     20  C   UNL d   1      11.878   8.694  -2.490  0.00  0.00     0.001 A 
ENDBRANCH  11  12
ENDBRANCH  10  11
ENDBRANCH   9  10
ENDBRANCH   8   9
ENDBRANCH   5   8
BRANCH   1  21
ATOM     21  C   UNL d   1       6.814   1.965 -14.554  0.00  0.00     0.056 A 
ATOM     22  C   UNL d   1       5.860   1.664 -13.552  0.00  0.00     0.018 A 
ATOM     23  C   UNL d   1       5.032   0.536 -13.681  0.00  0.00     0.013 A 
ATOM     24  C   UNL d   1       5.079  -0.236 -14.854  0.00  0.00     0.058 A 
ATOM     25 CL   UNL d   1       3.916  -1.462 -15.150  0.00  0.00    -0.082 Cl
ATOM     26  C   UNL d   1       6.023   0.048 -15.849  0.00  0.00     0.013 A 
ATOM     27  C   UNL d   1       6.897   1.142 -15.709  0.00  0.00     0.018 A 
ENDBRANCH   1  21
TORSDOF 6
