REMARK  6 active torsions:
REMARK  status: ('A' for Active; 'I' for Inactive)
REMARK       I    between atoms: C_2  and  N_3 
REMARK       I    between atoms: C_2  and  N_10 
REMARK    1  A    between atoms: N_3  and  C_4 
REMARK    2  A    between atoms: N_10  and  C_11 
REMARK    3  A    between atoms: C_15  and  C_16 
REMARK    4  A    between atoms: C_16  and  C_17 
REMARK    5  A    between atoms: C_17  and  N_18 
REMARK    6  A    between atoms: N_21  and  C_22 
ROOT
ATOM      1  C   UNL d   1       8.082   3.587 -13.685  0.00  0.00     0.086 A 
ATOM      2  C   UNL d   1       6.683   3.775 -13.607  0.00  0.00     0.019 A 
ATOM      3  C   UNL d   1       6.150   4.764 -12.755  0.00  0.00     0.001 A 
ATOM      4  C   UNL d   1       7.011   5.567 -11.984  0.00  0.00    -0.004 A 
ATOM      5  C   UNL d   1       8.405   5.380 -12.053  0.00  0.00    -0.019 A 
ATOM      6  C   UNL d   1       8.935   4.385 -12.890  0.00  0.00     0.015 A 
ENDROOT
BRANCH   5   7
ATOM      7  C   UNL d   1       9.314   6.221 -11.195  0.00  0.00     0.062 C 
BRANCH   7   8
ATOM      8  C   UNL d   1       9.328   5.730  -9.742  0.00  0.00     0.255 C 
BRANCH   8   9
ATOM      9  N   UNL d   1       9.617   6.839  -8.831  0.00  0.00     0.141 N 
ATOM     10  C   UNL d   1       8.952   6.577  -7.551  0.00  0.00     0.274 C 
ATOM     11  C   UNL d   1       9.172   7.759  -6.594  0.00  0.00     0.137 C 
ATOM     12  N   UNL d   1      10.589   8.034  -6.434  0.00  0.00    -0.344 N 
ATOM     13  C   UNL d   1      11.336   8.205  -7.666  0.00  0.00     0.137 C 
ATOM     14  C   UNL d   1      11.056   7.010  -8.597  0.00  0.00     0.274 C 
BRANCH  12  15
ATOM     15  C   UNL d   1      11.203   8.106  -5.184  0.00  0.00     0.056 A 
ATOM     16  C   UNL d   1      11.445   9.361  -4.594  0.00  0.00     0.017 A 
ATOM     17  C   UNL d   1      12.059   9.441  -3.326  0.00  0.00     0.002 A 
ATOM     18  C   UNL d   1      12.449   8.277  -2.650  0.00  0.00     0.000 A 
ATOM     19  C   UNL d   1      12.208   7.021  -3.227  0.00  0.00     0.002 A 
ATOM     20  C   UNL d   1      11.577   6.934  -4.490  0.00  0.00     0.017 A 
ENDBRANCH  12  15
ENDBRANCH   8   9
ENDBRANCH   7   8
ENDBRANCH   5   7
BRANCH   1  21
ATOM     21  N   UNL d   1       8.583   2.573 -14.541  0.00  0.00    -0.191 NA
ATOM     22  C   UNL d   1       9.718   2.643 -15.262  0.00  0.00     0.369 C 
ATOM     23  O   UNL d   1      10.499   3.593 -15.224  0.00  0.00    -0.242 OA
ATOM     24  N   UNL d   1       9.883   1.560 -16.042  0.00  0.00    -0.191 NA
BRANCH  24  25
ATOM     25  C   UNL d   1      10.892   1.302 -17.019  0.00  0.00     0.086 A 
ATOM     26  C   UNL d   1      11.837   2.260 -17.480  0.00  0.00     0.019 A 
ATOM     27  C   UNL d   1      12.781   1.910 -18.464  0.00  0.00     0.002 A 
ATOM     28  C   UNL d   1      12.798   0.609 -19.004  0.00  0.00     0.000 A 
ATOM     29  C   UNL d   1      11.853  -0.339 -18.570  0.00  0.00     0.002 A 
ATOM     30  C   UNL d   1      10.906   0.007 -17.586  0.00  0.00     0.019 A 
ENDBRANCH  24  25
ENDBRANCH   1  21
TORSDOF 6
