REMARK  3 active torsions:
REMARK  status: ('A' for Active; 'I' for Inactive)
REMARK    1  A    between atoms: C_2  and  C_3 
REMARK    2  A    between atoms: C_3  and  N_4 
REMARK    3  A    between atoms: C_12  and  C_13 
ROOT
ATOM      1  N   UNL d   1       9.473   6.437 -10.746  0.00  0.00     0.140 N 
ATOM      2  C   UNL d   1       9.399   5.064 -10.240  0.00  0.00     0.251 C 
ATOM      3  C   UNL d   1      10.098   5.058  -8.882  0.00  0.00     0.042 C 
ATOM      4  C   UNL d   1      10.632   6.476  -8.795  0.00  0.00     0.055 C 
ATOM      5  C   UNL d   1      11.022   7.044  -7.430  0.00  0.00    -0.024 C 
ATOM      6  C   UNL d   1      11.547   6.257  -6.407  0.00  0.00    -0.004 C 
ATOM      7  C   UNL d   1      11.813   6.745  -5.118  0.00  0.00    -0.000 C 
ATOM      8  C   UNL d   1      11.690   8.117  -4.874  0.00  0.00     0.004 C 
ATOM      9  C   UNL d   1      11.269   8.953  -5.934  0.00  0.00     0.055 C 
ATOM     10  C   UNL d   1      10.909   8.412  -7.203  0.00  0.00    -0.021 C 
ATOM     11  C   UNL d   1      10.335   9.276  -8.324  0.00  0.00     0.028 C 
ATOM     12  C   UNL d   1      10.113   8.664  -9.707  0.00  0.00     0.038 C 
ATOM     13  C   UNL d   1       9.572   7.249  -9.528  0.00  0.00     0.224 C 
ENDROOT
BRANCH   1  14
ATOM     14  C   UNL d   1       8.302   6.769 -11.531  0.00  0.00     0.276 C 
BRANCH  14  15
ATOM     15  C   UNL d   1       8.207   6.051 -12.849  0.00  0.00     0.009 C 
ATOM     16  C   UNL d   1       7.238   5.174 -13.150  0.00  0.00    -0.003 C 
ENDBRANCH  14  15
ENDBRANCH   1  14
BRANCH   9  17
ATOM     17  C   UNL d   1      11.145  10.381  -5.651  0.00  0.00     0.296 C 
ATOM     18  N   UNL d   1      11.867  11.179  -6.423  0.00  0.00    -0.102 N 
ATOM     19  O   UNL d   1      10.442  10.771  -4.724  0.00  0.00    -0.264 OA
ENDBRANCH   9  17
TORSDOF 3
