REMARK  7 active torsions:
REMARK  status: ('A' for Active; 'I' for Inactive)
REMARK    1  A    between atoms: O_2  and  C_3 
REMARK    2  A    between atoms: C_8  and  N_9 
REMARK    3  A    between atoms: N_12  and  C_13 
REMARK    4  A    between atoms: C_13  and  C_14 
REMARK    5  A    between atoms: C_14  and  C_15 
REMARK    6  A    between atoms: C_15  and  O_16 
REMARK    7  A    between atoms: O_16  and  C_17 
ROOT
ATOM      1  C   UNL d   1       9.736   3.066 -13.698  0.00  0.00     0.253 C 
ENDROOT
BRANCH   1   2
ATOM      2  N   UNL d   1      10.291   3.373 -15.014  0.00  0.00     0.141 N 
ATOM      3  C   UNL d   1       9.590   2.585 -16.031  0.00  0.00     0.274 C 
ATOM      4  C   UNL d   1      10.126   2.937 -17.434  0.00  0.00     0.137 C 
ATOM      5  N   UNL d   1      11.566   2.727 -17.485  0.00  0.00    -0.343 N 
ATOM      6  C   UNL d   1      12.331   3.375 -16.432  0.00  0.00     0.137 C 
ATOM      7  C   UNL d   1      11.723   3.036 -15.053  0.00  0.00     0.274 C 
BRANCH   5   8
ATOM      8  C   UNL d   1      12.168   1.860 -18.418  0.00  0.00     0.079 A 
ATOM      9  C   UNL d   1      11.625   0.575 -18.683  0.00  0.00     0.110 A 
ATOM     10  C   UNL d   1      12.235  -0.239 -19.671  0.00  0.00     0.026 A 
ATOM     11  C   UNL d   1      13.372   0.202 -20.369  0.00  0.00     0.002 A 
ATOM     12  C   UNL d   1      13.918   1.466 -20.091  0.00  0.00     0.002 A 
ATOM     13  C   UNL d   1      13.317   2.291 -19.119  0.00  0.00     0.019 A 
BRANCH   9  14
ATOM     14  O   UNL d   1      10.528   0.167 -17.948  0.00  0.00    -0.327 OA
ATOM     15  C   UNL d   1       9.951  -1.099 -18.221  0.00  0.00     0.181 C 
ENDBRANCH   9  14
ENDBRANCH   5   8
ENDBRANCH   1   2
BRANCH   1  16
ATOM     16  C   UNL d   1       9.951   4.239 -12.739  0.00  0.00     0.068 C 
BRANCH  16  17
ATOM     17  C   UNL d   1       8.907   5.365 -12.892  0.00  0.00     0.151 C 
BRANCH  17  18
ATOM     18  O   UNL d   1       9.368   6.547 -12.237  0.00  0.00    -0.331 OA
BRANCH  18  19
ATOM     19  C   UNL d   1       9.448   6.562 -10.858  0.00  0.00     0.096 A 
ATOM     20  C   UNL d   1      10.156   7.633 -10.264  0.00  0.00     0.043 A 
ATOM     21  C   UNL d   1      10.265   7.721  -8.862  0.00  0.00     0.082 A 
ATOM     22  C   UNL d   1       9.676   6.731  -8.046  0.00  0.00    -0.004 A 
ATOM     23  N   UNL d   1      10.976   8.795  -8.268  0.00  0.00    -0.212 NA
ATOM     24  C   UNL d   1       8.970   5.663  -8.630  0.00  0.00    -0.001 A 
ATOM     25  C   UNL d   1       9.829   6.831  -6.545  0.00  0.00     0.038 C 
ATOM     26  C   UNL d   1       8.847   5.587 -10.026  0.00  0.00     0.024 A 
ATOM     27  C   UNL d   1       9.953   8.291  -6.085  0.00  0.00     0.095 C 
ATOM     28  C   UNL d   1      10.911   9.103  -6.961  0.00  0.00     0.256 C 
ATOM     29  O   UNL d   1      11.560  10.022  -6.462  0.00  0.00    -0.270 OA
ENDBRANCH  18  19
ENDBRANCH  17  18
ENDBRANCH  16  17
ENDBRANCH   1  16
TORSDOF 7
