REMARK  6 active torsions:
REMARK  status: ('A' for Active; 'I' for Inactive)
REMARK       I    between atoms: C_2  and  N_3 
REMARK    1  A    between atoms: C_2  and  C_24 
REMARK    2  A    between atoms: N_3  and  C_4 
REMARK    3  A    between atoms: C_7  and  C_8 
REMARK    4  A    between atoms: C_8  and  C_9 
REMARK    5  A    between atoms: C_9  and  N_10 
REMARK    6  A    between atoms: N_13  and  C_14 
ROOT
ATOM      1  C   UNL d   1      10.498   2.732 -15.724  0.00  0.00     0.106 C 
ATOM      2  C   UNL d   1      11.200   4.098 -15.664  0.00  0.00     0.024 C 
ATOM      3  C   UNL d   1      10.408   5.035 -14.744  0.00  0.00     0.002 C 
ATOM      4  C   UNL d   1      10.205   4.432 -13.346  0.00  0.00     0.002 C 
ATOM      5  C   UNL d   1       9.535   3.059 -13.438  0.00  0.00     0.002 C 
ATOM      6  C   UNL d   1      10.339   2.111 -14.327  0.00  0.00     0.024 C 
ENDROOT
BRANCH   4   7
ATOM      7  C   UNL d   1       9.408   5.367 -12.418  0.00  0.00     0.035 C 
BRANCH   7   8
ATOM      8  C   UNL d   1       9.347   4.854 -10.958  0.00  0.00     0.250 C 
BRANCH   8   9
ATOM      9  N   UNL d   1       9.149   5.917  -9.986  0.00  0.00     0.141 N 
ATOM     10  C   UNL d   1       9.098   5.339  -8.636  0.00  0.00     0.274 C 
ATOM     11  C   UNL d   1       8.861   6.438  -7.573  0.00  0.00     0.137 C 
ATOM     12  N   UNL d   1       9.860   7.487  -7.708  0.00  0.00    -0.344 N 
ATOM     13  C   UNL d   1       9.999   8.028  -9.048  0.00  0.00     0.137 C 
ATOM     14  C   UNL d   1      10.243   6.891 -10.048  0.00  0.00     0.274 C 
BRANCH  12  15
ATOM     15  C   UNL d   1      10.627   7.982  -6.624  0.00  0.00     0.056 A 
ATOM     16  C   UNL d   1      11.134   9.292  -6.662  0.00  0.00     0.017 A 
ATOM     17  C   UNL d   1      11.921   9.791  -5.605  0.00  0.00     0.002 A 
ATOM     18  C   UNL d   1      12.197   8.986  -4.483  0.00  0.00     0.000 A 
ATOM     19  C   UNL d   1      11.690   7.673  -4.436  0.00  0.00     0.002 A 
ATOM     20  C   UNL d   1      10.911   7.176  -5.506  0.00  0.00     0.017 A 
ENDBRANCH  12  15
ENDBRANCH   8   9
ENDBRANCH   7   8
ENDBRANCH   4   7
BRANCH   1  21
ATOM     21  N   UNL d   1      11.229   1.826 -16.600  0.00  0.00    -0.240 NA
ATOM     22  C   UNL d   1      10.706   1.069 -17.576  0.00  0.00     0.251 C 
ATOM     23  O   UNL d   1      11.397   0.237 -18.151  0.00  0.00    -0.271 OA
BRANCH  22  24
ATOM     24  C   UNL d   1       9.241   1.296 -17.980  0.00  0.00     0.081 C 
ATOM     25  C   UNL d   1       8.863   0.615 -19.311  0.00  0.00     0.009 C 
ATOM     26  C   UNL d   1       7.408   0.940 -19.704  0.00  0.00     0.001 C 
ATOM     27  C   UNL d   1       6.414   0.562 -18.591  0.00  0.00     0.000 C 
ATOM     28  C   UNL d   1       6.796   1.213 -17.258  0.00  0.00     0.001 C 
ATOM     29  C   UNL d   1       8.238   0.864 -16.883  0.00  0.00     0.009 C 
ENDBRANCH  22  24
ENDBRANCH   1  21
TORSDOF 6
