REMARK  7 active torsions:
REMARK  status: ('A' for Active; 'I' for Inactive)
REMARK    1  A    between atoms: C_2  and  C_3 
REMARK    2  A    between atoms: C_3  and  C_4 
REMARK       I    between atoms: C_4  and  N_6 
REMARK    3  A    between atoms: N_6  and  C_7 
REMARK    4  A    between atoms: C_13  and  C_14 
REMARK    5  A    between atoms: C_14  and  C_15 
REMARK    6  A    between atoms: C_15  and  N_16 
REMARK    7  A    between atoms: N_19  and  C_20 
ROOT
ATOM      1  C   UNL d   1       9.422   4.288 -11.633  0.00  0.00     0.062 C 
ENDROOT
BRANCH   1   2
ATOM      2  C   UNL d   1       9.680   3.839 -13.054  0.00  0.00    -0.020 A 
ATOM      3  C   UNL d   1      10.948   3.997 -13.670  0.00  0.00    -0.005 A 
ATOM      4  C   UNL d   1      11.166   3.535 -14.987  0.00  0.00    -0.005 A 
ATOM      5  C   UNL d   1      10.101   2.900 -15.653  0.00  0.00    -0.024 A 
ATOM      6  C   UNL d   1      10.109   2.329 -17.039  0.00  0.00     0.028 C 
ATOM      7  C   UNL d   1       8.863   2.727 -15.043  0.00  0.00    -0.004 A 
ATOM      8  C   UNL d   1       8.755   1.583 -17.149  0.00  0.00     0.034 C 
ATOM      9  C   UNL d   1       7.889   1.985 -15.927  0.00  0.00     0.129 C 
ATOM     10  C   UNL d   1       8.632   3.214 -13.748  0.00  0.00    -0.007 A 
BRANCH   9  11
ATOM     11  N   UNL d   1       7.275   0.822 -15.290  0.00  0.00    -0.235 NA
ATOM     12  C   UNL d   1       6.298   0.869 -14.378  0.00  0.00     0.252 C 
ATOM     13  O   UNL d   1       5.817   1.913 -13.956  0.00  0.00    -0.271 OA
BRANCH  12  14
ATOM     14  C   UNL d   1       5.780  -0.455 -13.845  0.00  0.00     0.090 C 
BRANCH  14  15
ATOM     15  C   UNL d   1       4.304  -0.678 -14.228  0.00  0.00     0.010 C 
ATOM     16  C   UNL d   1       4.111  -0.894 -15.737  0.00  0.00     0.001 C 
ENDBRANCH  14  15
ENDBRANCH  12  14
ENDBRANCH   9  11
ENDBRANCH   1   2
BRANCH   1  17
ATOM     17  C   UNL d   1       9.620   5.796 -11.481  0.00  0.00     0.255 C 
BRANCH  17  18
ATOM     18  N   UNL d   1       9.377   6.279 -10.135  0.00  0.00     0.141 N 
ATOM     19  C   UNL d   1      10.398   5.767  -9.235  0.00  0.00     0.274 C 
ATOM     20  C   UNL d   1      10.184   6.226  -7.807  0.00  0.00     0.138 C 
ATOM     21  N   UNL d   1      10.181   7.671  -7.771  0.00  0.00    -0.329 N 
ATOM     22  C   UNL d   1       9.261   8.284  -8.712  0.00  0.00     0.138 C 
ATOM     23  C   UNL d   1       9.515   7.746 -10.134  0.00  0.00     0.274 C 
BRANCH  21  24
ATOM     24  C   UNL d   1      10.945   8.413  -6.868  0.00  0.00     0.148 A 
ATOM     25  C   UNL d   1      11.336   7.979  -5.538  0.00  0.00     0.042 A 
ATOM     26  C   UNL d   1      12.077   9.024  -4.906  0.00  0.00     0.050 A 
ATOM     27  C   UNL d   1      11.124   6.801  -4.775  0.00  0.00     0.004 A 
ATOM     28  S   UNL d   1      12.147  10.352  -6.040  0.00  0.00     0.015 SA
ATOM     29  C   UNL d   1      12.616   8.887  -3.612  0.00  0.00     0.008 A 
ATOM     30  N   UNL d   1      11.317   9.610  -7.245  0.00  0.00    -0.192 NA
ATOM     31  C   UNL d   1      12.403   7.697  -2.892  0.00  0.00     0.001 A 
ATOM     32  C   UNL d   1      11.661   6.664  -3.484  0.00  0.00     0.000 A 
ENDBRANCH  21  24
ENDBRANCH  17  18
ENDBRANCH   1  17
TORSDOF 7
