REMARK  7 active torsions:
REMARK  status: ('A' for Active; 'I' for Inactive)
REMARK    1  A    between atoms: C_2  and  O_4 
REMARK    2  A    between atoms: O_4  and  C_5 
REMARK    3  A    between atoms: C_10  and  N_11 
REMARK    4  A    between atoms: N_14  and  C_15 
REMARK    5  A    between atoms: C_18  and  N_19 
REMARK    6  A    between atoms: N_19  and  S_20 
REMARK    7  A    between atoms: S_20  and  C_23 
ROOT
ATOM      1  C   UNL d   1       9.459   1.793 -15.552  0.00  0.00     0.220 C 
ATOM      2  C   UNL d   1       8.278   2.029 -14.594  0.00  0.00     0.035 C 
ATOM      3  C   UNL d   1       8.276   3.446 -14.045  0.00  0.00     0.027 C 
ATOM      4  C   UNL d   1       9.593   3.784 -13.330  0.00  0.00     0.116 C 
ATOM      5  C   UNL d   1      10.775   3.579 -14.294  0.00  0.00     0.027 C 
ATOM      6  C   UNL d   1      10.791   2.152 -14.846  0.00  0.00     0.035 C 
ENDROOT
BRANCH   1   7
ATOM      7  N   UNL d   1       9.430   0.403 -16.043  0.00  0.00     0.139 N 
ATOM      8  C   UNL d   1       8.278   0.131 -16.926  0.00  0.00     0.274 C 
ATOM      9  C   UNL d   1       8.375   0.941 -18.240  0.00  0.00     0.137 C 
ATOM     10  N   UNL d   1       9.659   0.697 -18.880  0.00  0.00    -0.343 N 
ATOM     11  C   UNL d   1      10.851   0.793 -18.053  0.00  0.00     0.137 C 
ATOM     12  C   UNL d   1      10.646  -0.020 -16.753  0.00  0.00     0.274 C 
BRANCH  10  13
ATOM     13  C   UNL d   1       9.726   0.216 -20.204  0.00  0.00     0.079 A 
ATOM     14  C   UNL d   1       8.936  -0.880 -20.624  0.00  0.00     0.109 A 
ATOM     15  C   UNL d   1       8.997  -1.271 -21.991  0.00  0.00     0.026 A 
ATOM     16  C   UNL d   1       9.841  -0.604 -22.893  0.00  0.00     0.002 A 
ATOM     17  C   UNL d   1      10.634   0.466 -22.461  0.00  0.00     0.002 A 
ATOM     18  C   UNL d   1      10.578   0.879 -21.113  0.00  0.00     0.019 A 
BRANCH  14  19
ATOM     19  O   UNL d   1       8.181  -1.543 -19.675  0.00  0.00    -0.332 OA
BRANCH  19  20
ATOM     20  C   UNL d   1       7.208  -2.511 -20.061  0.00  0.00     0.122 C 
ATOM     21  C   UNL d   1       5.935  -1.817 -20.578  0.00  0.00     0.033 C 
ATOM     22  C   UNL d   1       6.910  -3.373 -18.830  0.00  0.00     0.033 C 
ENDBRANCH  19  20
ENDBRANCH  14  19
ENDBRANCH  10  13
ENDBRANCH   1   7
BRANCH   4  23
ATOM     23  N   UNL d   1       9.579   5.175 -12.879  0.00  0.00    -0.187 NA
BRANCH  23  24
ATOM     24  S   UNL d   1       8.284   5.782 -11.916  0.00  0.00     0.281 S 
ATOM     25  O   UNL d   1       7.714   6.919 -12.661  0.00  0.00    -0.199 OA
ATOM     26  O   UNL d   1       7.446   4.658 -11.486  0.00  0.00    -0.199 OA
BRANCH  24  27
ATOM     27  C   UNL d   1       9.142   6.392 -10.490  0.00  0.00     0.107 A 
ATOM     28  C   UNL d   1       9.863   7.602 -10.567  0.00  0.00     0.043 A 
ATOM     29  C   UNL d   1      10.524   8.079  -9.420  0.00  0.00     0.141 A 
ATOM     30  C   UNL d   1      10.458   7.354  -8.212  0.00  0.00     0.030 A 
ATOM     31  F   UNL d   1      11.235   9.230  -9.474  0.00  0.00    -0.204 F 
ATOM     32  C   UNL d   1       9.729   6.149  -8.144  0.00  0.00     0.003 A 
ATOM     33  C   UNL d   1       9.074   5.664  -9.287  0.00  0.00     0.013 A 
ENDBRANCH  24  27
ENDBRANCH  23  24
ENDBRANCH   4  23
TORSDOF 7
