REMARK  9 active torsions:
REMARK  status: ('A' for Active; 'I' for Inactive)
REMARK    1  A    between atoms: C_2  and  C_4 
REMARK    2  A    between atoms: C_9  and  N_10 
REMARK    3  A    between atoms: N_13  and  C_14 
REMARK    4  A    between atoms: C_14  and  C_15 
REMARK    5  A    between atoms: C_15  and  C_16 
REMARK    6  A    between atoms: C_16  and  C_17 
REMARK    7  A    between atoms: C_17  and  C_18 
REMARK    8  A    between atoms: C_18  and  C_19 
REMARK       I    between atoms: C_19  and  N_21 
REMARK    9  A    between atoms: N_21  and  C_22 
ROOT
ATOM      1  C   UNL d   1       8.972   6.167 -11.306  0.00  0.00     0.035 C 
ENDROOT
BRANCH   1   2
ATOM      2  C   UNL d   1       7.487   5.865 -11.628  0.00  0.00     0.250 C 
BRANCH   2   3
ATOM      3  N   UNL d   1       7.341   5.070 -12.840  0.00  0.00     0.141 N 
ATOM      4  C   UNL d   1       5.915   4.710 -12.923  0.00  0.00     0.274 C 
ATOM      5  C   UNL d   1       5.689   3.808 -14.115  0.00  0.00     0.137 C 
ATOM      6  N   UNL d   1       6.547   2.647 -14.142  0.00  0.00    -0.344 N 
ATOM      7  C   UNL d   1       7.949   2.930 -13.920  0.00  0.00     0.137 C 
ATOM      8  C   UNL d   1       8.083   3.814 -12.693  0.00  0.00     0.274 C 
BRANCH   6   9
ATOM      9  C   UNL d   1       6.084   1.341 -14.391  0.00  0.00     0.061 A 
ATOM     10  C   UNL d   1       6.510   0.525 -15.490  0.00  0.00     0.075 A 
ATOM     11  C   UNL d   1       5.919  -0.752 -15.623  0.00  0.00     0.006 A 
ATOM     12  C   UNL d   1       4.926  -1.212 -14.748  0.00  0.00     0.000 A 
ATOM     13  C   UNL d   1       4.474  -0.381 -13.711  0.00  0.00     0.002 A 
ATOM     14  C   UNL d   1       5.070   0.871 -13.526  0.00  0.00     0.017 A 
BRANCH  10  15
ATOM     15  C   UNL d   1       7.518   0.949 -16.541  0.00  0.00     0.298 C 
ATOM     16  N   UNL d   1       7.291   0.496 -17.778  0.00  0.00    -0.102 N 
ATOM     17  O   UNL d   1       8.498   1.647 -16.315  0.00  0.00    -0.264 OA
ENDBRANCH  10  15
ENDBRANCH   6   9
ENDBRANCH   2   3
ENDBRANCH   1   2
BRANCH   1  18
ATOM     18  C   UNL d   1       9.194   6.930 -10.012  0.00  0.00     0.003 C 
BRANCH  18  19
ATOM     19  C   UNL d   1       8.630   6.202  -8.762  0.00  0.00     0.010 C 
BRANCH  19  20
ATOM     20  C   UNL d   1       8.770   7.004  -7.462  0.00  0.00     0.090 C 
BRANCH  20  21
ATOM     21  C   UNL d   1      10.213   7.268  -7.095  0.00  0.00     0.252 C 
ATOM     22  O   UNL d   1      11.113   6.518  -7.470  0.00  0.00    -0.271 OA
ATOM     23  N   UNL d   1      10.419   8.351  -6.348  0.00  0.00    -0.235 NA
BRANCH  23  24
ATOM     24  C   UNL d   1      11.712   8.729  -5.825  0.00  0.00     0.128 C 
ATOM     25  C   UNL d   1      11.970   8.094  -4.476  0.00  0.00    -0.004 A 
ATOM     26  C   UNL d   1      11.954   8.786  -3.244  0.00  0.00    -0.024 A 
ATOM     27  C   UNL d   1      12.258   6.724  -4.442  0.00  0.00    -0.003 A 
ATOM     28  C   UNL d   1      11.671  10.233  -3.223  0.00  0.00     0.026 C 
ATOM     29  C   UNL d   1      12.225   8.149  -2.014  0.00  0.00    -0.004 A 
ATOM     30  C   UNL d   1      11.039  10.698  -4.553  0.00  0.00     0.007 C 
ATOM     31  C   UNL d   1      11.803  10.223  -5.758  0.00  0.00     0.029 C 
ATOM     32  C   UNL d   1      12.482   6.790  -2.025  0.00  0.00    -0.000 A 
ATOM     33  C   UNL d   1      12.528   6.145  -3.232  0.00  0.00    -0.000 A 
ENDBRANCH  23  24
ENDBRANCH  20  21
ENDBRANCH  19  20
ENDBRANCH  18  19
ENDBRANCH   1  18
TORSDOF 9
