REMARK  5 active torsions:
REMARK  status: ('A' for Active; 'I' for Inactive)
REMARK    1  A    between atoms: C_4  and  C_5 
REMARK    2  A    between atoms: C_5  and  C_6 
REMARK    3  A    between atoms: C_6  and  N_7 
REMARK    4  A    between atoms: N_10  and  C_11 
REMARK    5  A    between atoms: C_13  and  C_14 
ROOT
ATOM      1  N   UNL d   1       9.469   6.719  -8.643  0.00  0.00     0.141 N 
ATOM      2  C   UNL d   1      10.350   7.087  -9.755  0.00  0.00     0.274 C 
ATOM      3  C   UNL d   1       9.571   7.065 -11.080  0.00  0.00     0.138 C 
ATOM      4  N   UNL d   1       8.954   5.761 -11.270  0.00  0.00    -0.328 N 
ATOM      5  C   UNL d   1       8.136   5.311 -10.156  0.00  0.00     0.138 C 
ATOM      6  C   UNL d   1       8.951   5.365  -8.858  0.00  0.00     0.274 C 
ENDROOT
BRANCH   4   7
ATOM      7  C   UNL d   1       9.110   5.009 -12.444  0.00  0.00     0.163 A 
ATOM      8  N   UNL d   1      10.120   5.181 -13.281  0.00  0.00    -0.131 NA
ATOM      9  N   UNL d   1       9.880   4.270 -14.240  0.00  0.00    -0.147 NA
ATOM     10  C   UNL d   1       8.736   3.531 -14.024  0.00  0.00     0.106 A 
ATOM     11  C   UNL d   1       8.193   4.000 -12.857  0.00  0.00     0.059 A 
BRANCH  10  12
ATOM     12  C   UNL d   1       8.292   2.477 -14.932  0.00  0.00     0.019 A 
ATOM     13  C   UNL d   1       7.098   1.768 -14.673  0.00  0.00     0.002 A 
ATOM     14  C   UNL d   1       6.654   0.757 -15.547  0.00  0.00     0.000 A 
ATOM     15  C   UNL d   1       7.401   0.446 -16.700  0.00  0.00     0.000 A 
ATOM     16  C   UNL d   1       8.591   1.145 -16.970  0.00  0.00     0.000 A 
ATOM     17  C   UNL d   1       9.033   2.153 -16.091  0.00  0.00     0.002 A 
ENDBRANCH  10  12
ENDBRANCH   4   7
BRANCH   1  18
ATOM     18  C   UNL d   1      10.207   6.731  -7.384  0.00  0.00     0.255 C 
BRANCH  18  19
ATOM     19  C   UNL d   1      10.414   8.150  -6.828  0.00  0.00     0.062 C 
BRANCH  19  20
ATOM     20  C   UNL d   1      11.061   8.173  -5.444  0.00  0.00    -0.020 A 
ATOM     21  C   UNL d   1      11.269   9.415  -4.799  0.00  0.00    -0.004 A 
ATOM     22  C   UNL d   1      11.856   9.457  -3.519  0.00  0.00    -0.000 A 
ATOM     23  C   UNL d   1      12.260   8.271  -2.878  0.00  0.00    -0.000 A 
ATOM     24  C   UNL d   1      12.059   7.036  -3.519  0.00  0.00    -0.000 A 
ATOM     25  C   UNL d   1      11.459   6.980  -4.787  0.00  0.00    -0.004 A 
ENDBRANCH  19  20
ENDBRANCH  18  19
ENDBRANCH   1  18
TORSDOF 5
