REMARK  9 active torsions:
REMARK  status: ('A' for Active; 'I' for Inactive)
REMARK    1  A    between atoms: O_2  and  C_3 
REMARK    2  A    between atoms: C_6  and  N_7 
REMARK    3  A    between atoms: N_10  and  C_11 
REMARK    4  A    between atoms: C_11  and  C_12 
REMARK    5  A    between atoms: C_12  and  C_13 
REMARK    6  A    between atoms: C_13  and  C_14 
REMARK    7  A    between atoms: C_14  and  C_15 
REMARK    8  A    between atoms: C_15  and  C_16 
REMARK    9  A    between atoms: C_16  and  N_17 
ROOT
ATOM      1  C   UNL d   1      10.853   5.030 -15.355  0.00  0.00     0.002 C 
ENDROOT
BRANCH   1   2
ATOM      2  C   UNL d   1       9.411   4.500 -15.115  0.00  0.00     0.035 C 
BRANCH   2   3
ATOM      3  C   UNL d   1       9.121   3.950 -13.697  0.00  0.00     0.250 C 
BRANCH   3   4
ATOM      4  N   UNL d   1       8.646   4.976 -12.774  0.00  0.00     0.141 N 
ATOM      5  C   UNL d   1       9.684   5.991 -12.635  0.00  0.00     0.274 C 
ATOM      6  C   UNL d   1       9.358   7.069 -11.642  0.00  0.00     0.137 C 
ATOM      7  N   UNL d   1       9.108   6.466 -10.374  0.00  0.00    -0.344 N 
ATOM      8  C   UNL d   1       8.027   5.465 -10.421  0.00  0.00     0.137 C 
ATOM      9  C   UNL d   1       8.437   4.383 -11.445  0.00  0.00     0.274 C 
BRANCH   7  10
ATOM     10  C   UNL d   1       9.656   6.994  -9.175  0.00  0.00     0.056 A 
ATOM     11  C   UNL d   1       9.619   6.264  -7.973  0.00  0.00     0.019 A 
ATOM     12  C   UNL d   1      10.227   6.787  -6.804  0.00  0.00     0.026 A 
ATOM     13  C   UNL d   1      10.894   8.034  -6.838  0.00  0.00     0.094 A 
ATOM     14  C   UNL d   1      10.916   8.748  -8.054  0.00  0.00     0.026 A 
ATOM     15  C   UNL d   1      10.291   8.251  -9.187  0.00  0.00     0.019 A 
BRANCH  13  16
ATOM     16  O   UNL d   1      11.475   8.471  -5.678  0.00  0.00    -0.328 OA
ATOM     17  C   UNL d   1      12.233   9.674  -5.776  0.00  0.00     0.181 C 
ENDBRANCH  13  16
ENDBRANCH   7  10
ENDBRANCH   3   4
ENDBRANCH   2   3
ENDBRANCH   1   2
BRANCH   1  18
ATOM     18  C   UNL d   1      11.026   5.553 -16.787  0.00  0.00     0.002 C 
BRANCH  18  19
ATOM     19  C   UNL d   1      12.416   6.198 -16.878  0.00  0.00     0.025 C 
BRANCH  19  20
ATOM     20  C   UNL d   1      12.830   6.519 -18.322  0.00  0.00     0.109 C 
BRANCH  20  21
ATOM     21  N   UNL d   1      14.228   6.941 -18.426  0.00  0.00    -0.296 N 
ATOM     22  C   UNL d   1      14.650   8.083 -19.161  0.00  0.00     0.063 A 
ATOM     23  C   UNL d   1      13.960   9.071 -19.896  0.00  0.00     0.017 A 
ATOM     24  C   UNL d   1      16.030   8.191 -19.112  0.00  0.00     0.021 A 
ATOM     25  C   UNL d   1      14.704  10.105 -20.518  0.00  0.00     0.002 A 
ATOM     26  C   UNL d   1      16.119  10.162 -20.416  0.00  0.00     0.000 A 
ATOM     27  C   UNL d   1      16.824   9.178 -19.688  0.00  0.00     0.002 A 
ATOM     28  C   UNL d   1      18.213   9.045 -19.457  0.00  0.00     0.000 A 
ATOM     29  C   UNL d   1      18.723   7.961 -18.689  0.00  0.00     0.000 A 
ATOM     30  C   UNL d   1      17.855   6.988 -18.137  0.00  0.00     0.005 A 
ATOM     31  C   UNL d   1      16.475   7.121 -18.371  0.00  0.00     0.058 A 
ATOM     32  C   UNL d   1      15.324   6.301 -17.936  0.00  0.00     0.261 A 
ATOM     33  O   UNL d   1      15.415   5.258 -17.287  0.00  0.00    -0.267 OA
ENDBRANCH  20  21
ENDBRANCH  19  20
ENDBRANCH  18  19
ENDBRANCH   1  18
TORSDOF 9
