REMARK  9 active torsions:
REMARK  status: ('A' for Active; 'I' for Inactive)
REMARK    1  A    between atoms: O_2  and  C_3 
REMARK    2  A    between atoms: C_8  and  C_9 
REMARK    3  A    between atoms: C_11  and  C_12 
REMARK    4  A    between atoms: C_12  and  N_13 
REMARK    5  A    between atoms: N_13  and  C_14 
REMARK    6  A    between atoms: C_14  and  C_15 
REMARK    7  A    between atoms: C_15  and  C_16 
REMARK    8  A    between atoms: C_16  and  O_17 
REMARK    9  A    between atoms: O_17  and  C_18 
ROOT
ATOM      1  C   UNL d   1      10.254   7.921 -10.424  0.00  0.00     0.293 C 
ENDROOT
BRANCH   1   2
ATOM      2  N   UNL d   1      10.285   7.912  -8.976  0.00  0.00     0.339 N 
BRANCH   2   3
ATOM      3  C   UNL d   1      10.902   9.135  -8.487  0.00  0.00     0.290 C 
BRANCH   3   4
ATOM      4  C   UNL d   1      10.731   9.242  -6.977  0.00  0.00     0.041 A 
ATOM      5  C   UNL d   1      11.947   9.313  -6.087  0.00  0.00     0.026 A 
ATOM      6  C   UNL d   1      11.071  10.527  -6.241  0.00  0.00     0.007 A 
BRANCH   5   7
ATOM      7  C   UNL d   1      11.988   8.577  -4.784  0.00  0.00    -0.000 A 
ATOM      8  C   UNL d   1      11.478   7.266  -4.653  0.00  0.00     0.090 A 
ATOM      9  C   UNL d   1      11.531   6.644  -3.401  0.00  0.00     0.024 A 
ATOM     10  C   UNL d   1      12.120   7.261  -2.291  0.00  0.00     0.002 A 
ATOM     11  C   UNL d   1      12.654   8.548  -2.413  0.00  0.00    -0.000 A 
ATOM     12  C   UNL d   1      12.600   9.188  -3.661  0.00  0.00    -0.002 A 
BRANCH   8  13
ATOM     13  O   UNL d   1      10.915   6.576  -5.699  0.00  0.00    -0.328 OA
ATOM     14  C   UNL d   1      11.769   6.219  -6.771  0.00  0.00     0.181 C 
ENDBRANCH   8  13
ENDBRANCH   5   7
ENDBRANCH   3   4
ENDBRANCH   2   3
ENDBRANCH   1   2
BRANCH   1  15
ATOM     15  C   UNL d   1       9.252   6.862 -10.913  0.00  0.00     0.071 C 
BRANCH  15  16
ATOM     16  C   UNL d   1       8.473   7.319 -12.159  0.00  0.00     0.151 C 
BRANCH  16  17
ATOM     17  O   UNL d   1       7.384   6.446 -12.415  0.00  0.00    -0.331 OA
BRANCH  17  18
ATOM     18  C   UNL d   1       7.630   5.229 -12.995  0.00  0.00     0.096 A 
ATOM     19  C   UNL d   1       6.598   4.268 -13.067  0.00  0.00     0.043 A 
ATOM     20  C   UNL d   1       6.843   3.025 -13.697  0.00  0.00     0.087 A 
ATOM     21  C   UNL d   1       8.104   2.753 -14.249  0.00  0.00     0.018 A 
ATOM     22  N   UNL d   1       5.859   1.994 -13.706  0.00  0.00    -0.208 NA
ATOM     23  C   UNL d   1       9.138   3.705 -14.170  0.00  0.00     0.004 A 
ATOM     24  C   UNL d   1       8.316   1.435 -14.835  0.00  0.00     0.006 A 
ATOM     25  C   UNL d   1       8.898   4.939 -13.541  0.00  0.00     0.024 A 
ATOM     26  C   UNL d   1       7.337   0.498 -14.837  0.00  0.00     0.063 A 
ATOM     27  C   UNL d   1       6.018   0.766 -14.245  0.00  0.00     0.279 A 
ATOM     28  O   UNL d   1       5.093  -0.054 -14.223  0.00  0.00    -0.265 OA
ENDBRANCH  17  18
ENDBRANCH  16  17
ENDBRANCH  15  16
ENDBRANCH   1  15
TORSDOF 9
