REMARK  6 active torsions:
REMARK  status: ('A' for Active; 'I' for Inactive)
REMARK    1  A    between atoms: C_2  and  C_3 
REMARK    2  A    between atoms: C_3  and  N_4 
REMARK    3  A    between atoms: N_4  and  C_5 
REMARK    4  A    between atoms: N_4  and  C_12 
REMARK    5  A    between atoms: C_5  and  C_6 
REMARK    6  A    between atoms: C_6  and  C_7 
ROOT
ATOM      1  C   UNL d   1       9.813   6.815  -8.651  0.00  0.00     0.224 C 
ATOM      2  C   UNL d   1       9.843   8.324  -8.881  0.00  0.00     0.038 C 
ATOM      3  C   UNL d   1      11.037   8.923  -8.120  0.00  0.00     0.030 C 
ATOM      4  C   UNL d   1      11.171   8.495  -6.665  0.00  0.00    -0.001 A 
ATOM      5  C   UNL d   1      11.952   9.232  -5.748  0.00  0.00     0.127 A 
ATOM      6  O   UNL d   1      12.575  10.371  -6.128  0.00  0.00    -0.191 OA
ATOM      7  C   UNL d   1      12.128   8.781  -4.427  0.00  0.00     0.027 A 
ATOM      8  C   UNL d   1      11.532   7.579  -4.013  0.00  0.00     0.002 A 
ATOM      9  C   UNL d   1      10.730   6.849  -4.908  0.00  0.00    -0.004 A 
ATOM     10  C   UNL d   1      10.538   7.331  -6.221  0.00  0.00    -0.022 A 
ATOM     11  C   UNL d   1       9.623   6.585  -7.129  0.00  0.00     0.059 C 
ENDROOT
BRANCH   1  12
ATOM     12  N   UNL d   1       8.781   6.165  -9.458  0.00  0.00     0.136 N 
BRANCH  12  13
ATOM     13  C   UNL d   1       8.318   4.983  -8.797  0.00  0.00     0.250 C 
BRANCH  13  14
ATOM     14  C   UNL d   1       9.289   3.892  -8.850  0.00  0.00     0.035 C 
ATOM     15  C   UNL d   1       8.690   2.709  -8.100  0.00  0.00     0.002 C 
ENDBRANCH  13  14
ENDBRANCH  12  13
BRANCH  12  16
ATOM     16  C   UNL d   1       9.197   5.955 -10.850  0.00  0.00     0.255 C 
BRANCH  16  17
ATOM     17  C   UNL d   1       8.183   5.118 -11.683  0.00  0.00     0.068 C 
BRANCH  17  18
ATOM     18  C   UNL d   1       8.853   4.417 -12.792  0.00  0.00     0.009 A 
ATOM     19  S   UNL d   1       8.454   4.752 -14.413  0.00  0.00    -0.091 SA
ATOM     20  C   UNL d   1       9.453   3.460 -14.985  0.00  0.00     0.035 A 
ATOM     21  C   UNL d   1      10.103   2.834 -13.960  0.00  0.00     0.007 A 
ATOM     22  C   UNL d   1       9.756   3.395 -12.706  0.00  0.00     0.003 A 
ENDBRANCH  17  18
ENDBRANCH  16  17
ENDBRANCH  12  16
ENDBRANCH   1  12
TORSDOF 6
