REMARK  6 active torsions:
REMARK  status: ('A' for Active; 'I' for Inactive)
REMARK    1  A    between atoms: O_2  and  C_3 
REMARK    2  A    between atoms: C_7  and  O_8 
REMARK    3  A    between atoms: O_8  and  C_9 
REMARK    4  A    between atoms: C_9  and  C_10 
REMARK    5  A    between atoms: C_10  and  N_11 
REMARK       I    between atoms: N_14  and  C_15 
REMARK    6  A    between atoms: C_15  and  C_17 
ROOT
ATOM      1  N   UNL d   1       8.721   3.971 -13.074  0.00  0.00     0.144 N 
ATOM      2  C   UNL d   1       9.685   4.002 -11.996  0.00  0.00     0.274 C 
ATOM      3  C   UNL d   1       9.157   4.916 -10.916  0.00  0.00     0.140 C 
ATOM      4  N   UNL d   1       8.941   6.257 -11.450  0.00  0.00    -0.311 N 
ATOM      5  C   UNL d   1       9.457   7.417 -10.964  0.00  0.00     0.275 C 
ATOM      6  O   UNL d   1       9.448   8.453 -11.631  0.00  0.00    -0.266 OA
ATOM      7  C   UNL d   1       8.022   6.251 -12.605  0.00  0.00     0.140 C 
ATOM      8  C   UNL d   1       8.529   5.278 -13.672  0.00  0.00     0.274 C 
ENDROOT
BRANCH   1   9
ATOM      9  C   UNL d   1       9.208   3.044 -14.057  0.00  0.00     0.283 C 
BRANCH   9  10
ATOM     10  C   UNL d   1      10.437   3.462 -14.903  0.00  0.00     0.184 C 
BRANCH  10  11
ATOM     11  O   UNL d   1      11.245   2.360 -15.325  0.00  0.00    -0.329 OA
BRANCH  11  12
ATOM     12  C   UNL d   1      10.671   1.382 -16.104  0.00  0.00     0.096 A 
ATOM     13  C   UNL d   1       9.384   0.860 -15.843  0.00  0.00     0.024 A 
ATOM     14  C   UNL d   1       8.789  -0.047 -16.683  0.00  0.00     0.004 A 
ATOM     15  C   UNL d   1       9.498  -0.580 -17.763  0.00  0.00     0.024 A 
ATOM     16  C   UNL d   1      10.825  -0.154 -18.023  0.00  0.00     0.096 A 
ATOM     17  C   UNL d   1      11.407   0.850 -17.189  0.00  0.00     0.048 A 
BRANCH  16  18
ATOM     18  O   UNL d   1      11.445  -0.763 -19.094  0.00  0.00    -0.328 OA
ATOM     19  C   UNL d   1      12.752  -0.346 -19.407  0.00  0.00     0.181 C 
ENDBRANCH  16  18
ENDBRANCH  11  12
ENDBRANCH  10  11
ENDBRANCH   9  10
ENDBRANCH   1   9
BRANCH   5  20
ATOM     20  C   UNL d   1       9.964   7.465  -9.557  0.00  0.00     0.139 A 
ATOM     21  N   UNL d   1      10.047   8.720  -8.947  0.00  0.00    -0.222 NA
ATOM     22  C   UNL d   1      10.508   8.612  -7.647  0.00  0.00     0.163 A 
ATOM     23  C   UNL d   1      10.723   7.233  -7.437  0.00  0.00     0.037 A 
ATOM     24  N   UNL d   1      10.717   9.609  -6.737  0.00  0.00    -0.225 NA
ATOM     25  C   UNL d   1      10.381   6.541  -8.619  0.00  0.00     0.027 A 
ATOM     26  C   UNL d   1      11.208   6.845  -6.180  0.00  0.00     0.005 A 
ATOM     27  C   UNL d   1      11.441   7.836  -5.210  0.00  0.00     0.021 A 
ATOM     28  C   UNL d   1      11.180   9.182  -5.542  0.00  0.00     0.101 A 
ENDBRANCH   5  20
TORSDOF 6
