REMARK  4 active torsions:
REMARK  status: ('A' for Active; 'I' for Inactive)
REMARK    1  A    between atoms: C_4  and  C_5 
REMARK    2  A    between atoms: C_5  and  N_6 
REMARK    3  A    between atoms: C_9  and  C_10 
REMARK    4  A    between atoms: C_25  and  C_26 
ROOT
ATOM      1  O   UNL d   1      12.103  -0.518 -18.365  0.00  0.00    -0.291 OA
ATOM      2  C   UNL d   1      11.600   0.598 -18.247  0.00  0.00     0.176 C 
ATOM      3  C   UNL d   1      12.136   1.760 -19.088  0.00  0.00     0.072 C 
ATOM      4  C   UNL d   1      11.071   2.823 -19.440  0.00  0.00     0.047 C 
ATOM      5  C   UNL d   1      10.243   3.296 -18.225  0.00  0.00     0.049 C 
ATOM      6  C   UNL d   1       9.859   2.180 -17.282  0.00  0.00     0.065 A 
ATOM      7  N   UNL d   1       8.905   2.482 -16.387  0.00  0.00    -0.231 NA
ATOM      8  C   UNL d   1       8.567   1.541 -15.504  0.00  0.00     0.162 A 
ATOM      9  N   UNL d   1       9.096   0.317 -15.439  0.00  0.00    -0.225 NA
ATOM     10  C   UNL d   1      10.063   0.007 -16.325  0.00  0.00     0.105 A 
ATOM     11  C   UNL d   1      10.508   0.927 -17.293  0.00  0.00     0.068 A 
ENDROOT
BRANCH   4  12
ATOM     12  C   UNL d   1      11.665   4.005 -20.230  0.00  0.00     0.251 C 
BRANCH  12  13
ATOM     13  N   UNL d   1      12.921   4.496 -19.652  0.00  0.00     0.137 N 
ATOM     14  C   UNL d   1      13.779   5.017 -20.720  0.00  0.00     0.251 C 
ATOM     15  C   UNL d   1      15.157   5.404 -20.159  0.00  0.00     0.041 C 
ATOM     16  C   UNL d   1      15.021   6.434 -19.027  0.00  0.00     0.047 C 
ATOM     17  C   UNL d   1      14.016   5.939 -17.988  0.00  0.00     0.041 C 
ATOM     18  C   UNL d   1      12.695   5.539 -18.639  0.00  0.00     0.251 C 
BRANCH  16  19
ATOM     19  C   UNL d   1      16.355   6.744 -18.386  0.00  0.00     0.087 A 
ATOM     20  C   UNL d   1      17.237   7.832 -18.564  0.00  0.00     0.041 A 
ATOM     21  C   UNL d   1      18.358   7.640 -17.750  0.00  0.00     0.129 A 
ATOM     22  C   UNL d   1      17.155   8.979 -19.383  0.00  0.00     0.006 A 
ATOM     23  O   UNL d   1      18.149   6.446 -17.093  0.00  0.00    -0.211 OA
ATOM     24  C   UNL d   1      19.422   8.548 -17.695  0.00  0.00     0.057 A 
ATOM     25  N   UNL d   1      16.904   5.896 -17.512  0.00  0.00    -0.131 NA
ATOM     26  C   UNL d   1      19.344   9.692 -18.512  0.00  0.00     0.142 A 
ATOM     27  F   UNL d   1      20.355  10.593 -18.487  0.00  0.00    -0.204 F 
ATOM     28  C   UNL d   1      18.224   9.905 -19.352  0.00  0.00     0.030 A 
ENDBRANCH  16  19
ENDBRANCH  12  13
ENDBRANCH   4  12
BRANCH   8  29
ATOM     29  C   UNL d   1       7.500   1.880 -14.553  0.00  0.00     0.036 A 
ATOM     30  C   UNL d   1       6.577   0.888 -14.145  0.00  0.00     0.003 A 
ATOM     31  C   UNL d   1       5.549   1.206 -13.237  0.00  0.00     0.000 A 
ATOM     32  C   UNL d   1       5.437   2.517 -12.739  0.00  0.00     0.000 A 
ATOM     33  C   UNL d   1       6.338   3.518 -13.139  0.00  0.00     0.000 A 
ATOM     34  C   UNL d   1       7.371   3.195 -14.043  0.00  0.00     0.003 A 
ENDBRANCH   8  29
TORSDOF 4
