REMARK  6 active torsions:
REMARK  status: ('A' for Active; 'I' for Inactive)
REMARK    1  A    between atoms: C_3  and  C_4 
REMARK       I    between atoms: C_4  and  N_6 
REMARK    2  A    between atoms: N_6  and  C_7 
REMARK    3  A    between atoms: C_10  and  C_11 
REMARK    4  A    between atoms: C_11  and  C_12 
REMARK    5  A    between atoms: C_12  and  N_13 
REMARK    6  A    between atoms: N_16  and  C_17 
ROOT
ATOM      1  C   UNL d   1      12.668   5.804  -2.955  0.00  0.00     0.090 C 
ATOM      2  C   UNL d   1      12.290   7.160  -3.268  0.00  0.00    -0.081 C 
ATOM      3  C   UNL d   1      11.898   8.247  -3.611  0.00  0.00    -0.003 C 
ENDROOT
BRANCH   3   4
ATOM      4  C   UNL d   1      11.461   9.514  -4.037  0.00  0.00     0.318 C 
ATOM      5  O   UNL d   1      11.473  10.389  -3.206  0.00  0.00    -0.256 OA
ATOM      6  N   UNL d   1      11.072   9.655  -5.306  0.00  0.00    -0.229 NA
BRANCH   6   7
ATOM      7  C   UNL d   1      10.892   8.601  -6.288  0.00  0.00     0.107 C 
ATOM      8  C   UNL d   1      11.027   9.163  -7.689  0.00  0.00     0.025 C 
ATOM      9  C   UNL d   1      10.813   8.057  -8.729  0.00  0.00     0.002 C 
ATOM     10  C   UNL d   1       9.454   7.359  -8.539  0.00  0.00     0.002 C 
ATOM     11  C   UNL d   1       9.305   6.814  -7.120  0.00  0.00     0.002 C 
ATOM     12  C   UNL d   1       9.527   7.923  -6.103  0.00  0.00     0.025 C 
BRANCH  10  13
ATOM     13  C   UNL d   1       9.253   6.222  -9.542  0.00  0.00     0.035 C 
BRANCH  13  14
ATOM     14  C   UNL d   1       9.195   6.712 -10.998  0.00  0.00     0.250 C 
BRANCH  14  15
ATOM     15  N   UNL d   1       8.774   5.634 -11.880  0.00  0.00     0.141 N 
ATOM     16  C   UNL d   1       9.891   4.704 -12.043  0.00  0.00     0.274 C 
ATOM     17  C   UNL d   1       9.559   3.580 -12.995  0.00  0.00     0.138 C 
ATOM     18  N   UNL d   1       9.175   4.119 -14.291  0.00  0.00    -0.330 N 
ATOM     19  C   UNL d   1       8.134   5.146 -14.199  0.00  0.00     0.138 C 
ATOM     20  C   UNL d   1       8.523   6.223 -13.194  0.00  0.00     0.274 C 
BRANCH  18  21
ATOM     21  C   UNL d   1       9.707   3.674 -15.481  0.00  0.00     0.138 A 
ATOM     22  C   UNL d   1      10.162   2.341 -15.670  0.00  0.00     0.036 A 
ATOM     23  C   UNL d   1      10.709   1.933 -16.872  0.00  0.00     0.095 A 
ATOM     24  C   UNL d   1      10.119   1.186 -14.736  0.00  0.00     0.064 C 
ATOM     25  C   UNL d   1      10.828   2.839 -17.931  0.00  0.00     0.045 A 
ATOM     26  O   UNL d   1      11.050   0.614 -16.881  0.00  0.00    -0.331 OA
ATOM     27  C   UNL d   1      10.351   4.144 -17.696  0.00  0.00     0.103 A 
ATOM     28  N   UNL d   1       9.812   4.552 -16.522  0.00  0.00    -0.228 NA
ATOM     29  C   UNL d   1      10.585   0.046 -15.643  0.00  0.00     0.154 C 
ENDBRANCH  18  21
ENDBRANCH  14  15
ENDBRANCH  13  14
ENDBRANCH  10  13
ENDBRANCH   6   7
ENDBRANCH   3   4
TORSDOF 6
