REMARK  2 active torsions:
REMARK  status: ('A' for Active; 'I' for Inactive)
REMARK    1  A    between atoms: N_5  and  C_6 
REMARK    2  A    between atoms: C_18  and  C_19 
ROOT
ATOM      1  C   UNL d   1       6.254  -0.274 -15.966  0.00  0.00     0.246 C 
ATOM      2  C   UNL d   1       5.071  -1.283 -16.073  0.00  0.00     0.065 C 
ATOM      3  C   UNL d   1       5.197  -2.369 -17.122  0.00  0.00    -0.014 A 
ATOM      4  C   UNL d   1       5.460  -3.701 -16.736  0.00  0.00    -0.004 A 
ATOM      5  C   UNL d   1       5.583  -4.701 -17.712  0.00  0.00    -0.000 A 
ATOM      6  C   UNL d   1       5.433  -4.379 -19.074  0.00  0.00     0.001 A 
ATOM      7  C   UNL d   1       5.151  -3.052 -19.463  0.00  0.00     0.006 A 
ATOM      8  C   UNL d   1       5.024  -2.055 -18.479  0.00  0.00     0.025 A 
ATOM      9  S   UNL d   1       4.729  -0.385 -18.927  0.00  0.00    -0.087 SA
ATOM     10  C   UNL d   1       6.343   0.240 -18.592  0.00  0.00     0.027 A 
ATOM     11  C   UNL d   1       7.057   0.778 -19.684  0.00  0.00     0.006 A 
ATOM     12  C   UNL d   1       8.346   1.307 -19.496  0.00  0.00     0.001 A 
ATOM     13  C   UNL d   1       8.969   1.241 -18.223  0.00  0.00     0.001 A 
ATOM     14  C   UNL d   1       8.282   0.610 -17.167  0.00  0.00    -0.002 A 
ATOM     15  C   UNL d   1       6.932   0.173 -17.293  0.00  0.00     0.015 A 
ENDROOT
BRANCH   1  16
ATOM     16  N   UNL d   1       5.886   0.877 -15.113  0.00  0.00     0.144 N 
ATOM     17  C   UNL d   1       6.827   2.010 -15.128  0.00  0.00     0.286 C 
ATOM     18  C   UNL d   1       6.359   3.208 -14.323  0.00  0.00     0.286 C 
ATOM     19  N   UNL d   1       6.160   2.841 -12.942  0.00  0.00     0.143 N 
ATOM     20  C   UNL d   1       5.786   3.972 -12.130  0.00  0.00     0.285 C 
ATOM     21  C   UNL d   1       5.225   1.724 -12.847  0.00  0.00     0.286 C 
ATOM     22  C   UNL d   1       5.669   0.516 -13.702  0.00  0.00     0.286 C 
ENDBRANCH   1  16
BRANCH  13  23
ATOM     23  C   UNL d   1      10.303   1.842 -17.978  0.00  0.00     0.019 A 
ATOM     24  C   UNL d   1      11.312   1.787 -18.958  0.00  0.00     0.099 A 
ATOM     25  N   UNL d   1      12.553   2.290 -18.796  0.00  0.00    -0.242 NA
ATOM     26  C   UNL d   1      12.849   2.895 -17.630  0.00  0.00     0.099 A 
ATOM     27  C   UNL d   1      11.919   3.039 -16.588  0.00  0.00     0.021 A 
ATOM     28  C   UNL d   1      10.626   2.510 -16.768  0.00  0.00     0.003 A 
ENDBRANCH  13  23
TORSDOF 2
