REMARK  7 active torsions:
REMARK  status: ('A' for Active; 'I' for Inactive)
REMARK       I    between atoms: C_2  and  N_3 
REMARK    1  A    between atoms: C_2  and  C_27 
REMARK    2  A    between atoms: N_3  and  C_4 
REMARK    3  A    between atoms: C_7  and  C_8 
REMARK    4  A    between atoms: C_8  and  C_9 
REMARK    5  A    between atoms: C_9  and  N_10 
REMARK    6  A    between atoms: N_13  and  C_14 
REMARK    7  A    between atoms: C_30  and  C_31 
ROOT
ATOM      1  C   UNL d   1       8.113   5.129 -12.601  0.00  0.00     0.107 C 
ATOM      2  C   UNL d   1       9.308   4.337 -13.170  0.00  0.00     0.024 C 
ATOM      3  C   UNL d   1       8.938   3.651 -14.483  0.00  0.00     0.002 C 
ATOM      4  C   UNL d   1       7.716   2.728 -14.316  0.00  0.00     0.002 C 
ATOM      5  C   UNL d   1       6.521   3.496 -13.711  0.00  0.00     0.002 C 
ATOM      6  C   UNL d   1       6.884   4.226 -12.410  0.00  0.00     0.024 C 
ENDROOT
BRANCH   4   7
ATOM      7  C   UNL d   1       7.337   2.078 -15.653  0.00  0.00     0.035 C 
BRANCH   7   8
ATOM      8  C   UNL d   1       6.679   0.686 -15.485  0.00  0.00     0.250 C 
BRANCH   8   9
ATOM      9  N   UNL d   1       6.356   0.139 -16.795  0.00  0.00     0.141 N 
ATOM     10  C   UNL d   1       5.449  -1.009 -16.642  0.00  0.00     0.274 C 
ATOM     11  C   UNL d   1       5.067  -1.570 -18.034  0.00  0.00     0.138 C 
ATOM     12  N   UNL d   1       6.279  -1.942 -18.756  0.00  0.00    -0.330 N 
ATOM     13  C   UNL d   1       7.273  -0.879 -18.876  0.00  0.00     0.138 C 
ATOM     14  C   UNL d   1       7.585  -0.302 -17.479  0.00  0.00     0.274 C 
BRANCH  12  15
ATOM     15  C   UNL d   1       6.537  -3.227 -19.249  0.00  0.00     0.138 A 
ATOM     16  C   UNL d   1       6.174  -4.412 -18.565  0.00  0.00     0.036 A 
ATOM     17  C   UNL d   1       6.403  -5.659 -19.124  0.00  0.00     0.095 A 
ATOM     18  C   UNL d   1       5.545  -4.607 -17.230  0.00  0.00     0.064 C 
ATOM     19  C   UNL d   1       6.994  -5.747 -20.393  0.00  0.00     0.045 A 
ATOM     20  O   UNL d   1       6.020  -6.691 -18.319  0.00  0.00    -0.331 OA
ATOM     21  C   UNL d   1       7.355  -4.534 -21.015  0.00  0.00     0.103 A 
ATOM     22  N   UNL d   1       7.153  -3.316 -20.456  0.00  0.00    -0.228 NA
ATOM     23  C   UNL d   1       5.605  -6.134 -17.057  0.00  0.00     0.154 C 
ENDBRANCH  12  15
ENDBRANCH   8   9
ENDBRANCH   7   8
ENDBRANCH   4   7
BRANCH   1  24
ATOM     24  N   UNL d   1       8.489   5.705 -11.322  0.00  0.00    -0.236 NA
ATOM     25  C   UNL d   1       9.193   6.831 -11.160  0.00  0.00     0.275 C 
ATOM     26  O   UNL d   1       9.460   7.588 -12.093  0.00  0.00    -0.266 OA
BRANCH  25  27
ATOM     27  C   UNL d   1       9.696   7.100  -9.762  0.00  0.00     0.058 A 
ATOM     28  C   UNL d   1       9.195   6.376  -8.648  0.00  0.00     0.005 A 
ATOM     29  C   UNL d   1       9.639   6.667  -7.346  0.00  0.00     0.000 A 
ATOM     30  C   UNL d   1      10.582   7.687  -7.111  0.00  0.00     0.000 A 
ATOM     31  C   UNL d   1      11.071   8.416  -8.217  0.00  0.00     0.000 A 
ATOM     32  C   UNL d   1      10.632   8.130  -9.525  0.00  0.00     0.005 A 
BRANCH  30  33
ATOM     33  C   UNL d   1      11.037   7.986  -5.743  0.00  0.00     0.000 A 
ATOM     34  C   UNL d   1      11.461   6.952  -4.883  0.00  0.00     0.000 A 
ATOM     35  C   UNL d   1      11.898   7.223  -3.571  0.00  0.00     0.000 A 
ATOM     36  C   UNL d   1      11.902   8.550  -3.101  0.00  0.00     0.000 A 
ATOM     37  C   UNL d   1      11.466   9.591  -3.943  0.00  0.00     0.000 A 
ATOM     38  C   UNL d   1      11.049   9.313  -5.259  0.00  0.00     0.000 A 
ENDBRANCH  30  33
ENDBRANCH  25  27
ENDBRANCH   1  24
TORSDOF 7
