REMARK  3 active torsions:
REMARK  status: ('A' for Active; 'I' for Inactive)
REMARK    1  A    between atoms: C_5  and  S_6 
REMARK    2  A    between atoms: S_6  and  N_9 
REMARK    3  A    between atoms: N_9  and  C_10 
ROOT
ATOM      1  S   UNL d   1       9.047   5.430  -8.634  0.00  0.00     0.287 S 
ATOM      2  O   UNL d   1       9.894   4.257  -8.840  0.00  0.00    -0.198 OA
ATOM      3  O   UNL d   1       7.859   5.316  -7.797  0.00  0.00    -0.198 OA
ENDROOT
BRANCH   1   4
ATOM      4  C   UNL d   1       9.989   6.800  -7.998  0.00  0.00     0.105 A 
ATOM      5  C   UNL d   1      11.042   7.333  -8.752  0.00  0.00     0.014 A 
ATOM      6  C   UNL d   1      11.809   8.392  -8.225  0.00  0.00     0.015 A 
ATOM      7  C   UNL d   1      11.497   8.924  -6.955  0.00  0.00     0.070 A 
ATOM      8  N   UNL d   1      12.234   9.988  -6.432  0.00  0.00    -0.101 NA
ATOM      9  C   UNL d   1      10.440   8.375  -6.207  0.00  0.00     0.015 A 
ATOM     10  C   UNL d   1       9.678   7.310  -6.723  0.00  0.00     0.014 A 
ENDBRANCH   1   4
BRANCH   1  11
ATOM     11  N   UNL d   1       8.456   5.988 -10.159  0.00  0.00    -0.132 NA
BRANCH  11  12
ATOM     12  C   UNL d   1       8.685   5.425 -11.408  0.00  0.00     0.206 A 
ATOM     13  S   UNL d   1       7.914   6.069 -12.840  0.00  0.00    -0.046 SA
ATOM     14  C   UNL d   1       8.702   4.814 -13.775  0.00  0.00     0.059 A 
ATOM     15  C   UNL d   1       9.473   3.996 -12.995  0.00  0.00     0.108 A 
ATOM     16  N   UNL d   1       9.462   4.382 -11.667  0.00  0.00    -0.218 NA
ENDBRANCH  11  12
ENDBRANCH   1  11
TORSDOF 3
