REMARK  5 active torsions:
REMARK  status: ('A' for Active; 'I' for Inactive)
REMARK    1  A    between atoms: C_4  and  C_5 
REMARK    2  A    between atoms: C_9  and  C_10 
REMARK    3  A    between atoms: C_10  and  C_11 
REMARK    4  A    between atoms: C_11  and  N_12 
REMARK    5  A    between atoms: N_15  and  C_16 
ROOT
ATOM      1  C   UNL d   1       9.617   2.213 -15.319  0.00  0.00     0.162 A 
ATOM      2  N   UNL d   1      10.308   3.143 -14.653  0.00  0.00    -0.225 NA
ATOM      3  C   UNL d   1       9.352   3.738 -13.852  0.00  0.00     0.100 A 
ATOM      4  C   UNL d   1       9.472   4.784 -12.915  0.00  0.00     0.017 A 
ATOM      5  C   UNL d   1       8.349   5.234 -12.186  0.00  0.00    -0.019 A 
ATOM      6  C   UNL d   1       7.082   4.644 -12.409  0.00  0.00    -0.003 A 
ATOM      7  C   UNL d   1       6.937   3.600 -13.346  0.00  0.00     0.020 A 
ATOM      8  C   UNL d   1       8.072   3.158 -14.050  0.00  0.00     0.101 A 
ATOM      9  N   UNL d   1       8.305   2.180 -15.003  0.00  0.00    -0.225 NA
ENDROOT
BRANCH   5  10
ATOM     10  C   UNL d   1       8.480   6.341 -11.149  0.00  0.00     0.062 C 
BRANCH  10  11
ATOM     11  C   UNL d   1       9.823   6.354 -10.383  0.00  0.00     0.255 C 
BRANCH  11  12
ATOM     12  N   UNL d   1       9.852   7.349  -9.309  0.00  0.00     0.141 N 
ATOM     13  C   UNL d   1      11.232   7.698  -8.962  0.00  0.00     0.274 C 
ATOM     14  C   UNL d   1      11.275   8.742  -7.829  0.00  0.00     0.137 C 
ATOM     15  N   UNL d   1      10.524   8.251  -6.691  0.00  0.00    -0.344 N 
ATOM     16  C   UNL d   1       9.170   7.797  -6.964  0.00  0.00     0.137 C 
ATOM     17  C   UNL d   1       9.182   6.789  -8.128  0.00  0.00     0.274 C 
BRANCH  15  18
ATOM     18  C   UNL d   1      11.080   8.210  -5.408  0.00  0.00     0.056 A 
ATOM     19  C   UNL d   1      11.441   9.411  -4.768  0.00  0.00     0.017 A 
ATOM     20  C   UNL d   1      11.991   9.388  -3.472  0.00  0.00     0.002 A 
ATOM     21  C   UNL d   1      12.213   8.161  -2.820  0.00  0.00     0.000 A 
ATOM     22  C   UNL d   1      11.858   6.956  -3.456  0.00  0.00     0.002 A 
ATOM     23  C   UNL d   1      11.292   6.980  -4.749  0.00  0.00     0.017 A 
ENDBRANCH  15  18
ENDBRANCH  11  12
ENDBRANCH  10  11
ENDBRANCH   5  10
BRANCH   1  24
ATOM     24  C   UNL d   1      10.233   1.321 -16.303  0.00  0.00     0.036 A 
ATOM     25  C   UNL d   1      11.423   1.696 -16.966  0.00  0.00     0.003 A 
ATOM     26  C   UNL d   1      12.007   0.843 -17.924  0.00  0.00     0.000 A 
ATOM     27  C   UNL d   1      11.410  -0.396 -18.224  0.00  0.00     0.000 A 
ATOM     28  C   UNL d   1      10.223  -0.776 -17.571  0.00  0.00     0.000 A 
ATOM     29  C   UNL d   1       9.636   0.079 -16.617  0.00  0.00     0.003 A 
ENDBRANCH   1  24
TORSDOF 5
