REMARK  3 active torsions:
REMARK  status: ('A' for Active; 'I' for Inactive)
REMARK    1  A    between atoms: C_8  and  C_9 
REMARK    2  A    between atoms: C_9  and  N_10 
REMARK    3  A    between atoms: N_13  and  C_14 
ROOT
ATOM      1  N   UNL d   1       4.302  -0.459 -14.040  0.00  0.00    -0.191 NA
ATOM      2  C   UNL d   1       5.097   0.381 -13.998  0.00  0.00     0.101 C 
ATOM      3  C   UNL d   1       6.081   1.441 -13.951  0.00  0.00     0.070 A 
ATOM      4  C   UNL d   1       7.271   1.350 -14.704  0.00  0.00     0.010 A 
ATOM      5  C   UNL d   1       8.221   2.390 -14.655  0.00  0.00     0.002 A 
ATOM      6  C   UNL d   1       8.006   3.541 -13.860  0.00  0.00     0.019 A 
ATOM      7  C   UNL d   1       8.762   4.727 -13.583  0.00  0.00     0.018 A 
ATOM      8  C   UNL d   1       8.019   5.471 -12.709  0.00  0.00     0.092 A 
ATOM      9  N   UNL d   1       6.850   4.795 -12.416  0.00  0.00    -0.248 NA
ATOM     10  C   UNL d   1       6.790   3.607 -13.117  0.00  0.00     0.082 A 
ATOM     11  C   UNL d   1       5.840   2.576 -13.150  0.00  0.00     0.029 A 
ENDROOT
BRANCH   8  12
ATOM     12  C   UNL d   1       8.350   6.788 -12.105  0.00  0.00     0.296 C 
BRANCH  12  13
ATOM     13  N   UNL d   1       9.460   6.739 -11.151  0.00  0.00     0.147 N 
ATOM     14  C   UNL d   1       9.884   8.104 -10.846  0.00  0.00     0.275 C 
ATOM     15  C   UNL d   1      11.120   8.081  -9.920  0.00  0.00     0.137 C 
ATOM     16  N   UNL d   1      10.782   7.366  -8.696  0.00  0.00    -0.344 N 
ATOM     17  C   UNL d   1      10.180   6.052  -8.886  0.00  0.00     0.137 C 
ATOM     18  C   UNL d   1       9.033   6.119  -9.893  0.00  0.00     0.275 C 
BRANCH  16  19
ATOM     19  C   UNL d   1      11.004   7.889  -7.412  0.00  0.00     0.057 A 
ATOM     20  C   UNL d   1      11.249   7.039  -6.305  0.00  0.00     0.029 A 
ATOM     21  C   UNL d   1      11.460   7.575  -5.023  0.00  0.00     0.070 A 
ATOM     22  C   UNL d   1      11.441   8.963  -4.823  0.00  0.00     0.068 A 
ATOM     23 CL   UNL d   1      11.871   6.560  -3.702  0.00  0.00    -0.081 Cl
ATOM     24  C   UNL d   1      11.180   9.819  -5.903  0.00  0.00     0.014 A 
ATOM     25 CL   UNL d   1      11.762   9.599  -3.256  0.00  0.00    -0.082 Cl
ATOM     26  C   UNL d   1      10.983   9.284  -7.187  0.00  0.00     0.018 A 
ENDBRANCH  16  19
ENDBRANCH  12  13
ENDBRANCH   8  12
TORSDOF 3
