REMARK  8 active torsions:
REMARK  status: ('A' for Active; 'I' for Inactive)
REMARK    1  A    between atoms: N_12  and  C_13 
REMARK    2  A    between atoms: C_13  and  C_14 
REMARK    3  A    between atoms: C_14  and  C_15 
REMARK    4  A    between atoms: C_15  and  C_16 
REMARK    5  A    between atoms: C_16  and  C_17 
REMARK    6  A    between atoms: C_17  and  C_18 
REMARK    7  A    between atoms: C_18  and  N_19 
REMARK    8  A    between atoms: N_22  and  C_23 
ROOT
ATOM      1  C   UNL d   1       9.617   7.169  -9.235  0.00  0.00     0.002 C 
ENDROOT
BRANCH   1   2
ATOM      2  C   UNL d   1       9.759   8.705  -9.178  0.00  0.00     0.025 C 
BRANCH   2   3
ATOM      3  C   UNL d   1      11.040   9.143  -8.444  0.00  0.00     0.122 C 
BRANCH   3   4
ATOM      4  N   UNL d   1      11.016   8.821  -6.987  0.00  0.00    -0.221 N 
ATOM      5  C   UNL d   1      11.577   9.668  -6.008  0.00  0.00     0.271 A 
ATOM      6  O   UNL d   1      11.851  10.852  -6.174  0.00  0.00    -0.266 OA
ATOM      7  C   UNL d   1      11.786   8.879  -4.743  0.00  0.00     0.069 A 
ATOM      8  C   UNL d   1      11.429   7.550  -4.846  0.00  0.00     0.108 A 
ATOM      9  C   UNL d   1      12.211   9.359  -3.484  0.00  0.00     0.005 A 
ATOM     10  C   UNL d   1      11.466   6.644  -3.793  0.00  0.00     0.013 A 
ATOM     11  S   UNL d   1      10.844   7.192  -6.432  0.00  0.00     0.270 S 
ATOM     12  C   UNL d   1      11.922   7.105  -2.541  0.00  0.00     0.001 A 
ATOM     13  C   UNL d   1      12.287   8.458  -2.393  0.00  0.00     0.000 A 
ATOM     14  O   UNL d   1      11.843   6.327  -7.067  0.00  0.00    -0.200 OA
ATOM     15  O   UNL d   1       9.404   6.850  -6.358  0.00  0.00    -0.200 OA
ENDBRANCH   3   4
ENDBRANCH   2   3
ENDBRANCH   1   2
BRANCH   1  16
ATOM     16  C   UNL d   1       9.341   6.616 -10.616  0.00  0.00     0.002 C 
BRANCH  16  17
ATOM     17  C   UNL d   1       9.241   5.080 -10.543  0.00  0.00     0.035 C 
BRANCH  17  18
ATOM     18  C   UNL d   1       8.621   4.503 -11.822  0.00  0.00     0.250 C 
BRANCH  18  19
ATOM     19  N   UNL d   1       9.644   4.221 -12.824  0.00  0.00     0.141 N 
ATOM     20  C   UNL d   1       9.209   3.092 -13.653  0.00  0.00     0.274 C 
ATOM     21  C   UNL d   1      10.264   2.757 -14.720  0.00  0.00     0.137 C 
ATOM     22  N   UNL d   1      10.532   3.937 -15.535  0.00  0.00    -0.344 N 
ATOM     23  C   UNL d   1      10.868   5.125 -14.761  0.00  0.00     0.137 C 
ATOM     24  C   UNL d   1       9.788   5.383 -13.701  0.00  0.00     0.274 C 
BRANCH  22  25
ATOM     25  C   UNL d   1      10.466   3.953 -16.936  0.00  0.00     0.056 A 
ATOM     26  C   UNL d   1      11.212   4.905 -17.677  0.00  0.00     0.017 A 
ATOM     27  C   UNL d   1      11.146   4.944 -19.077  0.00  0.00     0.002 A 
ATOM     28  C   UNL d   1      10.344   4.022 -19.772  0.00  0.00     0.000 A 
ATOM     29  C   UNL d   1       9.605   3.062 -19.055  0.00  0.00     0.002 A 
ATOM     30  C   UNL d   1       9.661   3.029 -17.651  0.00  0.00     0.017 A 
ENDBRANCH  22  25
ENDBRANCH  18  19
ENDBRANCH  17  18
ENDBRANCH  16  17
ENDBRANCH   1  16
TORSDOF 8
