REMARK  7 active torsions:
REMARK  status: ('A' for Active; 'I' for Inactive)
REMARK       I    between atoms: C_2  and  N_3 
REMARK    1  A    between atoms: C_2  and  C_21 
REMARK    2  A    between atoms: N_3  and  C_4 
REMARK    3  A    between atoms: C_4  and  C_5 
REMARK    4  A    between atoms: C_5  and  C_6 
REMARK    5  A    between atoms: C_6  and  C_7 
REMARK    6  A    between atoms: C_7  and  N_8 
REMARK    7  A    between atoms: N_11  and  C_12 
ROOT
ATOM      1  C   UNL d   1       8.825   6.663 -11.046  0.00  0.00     0.029 C 
ENDROOT
BRANCH   1   2
ATOM      2  C   UNL d   1       9.911   7.644 -10.558  0.00  0.00     0.129 C 
BRANCH   2   3
ATOM      3  N   UNL d   1       9.837   7.922  -9.141  0.00  0.00    -0.234 NA
ATOM      4  C   UNL d   1      10.226   7.080  -8.172  0.00  0.00     0.275 C 
ATOM      5  O   UNL d   1      10.338   5.864  -8.335  0.00  0.00    -0.266 OA
BRANCH   4   6
ATOM      6  C   UNL d   1      10.612   7.748  -6.879  0.00  0.00     0.058 A 
ATOM      7  C   UNL d   1      11.047   6.963  -5.787  0.00  0.00     0.005 A 
ATOM      8  C   UNL d   1      11.456   7.572  -4.587  0.00  0.00     0.000 A 
ATOM      9  C   UNL d   1      11.457   8.982  -4.469  0.00  0.00     0.000 A 
ATOM     10  C   UNL d   1      11.882   6.788  -3.498  0.00  0.00     0.000 A 
ATOM     11  C   UNL d   1      11.051   9.772  -5.561  0.00  0.00     0.000 A 
ATOM     12  C   UNL d   1      11.859   9.590  -3.265  0.00  0.00     0.000 A 
ATOM     13  C   UNL d   1      10.632   9.158  -6.751  0.00  0.00     0.005 A 
ATOM     14  C   UNL d   1      12.257   8.794  -2.173  0.00  0.00     0.000 A 
ATOM     15  C   UNL d   1      12.272   7.393  -2.295  0.00  0.00     0.000 A 
ENDBRANCH   4   6
ENDBRANCH   2   3
ENDBRANCH   1   2
BRANCH   1  16
ATOM     16  C   UNL d   1       9.440   5.458 -11.730  0.00  0.00     0.037 C 
BRANCH  16  17
ATOM     17  C   UNL d   1       8.560   4.808 -12.809  0.00  0.00     0.251 C 
BRANCH  17  18
ATOM     18  N   UNL d   1       9.166   3.616 -13.416  0.00  0.00     0.141 N 
ATOM     19  C   UNL d   1       8.512   3.371 -14.708  0.00  0.00     0.274 C 
ATOM     20  C   UNL d   1       9.046   2.096 -15.387  0.00  0.00     0.137 C 
ATOM     21  N   UNL d   1      10.494   2.175 -15.516  0.00  0.00    -0.344 N 
ATOM     22  C   UNL d   1      11.194   2.499 -14.296  0.00  0.00     0.137 C 
ATOM     23  C   UNL d   1      10.601   3.756 -13.681  0.00  0.00     0.274 C 
BRANCH  21  24
ATOM     24  C   UNL d   1      11.177   1.969 -16.706  0.00  0.00     0.067 A 
ATOM     25  C   UNL d   1      10.980   0.803 -17.502  0.00  0.00     0.073 A 
ATOM     26  C   UNL d   1      11.689   0.638 -18.697  0.00  0.00     0.013 A 
ATOM     27 CL   UNL d   1       9.908  -0.461 -17.002  0.00  0.00    -0.081 Cl
ATOM     28  C   UNL d   1      12.609   1.606 -19.123  0.00  0.00     0.001 A 
ATOM     29  C   UNL d   1      12.834   2.751 -18.342  0.00  0.00     0.002 A 
ATOM     30  C   UNL d   1      12.131   2.929 -17.139  0.00  0.00     0.018 A 
ENDBRANCH  21  24
ENDBRANCH  17  18
ENDBRANCH  16  17
ENDBRANCH   1  16
TORSDOF 7
