REMARK  8 active torsions:
REMARK  status: ('A' for Active; 'I' for Inactive)
REMARK    1  A    between atoms: O_2  and  C_3 
REMARK    2  A    between atoms: C_3  and  C_4 
REMARK    3  A    between atoms: C_4  and  C_5 
REMARK       I    between atoms: C_5  and  N_7 
REMARK    4  A    between atoms: N_7  and  C_8 
REMARK    5  A    between atoms: C_11  and  C_12 
REMARK    6  A    between atoms: C_12  and  C_13 
REMARK    7  A    between atoms: C_13  and  N_14 
REMARK    8  A    between atoms: N_17  and  C_18 
ROOT
ATOM      1  N   UNL d   1       7.875   6.238 -12.037  0.00  0.00     0.141 N 
ATOM      2  C   UNL d   1       8.695   5.979 -13.227  0.00  0.00     0.274 C 
ATOM      3  C   UNL d   1       9.069   4.482 -13.349  0.00  0.00     0.138 C 
ATOM      4  N   UNL d   1       7.839   3.671 -13.286  0.00  0.00    -0.330 N 
ATOM      5  C   UNL d   1       6.925   3.979 -12.170  0.00  0.00     0.138 C 
ATOM      6  C   UNL d   1       6.640   5.473 -12.120  0.00  0.00     0.274 C 
ENDROOT
BRANCH   1   7
ATOM      7  C   UNL d   1       8.564   5.963 -10.784  0.00  0.00     0.250 C 
BRANCH   7   8
ATOM      8  C   UNL d   1       9.705   6.960 -10.561  0.00  0.00     0.035 C 
BRANCH   8   9
ATOM      9  C   UNL d   1      10.224   6.974  -9.124  0.00  0.00     0.002 C 
ATOM     10  C   UNL d   1      11.550   7.742  -9.077  0.00  0.00     0.002 C 
ATOM     11  C   UNL d   1      12.068   7.861  -7.642  0.00  0.00     0.024 C 
ATOM     12  C   UNL d   1      11.030   8.508  -6.719  0.00  0.00     0.106 C 
ATOM     13  C   UNL d   1       9.705   7.736  -6.753  0.00  0.00     0.024 C 
ATOM     14  C   UNL d   1       9.185   7.614  -8.183  0.00  0.00     0.002 C 
BRANCH  12  15
ATOM     15  N   UNL d   1      11.557   8.546  -5.361  0.00  0.00    -0.240 NA
ATOM     16  C   UNL d   1      11.337   9.533  -4.489  0.00  0.00     0.254 C 
ATOM     17  O   UNL d   1      10.489  10.388  -4.658  0.00  0.00    -0.271 OA
BRANCH  16  18
ATOM     18  C   UNL d   1      12.236   9.585  -3.256  0.00  0.00     0.122 C 
BRANCH  18  19
ATOM     19  C   UNL d   1      12.108   8.346  -2.369  0.00  0.00     0.152 C 
BRANCH  19  20
ATOM     20  O   UNL d   1      12.732   7.259  -3.024  0.00  0.00    -0.351 OA
ATOM     21  C   UNL d   1      12.604   6.063  -2.291  0.00  0.00     0.174 C 
ENDBRANCH  19  20
ENDBRANCH  18  19
ENDBRANCH  16  18
ENDBRANCH  12  15
ENDBRANCH   8   9
ENDBRANCH   7   8
ENDBRANCH   1   7
BRANCH   4  22
ATOM     22  C   UNL d   1       7.574   2.639 -14.200  0.00  0.00     0.142 A 
ATOM     23  C   UNL d   1       6.510   1.696 -14.065  0.00  0.00     0.058 A 
ATOM     24  C   UNL d   1       6.348   0.752 -15.116  0.00  0.00     0.101 A 
ATOM     25  C   UNL d   1       5.458   1.378 -13.123  0.00  0.00     0.032 A 
ATOM     26  C   UNL d   1       7.204   0.717 -16.222  0.00  0.00     0.020 A 
ATOM     27  O   UNL d   1       5.259  -0.057 -14.858  0.00  0.00    -0.305 OA
ATOM     28  C   UNL d   1       8.248   1.649 -16.244  0.00  0.00     0.098 A 
ATOM     29  C   UNL d   1       7.015  -0.300 -17.325  0.00  0.00     0.035 C 
ATOM     30  N   UNL d   1       8.412   2.569 -15.268  0.00  0.00    -0.228 NA
ATOM     31  C   UNL d   1       4.740   0.346 -13.661  0.00  0.00     0.123 A 
ENDBRANCH   4  22
TORSDOF 8
