REMARK  3 active torsions:
REMARK  status: ('A' for Active; 'I' for Inactive)
REMARK    1  A    between atoms: C_9  and  N_10 
REMARK    2  A    between atoms: N_13  and  C_14 
REMARK    3  A    between atoms: C_14  and  C_15 
ROOT
ATOM      1  N   UNL d   1      10.998   7.858  -7.281  0.00  0.00    -0.344 N 
ATOM      2  C   UNL d   1      11.918   8.152  -8.361  0.00  0.00     0.137 C 
ATOM      3  C   UNL d   1      11.135   8.343  -9.681  0.00  0.00     0.275 C 
ATOM      4  N   UNL d   1      10.243   7.202  -9.936  0.00  0.00     0.145 N 
ATOM      5  C   UNL d   1       9.280   7.119  -8.832  0.00  0.00     0.275 C 
ATOM      6  C   UNL d   1       9.965   6.863  -7.485  0.00  0.00     0.137 C 
ENDROOT
BRANCH   1   7
ATOM      7  C   UNL d   1      11.057   8.563  -6.095  0.00  0.00     0.054 A 
ATOM      8  C   UNL d   1      11.438   7.990  -4.871  0.00  0.00     0.021 A 
ATOM      9  C   UNL d   1      11.820   6.574  -4.536  0.00  0.00     0.119 C 
ATOM     10  C   UNL d   1      11.498   8.753  -3.713  0.00  0.00     0.082 A 
ATOM     11  C   UNL d   1      12.254   6.808  -3.061  0.00  0.00     0.260 C 
ATOM     12  O   UNL d   1      12.922   6.046  -2.360  0.00  0.00    -0.270 OA
ATOM     13  N   UNL d   1      11.897   8.037  -2.635  0.00  0.00    -0.212 NA
ATOM     14  C   UNL d   1      11.169  10.101  -3.687  0.00  0.00     0.019 A 
ATOM     15  C   UNL d   1      10.725  10.658  -4.883  0.00  0.00     0.003 A 
ATOM     16  C   UNL d   1      10.697   9.916  -6.085  0.00  0.00     0.017 A 
ENDBRANCH   1   7
BRANCH   4  17
ATOM     17  C   UNL d   1       9.510   7.413 -11.204  0.00  0.00     0.277 C 
BRANCH  17  18
ATOM     18  C   UNL d   1       8.845   6.172 -11.793  0.00  0.00     0.011 A 
ATOM     19  C   UNL d   1       7.442   5.998 -11.747  0.00  0.00    -0.002 A 
ATOM     20  C   UNL d   1       6.849   4.845 -12.291  0.00  0.00    -0.000 A 
ATOM     21  C   UNL d   1       7.652   3.866 -12.920  0.00  0.00    -0.000 A 
ATOM     22  C   UNL d   1       9.049   4.031 -12.966  0.00  0.00    -0.000 A 
ATOM     23  C   UNL d   1       9.633   5.180 -12.416  0.00  0.00    -0.002 A 
ENDBRANCH  17  18
ENDBRANCH   4  17
TORSDOF 3
