REMARK  4 active torsions:
REMARK  status: ('A' for Active; 'I' for Inactive)
REMARK    1  A    between atoms: N_3  and  C_4 
REMARK    2  A    between atoms: C_4  and  C_5 
REMARK    3  A    between atoms: C_5  and  N_6 
REMARK    4  A    between atoms: N_17  and  C_18 
ROOT
ATOM      1  O   UNL d   1      11.399   7.602  -8.823  0.00  0.00    -0.247 OA
ATOM      2  C   UNL d   1      10.406   7.055  -8.348  0.00  0.00     0.328 C 
ATOM      3  N   UNL d   1       9.604   6.163  -8.938  0.00  0.00    -0.298 N 
ATOM      4  C   UNL d   1       8.561   5.645  -8.077  0.00  0.00     0.131 C 
ATOM      5  C   UNL d   1       8.708   6.525  -6.830  0.00  0.00     0.135 C 
ATOM      6  N   UNL d   1       9.936   7.236  -7.104  0.00  0.00    -0.279 N 
ENDROOT
BRANCH   3   7
ATOM      7  C   UNL d   1       9.841   5.613 -10.246  0.00  0.00     0.141 C 
BRANCH   7   8
ATOM      8  C   UNL d   1       8.612   5.211 -11.032  0.00  0.00     0.275 C 
BRANCH   8   9
ATOM      9  N   UNL d   1       8.822   5.468 -12.438  0.00  0.00     0.148 N 
ATOM     10  C   UNL d   1       7.540   5.175 -13.075  0.00  0.00     0.277 C 
ATOM     11  C   UNL d   1       7.652   3.782 -13.616  0.00  0.00     0.009 A 
ATOM     12  C   UNL d   1       8.984   3.440 -13.655  0.00  0.00     0.009 A 
ATOM     13  C   UNL d   1       6.651   2.897 -14.042  0.00  0.00    -0.003 A 
ATOM     14  C   UNL d   1       9.794   4.586 -13.122  0.00  0.00     0.277 C 
ATOM     15  C   UNL d   1       9.411   2.182 -14.108  0.00  0.00    -0.003 A 
ATOM     16  C   UNL d   1       8.419   1.251 -14.502  0.00  0.00    -0.000 A 
ATOM     17  C   UNL d   1       7.048   1.614 -14.492  0.00  0.00    -0.000 A 
ENDBRANCH   8   9
ENDBRANCH   7   8
ENDBRANCH   3   7
BRANCH   6  18
ATOM     18  C   UNL d   1      10.482   8.154  -6.219  0.00  0.00     0.071 A 
ATOM     19  C   UNL d   1      11.155   7.851  -4.986  0.00  0.00     0.022 A 
ATOM     20  C   UNL d   1      11.542   9.040  -4.311  0.00  0.00     0.031 A 
ATOM     21  C   UNL d   1      11.468   6.632  -4.353  0.00  0.00     0.002 A 
ATOM     22  S   UNL d   1      11.053  10.438  -5.247  0.00  0.00    -0.085 SA
ATOM     23  C   UNL d   1      12.195   9.033  -3.072  0.00  0.00     0.006 A 
ATOM     24  C   UNL d   1      10.398   9.474  -6.488  0.00  0.00     0.053 A 
ATOM     25  C   UNL d   1      12.486   7.798  -2.460  0.00  0.00     0.001 A 
ATOM     26  C   UNL d   1      12.125   6.607  -3.109  0.00  0.00     0.000 A 
ENDBRANCH   6  18
TORSDOF 4
