REMARK  3 active torsions:
REMARK  status: ('A' for Active; 'I' for Inactive)
REMARK    1  A    between atoms: C_7  and  C_8 
REMARK    2  A    between atoms: N_11  and  C_12 
REMARK    3  A    between atoms: C_12  and  C_13 
ROOT
ATOM      1  C   UNL d   1       9.413   6.505 -10.036  0.00  0.00     0.019 C 
ATOM      2  C   UNL d   1       8.918   6.323  -8.795  0.00  0.00     0.008 C 
ATOM      3  C   UNL d   1       9.169   7.243  -7.631  0.00  0.00     0.277 C 
ATOM      4  N   UNL d   1      10.352   8.091  -7.873  0.00  0.00     0.146 N 
ATOM      5  C   UNL d   1      10.211   8.764  -9.169  0.00  0.00     0.256 C 
ATOM      6  C   UNL d   1      10.281   7.718 -10.299  0.00  0.00     0.065 C 
ENDROOT
BRANCH   1   7
ATOM      7  C   UNL d   1       9.023   5.627 -11.137  0.00  0.00     0.178 A 
ATOM      8  O   UNL d   1       7.732   5.170 -11.192  0.00  0.00    -0.288 OA
ATOM      9  C   UNL d   1       7.721   4.391 -12.326  0.00  0.00     0.119 A 
ATOM     10  C   UNL d   1       6.665   3.670 -12.907  0.00  0.00     0.027 A 
ATOM     11  C   UNL d   1       9.029   4.386 -12.861  0.00  0.00     0.107 A 
ATOM     12  C   UNL d   1       6.954   2.894 -14.048  0.00  0.00     0.013 A 
ATOM     13  C   UNL d   1       8.268   2.854 -14.576  0.00  0.00     0.059 A 
ATOM     14 CL   UNL d   1       8.603   1.917 -15.979  0.00  0.00    -0.082 Cl
ATOM     15  C   UNL d   1       9.303   3.599 -13.986  0.00  0.00     0.033 A 
ATOM     16  N   UNL d   1       9.844   5.210 -12.119  0.00  0.00    -0.220 NA
ENDBRANCH   1   7
BRANCH   4  17
ATOM     17  C   UNL d   1      10.557   9.061  -6.806  0.00  0.00     0.277 C 
BRANCH  17  18
ATOM     18  C   UNL d   1      11.179   8.506  -5.525  0.00  0.00     0.011 A 
ATOM     19  C   UNL d   1      11.683   9.424  -4.565  0.00  0.00    -0.002 A 
ATOM     20  C   UNL d   1      12.252   8.952  -3.346  0.00  0.00    -0.000 A 
ATOM     21  C   UNL d   1      12.261   7.565  -3.057  0.00  0.00    -0.000 A 
ATOM     22  C   UNL d   1      11.765   6.678  -4.032  0.00  0.00    -0.000 A 
ATOM     23  C   UNL d   1      11.286   7.117  -5.271  0.00  0.00    -0.002 A 
ENDBRANCH  17  18
ENDBRANCH   4  17
TORSDOF 3
