REMARK  4 active torsions:
REMARK  status: ('A' for Active; 'I' for Inactive)
REMARK    1  A    between atoms: O_2  and  C_3 
REMARK    2  A    between atoms: C_11  and  C_12 
REMARK    3  A    between atoms: N_15  and  C_16 
REMARK    4  A    between atoms: C_16  and  C_17 
ROOT
ATOM      1  C   UNL d   1      11.071   0.892 -17.934  0.00  0.00     0.094 A 
ATOM      2  C   UNL d   1      12.102   1.792 -17.536  0.00  0.00     0.024 A 
ATOM      3  C   UNL d   1      11.850   2.799 -16.617  0.00  0.00     0.004 A 
ATOM      4  C   UNL d   1      10.574   2.964 -16.066  0.00  0.00     0.031 A 
ATOM      5  C   UNL d   1       9.529   2.076 -16.442  0.00  0.00    -0.018 A 
ATOM      6  C   UNL d   1       9.788   1.052 -17.367  0.00  0.00     0.020 A 
ATOM      7  C   UNL d   1       8.132   2.206 -15.876  0.00  0.00     0.027 C 
ATOM      8  C   UNL d   1       8.127   2.911 -14.542  0.00  0.00     0.012 C 
ATOM      9  C   UNL d   1       8.957   4.234 -14.512  0.00  0.00     0.062 C 
ATOM     10  C   UNL d   1      10.383   4.059 -15.096  0.00  0.00     0.172 C 
ATOM     11  O   UNL d   1      11.298   4.830 -14.774  0.00  0.00    -0.291 OA
ENDROOT
BRANCH   9  12
ATOM     12  C   UNL d   1       8.950   4.879 -13.093  0.00  0.00     0.011 C 
ATOM     13  C   UNL d   1       7.513   5.167 -12.575  0.00  0.00     0.036 C 
ATOM     14  C   UNL d   1       7.546   5.803 -11.203  0.00  0.00     0.251 C 
ATOM     15  N   UNL d   1       8.371   5.009 -10.263  0.00  0.00     0.141 N 
ATOM     16  C   UNL d   1       9.697   4.575 -10.710  0.00  0.00     0.251 C 
ATOM     17  C   UNL d   1       9.705   3.977 -12.100  0.00  0.00     0.036 C 
BRANCH  15  18
ATOM     18  C   UNL d   1       8.427   5.585  -8.923  0.00  0.00     0.277 C 
BRANCH  18  19
ATOM     19  C   UNL d   1       9.506   6.659  -8.689  0.00  0.00     0.011 A 
ATOM     20  C   UNL d   1      10.121   6.736  -7.419  0.00  0.00    -0.002 A 
ATOM     21  C   UNL d   1      11.190   7.659  -7.185  0.00  0.00    -0.000 A 
ATOM     22  C   UNL d   1      11.607   8.538  -8.224  0.00  0.00    -0.000 A 
ATOM     23  C   UNL d   1      10.967   8.482  -9.461  0.00  0.00    -0.000 A 
ATOM     24  C   UNL d   1       9.933   7.570  -9.688  0.00  0.00    -0.002 A 
ENDBRANCH  18  19
ENDBRANCH  15  18
ENDBRANCH   9  12
BRANCH   1  25
ATOM     25  O   UNL d   1      11.246  -0.130 -18.841  0.00  0.00    -0.328 OA
ATOM     26  C   UNL d   1      12.547  -0.315 -19.379  0.00  0.00     0.181 C 
ENDBRANCH   1  25
TORSDOF 4
