REMARK  7 active torsions:
REMARK  status: ('A' for Active; 'I' for Inactive)
REMARK    1  A    between atoms: O_2  and  C_3 
REMARK    2  A    between atoms: C_7  and  N_8 
REMARK    3  A    between atoms: N_11  and  C_12 
REMARK    4  A    between atoms: C_12  and  C_13 
REMARK    5  A    between atoms: C_13  and  C_15 
REMARK    6  A    between atoms: C_15  and  N_16 
REMARK    7  A    between atoms: C_20  and  C_22 
ROOT
ATOM      1  C   UNL d   1       8.143   4.598 -11.801  0.00  0.00     0.208 C 
ATOM      2  O   UNL d   1       9.425   4.051 -12.069  0.00  0.00    -0.219 OA
ENDROOT
BRANCH   1   3
ATOM      3  C   UNL d   1       8.389   6.028 -11.289  0.00  0.00     0.285 C 
BRANCH   3   4
ATOM      4  N   UNL d   1       9.481   6.169 -10.321  0.00  0.00     0.144 N 
ATOM      5  C   UNL d   1       9.970   7.548 -10.272  0.00  0.00     0.274 C 
ATOM      6  C   UNL d   1      11.191   7.705  -9.350  0.00  0.00     0.137 C 
ATOM      7  N   UNL d   1      10.876   7.179  -8.019  0.00  0.00    -0.344 N 
ATOM      8  C   UNL d   1      10.272   5.854  -7.975  0.00  0.00     0.137 C 
ATOM      9  C   UNL d   1       9.102   5.748  -8.971  0.00  0.00     0.274 C 
BRANCH   7  10
ATOM     10  C   UNL d   1      11.037   7.941  -6.847  0.00  0.00     0.058 A 
ATOM     11  C   UNL d   1      10.895   9.342  -6.879  0.00  0.00     0.017 A 
ATOM     12  C   UNL d   1      11.075  10.114  -5.723  0.00  0.00     0.004 A 
ATOM     13  C   UNL d   1      11.407   9.503  -4.504  0.00  0.00     0.024 A 
ATOM     14  C   UNL d   1      11.555   8.095  -4.441  0.00  0.00     0.096 A 
ATOM     15  C   UNL d   1      11.348   7.328  -5.608  0.00  0.00     0.041 A 
BRANCH  14  16
ATOM     16  O   UNL d   1      11.889   7.410  -3.289  0.00  0.00    -0.328 OA
ATOM     17  C   UNL d   1      12.270   8.179  -2.159  0.00  0.00     0.181 C 
ENDBRANCH  14  16
ENDBRANCH   7  10
ENDBRANCH   3   4
ENDBRANCH   1   3
BRANCH   1  18
ATOM     18  C   UNL d   1       7.290   4.633 -13.090  0.00  0.00     0.148 C 
BRANCH  18  19
ATOM     19  N   UNL d   1       7.085   3.311 -13.694  0.00  0.00    -0.247 N 
ATOM     20  C   UNL d   1       7.993   2.701 -14.464  0.00  0.00     0.265 A 
ATOM     21  C   UNL d   1       7.455   1.340 -14.893  0.00  0.00     0.179 A 
ATOM     22  O   UNL d   1       9.105   3.139 -14.774  0.00  0.00    -0.269 OA
ATOM     23  N   UNL d   1       6.194   1.391 -14.169  0.00  0.00    -0.209 NA
ATOM     24  C   UNL d   1       8.315   0.193 -14.347  0.00  0.00     0.039 C 
ATOM     25  C   UNL d   1       6.000   2.541 -13.507  0.00  0.00     0.348 A 
ATOM     26  O   UNL d   1       5.020   2.814 -12.825  0.00  0.00    -0.245 OA
BRANCH  21  27
ATOM     27  C   UNL d   1       7.297   1.247 -16.420  0.00  0.00     0.006 A 
ATOM     28  C   UNL d   1       8.363   1.606 -17.282  0.00  0.00     0.000 A 
ATOM     29  C   UNL d   1       8.210   1.558 -18.678  0.00  0.00     0.029 A 
ATOM     30  C   UNL d   1       7.003   1.105 -19.238  0.00  0.00     0.140 A 
ATOM     31  C   UNL d   1       5.948   0.705 -18.398  0.00  0.00     0.029 A 
ATOM     32  F   UNL d   1       6.857   1.065 -20.584  0.00  0.00    -0.204 F 
ATOM     33  C   UNL d   1       6.097   0.768 -16.998  0.00  0.00     0.000 A 
ENDBRANCH  21  27
ENDBRANCH  18  19
ENDBRANCH   1  18
TORSDOF 7
