REMARK  7 active torsions:
REMARK  status: ('A' for Active; 'I' for Inactive)
REMARK       I    between atoms: C_2  and  N_3 
REMARK    1  A    between atoms: C_2  and  C_27 
REMARK    2  A    between atoms: N_3  and  C_4 
REMARK    3  A    between atoms: C_7  and  C_8 
REMARK    4  A    between atoms: C_8  and  C_9 
REMARK    5  A    between atoms: C_9  and  N_10 
REMARK    6  A    between atoms: C_13  and  C_14 
REMARK    7  A    between atoms: C_30  and  N_31 
ROOT
ATOM      1  C   UNL d   1       9.944   3.219 -14.996  0.00  0.00     0.107 C 
ATOM      2  C   UNL d   1       8.753   4.182 -14.992  0.00  0.00     0.024 C 
ATOM      3  C   UNL d   1       8.860   5.243 -13.906  0.00  0.00     0.002 C 
ATOM      4  C   UNL d   1       8.943   4.623 -12.527  0.00  0.00     0.002 C 
ATOM      5  C   UNL d   1      10.136   3.644 -12.533  0.00  0.00     0.002 C 
ATOM      6  C   UNL d   1      10.051   2.578 -13.625  0.00  0.00     0.024 C 
ENDROOT
BRANCH   4   7
ATOM      7  C   UNL d   1       9.175   5.763 -11.521  0.00  0.00     0.035 C 
BRANCH   7   8
ATOM      8  C   UNL d   1       8.716   5.385 -10.106  0.00  0.00     0.250 C 
BRANCH   8   9
ATOM      9  N   UNL d   1       9.184   6.320  -9.088  0.00  0.00     0.137 N 
ATOM     10  C   UNL d   1       8.662   5.817  -7.819  0.00  0.00     0.251 C 
ATOM     11  C   UNL d   1       9.050   6.768  -6.660  0.00  0.00     0.040 C 
ATOM     12  C   UNL d   1      10.567   6.957  -6.576  0.00  0.00     0.026 C 
ATOM     13  C   UNL d   1      11.114   7.328  -7.952  0.00  0.00     0.040 C 
ATOM     14  C   UNL d   1      10.646   6.347  -9.003  0.00  0.00     0.251 C 
BRANCH  12  15
ATOM     15  C   UNL d   1      10.952   8.009  -5.552  0.00  0.00    -0.024 A 
ATOM     16  C   UNL d   1      11.552   7.676  -4.323  0.00  0.00    -0.001 A 
ATOM     17  C   UNL d   1      11.872   8.620  -3.362  0.00  0.00     0.090 A 
ATOM     18  C   UNL d   1      11.867   6.336  -3.790  0.00  0.00     0.061 A 
ATOM     19  C   UNL d   1      11.601   9.955  -3.590  0.00  0.00     0.024 A 
ATOM     20  O   UNL d   1      12.406   8.078  -2.227  0.00  0.00    -0.331 OA
ATOM     21  C   UNL d   1      11.041  10.348  -4.831  0.00  0.00     0.002 A 
ATOM     22  C   UNL d   1      10.706   9.377  -5.795  0.00  0.00    -0.004 A 
ATOM     23  C   UNL d   1      12.412   6.641  -2.388  0.00  0.00     0.154 A 
ENDBRANCH  12  15
ENDBRANCH   8   9
ENDBRANCH   7   8
ENDBRANCH   4   7
BRANCH   1  24
ATOM     24  N   UNL d   1       9.742   2.182 -15.987  0.00  0.00    -0.236 NA
ATOM     25  C   UNL d   1       9.945   2.346 -17.302  0.00  0.00     0.275 C 
ATOM     26  O   UNL d   1      10.478   3.341 -17.782  0.00  0.00    -0.266 OA
BRANCH  25  27
ATOM     27  C   UNL d   1       9.369   1.267 -18.182  0.00  0.00     0.058 A 
ATOM     28  C   UNL d   1       9.020  -0.003 -17.679  0.00  0.00     0.006 A 
ATOM     29  C   UNL d   1       8.461  -0.983 -18.529  0.00  0.00     0.017 A 
ATOM     30  C   UNL d   1       8.262  -0.714 -19.902  0.00  0.00     0.056 A 
ATOM     31  C   UNL d   1       8.628   0.554 -20.402  0.00  0.00     0.017 A 
ATOM     32  C   UNL d   1       9.166   1.537 -19.550  0.00  0.00     0.006 A 
BRANCH  30  33
ATOM     33  N   UNL d   1       7.708  -1.698 -20.777  0.00  0.00    -0.343 N 
ATOM     34  C   UNL d   1       6.995  -1.327 -21.991  0.00  0.00     0.134 C 
ATOM     35  C   UNL d   1       5.597  -1.972 -21.988  0.00  0.00     0.167 C 
ATOM     36  O   UNL d   1       5.713  -3.380 -21.796  0.00  0.00    -0.350 OA
ATOM     37  C   UNL d   1       6.314  -3.700 -20.546  0.00  0.00     0.167 C 
ATOM     38  C   UNL d   1       7.741  -3.119 -20.485  0.00  0.00     0.134 C 
ENDBRANCH  30  33
ENDBRANCH  25  27
ENDBRANCH   1  24
TORSDOF 7
