REMARK  4 active torsions:
REMARK  status: ('A' for Active; 'I' for Inactive)
REMARK    1  A    between atoms: C_3  and  S_4 
REMARK    2  A    between atoms: S_4  and  N_7 
REMARK    3  A    between atoms: N_7  and  C_8 
REMARK    4  A    between atoms: C_15  and  N_16 
ROOT
ATOM      1  C   UNL d   1       7.150   4.626 -12.397  0.00  0.00     0.094 A 
ATOM      2  C   UNL d   1       5.907   4.095 -12.040  0.00  0.00     0.021 A 
ATOM      3  C   UNL d   1       5.439   2.926 -12.673  0.00  0.00     0.021 A 
ATOM      4  C   UNL d   1       6.200   2.241 -13.650  0.00  0.00     0.083 A 
ATOM      5  N   UNL d   1       5.731   1.088 -14.177  0.00  0.00    -0.244 NA
ATOM      6  C   UNL d   1       6.446   0.481 -15.141  0.00  0.00     0.100 A 
ATOM      7  C   UNL d   1       7.702   0.942 -15.584  0.00  0.00     0.038 A 
ATOM      8  C   UNL d   1       8.246   2.105 -15.005  0.00  0.00     0.059 A 
ATOM      9  C   UNL d   1       7.452   2.787 -14.035  0.00  0.00     0.035 A 
ATOM     10  C   UNL d   1       7.894   3.983 -13.419  0.00  0.00     0.023 A 
ENDROOT
BRANCH   1  11
ATOM     11  N   UNL d   1       7.641   5.751 -11.709  0.00  0.00    -0.158 NA
BRANCH  11  12
ATOM     12  S   UNL d   1       9.192   6.508 -11.888  0.00  0.00     0.291 S 
ATOM     13  O   UNL d   1       8.938   7.752 -12.661  0.00  0.00    -0.198 OA
ATOM     14  O   UNL d   1      10.130   5.512 -12.340  0.00  0.00    -0.198 OA
BRANCH  12  15
ATOM     15  C   UNL d   1       9.715   7.095 -10.315  0.00  0.00     0.131 A 
ATOM     16  C   UNL d   1       9.855   6.277  -9.241  0.00  0.00    -0.003 A 
ATOM     17  C   UNL d   1       9.542   4.809  -9.262  0.00  0.00     0.032 C 
ATOM     18  C   UNL d   1      10.364   7.034  -8.125  0.00  0.00     0.004 A 
ATOM     19  C   UNL d   1      10.617   8.407  -8.432  0.00  0.00     0.030 A 
ATOM     20  C   UNL d   1      10.655   6.629  -6.813  0.00  0.00     0.012 A 
ATOM     21  S   UNL d   1      10.231   8.741 -10.093  0.00  0.00    -0.074 SA
ATOM     22  C   UNL d   1      11.111   9.301  -7.469  0.00  0.00     0.007 A 
ATOM     23  C   UNL d   1      11.355   8.863  -6.162  0.00  0.00     0.012 A 
ATOM     24  C   UNL d   1      11.122   7.519  -5.838  0.00  0.00     0.058 A 
ATOM     25 CL   UNL d   1      11.455   6.944  -4.255  0.00  0.00    -0.082 Cl
ENDBRANCH  12  15
ENDBRANCH  11  12
ENDBRANCH   1  11
BRANCH   8  26
ATOM     26  N   UNL d   1       9.536   2.524 -15.397  0.00  0.00    -0.344 N 
ATOM     27  C   UNL d   1      10.661   2.677 -14.480  0.00  0.00     0.137 C 
ATOM     28  C   UNL d   1      11.273   4.098 -14.631  0.00  0.00     0.274 C 
ATOM     29  N   UNL d   1      11.648   4.384 -16.018  0.00  0.00     0.143 N 
ATOM     30  C   UNL d   1      10.416   4.326 -16.824  0.00  0.00     0.274 C 
ATOM     31  C   UNL d   1      12.165   5.753 -16.045  0.00  0.00     0.286 C 
ATOM     32  C   UNL d   1       9.804   2.909 -16.774  0.00  0.00     0.137 C 
ENDBRANCH   8  26
TORSDOF 4
