REMARK  6 active torsions:
REMARK  status: ('A' for Active; 'I' for Inactive)
REMARK    1  A    between atoms: C_6  and  C_7 
REMARK       I    between atoms: C_7  and  N_9 
REMARK    2  A    between atoms: N_9  and  C_10 
REMARK    3  A    between atoms: C_13  and  C_14 
REMARK    4  A    between atoms: C_14  and  C_15 
REMARK    5  A    between atoms: C_15  and  N_16 
REMARK    6  A    between atoms: C_19  and  C_20 
ROOT
ATOM      1  N   UNL d   1       4.289  -2.877 -20.408  0.00  0.00    -0.191 NA
ATOM      2  C   UNL d   1       4.533  -2.311 -19.431  0.00  0.00     0.101 C 
ATOM      3  C   UNL d   1       4.843  -1.597 -18.204  0.00  0.00     0.068 A 
ATOM      4  C   UNL d   1       5.973  -0.762 -18.140  0.00  0.00     0.010 A 
ATOM      5  C   UNL d   1       6.285  -0.090 -16.944  0.00  0.00     0.005 A 
ATOM      6  C   UNL d   1       5.454  -0.243 -15.804  0.00  0.00     0.058 A 
ATOM      7  C   UNL d   1       4.331  -1.088 -15.872  0.00  0.00     0.005 A 
ATOM      8  C   UNL d   1       4.015  -1.746 -17.076  0.00  0.00     0.010 A 
ENDROOT
BRANCH   6   9
ATOM      9  C   UNL d   1       5.772   0.461 -14.521  0.00  0.00     0.275 C 
ATOM     10  O   UNL d   1       5.468  -0.026 -13.426  0.00  0.00    -0.266 OA
ATOM     11  N   UNL d   1       6.286   1.681 -14.678  0.00  0.00    -0.236 NA
BRANCH  11  12
ATOM     12  C   UNL d   1       6.540   2.660 -13.633  0.00  0.00     0.107 C 
ATOM     13  C   UNL d   1       5.699   3.932 -13.794  0.00  0.00     0.024 C 
ATOM     14  C   UNL d   1       6.073   4.992 -12.757  0.00  0.00     0.002 C 
ATOM     15  C   UNL d   1       7.593   5.324 -12.756  0.00  0.00     0.002 C 
ATOM     16  C   UNL d   1       8.402   4.015 -12.641  0.00  0.00     0.002 C 
ATOM     17  C   UNL d   1       8.037   2.993 -13.687  0.00  0.00     0.024 C 
BRANCH  15  18
ATOM     18  C   UNL d   1       7.895   6.317 -11.620  0.00  0.00     0.035 C 
BRANCH  18  19
ATOM     19  C   UNL d   1       9.388   6.501 -11.280  0.00  0.00     0.250 C 
BRANCH  19  20
ATOM     20  N   UNL d   1       9.636   7.175 -10.023  0.00  0.00     0.137 N 
ATOM     21  C   UNL d   1       9.260   6.321  -8.887  0.00  0.00     0.251 C 
ATOM     22  C   UNL d   1       9.465   7.077  -7.574  0.00  0.00     0.040 C 
ATOM     23  C   UNL d   1      10.920   7.536  -7.412  0.00  0.00     0.028 C 
ATOM     24  C   UNL d   1      11.380   8.256  -8.697  0.00  0.00     0.040 C 
ATOM     25  C   UNL d   1      11.061   7.460  -9.968  0.00  0.00     0.251 C 
BRANCH  23  26
ATOM     26  C   UNL d   1      11.074   8.390  -6.197  0.00  0.00     0.004 A 
ATOM     27  C   UNL d   1      11.473   7.987  -4.891  0.00  0.00     0.021 A 
ATOM     28  C   UNL d   1      11.485   9.166  -4.105  0.00  0.00     0.100 A 
ATOM     29  C   UNL d   1      11.860   6.788  -4.248  0.00  0.00     0.002 A 
ATOM     30  O   UNL d   1      11.054  10.228  -4.859  0.00  0.00    -0.305 OA
ATOM     31  C   UNL d   1      11.876   9.193  -2.763  0.00  0.00     0.025 A 
ATOM     32  C   UNL d   1      10.852   9.734  -6.111  0.00  0.00     0.118 A 
ATOM     33  C   UNL d   1      12.263   7.985  -2.149  0.00  0.00     0.002 A 
ATOM     34  C   UNL d   1      12.250   6.788  -2.889  0.00  0.00     0.000 A 
ENDBRANCH  23  26
ENDBRANCH  19  20
ENDBRANCH  18  19
ENDBRANCH  15  18
ENDBRANCH  11  12
ENDBRANCH   6   9
TORSDOF 6
