REMARK  6 active torsions:
REMARK  status: ('A' for Active; 'I' for Inactive)
REMARK       I    between atoms: C_2  and  N_3 
REMARK    1  A    between atoms: C_2  and  C_30 
REMARK    2  A    between atoms: N_3  and  C_4 
REMARK    3  A    between atoms: C_10  and  C_11 
REMARK    4  A    between atoms: C_11  and  C_12 
REMARK    5  A    between atoms: C_12  and  N_13 
REMARK    6  A    between atoms: N_16  and  C_17 
ROOT
ATOM      1  C   UNL d   1       4.893  -0.265 -19.779  0.00  0.00     0.129 C 
ATOM      2  C   UNL d   1       3.810  -1.350 -19.919  0.00  0.00     0.034 C 
ATOM      3  C   UNL d   1       3.741  -2.178 -18.625  0.00  0.00     0.028 C 
ATOM      4  C   UNL d   1       4.571  -1.375 -17.674  0.00  0.00    -0.024 A 
ATOM      5  C   UNL d   1       4.758  -1.625 -16.306  0.00  0.00    -0.005 A 
ATOM      6  C   UNL d   1       5.634  -0.781 -15.591  0.00  0.00    -0.005 A 
ATOM      7  C   UNL d   1       6.294   0.297 -16.235  0.00  0.00    -0.020 A 
ATOM      8  C   UNL d   1       6.085   0.537 -17.611  0.00  0.00    -0.007 A 
ATOM      9  C   UNL d   1       5.213  -0.317 -18.311  0.00  0.00    -0.004 A 
ENDROOT
BRANCH   7  10
ATOM     10  C   UNL d   1       7.226   1.178 -15.434  0.00  0.00     0.062 C 
BRANCH  10  11
ATOM     11  C   UNL d   1       6.471   2.339 -14.788  0.00  0.00     0.255 C 
BRANCH  11  12
ATOM     12  N   UNL d   1       7.181   2.939 -13.675  0.00  0.00     0.141 N 
ATOM     13  C   UNL d   1       8.453   3.558 -14.062  0.00  0.00     0.274 C 
ATOM     14  C   UNL d   1       9.202   4.032 -12.805  0.00  0.00     0.138 C 
ATOM     15  N   UNL d   1       8.368   4.885 -11.986  0.00  0.00    -0.329 N 
ATOM     16  C   UNL d   1       7.026   4.415 -11.709  0.00  0.00     0.138 C 
ATOM     17  C   UNL d   1       6.332   3.915 -12.995  0.00  0.00     0.274 C 
BRANCH  15  18
ATOM     18  C   UNL d   1       8.760   6.190 -11.647  0.00  0.00     0.148 A 
ATOM     19  C   UNL d   1       9.457   6.499 -10.415  0.00  0.00     0.042 A 
ATOM     20  C   UNL d   1       9.728   7.893 -10.356  0.00  0.00     0.050 A 
ATOM     21  C   UNL d   1       9.859   5.717  -9.314  0.00  0.00     0.004 A 
ATOM     22  S   UNL d   1       9.065   8.605 -11.813  0.00  0.00     0.015 SA
ATOM     23  C   UNL d   1      10.345   8.495  -9.239  0.00  0.00     0.008 A 
ATOM     24  N   UNL d   1       8.456   7.188 -12.441  0.00  0.00    -0.192 NA
ATOM     25  C   UNL d   1      10.716   7.692  -8.144  0.00  0.00     0.001 A 
ATOM     26  C   UNL d   1      10.468   6.306  -8.184  0.00  0.00     0.000 A 
ENDBRANCH  15  18
ENDBRANCH  11  12
ENDBRANCH  10  11
ENDBRANCH   7  10
BRANCH   1  27
ATOM     27  N   UNL d   1       6.039  -0.596 -20.607  0.00  0.00    -0.232 NA
ATOM     28  C   UNL d   1       7.042   0.233 -20.933  0.00  0.00     0.275 C 
ATOM     29  O   UNL d   1       7.072   1.423 -20.631  0.00  0.00    -0.266 OA
BRANCH  28  30
ATOM     30  C   UNL d   1       8.207  -0.444 -21.593  0.00  0.00     0.058 A 
ATOM     31  C   UNL d   1       9.506   0.085 -21.409  0.00  0.00     0.006 A 
ATOM     32  C   UNL d   1      10.614  -0.526 -22.032  0.00  0.00     0.012 A 
ATOM     33  C   UNL d   1      10.428  -1.656 -22.851  0.00  0.00     0.058 A 
ATOM     34  C   UNL d   1       9.137  -2.184 -23.039  0.00  0.00     0.012 A 
ATOM     35 CL   UNL d   1      11.780  -2.405 -23.618  0.00  0.00    -0.082 Cl
ATOM     36  C   UNL d   1       8.031  -1.573 -22.422  0.00  0.00     0.006 A 
ENDBRANCH  28  30
ENDBRANCH   1  27
TORSDOF 6
