REMARK  0 active torsions:
REMARK  status: ('A' for Active; 'I' for Inactive)
ROOT
ATOM      1  C   UNL d   1      11.252   0.584 -18.209  0.00  0.00     0.286 C 
ATOM      2  N   UNL d   1      10.615   1.036 -16.982  0.00  0.00     0.144 N 
ATOM      3  C   UNL d   1      10.541   2.503 -16.947  0.00  0.00     0.257 C 
ATOM      4  C   UNL d   1       9.998   2.989 -15.577  0.00  0.00     0.079 C 
ATOM      5  C   UNL d   1       8.750   2.251 -15.189  0.00  0.00     0.041 A 
ATOM      6  C   UNL d   1       8.416   1.060 -15.799  0.00  0.00     0.024 A 
ATOM      7  C   UNL d   1       7.192   0.723 -15.197  0.00  0.00     0.015 A 
ATOM      8  C   UNL d   1       6.431  -0.401 -15.497  0.00  0.00     0.001 A 
ATOM      9  C   UNL d   1       5.219  -0.594 -14.812  0.00  0.00    -0.000 A 
ATOM     10  C   UNL d   1       4.783   0.367 -13.889  0.00  0.00    -0.003 A 
ATOM     11  C   UNL d   1       5.569   1.510 -13.620  0.00  0.00    -0.006 A 
ATOM     12  C   UNL d   1       6.820   1.668 -14.278  0.00  0.00     0.059 A 
ATOM     13  N   UNL d   1       7.793   2.608 -14.209  0.00  0.00    -0.311 N 
ATOM     14  C   UNL d   1       7.899   3.729 -13.334  0.00  0.00     0.060 A 
ATOM     15  C   UNL d   1       9.154   4.060 -12.770  0.00  0.00     0.017 A 
ATOM     16  C   UNL d   1       9.299   5.187 -11.939  0.00  0.00     0.002 A 
ATOM     17  C   UNL d   1       8.183   5.983 -11.640  0.00  0.00    -0.000 A 
ATOM     18  C   UNL d   1       6.921   5.634 -12.140  0.00  0.00    -0.003 A 
ATOM     19  C   UNL d   1       6.772   4.500 -12.967  0.00  0.00    -0.006 A 
ATOM     20  C   UNL d   1       5.385   4.071 -13.362  0.00  0.00     0.033 C 
ATOM     21  C   UNL d   1       5.077   2.682 -12.788  0.00  0.00     0.033 C 
ATOM     22  C   UNL d   1       9.264   0.475 -16.879  0.00  0.00     0.278 C 
ENDROOT
TORSDOF 0
