REMARK  5 active torsions:
REMARK  status: ('A' for Active; 'I' for Inactive)
REMARK    1  A    between atoms: C_13  and  C_15 
REMARK    2  A    between atoms: C_15  and  O_16 
REMARK    3  A    between atoms: O_16  and  C_17 
REMARK    4  A    between atoms: C_20  and  C_21 
REMARK    5  A    between atoms: C_21  and  C_22 
ROOT
ATOM      1  C   UNL d   1       8.748   5.301 -12.554  0.00  0.00     0.176 C 
ENDROOT
BRANCH   1   2
ATOM      2  C   UNL d   1       9.040   4.147 -13.529  0.00  0.00     0.127 C 
ATOM      3  C   UNL d   1       9.420   4.732 -14.902  0.00  0.00     0.035 C 
ATOM      4  C   UNL d   1       9.675   3.619 -15.913  0.00  0.00     0.031 C 
ATOM      5  C   UNL d   1       8.658   2.490 -15.786  0.00  0.00    -0.002 A 
ATOM      6  C   UNL d   1       7.792   2.441 -14.661  0.00  0.00     0.085 A 
ATOM      7  C   UNL d   1       8.569   1.499 -16.789  0.00  0.00     0.001 A 
ATOM      8  C   UNL d   1       6.822   1.420 -14.551  0.00  0.00    -0.002 A 
ATOM      9  O   UNL d   1       7.844   3.387 -13.659  0.00  0.00    -0.334 OA
ATOM     10  C   UNL d   1       6.721   0.435 -15.562  0.00  0.00     0.001 A 
ATOM     11  C   UNL d   1       5.886   1.391 -13.342  0.00  0.00     0.033 C 
ATOM     12  C   UNL d   1       5.674  -0.666 -15.444  0.00  0.00     0.033 C 
ATOM     13  C   UNL d   1       7.599   0.478 -16.672  0.00  0.00     0.122 A 
ATOM     14  O   UNL d   1       7.513  -0.477 -17.640  0.00  0.00    -0.191 OA
ATOM     15  C   UNL d   1       9.512   1.548 -17.986  0.00  0.00     0.033 C 
ATOM     16  C   UNL d   1      10.189   3.295 -12.968  0.00  0.00     0.033 C 
ENDBRANCH   1   2
BRANCH   1  17
ATOM     17  O   UNL d   1       8.631   4.868 -11.200  0.00  0.00    -0.328 OA
BRANCH  17  18
ATOM     18  C   UNL d   1       8.992   5.746 -10.200  0.00  0.00     0.094 A 
ATOM     19  C   UNL d   1       9.610   6.992 -10.474  0.00  0.00     0.024 A 
ATOM     20  C   UNL d   1       9.913   7.877  -9.424  0.00  0.00    -0.002 A 
ATOM     21  C   UNL d   1       9.599   7.536  -8.096  0.00  0.00    -0.021 A 
ATOM     22  C   UNL d   1       9.005   6.290  -7.809  0.00  0.00    -0.002 A 
ATOM     23  C   UNL d   1       8.716   5.398  -8.859  0.00  0.00     0.024 A 
BRANCH  21  24
ATOM     24  C   UNL d   1       9.893   8.543  -7.010  0.00  0.00     0.047 C 
BRANCH  24  25
ATOM     25  C   UNL d   1      11.278   8.297  -6.387  0.00  0.00     0.141 A 
ATOM     26  C   UNL d   1      11.753   9.497  -5.556  0.00  0.00     0.269 A 
ATOM     27  N   UNL d   1      12.052   9.191  -4.282  0.00  0.00    -0.167 NA
ATOM     28  O   UNL d   1      11.843  10.623  -6.038  0.00  0.00    -0.269 OA
ATOM     29  C   UNL d   1      11.863   7.926  -3.931  0.00  0.00     0.309 A 
ATOM     30  S   UNL d   1      11.280   6.918  -5.223  0.00  0.00    -0.043 SA
ATOM     31  O   UNL d   1      12.091   7.493  -2.807  0.00  0.00    -0.258 OA
ENDBRANCH  24  25
ENDBRANCH  21  24
ENDBRANCH  17  18
ENDBRANCH   1  17
TORSDOF 5
