REMARK  4 active torsions:
REMARK  status: ('A' for Active; 'I' for Inactive)
REMARK    1  A    between atoms: N_4  and  C_5 
REMARK    2  A    between atoms: C_5  and  C_6 
REMARK    3  A    between atoms: C_6  and  C_7 
REMARK    4  A    between atoms: C_10  and  N_11 
REMARK       I    between atoms: N_11  and  C_12 
REMARK       I    between atoms: C_12  and  N_14 
ROOT
ATOM      1  C   UNL d   1       6.480   3.978 -12.137  0.00  0.00     0.250 C 
ENDROOT
BRANCH   1   2
ATOM      2  N   UNL d   1       6.256   2.825 -13.015  0.00  0.00     0.138 N 
ATOM      3  C   UNL d   1       6.387   3.102 -14.432  0.00  0.00     0.255 C 
ATOM      4  C   UNL d   1       6.931   1.881 -15.226  0.00  0.00     0.055 C 
ATOM      5  C   UNL d   1       8.235   1.305 -14.638  0.00  0.00     0.007 C 
ATOM      6  C   UNL d   1       5.924   0.769 -15.493  0.00  0.00    -0.024 A 
ATOM      7  C   UNL d   1       5.155   0.156 -14.470  0.00  0.00    -0.024 A 
ATOM      8  C   UNL d   1       5.764   0.326 -16.829  0.00  0.00     0.007 A 
ATOM      9  C   UNL d   1       5.281   0.549 -13.007  0.00  0.00     0.061 C 
ATOM     10  C   UNL d   1       4.243  -0.872 -14.806  0.00  0.00    -0.004 A 
ATOM     11  C   UNL d   1       5.081   2.043 -12.681  0.00  0.00     0.255 C 
ATOM     12  C   UNL d   1       4.100  -1.302 -16.139  0.00  0.00     0.011 A 
ATOM     13  C   UNL d   1       4.858  -0.709 -17.151  0.00  0.00     0.057 A 
ATOM     14 CL   UNL d   1       4.658  -1.216 -18.786  0.00  0.00    -0.082 Cl
ENDBRANCH   1   2
BRANCH   1  15
ATOM     15  C   UNL d   1       7.954   4.453 -12.164  0.00  0.00     0.035 C 
BRANCH  15  16
ATOM     16  C   UNL d   1       8.289   5.466 -11.045  0.00  0.00     0.002 C 
ATOM     17  C   UNL d   1       9.459   6.376 -11.452  0.00  0.00     0.002 C 
ATOM     18  C   UNL d   1       9.873   7.354 -10.338  0.00  0.00     0.025 C 
ATOM     19  C   UNL d   1      10.184   6.620  -9.026  0.00  0.00     0.108 C 
ATOM     20  C   UNL d   1       8.995   5.736  -8.608  0.00  0.00     0.025 C 
ATOM     21  C   UNL d   1       8.624   4.751  -9.718  0.00  0.00     0.002 C 
BRANCH  19  22
ATOM     22  N   UNL d   1      10.472   7.584  -7.974  0.00  0.00    -0.221 NA
ATOM     23  C   UNL d   1      11.163   7.317  -6.852  0.00  0.00     0.342 C 
ATOM     24  O   UNL d   1      11.813   6.286  -6.712  0.00  0.00    -0.245 OA
ATOM     25  N   UNL d   1      11.082   8.269  -5.892  0.00  0.00    -0.297 N 
ATOM     26  C   UNL d   1      10.255   9.466  -6.015  0.00  0.00     0.130 C 
ATOM     27  C   UNL d   1      11.788   8.120  -4.618  0.00  0.00     0.130 C 
ENDBRANCH  19  22
ENDBRANCH  15  16
ENDBRANCH   1  15
TORSDOF 4
