REMARK  7 active torsions:
REMARK  status: ('A' for Active; 'I' for Inactive)
REMARK    1  A    between atoms: O_2  and  C_3 
REMARK    2  A    between atoms: C_3  and  C_4 
REMARK       I    between atoms: C_4  and  N_6 
REMARK    3  A    between atoms: N_6  and  C_7 
REMARK    4  A    between atoms: C_10  and  C_11 
REMARK    5  A    between atoms: C_11  and  C_12 
REMARK    6  A    between atoms: C_12  and  N_13 
REMARK    7  A    between atoms: N_16  and  C_17 
ROOT
ATOM      1  N   UNL d   1       8.780   5.200 -12.294  0.00  0.00     0.141 N 
ATOM      2  C   UNL d   1       7.505   4.664 -11.791  0.00  0.00     0.274 C 
ATOM      3  C   UNL d   1       6.573   4.288 -12.947  0.00  0.00     0.138 C 
ATOM      4  N   UNL d   1       7.247   3.366 -13.859  0.00  0.00    -0.330 N 
ATOM      5  C   UNL d   1       8.582   3.787 -14.278  0.00  0.00     0.138 C 
ATOM      6  C   UNL d   1       9.445   4.157 -13.076  0.00  0.00     0.274 C 
ENDROOT
BRANCH   1   7
ATOM      7  C   UNL d   1       9.678   5.554 -11.205  0.00  0.00     0.250 C 
BRANCH   7   8
ATOM      8  C   UNL d   1       9.128   6.685 -10.348  0.00  0.00     0.035 C 
BRANCH   8   9
ATOM      9  C   UNL d   1      10.081   7.127  -9.235  0.00  0.00     0.002 C 
ATOM     10  C   UNL d   1       9.699   8.545  -8.772  0.00  0.00     0.002 C 
ATOM     11  C   UNL d   1      10.607   9.013  -7.637  0.00  0.00     0.024 C 
ATOM     12  C   UNL d   1      10.560   8.049  -6.457  0.00  0.00     0.106 C 
ATOM     13  C   UNL d   1      10.938   6.626  -6.904  0.00  0.00     0.024 C 
ATOM     14  C   UNL d   1      10.041   6.138  -8.053  0.00  0.00     0.002 C 
BRANCH  12  15
ATOM     15  N   UNL d   1      11.475   8.478  -5.418  0.00  0.00    -0.238 NA
ATOM     16  C   UNL d   1      11.306   9.536  -4.609  0.00  0.00     0.282 C 
ATOM     17  O   UNL d   1      10.465  10.397  -4.785  0.00  0.00    -0.268 OA
BRANCH  16  18
ATOM     18  C   UNL d   1      12.220   9.568  -3.386  0.00  0.00     0.232 C 
BRANCH  18  19
ATOM     19  O   UNL d   1      11.931   8.439  -2.553  0.00  0.00    -0.342 OA
ATOM     20  C   UNL d   1      12.393   7.158  -2.977  0.00  0.00     0.175 C 
ENDBRANCH  18  19
ENDBRANCH  16  18
ENDBRANCH  12  15
ENDBRANCH   8   9
ENDBRANCH   7   8
ENDBRANCH   1   7
BRANCH   4  21
ATOM     21  C   UNL d   1       6.676   2.146 -14.252  0.00  0.00     0.141 A 
ATOM     22  C   UNL d   1       6.945   1.534 -15.524  0.00  0.00     0.040 A 
ATOM     23  C   UNL d   1       6.296   0.285 -15.788  0.00  0.00     0.034 A 
ATOM     24  C   UNL d   1       7.744   1.966 -16.663  0.00  0.00     0.011 A 
ATOM     25  C   UNL d   1       5.435  -0.299 -14.848  0.00  0.00     0.027 A 
ATOM     26  S   UNL d   1       6.714  -0.329 -17.384  0.00  0.00    -0.086 SA
ATOM     27  C   UNL d   1       5.226   0.388 -13.646  0.00  0.00     0.101 A 
ATOM     28  N   UNL d   1       5.822   1.558 -13.368  0.00  0.00    -0.227 NA
ATOM     29  C   UNL d   1       7.731   1.046 -17.678  0.00  0.00     0.035 A 
ENDBRANCH   4  21
TORSDOF 7
