REMARK  11 active torsions:
REMARK  status: ('A' for Active; 'I' for Inactive)
REMARK    1  A    between atoms: S_2  and  C_3 
REMARK    2  A    between atoms: S_2  and  C_22 
REMARK    3  A    between atoms: C_3  and  C_4 
REMARK    4  A    between atoms: C_4  and  N_5 
REMARK    5  A    between atoms: N_5  and  C_6 
REMARK    6  A    between atoms: N_9  and  C_10 
REMARK    7  A    between atoms: C_10  and  C_11 
REMARK    8  A    between atoms: C_11  and  C_13 
REMARK    9  A    between atoms: C_13  and  C_14 
REMARK   10  A    between atoms: C_22  and  C_23 
REMARK   11  A    between atoms: C_22  and  C_30 
ROOT
ATOM      1  C   UNL d   1       8.588   5.038 -14.094  0.00  0.00     0.131 C 
ENDROOT
BRANCH   1   2
ATOM      2  S   UNL d   1       7.611   3.520 -13.636  0.00  0.00     0.051 S 
ATOM      3  O   UNL d   1       6.152   3.963 -13.475  0.00  0.00    -0.256 OA
BRANCH   2   4
ATOM      4  C   UNL d   1       7.738   2.509 -15.210  0.00  0.00     0.124 C 
BRANCH   4   5
ATOM      5  C   UNL d   1       7.089   1.173 -15.108  0.00  0.00    -0.006 A 
ATOM      6  C   UNL d   1       6.210   0.793 -16.141  0.00  0.00    -0.001 A 
ATOM      7  C   UNL d   1       5.506  -0.407 -16.043  0.00  0.00     0.029 A 
ATOM      8  C   UNL d   1       5.743  -1.222 -14.912  0.00  0.00     0.140 A 
ATOM      9  C   UNL d   1       6.658  -0.844 -13.911  0.00  0.00     0.029 A 
ATOM     10  F   UNL d   1       5.119  -2.410 -14.873  0.00  0.00    -0.204 F 
ATOM     11  C   UNL d   1       7.368   0.361 -14.011  0.00  0.00    -0.001 A 
ENDBRANCH   4   5
BRANCH   4  12
ATOM     12  C   UNL d   1       9.131   2.473 -15.793  0.00  0.00    -0.006 A 
ATOM     13  C   UNL d   1       9.332   2.813 -17.152  0.00  0.00    -0.001 A 
ATOM     14  C   UNL d   1      10.637   2.760 -17.690  0.00  0.00     0.029 A 
ATOM     15  C   UNL d   1      11.706   2.381 -16.864  0.00  0.00     0.140 A 
ATOM     16  C   UNL d   1      11.480   2.056 -15.518  0.00  0.00     0.029 A 
ATOM     17  F   UNL d   1      12.952   2.339 -17.377  0.00  0.00    -0.204 F 
ATOM     18  C   UNL d   1      10.198   2.088 -14.976  0.00  0.00    -0.001 A 
ENDBRANCH   4  12
ENDBRANCH   2   4
ENDBRANCH   1   2
BRANCH   1  19
ATOM     19  C   UNL d   1       8.357   6.076 -13.009  0.00  0.00     0.304 C 
BRANCH  19  20
ATOM     20  N   UNL d   1       9.121   5.740 -11.820  0.00  0.00     0.338 N 
BRANCH  20  21
ATOM     21  C   UNL d   1       8.963   6.834 -10.855  0.00  0.00     0.261 C 
ATOM     22  C   UNL d   1       9.230   6.260  -9.424  0.00  0.00     0.071 C 
ATOM     23  C   UNL d   1       9.253   7.358  -8.373  0.00  0.00     0.252 C 
ATOM     24  N   UNL d   1      10.264   8.361  -8.669  0.00  0.00     0.140 N 
ATOM     25  C   UNL d   1       9.953   9.008  -9.949  0.00  0.00     0.252 C 
ATOM     26  C   UNL d   1       9.935   8.021 -11.108  0.00  0.00     0.071 C 
BRANCH  24  27
ATOM     27  C   UNL d   1      10.288   9.386  -7.623  0.00  0.00     0.283 C 
BRANCH  27  28
ATOM     28  C   UNL d   1      10.486   8.955  -6.165  0.00  0.00     0.190 C 
ATOM     29  O   UNL d   1      10.402  10.062  -5.274  0.00  0.00    -0.221 OA
BRANCH  28  30
ATOM     30  C   UNL d   1      11.890   8.460  -5.962  0.00  0.00     0.061 C 
BRANCH  30  31
ATOM     31  C   UNL d   1      12.091   8.085  -4.517  0.00  0.00    -0.020 A 
ATOM     32  C   UNL d   1      11.838   6.774  -4.122  0.00  0.00    -0.004 A 
ATOM     33  C   UNL d   1      12.084   6.424  -2.786  0.00  0.00    -0.000 A 
ATOM     34  C   UNL d   1      12.565   7.356  -1.878  0.00  0.00    -0.000 A 
ATOM     35  C   UNL d   1      12.760   8.680  -2.242  0.00  0.00    -0.000 A 
ATOM     36  C   UNL d   1      12.563   9.051  -3.594  0.00  0.00    -0.004 A 
ENDBRANCH  30  31
ENDBRANCH  28  30
ENDBRANCH  27  28
ENDBRANCH  24  27
ENDBRANCH  20  21
ENDBRANCH  19  20
ENDBRANCH   1  19
TORSDOF 11
