REMARK  3 active torsions:
REMARK  status: ('A' for Active; 'I' for Inactive)
REMARK    1  A    between atoms: C_2  and  C_5 
REMARK    2  A    between atoms: C_8  and  C_9 
REMARK    3  A    between atoms: C_9  and  N_10 
ROOT
ATOM      1  N   UNL d   1       9.096   5.678  -9.928  0.00  0.00     0.141 N 
ATOM      2  C   UNL d   1       8.496   4.431 -10.352  0.00  0.00     0.251 C 
ATOM      3  C   UNL d   1       9.283   3.979 -11.612  0.00  0.00     0.043 C 
ATOM      4  C   UNL d   1       9.093   4.937 -12.780  0.00  0.00     0.060 C 
ATOM      5  C   UNL d   1       7.612   5.014 -13.186  0.00  0.00     0.012 C 
ATOM      6  C   UNL d   1       7.052   3.703 -13.728  0.00  0.00     0.027 C 
ATOM      7  C   UNL d   1       7.948   3.106 -14.797  0.00  0.00    -0.019 A 
ATOM      8  C   UNL d   1       7.339   2.295 -15.785  0.00  0.00    -0.004 A 
ATOM      9  C   UNL d   1       8.082   1.857 -16.895  0.00  0.00    -0.000 A 
ATOM     10  C   UNL d   1       9.421   2.217 -17.038  0.00  0.00     0.000 A 
ATOM     11  C   UNL d   1      10.051   3.043 -16.050  0.00  0.00     0.003 A 
ATOM     12  C   UNL d   1       9.288   3.516 -14.961  0.00  0.00     0.031 A 
ATOM     13  C   UNL d   1       9.971   4.449 -13.979  0.00  0.00     0.172 C 
ATOM     14  O   UNL d   1      11.144   4.774 -14.071  0.00  0.00    -0.291 OA
ATOM     15  C   UNL d   1       9.584   6.285 -12.248  0.00  0.00     0.043 C 
ATOM     16  C   UNL d   1       8.867   6.694 -10.966  0.00  0.00     0.251 C 
ENDROOT
BRANCH   1  17
ATOM     17  C   UNL d   1       8.439   6.067  -8.690  0.00  0.00     0.277 C 
BRANCH  17  18
ATOM     18  C   UNL d   1       9.261   6.975  -7.805  0.00  0.00     0.011 A 
ATOM     19  C   UNL d   1      10.143   6.356  -6.938  0.00  0.00    -0.003 A 
ATOM     20  C   UNL d   1      10.916   7.043  -6.007  0.00  0.00    -0.005 A 
ATOM     21  C   UNL d   1      10.848   8.447  -5.978  0.00  0.00    -0.023 A 
ATOM     22  C   UNL d   1      10.004   9.092  -6.908  0.00  0.00    -0.005 A 
ATOM     23  C   UNL d   1       9.179   8.374  -7.792  0.00  0.00    -0.003 A 
BRANCH  21  24
ATOM     24  C   UNL d   1      11.704   9.263  -5.022  0.00  0.00     0.019 C 
ATOM     25  C   UNL d   1      12.406   8.389  -3.961  0.00  0.00     0.004 C 
ATOM     26  C   UNL d   1      10.859  10.320  -4.284  0.00  0.00     0.004 C 
ATOM     27  C   UNL d   1      12.752   9.933  -5.869  0.00  0.00     0.004 C 
ENDBRANCH  21  24
ENDBRANCH  17  18
ENDBRANCH   1  17
TORSDOF 3
