REMARK  4 active torsions:
REMARK  status: ('A' for Active; 'I' for Inactive)
REMARK    1  A    between atoms: C_2  and  N_3 
REMARK    2  A    between atoms: C_6  and  N_7 
REMARK    3  A    between atoms: N_10  and  C_11 
REMARK    4  A    between atoms: C_11  and  C_12 
ROOT
ATOM      1  N   UNL d   1       9.166   4.866 -12.712  0.00  0.00     0.149 N 
ATOM      2  C   UNL d   1       9.483   4.753 -11.297  0.00  0.00     0.286 C 
ATOM      3  C   UNL d   1      10.091   6.063 -10.774  0.00  0.00     0.286 C 
ATOM      4  N   UNL d   1       9.163   7.162 -10.944  0.00  0.00     0.146 N 
ATOM      5  C   UNL d   1       8.837   7.318 -12.355  0.00  0.00     0.286 C 
ATOM      6  C   UNL d   1       8.274   6.019 -12.930  0.00  0.00     0.286 C 
ENDROOT
BRANCH   1   7
ATOM      7  C   UNL d   1       8.663   3.599 -13.279  0.00  0.00     0.301 C 
ATOM      8  C   UNL d   1       9.247   3.242 -14.665  0.00  0.00     0.269 C 
ATOM      9  N   UNL d   1       8.660   2.235 -15.367  0.00  0.00    -0.298 N 
ATOM     10  O   UNL d   1      10.255   3.842 -15.045  0.00  0.00    -0.270 OA
ATOM     11  C   UNL d   1       7.436   1.590 -14.926  0.00  0.00     0.058 A 
ATOM     12  C   UNL d   1       6.655   2.160 -13.886  0.00  0.00    -0.004 A 
ATOM     13  C   UNL d   1       6.943   0.403 -15.530  0.00  0.00     0.017 A 
ATOM     14  C   UNL d   1       7.124   3.441 -13.258  0.00  0.00     0.071 C 
ATOM     15  C   UNL d   1       5.479   1.542 -13.416  0.00  0.00    -0.003 A 
ATOM     16  C   UNL d   1       5.018   0.364 -14.022  0.00  0.00    -0.000 A 
ATOM     17  C   UNL d   1       5.752  -0.194 -15.081  0.00  0.00     0.002 A 
BRANCH   9  18
ATOM     18  C   UNL d   1       9.270   1.806 -16.646  0.00  0.00     0.109 C 
ATOM     19  C   UNL d   1       8.415   2.269 -17.836  0.00  0.00     0.027 C 
ENDBRANCH   9  18
ENDBRANCH   1   7
BRANCH   4  20
ATOM     20  C   UNL d   1       9.627   8.425 -10.370  0.00  0.00     0.277 C 
BRANCH  20  21
ATOM     21  C   UNL d   1      10.036   8.340  -8.909  0.00  0.00     0.011 A 
ATOM     22  C   UNL d   1      11.063   9.187  -8.451  0.00  0.00    -0.002 A 
ATOM     23  C   UNL d   1      11.505   9.126  -7.112  0.00  0.00     0.011 A 
ATOM     24  C   UNL d   1      10.931   8.195  -6.229  0.00  0.00     0.058 A 
ATOM     25  C   UNL d   1       9.907   7.344  -6.679  0.00  0.00     0.011 A 
ATOM     26 CL   UNL d   1      11.476   8.104  -4.598  0.00  0.00    -0.082 Cl
ATOM     27  C   UNL d   1       9.442   7.431  -8.004  0.00  0.00    -0.002 A 
ENDBRANCH  20  21
ENDBRANCH   4  20
TORSDOF 4
