REMARK  7 active torsions:
REMARK  status: ('A' for Active; 'I' for Inactive)
REMARK    1  A    between atoms: O_2  and  C_3 
REMARK    2  A    between atoms: C_7  and  C_8 
REMARK    3  A    between atoms: C_8  and  C_9 
REMARK    4  A    between atoms: C_9  and  C_10 
REMARK    5  A    between atoms: C_10  and  N_11 
REMARK    6  A    between atoms: N_14  and  C_15 
REMARK    7  A    between atoms: C_15  and  C_16 
ROOT
ATOM      1  N   UNL d   1       9.063   2.754 -15.005  0.00  0.00     0.141 N 
ATOM      2  C   UNL d   1      10.013   3.235 -13.998  0.00  0.00     0.285 C 
ATOM      3  C   UNL d   1       9.525   4.525 -13.317  0.00  0.00     0.286 C 
ATOM      4  N   UNL d   1       8.221   4.345 -12.675  0.00  0.00     0.148 N 
ATOM      5  C   UNL d   1       7.274   3.866 -13.680  0.00  0.00     0.286 C 
ATOM      6  C   UNL d   1       7.762   2.577 -14.370  0.00  0.00     0.285 C 
ENDROOT
BRANCH   1   7
ATOM      7  C   UNL d   1       9.503   1.517 -15.643  0.00  0.00     0.251 C 
BRANCH   7   8
ATOM      8  C   UNL d   1      10.692   1.707 -16.575  0.00  0.00     0.040 C 
BRANCH   8   9
ATOM      9  C   UNL d   1      10.975   0.500 -17.492  0.00  0.00     0.029 C 
BRANCH   9  10
ATOM     10  C   UNL d   1      12.188   0.670 -18.411  0.00  0.00    -0.020 A 
ATOM     11  C   UNL d   1      12.588  -0.399 -19.239  0.00  0.00    -0.004 A 
ATOM     12  C   UNL d   1      13.715  -0.262 -20.077  0.00  0.00     0.002 A 
ATOM     13  C   UNL d   1      14.444   0.943 -20.092  0.00  0.00     0.024 A 
ATOM     14  C   UNL d   1      14.061   2.024 -19.272  0.00  0.00     0.094 A 
ATOM     15  C   UNL d   1      12.927   1.877 -18.440  0.00  0.00     0.020 A 
BRANCH  14  16
ATOM     16  O   UNL d   1      14.825   3.173 -19.314  0.00  0.00    -0.328 OA
ATOM     17  C   UNL d   1      14.476   4.241 -18.434  0.00  0.00     0.181 C 
ENDBRANCH  14  16
ENDBRANCH   9  10
ENDBRANCH   8   9
ENDBRANCH   7   8
ENDBRANCH   1   7
BRANCH   4  18
ATOM     18  C   UNL d   1       7.752   5.564 -12.019  0.00  0.00     0.301 C 
BRANCH  18  19
ATOM     19  C   UNL d   1       8.613   5.973 -10.867  0.00  0.00     0.111 A 
ATOM     20  O   UNL d   1       9.512   6.982 -11.097  0.00  0.00    -0.309 OA
ATOM     21  C   UNL d   1      10.179   7.194  -9.909  0.00  0.00     0.100 A 
ATOM     22  C   UNL d   1       9.685   6.301  -8.927  0.00  0.00     0.025 A 
ATOM     23  C   UNL d   1      11.209   8.121  -9.652  0.00  0.00     0.025 A 
ATOM     24  C   UNL d   1       8.677   5.512  -9.577  0.00  0.00     0.024 A 
ATOM     25  C   UNL d   1      10.264   6.381  -7.640  0.00  0.00     0.002 A 
ATOM     26  C   UNL d   1      11.305   7.293  -7.363  0.00  0.00     0.000 A 
ATOM     27  C   UNL d   1      11.780   8.162  -8.368  0.00  0.00     0.002 A 
ENDBRANCH  18  19
ENDBRANCH   4  18
TORSDOF 7
