REMARK  3 active torsions:
REMARK  status: ('A' for Active; 'I' for Inactive)
REMARK    1  A    between atoms: N_12  and  C_13 
REMARK    2  A    between atoms: N_16  and  C_17 
REMARK    3  A    between atoms: C_17  and  C_18 
ROOT
ATOM      1  C   UNL d   1       9.863   6.664  -9.806  0.00  0.00     0.094 C 
ATOM      2  C   UNL d   1       9.572   7.335 -11.175  0.00  0.00     0.058 C 
ATOM      3  C   UNL d   1       9.273   6.386 -12.301  0.00  0.00     0.253 C 
ATOM      4  N   UNL d   1       8.190   5.470 -11.942  0.00  0.00     0.141 N 
ATOM      5  C   UNL d   1       8.535   4.759 -10.723  0.00  0.00     0.253 C 
ATOM      6  C   UNL d   1       8.721   5.669  -9.531  0.00  0.00     0.058 C 
ENDROOT
BRANCH   1   7
ATOM      7  N   UNL d   1      10.019   7.628  -8.680  0.00  0.00    -0.284 N 
ATOM      8  C   UNL d   1      10.577   7.338  -7.431  0.00  0.00     0.060 A 
ATOM      9  C   UNL d   1      10.993   5.985  -7.031  0.00  0.00     0.052 C 
ATOM     10  C   UNL d   1      10.617   8.463  -6.707  0.00  0.00     0.104 A 
ATOM     11  C   UNL d   1      11.100   8.730  -5.390  0.00  0.00     0.048 A 
ATOM     12  N   UNL d   1      10.090   9.436  -7.524  0.00  0.00    -0.191 NA
ATOM     13  S   UNL d   1      11.858   7.561  -4.351  0.00  0.00    -0.085 SA
ATOM     14  C   UNL d   1      10.992   9.971  -4.816  0.00  0.00     0.009 A 
ATOM     15  C   UNL d   1      12.074   8.754  -3.133  0.00  0.00     0.035 A 
ATOM     16  C   UNL d   1      11.540   9.954  -3.504  0.00  0.00     0.007 A 
ATOM     17  C   UNL d   1       9.763   8.930  -8.705  0.00  0.00     0.350 A 
ATOM     18  O   UNL d   1       9.349   9.576  -9.650  0.00  0.00    -0.244 OA
ENDBRANCH   1   7
BRANCH   4  19
ATOM     19  C   UNL d   1       7.881   4.543 -13.029  0.00  0.00     0.277 C 
BRANCH  19  20
ATOM     20  C   UNL d   1       9.083   4.119 -13.861  0.00  0.00     0.011 A 
ATOM     21  C   UNL d   1       9.342   4.741 -15.095  0.00  0.00    -0.002 A 
ATOM     22  C   UNL d   1      10.495   4.413 -15.833  0.00  0.00    -0.000 A 
ATOM     23  C   UNL d   1      11.402   3.463 -15.326  0.00  0.00    -0.000 A 
ATOM     24  C   UNL d   1      11.152   2.857 -14.085  0.00  0.00    -0.000 A 
ATOM     25  C   UNL d   1      10.003   3.189 -13.350  0.00  0.00    -0.002 A 
ENDBRANCH  19  20
ENDBRANCH   4  19
TORSDOF 3
