REMARK  7 active torsions:
REMARK  status: ('A' for Active; 'I' for Inactive)
REMARK    1  A    between atoms: C_6  and  N_7 
REMARK    2  A    between atoms: N_10  and  C_11 
REMARK    3  A    between atoms: C_11  and  C_12 
REMARK    4  A    between atoms: C_12  and  C_13 
REMARK    5  A    between atoms: C_13  and  C_14 
REMARK    6  A    between atoms: C_14  and  O_15 
REMARK    7  A    between atoms: O_15  and  C_16 
ROOT
ATOM      1  N   UNL d   1       9.164   6.585 -11.249  0.00  0.00    -0.344 N 
ATOM      2  C   UNL d   1       8.267   7.291 -12.166  0.00  0.00     0.137 C 
ATOM      3  C   UNL d   1       6.854   6.643 -12.201  0.00  0.00     0.274 C 
ATOM      4  N   UNL d   1       6.965   5.216 -12.507  0.00  0.00     0.141 N 
ATOM      5  C   UNL d   1       7.768   4.620 -11.441  0.00  0.00     0.274 C 
ATOM      6  C   UNL d   1       9.201   5.152 -11.435  0.00  0.00     0.137 C 
ENDROOT
BRANCH   4   7
ATOM      7  C   UNL d   1       5.628   4.609 -12.560  0.00  0.00     0.251 C 
BRANCH   7   8
ATOM      8  C   UNL d   1       5.653   3.076 -12.734  0.00  0.00     0.038 C 
BRANCH   8   9
ATOM      9  C   UNL d   1       6.518   2.643 -13.935  0.00  0.00     0.035 C 
BRANCH   9  10
ATOM     10  C   UNL d   1       6.563   1.126 -14.123  0.00  0.00     0.149 C 
BRANCH  10  11
ATOM     11  O   UNL d   1       7.277   0.873 -15.332  0.00  0.00    -0.331 OA
BRANCH  11  12
ATOM     12  C   UNL d   1       6.553   0.454 -16.418  0.00  0.00     0.097 A 
ATOM     13  C   UNL d   1       6.900   0.926 -17.670  0.00  0.00     0.043 A 
ATOM     14  C   UNL d   1       6.131   0.533 -18.801  0.00  0.00     0.086 A 
ATOM     15  N   UNL d   1       5.050  -0.345 -18.586  0.00  0.00    -0.228 N 
ATOM     16  C   UNL d   1       6.148   0.791 -20.148  0.00  0.00     0.042 A 
ATOM     17  C   UNL d   1       4.724  -0.841 -17.365  0.00  0.00     0.102 A 
ATOM     18  N   UNL d   1       4.399  -0.638 -19.749  0.00  0.00    -0.164 NA
ATOM     19  C   UNL d   1       5.477  -0.467 -16.279  0.00  0.00     0.045 A 
ATOM     20  C   UNL d   1       5.057   0.035 -20.660  0.00  0.00     0.122 A 
ENDBRANCH  11  12
ENDBRANCH  10  11
ENDBRANCH   9  10
ENDBRANCH   8   9
ENDBRANCH   7   8
ENDBRANCH   4   7
BRANCH   1  21
ATOM     21  C   UNL d   1       9.781   7.214 -10.158  0.00  0.00     0.068 A 
ATOM     22  C   UNL d   1      10.535   8.375 -10.420  0.00  0.00     0.018 A 
ATOM     23  C   UNL d   1      11.238   9.026  -9.395  0.00  0.00     0.002 A 
ATOM     24  C   UNL d   1      11.175   8.546  -8.079  0.00  0.00     0.012 A 
ATOM     25  C   UNL d   1      10.405   7.410  -7.787  0.00  0.00     0.070 A 
ATOM     26 CL   UNL d   1      10.342   6.867  -6.147  0.00  0.00    -0.081 Cl
ATOM     27  C   UNL d   1       9.702   6.739  -8.820  0.00  0.00     0.084 A 
ATOM     28 CL   UNL d   1       8.734   5.363  -8.415  0.00  0.00    -0.080 Cl
ENDBRANCH   1  21
TORSDOF 7
