REMARK  3 active torsions:
REMARK  status: ('A' for Active; 'I' for Inactive)
REMARK    1  A    between atoms: C_8  and  O_9 
REMARK    2  A    between atoms: O_9  and  C_10 
REMARK    3  A    between atoms: C_10  and  C_12 
ROOT
ATOM      1  C   UNL d   1      10.399   3.330 -15.470  0.00  0.00     0.299 C 
ATOM      2  O   UNL d   1       9.975   4.479 -15.403  0.00  0.00    -0.259 OA
ENDROOT
BRANCH   1   3
ATOM      3  O   UNL d   1      11.661   3.015 -15.831  0.00  0.00    -0.301 OA
BRANCH   3   4
ATOM      4  C   UNL d   1      12.553   3.995 -16.334  0.00  0.00     0.129 C 
ATOM      5  C   UNL d   1      12.841   5.154 -15.344  0.00  0.00     0.064 C 
ATOM      6  C   UNL d   1      13.508   6.359 -16.042  0.00  0.00     0.222 C 
ATOM      7  N   UNL d   1      12.598   6.755 -17.113  0.00  0.00     0.135 N 
ATOM      8  C   UNL d   1      14.813   5.994 -16.759  0.00  0.00     0.035 C 
ATOM      9  C   UNL d   1      12.867   8.114 -17.582  0.00  0.00     0.285 C 
ATOM     10  C   UNL d   1      12.850   5.765 -18.159  0.00  0.00     0.222 C 
ATOM     11  C   UNL d   1      12.100   4.490 -17.726  0.00  0.00     0.064 C 
ATOM     12  C   UNL d   1      14.375   5.590 -18.172  0.00  0.00     0.035 C 
ENDBRANCH   3   4
ENDBRANCH   1   3
BRANCH   1  13
ATOM     13  C   UNL d   1       9.608   2.144 -15.205  0.00  0.00     0.102 A 
ATOM     14  C   UNL d   1       8.361   2.158 -14.640  0.00  0.00     0.090 A 
ATOM     15  N   UNL d   1       7.942   0.814 -14.623  0.00  0.00    -0.228 N 
ATOM     16  C   UNL d   1       7.466   3.136 -14.119  0.00  0.00     0.019 A 
ATOM     17  N   UNL d   1       8.898  -0.015 -15.168  0.00  0.00    -0.163 NA
ATOM     18  C   UNL d   1       6.734   0.417 -14.139  0.00  0.00     0.101 A 
ATOM     19  C   UNL d   1       9.886   0.789 -15.482  0.00  0.00     0.127 A 
ATOM     20  C   UNL d   1       5.873   1.373 -13.637  0.00  0.00     0.021 A 
ATOM     21  C   UNL d   1       6.240   2.743 -13.638  0.00  0.00     0.003 A 
ENDBRANCH   1  13
TORSDOF 3
