REMARK  7 active torsions:
REMARK  status: ('A' for Active; 'I' for Inactive)
REMARK    1  A    between atoms: S_2  and  N_4 
REMARK    2  A    between atoms: S_2  and  C_28 
REMARK    3  A    between atoms: N_4  and  C_5 
REMARK    4  A    between atoms: C_8  and  C_9 
REMARK    5  A    between atoms: C_9  and  C_10 
REMARK    6  A    between atoms: C_10  and  N_11 
REMARK    7  A    between atoms: N_14  and  C_15 
ROOT
ATOM      1  C   UNL d   1       9.111   7.516  -7.981  0.00  0.00     0.116 C 
ATOM      2  C   UNL d   1       9.656   7.990  -9.347  0.00  0.00     0.025 C 
ATOM      3  C   UNL d   1       9.277   7.050 -10.501  0.00  0.00     0.002 C 
ATOM      4  C   UNL d   1       9.623   5.600 -10.146  0.00  0.00     0.002 C 
ATOM      5  C   UNL d   1       8.980   5.136  -8.827  0.00  0.00     0.002 C 
ATOM      6  C   UNL d   1       9.409   6.049  -7.671  0.00  0.00     0.025 C 
ENDROOT
BRANCH   4   7
ATOM      7  C   UNL d   1       9.277   4.637 -11.293  0.00  0.00     0.035 C 
BRANCH   7   8
ATOM      8  C   UNL d   1       9.921   4.999 -12.642  0.00  0.00     0.250 C 
BRANCH   8   9
ATOM      9  N   UNL d   1       9.989   3.853 -13.536  0.00  0.00     0.141 N 
ATOM     10  C   UNL d   1       8.632   3.470 -13.924  0.00  0.00     0.274 C 
ATOM     11  C   UNL d   1       8.669   2.245 -14.835  0.00  0.00     0.138 C 
ATOM     12  N   UNL d   1       9.505   2.509 -15.993  0.00  0.00    -0.330 N 
ATOM     13  C   UNL d   1      10.839   3.001 -15.700  0.00  0.00     0.138 C 
ATOM     14  C   UNL d   1      10.749   4.207 -14.742  0.00  0.00     0.274 C 
BRANCH  12  15
ATOM     15  C   UNL d   1       9.047   2.319 -17.324  0.00  0.00     0.138 A 
ATOM     16  C   UNL d   1       8.161   1.286 -17.668  0.00  0.00     0.036 A 
ATOM     17  C   UNL d   1       7.750   1.124 -18.989  0.00  0.00     0.095 A 
ATOM     18  C   UNL d   1       7.545   0.195 -16.851  0.00  0.00     0.064 C 
ATOM     19  C   UNL d   1       8.210   2.011 -19.968  0.00  0.00     0.045 A 
ATOM     20  O   UNL d   1       6.920   0.058 -19.168  0.00  0.00    -0.331 OA
ATOM     21  C   UNL d   1       9.095   3.024 -19.552  0.00  0.00     0.103 A 
ATOM     22  N   UNL d   1       9.508   3.179 -18.263  0.00  0.00    -0.228 NA
ATOM     23  C   UNL d   1       6.852  -0.663 -17.923  0.00  0.00     0.154 C 
ENDBRANCH  12  15
ENDBRANCH   8   9
ENDBRANCH   7   8
ENDBRANCH   4   7
BRANCH   1  24
ATOM     24  N   UNL d   1       9.552   8.378  -6.891  0.00  0.00    -0.187 NA
BRANCH  24  25
ATOM     25  S   UNL d   1      11.167   8.930  -6.713  0.00  0.00     0.281 S 
ATOM     26  O   UNL d   1      12.042   8.151  -7.605  0.00  0.00    -0.199 OA
ATOM     27  O   UNL d   1      11.170  10.398  -6.740  0.00  0.00    -0.199 OA
BRANCH  25  28
ATOM     28  C   UNL d   1      11.533   8.476  -5.068  0.00  0.00     0.105 A 
ATOM     29  C   UNL d   1      11.800   7.130  -4.765  0.00  0.00     0.015 A 
ATOM     30  C   UNL d   1      12.195   6.803  -3.465  0.00  0.00     0.030 A 
ATOM     31  C   UNL d   1      12.300   7.829  -2.501  0.00  0.00     0.140 A 
ATOM     32  C   UNL d   1      12.039   9.174  -2.825  0.00  0.00     0.030 A 
ATOM     33  F   UNL d   1      12.650   7.542  -1.242  0.00  0.00    -0.204 F 
ATOM     34  C   UNL d   1      11.632   9.503  -4.114  0.00  0.00     0.015 A 
ENDBRANCH  25  28
ENDBRANCH  24  25
ENDBRANCH   1  24
TORSDOF 7
