REMARK  11 active torsions:
REMARK  status: ('A' for Active; 'I' for Inactive)
REMARK    1  A    between atoms: C_2  and  N_3 
REMARK    2  A    between atoms: N_3  and  C_4 
REMARK    3  A    between atoms: N_3  and  C_21 
REMARK    4  A    between atoms: C_4  and  C_5 
REMARK    5  A    between atoms: C_5  and  C_6 
REMARK    6  A    between atoms: C_6  and  C_7 
REMARK    7  A    between atoms: C_7  and  N_8 
REMARK       I    between atoms: N_8  and  C_9 
REMARK    8  A    between atoms: C_9  and  C_11 
REMARK    9  A    between atoms: C_21  and  C_22 
REMARK   10  A    between atoms: C_24  and  C_25 
REMARK   11  A    between atoms: C_31  and  O_32 
ROOT
ATOM      1  C   UNL d   1       9.436   3.664 -14.989  0.00  0.00     0.250 C 
ENDROOT
BRANCH   1   2
ATOM      2  N   UNL d   1      10.145   2.895 -16.017  0.00  0.00     0.137 N 
BRANCH   2   3
ATOM      3  C   UNL d   1      11.607   2.987 -15.871  0.00  0.00     0.250 C 
ATOM      4  C   UNL d   1      12.145   4.415 -16.084  0.00  0.00     0.037 C 
ENDBRANCH   2   3
BRANCH   2   5
ATOM      5  C   UNL d   1       9.705   1.491 -16.088  0.00  0.00     0.251 C 
BRANCH   5   6
ATOM      6  C   UNL d   1       8.215   1.387 -16.405  0.00  0.00     0.038 A 
ATOM      7  C   UNL d   1       7.608   0.071 -16.831  0.00  0.00     0.026 A 
ATOM      8  C   UNL d   1       7.755   1.197 -17.831  0.00  0.00     0.007 A 
BRANCH   7   9
ATOM      9  C   UNL d   1       6.241  -0.318 -16.331  0.00  0.00     0.002 A 
ATOM     10  C   UNL d   1       5.310  -0.879 -17.233  0.00  0.00     0.090 A 
ATOM     11  C   UNL d   1       4.020  -1.226 -16.752  0.00  0.00     0.026 A 
ATOM     12  C   UNL d   1       3.675  -1.008 -15.408  0.00  0.00     0.032 A 
ATOM     13  C   UNL d   1       4.606  -0.435 -14.523  0.00  0.00     0.140 A 
ATOM     14  C   UNL d   1       5.891  -0.102 -14.987  0.00  0.00     0.027 A 
ATOM     15  F   UNL d   1       4.259  -0.184 -13.241  0.00  0.00    -0.204 F 
BRANCH  10  16
ATOM     16  O   UNL d   1       5.714  -1.058 -18.539  0.00  0.00    -0.328 OA
ATOM     17  C   UNL d   1       4.778  -1.571 -19.473  0.00  0.00     0.181 C 
ENDBRANCH  10  16
ENDBRANCH   7   9
ENDBRANCH   5   6
ENDBRANCH   2   5
ENDBRANCH   1   2
BRANCH   1  18
ATOM     18  C   UNL d   1       9.566   3.030 -13.592  0.00  0.00     0.037 C 
BRANCH  18  19
ATOM     19  C   UNL d   1       9.872   4.055 -12.519  0.00  0.00     0.029 C 
BRANCH  19  20
ATOM     20  C   UNL d   1       8.668   4.941 -12.171  0.00  0.00     0.129 C 
BRANCH  20  21
ATOM     21  N   UNL d   1       8.989   5.877 -11.107  0.00  0.00    -0.234 NA
ATOM     22  C   UNL d   1       9.339   5.553  -9.852  0.00  0.00     0.275 C 
ATOM     23  O   UNL d   1       9.309   4.404  -9.405  0.00  0.00    -0.266 OA
BRANCH  22  24
ATOM     24  C   UNL d   1       9.858   6.680  -9.008  0.00  0.00     0.058 A 
ATOM     25  C   UNL d   1      10.166   6.447  -7.650  0.00  0.00     0.005 A 
ATOM     26  C   UNL d   1      10.670   7.474  -6.833  0.00  0.00     0.000 A 
ATOM     27  C   UNL d   1      10.862   8.767  -7.379  0.00  0.00     0.000 A 
ATOM     28  C   UNL d   1      10.983   7.220  -5.484  0.00  0.00     0.000 A 
ATOM     29  C   UNL d   1      10.568   9.007  -8.736  0.00  0.00     0.000 A 
ATOM     30  C   UNL d   1      11.330   9.807  -6.554  0.00  0.00     0.000 A 
ATOM     31  C   UNL d   1      10.064   7.975  -9.545  0.00  0.00     0.005 A 
ATOM     32  C   UNL d   1      11.620   9.555  -5.203  0.00  0.00     0.000 A 
ATOM     33  C   UNL d   1      11.460   8.263  -4.668  0.00  0.00     0.000 A 
ENDBRANCH  22  24
ENDBRANCH  20  21
ENDBRANCH  19  20
ENDBRANCH  18  19
ENDBRANCH   1  18
TORSDOF 11
