REMARK  6 active torsions:
REMARK  status: ('A' for Active; 'I' for Inactive)
REMARK    1  A    between atoms: C_8  and  O_9 
REMARK    2  A    between atoms: O_9  and  C_10 
REMARK    3  A    between atoms: C_10  and  C_11 
REMARK    4  A    between atoms: C_14  and  C_15 
REMARK    5  A    between atoms: C_15  and  N_16 
REMARK    6  A    between atoms: N_19  and  C_20 
ROOT
ATOM      1  C   UNL d   1       8.682   5.987 -10.698  0.00  0.00     0.030 C 
ATOM      2  C   UNL d   1       8.306   4.517 -10.833  0.00  0.00     0.003 C 
ATOM      3  C   UNL d   1       7.057   4.354 -11.688  0.00  0.00     0.002 C 
ATOM      4  C   UNL d   1       7.290   4.954 -13.078  0.00  0.00     0.033 C 
ATOM      5  C   UNL d   1       7.725   6.414 -12.954  0.00  0.00     0.002 C 
ATOM      6  C   UNL d   1       8.925   6.632 -12.064  0.00  0.00     0.003 C 
ENDROOT
BRANCH   4   7
ATOM      7  C   UNL d   1       8.279   4.124 -13.937  0.00  0.00     0.250 C 
BRANCH   7   8
ATOM      8  N   UNL d   1       7.903   2.726 -14.079  0.00  0.00     0.141 N 
ATOM      9  C   UNL d   1       8.662   2.149 -15.202  0.00  0.00     0.274 C 
ATOM     10  C   UNL d   1       8.337   0.644 -15.369  0.00  0.00     0.137 C 
ATOM     11  N   UNL d   1       6.906   0.431 -15.466  0.00  0.00    -0.344 N 
ATOM     12  C   UNL d   1       6.106   1.052 -14.440  0.00  0.00     0.137 C 
ATOM     13  C   UNL d   1       6.468   2.537 -14.356  0.00  0.00     0.274 C 
BRANCH  11  14
ATOM     14  C   UNL d   1       6.293  -0.218 -16.558  0.00  0.00     0.068 A 
ATOM     15  C   UNL d   1       6.512   0.174 -17.907  0.00  0.00     0.084 A 
ATOM     16  C   UNL d   1       5.914  -0.555 -18.948  0.00  0.00     0.070 A 
ATOM     17 CL   UNL d   1       7.471   1.556 -18.330  0.00  0.00    -0.080 Cl
ATOM     18  C   UNL d   1       5.103  -1.665 -18.675  0.00  0.00     0.012 A 
ATOM     19 CL   UNL d   1       6.169  -0.087 -20.599  0.00  0.00    -0.081 Cl
ATOM     20  C   UNL d   1       4.870  -2.043 -17.343  0.00  0.00     0.002 A 
ATOM     21  C   UNL d   1       5.446  -1.317 -16.288  0.00  0.00     0.018 A 
ENDBRANCH  11  14
ENDBRANCH   7   8
ENDBRANCH   4   7
BRANCH   1  22
ATOM     22  C   UNL d   1       9.910   6.165  -9.830  0.00  0.00     0.149 C 
BRANCH  22  23
ATOM     23  O   UNL d   1       9.844   7.364  -9.048  0.00  0.00    -0.331 OA
BRANCH  23  24
ATOM     24  C   UNL d   1      10.457   7.321  -7.812  0.00  0.00     0.096 C 
ATOM     25  C   UNL d   1      11.146   6.192  -7.341  0.00  0.00     0.024 C 
ATOM     26  C   UNL d   1      11.838   6.177  -6.153  0.00  0.00    -0.001 C 
ATOM     27  C   UNL d   1      11.732   7.229  -5.277  0.00  0.00    -0.004 C 
ATOM     28  C   UNL d   1      12.508   7.179  -3.968  0.00  0.00     0.038 C 
ATOM     29  C   UNL d   1      11.037   8.385  -5.690  0.00  0.00     0.082 C 
ATOM     30  C   UNL d   1      11.878   8.060  -2.932  0.00  0.00     0.095 C 
ATOM     31  C   UNL d   1      11.468   9.408  -3.554  0.00  0.00     0.256 C 
ATOM     32  O   UNL d   1      11.533  10.382  -2.854  0.00  0.00    -0.270 OA
ATOM     33  N   UNL d   1      11.050   9.491  -4.830  0.00  0.00    -0.212 NA
ATOM     34  C   UNL d   1      10.424   8.450  -6.965  0.00  0.00     0.043 C 
ENDBRANCH  23  24
ENDBRANCH  22  23
ENDBRANCH   1  22
TORSDOF 6
