REMARK  5 active torsions:
REMARK  status: ('A' for Active; 'I' for Inactive)
REMARK    1  A    between atoms: N_5  and  C_6 
REMARK    2  A    between atoms: C_6  and  C_7 
REMARK    3  A    between atoms: C_7  and  N_8 
REMARK    4  A    between atoms: C_11  and  C_12 
REMARK    5  A    between atoms: C_12  and  C_13 
ROOT
ATOM      1  N   UNL d   1       9.331   6.000 -10.994  0.00  0.00     0.139 N 
ATOM      2  C   UNL d   1      10.331   6.947 -10.503  0.00  0.00     0.250 C 
ATOM      3  C   UNL d   1       9.991   7.468  -9.121  0.00  0.00     0.036 C 
ATOM      4  C   UNL d   1       9.802   6.344  -8.083  0.00  0.00     0.008 C 
ATOM      5  C   UNL d   1       8.836   5.318  -8.677  0.00  0.00     0.036 C 
ATOM      6  C   UNL d   1       9.257   4.873 -10.067  0.00  0.00     0.250 C 
ENDROOT
BRANCH   1   7
ATOM      7  C   UNL d   1       9.657   5.600 -12.350  0.00  0.00     0.276 C 
BRANCH   7   8
ATOM      8  C   UNL d   1       8.545   4.785 -13.035  0.00  0.00     0.163 C 
BRANCH   8   9
ATOM      9  N   UNL d   1       9.049   4.091 -14.191  0.00  0.00    -0.248 N 
ATOM     10  C   UNL d   1       9.132   2.732 -14.399  0.00  0.00     0.096 A 
ATOM     11  C   UNL d   1       9.653   2.540 -15.647  0.00  0.00     0.037 A 
ATOM     12  C   UNL d   1       9.873   3.866 -16.125  0.00  0.00     0.081 A 
ATOM     13  C   UNL d   1      10.419   4.301 -17.444  0.00  0.00     0.054 C 
ATOM     14  N   UNL d   1       9.509   4.786 -15.248  0.00  0.00    -0.174 NA
ENDBRANCH   8   9
ENDBRANCH   7   8
ENDBRANCH   1   7
BRANCH   4  15
ATOM     15  C   UNL d   1       9.282   6.864  -6.727  0.00  0.00     0.029 C 
BRANCH  15  16
ATOM     16  C   UNL d   1      10.350   7.598  -5.934  0.00  0.00     0.005 A 
ATOM     17  C   UNL d   1      10.629   8.952  -6.201  0.00  0.00     0.136 A 
ATOM     18  C   UNL d   1      11.601   9.639  -5.458  0.00  0.00     0.029 A 
ATOM     19  F   UNL d   1       9.968   9.587  -7.185  0.00  0.00    -0.204 F 
ATOM     20  C   UNL d   1      12.267   8.987  -4.401  0.00  0.00     0.002 A 
ATOM     21  C   UNL d   1      11.982   7.640  -4.111  0.00  0.00    -0.000 A 
ATOM     22  C   UNL d   1      11.054   6.940  -4.901  0.00  0.00    -0.002 A 
ENDBRANCH  15  16
ENDBRANCH   4  15
TORSDOF 5
