REMARK  2 active torsions:
REMARK  status: ('A' for Active; 'I' for Inactive)
REMARK    1  A    between atoms: C_2  and  C_3 
REMARK    2  A    between atoms: C_7  and  N_8 
ROOT
ATOM      1  C   UNL d   1       9.019   6.022 -11.236  0.00  0.00    -0.010 A 
ATOM      2  C   UNL d   1       8.737   4.816 -10.567  0.00  0.00    -0.003 A 
ATOM      3  C   UNL d   1       8.926   4.702  -9.176  0.00  0.00     0.001 A 
ATOM      4  C   UNL d   1       9.406   5.794  -8.430  0.00  0.00     0.018 A 
ATOM      5  C   UNL d   1       9.695   7.011  -9.077  0.00  0.00     0.067 A 
ATOM      6  C   UNL d   1       9.470   7.128 -10.476  0.00  0.00     0.069 A 
ATOM      7 CL   UNL d   1       9.588   8.673 -11.237  0.00  0.00    -0.081 Cl
ENDROOT
BRANCH   5   8
ATOM      8  N   UNL d   1      10.147   8.093  -8.307  0.00  0.00    -0.344 N 
ATOM      9  C   UNL d   1      11.332   8.857  -8.648  0.00  0.00     0.137 C 
ATOM     10  C   UNL d   1      12.261   8.919  -7.423  0.00  0.00     0.274 C 
ATOM     11  N   UNL d   1      11.548   9.482  -6.271  0.00  0.00     0.143 N 
ATOM     12  C   UNL d   1      10.399   8.642  -5.940  0.00  0.00     0.274 C 
ATOM     13  C   UNL d   1      12.418   9.561  -5.108  0.00  0.00     0.286 C 
ATOM     14  C   UNL d   1       9.426   8.538  -7.130  0.00  0.00     0.137 C 
ENDBRANCH   5   8
BRANCH   1  15
ATOM     15  C   UNL d   1       8.766   6.118 -12.733  0.00  0.00     0.027 C 
ATOM     16  C   UNL d   1       9.550   5.074 -13.535  0.00  0.00     0.005 C 
ENDBRANCH   1  15
TORSDOF 2
