REMARK  9 active torsions:
REMARK  status: ('A' for Active; 'I' for Inactive)
REMARK    1  A    between atoms: O_2  and  C_3 
REMARK    2  A    between atoms: C_7  and  C_8 
REMARK    3  A    between atoms: C_8  and  C_9 
REMARK    4  A    between atoms: C_9  and  C_10 
REMARK    5  A    between atoms: C_15  and  O_16 
REMARK    6  A    between atoms: O_16  and  C_17 
REMARK    7  A    between atoms: C_17  and  C_18 
REMARK    8  A    between atoms: C_18  and  C_19 
REMARK    9  A    between atoms: C_19  and  N_20 
ROOT
ATOM      1  C   UNL d   1       9.642   2.850 -14.825  0.00  0.00     0.001 A 
ATOM      2  C   UNL d   1      10.374   2.342 -15.927  0.00  0.00    -0.002 A 
ATOM      3  C   UNL d   1      11.697   2.749 -16.162  0.00  0.00    -0.000 A 
ATOM      4  C   UNL d   1      12.286   3.694 -15.310  0.00  0.00     0.002 A 
ATOM      5  C   UNL d   1      11.569   4.205 -14.213  0.00  0.00     0.024 A 
ATOM      6  C   UNL d   1      10.229   3.804 -13.963  0.00  0.00     0.090 A 
ENDROOT
BRANCH   6   7
ATOM      7  O   UNL d   1       9.460   4.288 -12.921  0.00  0.00    -0.331 OA
BRANCH   7   8
ATOM      8  C   UNL d   1       9.566   5.675 -12.618  0.00  0.00     0.151 C 
BRANCH   8   9
ATOM      9  C   UNL d   1       9.053   5.884 -11.163  0.00  0.00     0.068 C 
BRANCH   9  10
ATOM     10  C   UNL d   1       9.529   7.276 -10.607  0.00  0.00     0.253 C 
BRANCH  10  11
ATOM     11  N   UNL d   1       9.780   7.288  -9.142  0.00  0.00     0.142 N 
ATOM     12  C   UNL d   1      10.132   8.620  -8.633  0.00  0.00     0.276 C 
ATOM     13  C   UNL d   1      10.638   8.664  -7.164  0.00  0.00     0.007 A 
ATOM     14  C   UNL d   1      11.064   7.462  -6.553  0.00  0.00    -0.022 A 
ATOM     15  C   UNL d   1      10.688   9.863  -6.409  0.00  0.00    -0.003 A 
ATOM     16  C   UNL d   1      11.033   6.194  -7.362  0.00  0.00     0.061 C 
ATOM     17  C   UNL d   1      11.471   7.415  -5.197  0.00  0.00    -0.004 A 
ATOM     18  C   UNL d   1      10.917   6.437  -8.870  0.00  0.00     0.255 C 
ATOM     19  C   UNL d   1      11.508   8.608  -4.443  0.00  0.00    -0.000 A 
ATOM     20  C   UNL d   1      11.122   9.810  -5.061  0.00  0.00    -0.000 A 
ENDBRANCH  10  11
ENDBRANCH   9  10
ENDBRANCH   8   9
ENDBRANCH   7   8
ENDBRANCH   6   7
BRANCH   1  21
ATOM     21  C   UNL d   1       8.202   2.404 -14.600  0.00  0.00     0.033 C 
BRANCH  21  22
ATOM     22  C   UNL d   1       8.010   0.877 -14.656  0.00  0.00     0.031 C 
BRANCH  22  23
ATOM     23  C   UNL d   1       6.565   0.413 -14.732  0.00  0.00    -0.020 A 
ATOM     24  C   UNL d   1       5.605   0.860 -13.803  0.00  0.00    -0.004 A 
ATOM     25  C   UNL d   1       4.295   0.386 -13.868  0.00  0.00     0.002 A 
ATOM     26  C   UNL d   1       3.901  -0.518 -14.868  0.00  0.00     0.024 A 
ATOM     27  C   UNL d   1       4.833  -0.960 -15.827  0.00  0.00     0.094 A 
ATOM     28  C   UNL d   1       6.177  -0.493 -15.739  0.00  0.00     0.020 A 
BRANCH  27  29
ATOM     29  O   UNL d   1       4.344  -1.763 -16.823  0.00  0.00    -0.328 OA
ATOM     30  C   UNL d   1       5.239  -2.219 -17.817  0.00  0.00     0.181 C 
ENDBRANCH  27  29
ENDBRANCH  22  23
ENDBRANCH  21  22
ENDBRANCH   1  21
TORSDOF 9
