REMARK  7 active torsions:
REMARK  status: ('A' for Active; 'I' for Inactive)
REMARK    1  A    between atoms: C_6  and  N_7 
REMARK    2  A    between atoms: N_10  and  C_11 
REMARK    3  A    between atoms: C_11  and  C_12 
REMARK    4  A    between atoms: C_12  and  C_13 
REMARK    5  A    between atoms: C_13  and  C_14 
REMARK    6  A    between atoms: C_14  and  N_15 
REMARK    7  A    between atoms: N_15  and  C_16 
ROOT
ATOM      1  N   UNL d   1       8.587   4.599 -12.589  0.00  0.00    -0.344 N 
ATOM      2  C   UNL d   1       8.344   6.008 -12.765  0.00  0.00     0.137 C 
ATOM      3  C   UNL d   1       8.384   6.729 -11.417  0.00  0.00     0.274 C 
ATOM      4  N   UNL d   1       9.619   6.440 -10.672  0.00  0.00     0.141 N 
ATOM      5  C   UNL d   1       9.651   5.003 -10.405  0.00  0.00     0.274 C 
ATOM      6  C   UNL d   1       9.723   4.247 -11.760  0.00  0.00     0.137 C 
ENDROOT
BRANCH   4   7
ATOM      7  C   UNL d   1       9.644   7.136  -9.390  0.00  0.00     0.251 C 
BRANCH   7   8
ATOM      8  C   UNL d   1      10.155   8.570  -9.556  0.00  0.00     0.037 C 
BRANCH   8   9
ATOM      9  C   UNL d   1      11.037   9.001  -8.377  0.00  0.00     0.028 C 
BRANCH   9  10
ATOM     10  C   UNL d   1      10.252   9.060  -7.061  0.00  0.00     0.127 C 
BRANCH  10  11
ATOM     11  N   UNL d   1      11.058   9.632  -5.976  0.00  0.00    -0.253 NA
BRANCH  11  12
ATOM     12  C   UNL d   1      11.457   8.858  -4.877  0.00  0.00     0.158 A 
ATOM     13  N   UNL d   1      11.848   9.569  -3.793  0.00  0.00    -0.226 NA
ATOM     14  C   UNL d   1      12.253   8.891  -2.687  0.00  0.00     0.101 A 
ATOM     15  C   UNL d   1      12.263   7.485  -2.608  0.00  0.00     0.021 A 
ATOM     16  C   UNL d   1      11.863   6.765  -3.740  0.00  0.00     0.005 A 
ATOM     17  C   UNL d   1      11.466   7.449  -4.896  0.00  0.00     0.038 A 
ENDBRANCH  11  12
ENDBRANCH  10  11
ENDBRANCH   9  10
ENDBRANCH   8   9
ENDBRANCH   7   8
ENDBRANCH   4   7
BRANCH   1  18
ATOM     18  C   UNL d   1       7.726   3.646 -13.180  0.00  0.00     0.052 A 
ATOM     19  C   UNL d   1       6.373   3.650 -12.763  0.00  0.00     0.017 A 
ATOM     20  C   UNL d   1       5.485   2.659 -13.219  0.00  0.00     0.001 A 
ATOM     21  C   UNL d   1       5.942   1.680 -14.122  0.00  0.00    -0.004 A 
ATOM     22  C   UNL d   1       7.277   1.696 -14.586  0.00  0.00    -0.024 A 
ATOM     23  C   UNL d   1       7.705   0.657 -15.606  0.00  0.00     0.031 C 
ATOM     24  C   UNL d   1       8.190   2.655 -14.074  0.00  0.00    -0.010 A 
ATOM     25  C   UNL d   1       9.646   2.582 -14.551  0.00  0.00     0.032 C 
ENDBRANCH   1  18
TORSDOF 7
