REMARK  7 active torsions:
REMARK  status: ('A' for Active; 'I' for Inactive)
REMARK    1  A    between atoms: C_6  and  C_7 
REMARK    2  A    between atoms: C_10  and  S_11 
REMARK    3  A    between atoms: S_11  and  C_12 
REMARK    4  A    between atoms: C_12  and  C_13 
REMARK    5  A    between atoms: C_13  and  C_14 
REMARK    6  A    between atoms: C_14  and  N_15 
REMARK    7  A    between atoms: N_20  and  C_21 
ROOT
ATOM      1  C   UNL d   1       8.304   3.547 -13.715  0.00  0.00     0.057 A 
ATOM      2  C   UNL d   1       6.891   3.584 -13.630  0.00  0.00     0.017 A 
ATOM      3  C   UNL d   1       6.241   4.463 -12.736  0.00  0.00     0.002 A 
ATOM      4  C   UNL d   1       6.998   5.322 -11.917  0.00  0.00     0.010 A 
ATOM      5  C   UNL d   1       8.403   5.293 -11.982  0.00  0.00     0.070 A 
ATOM      6  C   UNL d   1       9.206   6.146 -11.120  0.00  0.00     0.101 C 
ATOM      7  N   UNL d   1       9.851   6.821 -10.437  0.00  0.00    -0.191 NA
ATOM      8  C   UNL d   1       9.048   4.420 -12.882  0.00  0.00     0.027 A 
ENDROOT
BRANCH   1   9
ATOM      9  N   UNL d   1       8.927   2.655 -14.617  0.00  0.00    -0.348 N 
ATOM     10  C   UNL d   1       8.528   1.254 -14.639  0.00  0.00     0.102 C 
ATOM     11  C   UNL d   1       9.516   0.577 -15.598  0.00  0.00     0.028 C 
ATOM     12  C   UNL d   1      10.809   1.380 -15.412  0.00  0.00     0.058 C 
ATOM     13  C   UNL d   1      11.622   1.697 -16.676  0.00  0.00     0.252 C 
ATOM     14  C   UNL d   1      10.354   2.735 -14.902  0.00  0.00     0.117 C 
ATOM     15  N   UNL d   1      11.923   3.124 -16.562  0.00  0.00     0.139 N 
ATOM     16  C   UNL d   1      10.683   3.691 -16.043  0.00  0.00     0.272 C 
BRANCH  15  17
ATOM     17  C   UNL d   1      12.308   3.676 -17.858  0.00  0.00     0.251 C 
BRANCH  17  18
ATOM     18  C   UNL d   1      12.720   5.157 -17.764  0.00  0.00     0.047 C 
BRANCH  18  19
ATOM     19  C   UNL d   1      12.802   5.816 -19.148  0.00  0.00     0.067 C 
BRANCH  19  20
ATOM     20  S   UNL d   1      13.254   7.575 -19.029  0.00  0.00    -0.075 SA
BRANCH  20  21
ATOM     21  C   UNL d   1      15.014   7.460 -18.904  0.00  0.00     0.193 A 
ATOM     22  N   UNL d   1      15.691   6.311 -18.912  0.00  0.00    -0.122 NA
ATOM     23  N   UNL d   1      17.015   6.659 -18.849  0.00  0.00    -0.126 NA
ATOM     24  C   UNL d   1      17.042   7.994 -18.790  0.00  0.00     0.191 A 
ATOM     25  N   UNL d   1      15.806   8.551 -18.817  0.00  0.00    -0.287 N 
ATOM     26  C   UNL d   1      15.429   9.960 -18.786  0.00  0.00     0.134 C 
BRANCH  24  27
ATOM     27  C   UNL d   1      18.307   8.717 -18.707  0.00  0.00     0.151 A 
ATOM     28  C   UNL d   1      19.606   8.341 -18.970  0.00  0.00     0.087 A 
ATOM     29  C   UNL d   1      20.157   7.031 -19.449  0.00  0.00     0.054 C 
ATOM     30  N   UNL d   1      20.432   9.430 -18.726  0.00  0.00    -0.221 NA
ATOM     31  C   UNL d   1      19.607  10.391 -18.324  0.00  0.00     0.225 A 
ATOM     32  O   UNL d   1      18.300  10.022 -18.297  0.00  0.00    -0.282 OA
ENDBRANCH  24  27
ENDBRANCH  20  21
ENDBRANCH  19  20
ENDBRANCH  18  19
ENDBRANCH  17  18
ENDBRANCH  15  17
ENDBRANCH   1   9
TORSDOF 7
