REMARK  7 active torsions:
REMARK  status: ('A' for Active; 'I' for Inactive)
REMARK    1  A    between atoms: C_2  and  C_3 
REMARK    2  A    between atoms: N_13  and  C_14 
REMARK    3  A    between atoms: C_14  and  C_15 
REMARK    4  A    between atoms: C_15  and  C_17 
REMARK    5  A    between atoms: C_17  and  N_18 
REMARK    6  A    between atoms: N_21  and  C_22 
REMARK    7  A    between atoms: C_22  and  C_23 
ROOT
ATOM      1  C   UNL d   1       9.138   1.115 -17.951  0.00  0.00     0.148 C 
ENDROOT
BRANCH   1   2
ATOM      2  N   UNL d   1       8.032   0.355 -18.551  0.00  0.00    -0.247 N 
ATOM      3  C   UNL d   1       6.736   0.657 -18.348  0.00  0.00     0.348 A 
ATOM      4  N   UNL d   1       5.993  -0.314 -18.958  0.00  0.00    -0.209 NA
ATOM      5  O   UNL d   1       6.294   1.601 -17.781  0.00  0.00    -0.245 OA
ATOM      6  C   UNL d   1       6.806  -1.340 -19.579  0.00  0.00     0.179 A 
ATOM      7  C   UNL d   1       6.534  -1.337 -21.094  0.00  0.00     0.039 C 
ATOM      8  C   UNL d   1       8.179  -0.751 -19.261  0.00  0.00     0.265 A 
ATOM      9  O   UNL d   1       9.249  -1.255 -19.615  0.00  0.00    -0.269 OA
BRANCH   6  10
ATOM     10  C   UNL d   1       6.655  -2.732 -18.939  0.00  0.00     0.006 A 
ATOM     11  C   UNL d   1       7.366  -3.827 -19.476  0.00  0.00     0.000 A 
ATOM     12  C   UNL d   1       7.253  -5.112 -18.913  0.00  0.00     0.029 A 
ATOM     13  C   UNL d   1       6.418  -5.321 -17.801  0.00  0.00     0.140 A 
ATOM     14  C   UNL d   1       5.698  -4.242 -17.257  0.00  0.00     0.029 A 
ATOM     15  F   UNL d   1       6.310  -6.559 -17.258  0.00  0.00    -0.204 F 
ATOM     16  C   UNL d   1       5.816  -2.954 -17.817  0.00  0.00     0.000 A 
ENDBRANCH   6  10
ENDBRANCH   1   2
BRANCH   1  17
ATOM     17  C   UNL d   1       9.431   0.722 -16.480  0.00  0.00     0.208 C 
ATOM     18  O   UNL d   1       9.868  -0.604 -16.445  0.00  0.00    -0.219 OA
BRANCH  17  19
ATOM     19  C   UNL d   1       8.216   0.853 -15.511  0.00  0.00     0.285 C 
BRANCH  19  20
ATOM     20  N   UNL d   1       7.981   2.213 -14.991  0.00  0.00     0.144 N 
ATOM     21  C   UNL d   1       9.082   2.671 -14.141  0.00  0.00     0.286 C 
ATOM     22  C   UNL d   1       8.820   4.068 -13.578  0.00  0.00     0.286 C 
ATOM     23  N   UNL d   1       7.590   4.108 -12.790  0.00  0.00     0.146 N 
ATOM     24  C   UNL d   1       6.475   3.660 -13.630  0.00  0.00     0.286 C 
ATOM     25  C   UNL d   1       6.735   2.258 -14.218  0.00  0.00     0.286 C 
BRANCH  23  26
ATOM     26  C   UNL d   1       7.354   5.439 -12.224  0.00  0.00     0.277 C 
BRANCH  26  27
ATOM     27  C   UNL d   1       8.396   5.840 -11.197  0.00  0.00     0.011 A 
ATOM     28  C   UNL d   1       9.223   6.957 -11.422  0.00  0.00    -0.002 A 
ATOM     29  C   UNL d   1      10.151   7.357 -10.439  0.00  0.00    -0.000 A 
ATOM     30  C   UNL d   1      10.260   6.635  -9.235  0.00  0.00    -0.000 A 
ATOM     31  C   UNL d   1       9.444   5.513  -9.012  0.00  0.00    -0.000 A 
ATOM     32  C   UNL d   1       8.510   5.118  -9.993  0.00  0.00    -0.002 A 
ENDBRANCH  26  27
ENDBRANCH  23  26
ENDBRANCH  19  20
ENDBRANCH  17  19
ENDBRANCH   1  17
TORSDOF 7
