REMARK  7 active torsions:
REMARK  status: ('A' for Active; 'I' for Inactive)
REMARK    1  A    between atoms: C_6  and  N_7 
REMARK    2  A    between atoms: N_10  and  C_11 
REMARK    3  A    between atoms: C_11  and  C_12 
REMARK    4  A    between atoms: C_12  and  C_13 
REMARK    5  A    between atoms: C_13  and  C_14 
REMARK    6  A    between atoms: C_14  and  N_15 
REMARK    7  A    between atoms: C_17  and  C_18 
ROOT
ATOM      1  N   UNL d   1       8.802   3.835 -13.628  0.00  0.00    -0.231 N 
ATOM      2  C   UNL d   1       9.466   3.910 -12.427  0.00  0.00     0.118 A 
ATOM      3  C   UNL d   1       9.062   5.104 -11.896  0.00  0.00     0.123 A 
ATOM      4  N   UNL d   1       8.210   5.713 -12.810  0.00  0.00    -0.129 NA
ATOM      5  N   UNL d   1       8.053   4.938 -13.831  0.00  0.00    -0.064 NA
ENDROOT
BRANCH   1   6
ATOM      6  C   UNL d   1       8.829   2.793 -14.640  0.00  0.00     0.129 C 
BRANCH   6   7
ATOM      7  C   UNL d   1       7.539   1.949 -14.658  0.00  0.00     0.029 C 
BRANCH   7   8
ATOM      8  C   UNL d   1       7.575   0.863 -15.742  0.00  0.00     0.037 C 
BRANCH   8   9
ATOM      9  C   UNL d   1       6.379  -0.116 -15.652  0.00  0.00     0.251 C 
BRANCH   9  10
ATOM     10  N   UNL d   1       5.747  -0.300 -16.958  0.00  0.00     0.141 N 
ATOM     11  C   UNL d   1       6.617  -1.109 -17.811  0.00  0.00     0.274 C 
ATOM     12  C   UNL d   1       6.002  -1.288 -19.202  0.00  0.00     0.137 C 
ATOM     13  N   UNL d   1       4.667  -1.862 -19.109  0.00  0.00    -0.344 N 
ATOM     14  C   UNL d   1       3.776  -1.185 -18.159  0.00  0.00     0.137 C 
ATOM     15  C   UNL d   1       4.475  -1.009 -16.793  0.00  0.00     0.274 C 
BRANCH  13  16
ATOM     16  C   UNL d   1       4.283  -2.998 -19.838  0.00  0.00     0.068 A 
ATOM     17  C   UNL d   1       3.537  -4.004 -19.173  0.00  0.00     0.018 A 
ATOM     18  C   UNL d   1       3.121  -5.176 -19.832  0.00  0.00     0.002 A 
ATOM     19  C   UNL d   1       3.443  -5.362 -21.184  0.00  0.00     0.012 A 
ATOM     20  C   UNL d   1       4.173  -4.387 -21.877  0.00  0.00     0.070 A 
ATOM     21 CL   UNL d   1       4.538  -4.646 -23.540  0.00  0.00    -0.081 Cl
ATOM     22  C   UNL d   1       4.601  -3.205 -21.223  0.00  0.00     0.084 A 
ATOM     23 CL   UNL d   1       5.467  -2.037 -22.170  0.00  0.00    -0.080 Cl
ENDBRANCH  13  16
ENDBRANCH   9  10
ENDBRANCH   8   9
ENDBRANCH   7   8
ENDBRANCH   6   7
ENDBRANCH   1   6
BRANCH   3  24
ATOM     24  C   UNL d   1       9.400   5.743 -10.633  0.00  0.00     0.021 A 
ATOM     25  C   UNL d   1       9.851   7.081 -10.626  0.00  0.00    -0.002 A 
ATOM     26  C   UNL d   1      10.223   7.654  -9.395  0.00  0.00    -0.018 A 
ATOM     27  C   UNL d   1      10.097   6.945  -8.201  0.00  0.00    -0.004 A 
ATOM     28  C   UNL d   1      10.746   9.052  -9.145  0.00  0.00     0.053 A 
ATOM     29  C   UNL d   1       9.590   5.649  -8.195  0.00  0.00    -0.000 A 
ATOM     30  C   UNL d   1      10.544   7.774  -7.094  0.00  0.00    -0.004 A 
ATOM     31  C   UNL d   1       9.271   5.026  -9.420  0.00  0.00     0.002 A 
ATOM     32  C   UNL d   1      10.919   9.005  -7.631  0.00  0.00    -0.018 A 
ATOM     33  C   UNL d   1      10.623   7.519  -5.708  0.00  0.00    -0.000 A 
ATOM     34  C   UNL d   1      11.362  10.036  -6.795  0.00  0.00    -0.004 A 
ATOM     35  C   UNL d   1      11.434   9.804  -5.413  0.00  0.00    -0.000 A 
ATOM     36  C   UNL d   1      11.085   8.557  -4.868  0.00  0.00    -0.000 A 
ENDBRANCH   3  24
TORSDOF 7
