REMARK  3 active torsions:
REMARK  status: ('A' for Active; 'I' for Inactive)
REMARK    1  A    between atoms: C_2  and  C_3 
REMARK    2  A    between atoms: C_3  and  N_4 
REMARK    3  A    between atoms: C_12  and  C_13 
ROOT
ATOM      1  N   UNL d   1      11.479   8.594  -4.978  0.00  0.00     0.140 N 
ATOM      2  C   UNL d   1      12.253   9.675  -5.601  0.00  0.00     0.251 C 
ATOM      3  C   UNL d   1      11.782   9.805  -7.036  0.00  0.00     0.042 C 
ATOM      4  C   UNL d   1      10.636   8.820  -7.116  0.00  0.00     0.055 C 
ATOM      5  C   UNL d   1      10.285   8.220  -8.466  0.00  0.00    -0.024 A 
ATOM      6  C   UNL d   1      10.390   8.983  -9.635  0.00  0.00    -0.004 A 
ATOM      7  C   UNL d   1       9.940   8.437 -10.837  0.00  0.00    -0.000 A 
ATOM      8  C   UNL d   1       9.478   7.124 -10.928  0.00  0.00     0.004 A 
ATOM      9  C   UNL d   1       9.394   6.334  -9.773  0.00  0.00     0.055 A 
ATOM     10  C   UNL d   1       9.774   6.902  -8.534  0.00  0.00    -0.021 A 
ATOM     11  C   UNL d   1       9.643   6.096  -7.262  0.00  0.00     0.028 C 
ATOM     12  C   UNL d   1       9.957   6.807  -5.960  0.00  0.00     0.038 C 
ATOM     13  C   UNL d   1      11.101   7.779  -6.136  0.00  0.00     0.224 C 
ENDROOT
BRANCH   1  14
ATOM     14  C   UNL d   1      12.275   7.915  -3.949  0.00  0.00     0.276 C 
BRANCH  14  15
ATOM     15  C   UNL d   1      11.465   6.947  -3.113  0.00  0.00     0.009 C 
ATOM     16  C   UNL d   1      11.662   6.736  -1.818  0.00  0.00    -0.003 C 
ENDBRANCH  14  15
ENDBRANCH   1  14
BRANCH   9  17
ATOM     17  C   UNL d   1       8.880   4.939  -9.912  0.00  0.00     0.296 C 
ATOM     18  N   UNL d   1       7.908   4.774 -10.819  0.00  0.00    -0.102 N 
ATOM     19  O   UNL d   1       9.306   4.022  -9.208  0.00  0.00    -0.264 OA
ENDBRANCH   9  17
TORSDOF 3
