REMARK  6 active torsions:
REMARK  status: ('A' for Active; 'I' for Inactive)
REMARK    1  A    between atoms: O_2  and  C_3 
REMARK    2  A    between atoms: C_9  and  C_10 
REMARK    3  A    between atoms: C_12  and  C_13 
REMARK    4  A    between atoms: C_13  and  N_14 
REMARK    5  A    between atoms: N_17  and  C_18 
REMARK    6  A    between atoms: C_18  and  C_19 
ROOT
ATOM      1  C   UNL d   1       8.642   0.234 -16.706  0.00  0.00     0.112 A 
ATOM      2  N   UNL d   1       9.509   1.009 -16.112  0.00  0.00    -0.241 NA
ATOM      3  C   UNL d   1      10.756   1.118 -16.734  0.00  0.00     0.100 A 
ATOM      4  C   UNL d   1      10.876   0.261 -17.799  0.00  0.00     0.054 A 
ATOM      5  S   UNL d   1       9.371  -0.578 -18.106  0.00  0.00    -0.066 SA
ENDROOT
BRANCH   3   6
ATOM      6  C   UNL d   1      11.747   2.140 -16.273  0.00  0.00     0.296 C 
BRANCH   6   7
ATOM      7  N   UNL d   1      11.326   3.308 -15.489  0.00  0.00     0.147 N 
ATOM      8  C   UNL d   1      10.122   3.963 -16.009  0.00  0.00     0.286 C 
ATOM      9  C   UNL d   1       9.781   5.193 -15.171  0.00  0.00     0.286 C 
ATOM     10  N   UNL d   1       9.573   4.887 -13.757  0.00  0.00     0.146 N 
ATOM     11  C   UNL d   1      10.780   4.253 -13.256  0.00  0.00     0.286 C 
ATOM     12  C   UNL d   1      11.154   3.009 -14.065  0.00  0.00     0.286 C 
BRANCH  10  13
ATOM     13  C   UNL d   1       9.168   6.074 -12.985  0.00  0.00     0.277 C 
BRANCH  13  14
ATOM     14  C   UNL d   1       9.114   5.894 -11.470  0.00  0.00     0.011 A 
ATOM     15  C   UNL d   1       8.365   4.854 -10.887  0.00  0.00    -0.002 A 
ATOM     16  C   UNL d   1       8.408   4.650  -9.498  0.00  0.00    -0.000 A 
ATOM     17  C   UNL d   1       9.144   5.506  -8.664  0.00  0.00    -0.000 A 
ATOM     18  C   UNL d   1       9.866   6.573  -9.234  0.00  0.00    -0.000 A 
ATOM     19  C   UNL d   1       9.857   6.766 -10.632  0.00  0.00    -0.002 A 
ENDBRANCH  13  14
ENDBRANCH  10  13
ENDBRANCH   6   7
ENDBRANCH   3   6
BRANCH   1  20
ATOM     20  C   UNL d   1       7.217   0.046 -16.347  0.00  0.00     0.047 A 
ATOM     21  C   UNL d   1       6.667   0.632 -15.165  0.00  0.00     0.096 A 
ATOM     22  C   UNL d   1       5.333   0.342 -14.787  0.00  0.00     0.025 A 
ATOM     23  C   UNL d   1       4.518  -0.459 -15.590  0.00  0.00     0.009 A 
ATOM     24  C   UNL d   1       5.029  -0.957 -16.805  0.00  0.00     0.035 A 
ATOM     25 BR   UNL d   1       3.910  -1.953 -17.979  0.00  0.00    -0.049 Br
ATOM     26  C   UNL d   1       6.361  -0.709 -17.178  0.00  0.00     0.011 A 
BRANCH  21  27
ATOM     27  O   UNL d   1       7.449   1.431 -14.373  0.00  0.00    -0.328 OA
ATOM     28  C   UNL d   1       6.868   2.593 -13.799  0.00  0.00     0.181 C 
ENDBRANCH  21  27
ENDBRANCH   1  20
TORSDOF 6
