REMARK  9 active torsions:
REMARK  status: ('A' for Active; 'I' for Inactive)
REMARK    1  A    between atoms: O_2  and  C_3 
REMARK    2  A    between atoms: C_9  and  C_10 
REMARK    3  A    between atoms: C_12  and  C_13 
REMARK    4  A    between atoms: C_13  and  N_14 
REMARK    5  A    between atoms: N_14  and  C_15 
REMARK    6  A    between atoms: C_15  and  C_16 
REMARK    7  A    between atoms: C_16  and  C_17 
REMARK    8  A    between atoms: C_17  and  O_18 
REMARK    9  A    between atoms: O_18  and  C_19 
ROOT
ATOM      1  C   UNL d   1       8.703   5.219 -12.224  0.00  0.00     0.293 C 
ENDROOT
BRANCH   1   2
ATOM      2  N   UNL d   1       9.491   5.212 -11.017  0.00  0.00     0.339 N 
BRANCH   2   3
ATOM      3  C   UNL d   1       9.112   6.271 -10.111  0.00  0.00     0.290 C 
BRANCH   3   4
ATOM      4  C   UNL d   1      10.166   6.383  -9.029  0.00  0.00     0.041 A 
ATOM      5  C   UNL d   1       9.735   6.530  -7.555  0.00  0.00     0.026 A 
ATOM      6  C   UNL d   1      10.395   5.288  -8.037  0.00  0.00     0.007 A 
BRANCH   5   7
ATOM      7  C   UNL d   1      10.427   7.491  -6.634  0.00  0.00     0.001 A 
ATOM      8  C   UNL d   1      10.773   8.808  -7.038  0.00  0.00     0.090 A 
ATOM      9  C   UNL d   1      11.493   9.635  -6.158  0.00  0.00     0.025 A 
ATOM     10  C   UNL d   1      11.839   9.192  -4.869  0.00  0.00     0.013 A 
ATOM     11  C   UNL d   1      11.473   7.896  -4.455  0.00  0.00     0.058 A 
ATOM     12 CL   UNL d   1      11.924   7.345  -2.884  0.00  0.00    -0.082 Cl
ATOM     13  C   UNL d   1      10.769   7.056  -5.339  0.00  0.00     0.009 A 
BRANCH   8  14
ATOM     14  O   UNL d   1      10.526   9.296  -8.295  0.00  0.00    -0.328 OA
ATOM     15  C   UNL d   1       9.154   9.357  -8.684  0.00  0.00     0.181 C 
ENDBRANCH   8  14
ENDBRANCH   5   7
ENDBRANCH   3   4
ENDBRANCH   2   3
ENDBRANCH   1   2
BRANCH   1  16
ATOM     16  C   UNL d   1       9.248   4.123 -13.149  0.00  0.00     0.071 C 
BRANCH  16  17
ATOM     17  C   UNL d   1       8.588   4.200 -14.525  0.00  0.00     0.151 C 
BRANCH  17  18
ATOM     18  O   UNL d   1       8.999   3.120 -15.365  0.00  0.00    -0.331 OA
BRANCH  18  19
ATOM     19  C   UNL d   1       8.135   2.065 -15.567  0.00  0.00     0.096 A 
ATOM     20  C   UNL d   1       7.044   1.754 -14.716  0.00  0.00     0.043 A 
ATOM     21  C   UNL d   1       6.182   0.687 -15.043  0.00  0.00     0.087 A 
ATOM     22  C   UNL d   1       6.397  -0.072 -16.206  0.00  0.00     0.018 A 
ATOM     23  N   UNL d   1       5.077   0.378 -14.212  0.00  0.00    -0.208 NA
ATOM     24  C   UNL d   1       7.494   0.212 -17.041  0.00  0.00     0.004 A 
ATOM     25  C   UNL d   1       5.448  -1.156 -16.477  0.00  0.00     0.006 A 
ATOM     26  C   UNL d   1       8.361   1.272 -16.712  0.00  0.00     0.024 A 
ATOM     27  C   UNL d   1       4.417  -1.409 -15.645  0.00  0.00     0.063 A 
ATOM     28  C   UNL d   1       4.190  -0.612 -14.442  0.00  0.00     0.279 A 
ATOM     29  O   UNL d   1       3.284  -0.811 -13.638  0.00  0.00    -0.265 OA
ENDBRANCH  18  19
ENDBRANCH  17  18
ENDBRANCH  16  17
ENDBRANCH   1  16
TORSDOF 9
