REMARK  8 active torsions:
REMARK  status: ('A' for Active; 'I' for Inactive)
REMARK    1  A    between atoms: C_3  and  S_4 
REMARK    2  A    between atoms: S_4  and  C_5 
REMARK    3  A    between atoms: C_5  and  C_6 
REMARK    4  A    between atoms: C_6  and  C_7 
REMARK    5  A    between atoms: C_7  and  N_8 
REMARK    6  A    between atoms: C_12  and  C_13 
REMARK    7  A    between atoms: C_16  and  C_17 
REMARK    8  A    between atoms: C_26  and  C_27 
ROOT
ATOM      1  C   UNL d   1       9.392   5.846 -10.755  0.00  0.00     0.036 A 
ATOM      2  C   UNL d   1       9.842   7.179 -10.869  0.00  0.00     0.004 A 
ATOM      3  C   UNL d   1      10.082   7.958  -9.724  0.00  0.00     0.010 A 
ATOM      4  C   UNL d   1       9.861   7.413  -8.444  0.00  0.00     0.068 A 
ATOM      5  C   UNL d   1      10.088   8.223  -7.260  0.00  0.00     0.101 C 
ATOM      6  N   UNL d   1      10.266   8.871  -6.317  0.00  0.00    -0.191 NA
ATOM      7  C   UNL d   1       9.412   6.079  -8.321  0.00  0.00     0.010 A 
ATOM      8  C   UNL d   1       9.178   5.300  -9.470  0.00  0.00     0.004 A 
ENDROOT
BRANCH   1   9
ATOM      9  C   UNL d   1       9.177   5.040 -11.958  0.00  0.00     0.167 A 
ATOM     10  N   UNL d   1       8.023   4.437 -12.310  0.00  0.00    -0.289 N 
ATOM     11  C   UNL d   1       6.742   4.471 -11.636  0.00  0.00     0.134 C 
ATOM     12  C   UNL d   1       8.367   3.785 -13.439  0.00  0.00     0.193 A 
ATOM     13  N   UNL d   1       9.639   3.983 -13.790  0.00  0.00    -0.122 NA
ATOM     14  N   UNL d   1      10.159   4.821 -12.840  0.00  0.00    -0.128 NA
BRANCH  12  15
ATOM     15  S   UNL d   1       7.208   2.786 -14.337  0.00  0.00    -0.075 SA
BRANCH  15  16
ATOM     16  C   UNL d   1       8.296   1.456 -14.934  0.00  0.00     0.067 C 
BRANCH  16  17
ATOM     17  C   UNL d   1       9.127   1.865 -16.164  0.00  0.00     0.047 C 
BRANCH  17  18
ATOM     18  C   UNL d   1      10.236   0.861 -16.507  0.00  0.00     0.251 C 
BRANCH  18  19
ATOM     19  N   UNL d   1      10.945   1.147 -17.755  0.00  0.00     0.143 N 
ATOM     20  C   UNL d   1      11.634   2.441 -17.740  0.00  0.00     0.284 C 
ATOM     21  C   UNL d   1      12.397   2.713 -19.051  0.00  0.00     0.171 C 
ATOM     22  O   UNL d   1      13.314   1.651 -19.288  0.00  0.00    -0.348 OA
ATOM     23  C   UNL d   1      12.678   0.379 -19.363  0.00  0.00     0.178 C 
ATOM     24  C   UNL d   1      11.916   0.105 -18.055  0.00  0.00     0.282 C 
BRANCH  21  25
ATOM     25  C   UNL d   1      13.125   4.047 -19.006  0.00  0.00     0.007 A 
ATOM     26  C   UNL d   1      12.656   5.160 -19.739  0.00  0.00    -0.002 A 
ATOM     27  C   UNL d   1      13.354   6.384 -19.694  0.00  0.00     0.004 A 
ATOM     28  C   UNL d   1      14.521   6.512 -18.912  0.00  0.00     0.071 A 
ATOM     29  C   UNL d   1      14.977   5.404 -18.163  0.00  0.00     0.004 A 
ATOM     30  C   UNL d   1      14.281   4.182 -18.213  0.00  0.00    -0.002 A 
BRANCH  28  31
ATOM     31  C   UNL d   1      15.272   7.835 -18.878  0.00  0.00     0.419 C 
ATOM     32  F   UNL d   1      16.527   7.662 -18.452  0.00  0.00    -0.166 F 
ATOM     33  F   UNL d   1      15.312   8.387 -20.093  0.00  0.00    -0.166 F 
ATOM     34  F   UNL d   1      14.653   8.674 -18.048  0.00  0.00    -0.166 F 
ENDBRANCH  28  31
ENDBRANCH  21  25
ENDBRANCH  18  19
ENDBRANCH  17  18
ENDBRANCH  16  17
ENDBRANCH  15  16
ENDBRANCH  12  15
ENDBRANCH   1   9
TORSDOF 8
