REMARK  10 active torsions:
REMARK  status: ('A' for Active; 'I' for Inactive)
REMARK    1  A    between atoms: S_2  and  C_3 
REMARK    2  A    between atoms: C_8  and  C_9 
REMARK    3  A    between atoms: C_11  and  C_12 
REMARK    4  A    between atoms: C_12  and  N_13 
REMARK    5  A    between atoms: N_13  and  C_14 
REMARK    6  A    between atoms: C_14  and  C_15 
REMARK    7  A    between atoms: C_15  and  C_16 
REMARK    8  A    between atoms: C_16  and  C_17 
REMARK    9  A    between atoms: C_17  and  O_18 
REMARK   10  A    between atoms: O_18  and  C_19 
ROOT
ATOM      1  C   UNL d   1       9.870   7.965 -11.273  0.00  0.00     0.041 C 
ENDROOT
BRANCH   1   2
ATOM      2  C   UNL d   1       8.566   7.264 -11.541  0.00  0.00     0.290 C 
BRANCH   2   3
ATOM      3  N   UNL d   1       8.594   6.364 -12.667  0.00  0.00     0.339 N 
BRANCH   3   4
ATOM      4  C   UNL d   1       7.245   5.849 -12.818  0.00  0.00     0.290 C 
BRANCH   4   5
ATOM      5  C   UNL d   1       7.297   4.790 -13.885  0.00  0.00     0.041 A 
ATOM      6  C   UNL d   1       7.231   3.350 -13.505  0.00  0.00     0.025 A 
ATOM      7  C   UNL d   1       6.052   3.984 -14.180  0.00  0.00     0.007 A 
BRANCH   6   8
ATOM      8  C   UNL d   1       8.074   2.326 -14.228  0.00  0.00    -0.017 A 
ATOM      9  C   UNL d   1       7.540   1.072 -14.619  0.00  0.00     0.021 A 
ATOM     10  C   UNL d   1       8.343   0.169 -15.349  0.00  0.00     0.006 A 
ATOM     11  C   UNL d   1       9.681   0.471 -15.653  0.00  0.00     0.001 A 
ATOM     12  C   UNL d   1      10.226   1.695 -15.235  0.00  0.00    -0.000 A 
ATOM     13  C   UNL d   1       9.424   2.615 -14.528  0.00  0.00    -0.004 A 
BRANCH   9  14
ATOM     14  S   UNL d   1       5.862   0.640 -14.205  0.00  0.00    -0.113 SA
ATOM     15  C   UNL d   1       5.563  -1.094 -14.647  0.00  0.00     0.074 C 
ENDBRANCH   9  14
ENDBRANCH   6   8
ENDBRANCH   4   5
ENDBRANCH   3   4
ENDBRANCH   2   3
ENDBRANCH   1   2
BRANCH   1  16
ATOM     16  C   UNL d   1       9.904   8.647  -9.915  0.00  0.00     0.035 C 
BRANCH  16  17
ATOM     17  C   UNL d   1      11.364   9.043  -9.536  0.00  0.00     0.149 C 
BRANCH  17  18
ATOM     18  O   UNL d   1      11.453   9.581  -8.238  0.00  0.00    -0.331 OA
BRANCH  18  19
ATOM     19  C   UNL d   1      11.486   8.760  -7.143  0.00  0.00     0.096 A 
ATOM     20  C   UNL d   1      11.990   9.324  -5.949  0.00  0.00     0.043 A 
ATOM     21  C   UNL d   1      12.007   8.560  -4.766  0.00  0.00     0.082 A 
ATOM     22  C   UNL d   1      11.535   7.234  -4.789  0.00  0.00    -0.004 A 
ATOM     23  N   UNL d   1      12.617   9.033  -3.585  0.00  0.00    -0.212 NA
ATOM     24  C   UNL d   1      11.014   6.697  -5.959  0.00  0.00    -0.001 A 
ATOM     25  C   UNL d   1      11.710   6.363  -3.591  0.00  0.00     0.038 C 
ATOM     26  C   UNL d   1      11.036   7.416  -7.146  0.00  0.00     0.024 A 
ATOM     27  C   UNL d   1      11.663   7.161  -2.297  0.00  0.00     0.095 C 
ATOM     28  C   UNL d   1      12.528   8.412  -2.398  0.00  0.00     0.256 C 
ATOM     29  O   UNL d   1      13.104   8.816  -1.402  0.00  0.00    -0.270 OA
ENDBRANCH  18  19
ENDBRANCH  17  18
ENDBRANCH  16  17
ENDBRANCH   1  16
TORSDOF 10
