REMARK  10 active torsions:
REMARK  status: ('A' for Active; 'I' for Inactive)
REMARK    1  A    between atoms: C_2  and  O_3 
REMARK    2  A    between atoms: O_3  and  C_4 
REMARK    3  A    between atoms: C_4  and  C_6 
REMARK    4  A    between atoms: C_10  and  O_11 
REMARK    5  A    between atoms: O_11  and  C_12 
REMARK    6  A    between atoms: C_12  and  C_13 
REMARK    7  A    between atoms: C_13  and  C_14 
REMARK    8  A    between atoms: C_14  and  C_15 
REMARK    9  A    between atoms: C_15  and  N_16 
REMARK   10  A    between atoms: N_19  and  C_20 
ROOT
ATOM      1  C   UNL d   1       9.080   1.853 -15.793  0.00  0.00     0.035 C 
ENDROOT
BRANCH   1   2
ATOM      2  C   UNL d   1      10.591   1.966 -16.140  0.00  0.00     0.149 C 
BRANCH   2   3
ATOM      3  O   UNL d   1      10.814   1.599 -17.495  0.00  0.00    -0.331 OA
BRANCH   3   4
ATOM      4  C   UNL d   1      10.366   2.453 -18.481  0.00  0.00     0.097 A 
ATOM      5  C   UNL d   1       9.838   3.718 -18.249  0.00  0.00     0.043 A 
ATOM      6  C   UNL d   1       9.364   4.487 -19.337  0.00  0.00     0.087 A 
ATOM      7  C   UNL d   1       8.777   5.711 -19.481  0.00  0.00     0.046 A 
ATOM      8  N   UNL d   1       9.461   3.943 -20.627  0.00  0.00    -0.228 N 
ATOM      9  C   UNL d   1       8.551   5.856 -20.878  0.00  0.00     0.166 A 
ATOM     10  N   UNL d   1       8.952   4.799 -21.564  0.00  0.00    -0.160 NA
ATOM     11  C   UNL d   1       9.993   2.717 -20.872  0.00  0.00     0.102 A 
ATOM     12  C   UNL d   1      10.449   1.968 -19.810  0.00  0.00     0.045 A 
BRANCH   9  13
ATOM     13  C   UNL d   1       7.942   7.028 -21.500  0.00  0.00     0.315 C 
ATOM     14  O   UNL d   1       7.726   7.144 -22.707  0.00  0.00    -0.257 OA
BRANCH  13  15
ATOM     15  O   UNL d   1       7.642   7.991 -20.600  0.00  0.00    -0.297 OA
BRANCH  15  16
ATOM     16  C   UNL d   1       7.026   9.207 -21.003  0.00  0.00     0.152 C 
ATOM     17  C   UNL d   1       5.522   9.142 -20.718  0.00  0.00     0.035 C 
ENDBRANCH  15  16
ENDBRANCH  13  15
ENDBRANCH   9  13
ENDBRANCH   3   4
ENDBRANCH   2   3
ENDBRANCH   1   2
BRANCH   1  18
ATOM     18  C   UNL d   1       8.712   2.502 -14.455  0.00  0.00     0.038 C 
BRANCH  18  19
ATOM     19  C   UNL d   1       9.103   3.994 -14.376  0.00  0.00     0.251 C 
BRANCH  19  20
ATOM     20  N   UNL d   1       8.678   4.590 -13.120  0.00  0.00     0.141 N 
ATOM     21  C   UNL d   1       8.774   6.046 -13.234  0.00  0.00     0.274 C 
ATOM     22  C   UNL d   1       8.353   6.736 -11.937  0.00  0.00     0.137 C 
ATOM     23  N   UNL d   1       9.181   6.236 -10.854  0.00  0.00    -0.344 N 
ATOM     24  C   UNL d   1       9.207   4.788 -10.729  0.00  0.00     0.137 C 
ATOM     25  C   UNL d   1       9.603   4.158 -12.069  0.00  0.00     0.274 C 
BRANCH  23  26
ATOM     26  C   UNL d   1       9.802   7.104  -9.941  0.00  0.00     0.068 A 
ATOM     27  C   UNL d   1       9.695   6.926  -8.543  0.00  0.00     0.084 A 
ATOM     28  C   UNL d   1      10.377   7.795  -7.662  0.00  0.00     0.070 A 
ATOM     29 CL   UNL d   1       8.663   5.698  -7.905  0.00  0.00    -0.080 Cl
ATOM     30  C   UNL d   1      11.132   8.865  -8.168  0.00  0.00     0.012 A 
ATOM     31 CL   UNL d   1      10.289   7.579  -5.958  0.00  0.00    -0.081 Cl
ATOM     32  C   UNL d   1      11.206   9.073  -9.554  0.00  0.00     0.002 A 
ATOM     33  C   UNL d   1      10.538   8.205 -10.435  0.00  0.00     0.018 A 
ENDBRANCH  23  26
ENDBRANCH  19  20
ENDBRANCH  18  19
ENDBRANCH   1  18
TORSDOF 10
