REMARK  8 active torsions:
REMARK  status: ('A' for Active; 'I' for Inactive)
REMARK       I    between atoms: N_2  and  C_3 
REMARK    1  A    between atoms: C_3  and  C_5 
REMARK    2  A    between atoms: C_9  and  O_10 
REMARK    3  A    between atoms: O_10  and  C_11 
REMARK    4  A    between atoms: C_11  and  C_12 
REMARK    5  A    between atoms: C_12  and  C_13 
REMARK    6  A    between atoms: C_13  and  C_14 
REMARK    7  A    between atoms: C_14  and  N_15 
REMARK    8  A    between atoms: C_18  and  C_19 
ROOT
ATOM      1  N   UNL d   1       9.362   3.402 -14.735  0.00  0.00     0.137 N 
ATOM      2  C   UNL d   1       8.401   2.310 -14.548  0.00  0.00     0.251 C 
ATOM      3  C   UNL d   1       7.786   1.896 -15.890  0.00  0.00     0.041 C 
ATOM      4  C   UNL d   1       8.865   1.460 -16.888  0.00  0.00     0.047 C 
ATOM      5  C   UNL d   1       9.956   2.544 -16.969  0.00  0.00     0.041 C 
ATOM      6  C   UNL d   1      10.471   2.934 -15.574  0.00  0.00     0.251 C 
ENDROOT
BRANCH   1   7
ATOM      7  C   UNL d   1       9.902   3.837 -13.446  0.00  0.00     0.250 C 
BRANCH   7   8
ATOM      8  C   UNL d   1       8.865   4.586 -12.590  0.00  0.00     0.038 C 
BRANCH   8   9
ATOM      9  C   UNL d   1       9.438   4.990 -11.234  0.00  0.00     0.035 C 
BRANCH   9  10
ATOM     10  C   UNL d   1       8.411   5.692 -10.345  0.00  0.00     0.149 C 
BRANCH  10  11
ATOM     11  O   UNL d   1       8.879   5.747  -8.996  0.00  0.00    -0.331 OA
BRANCH  11  12
ATOM     12  C   UNL d   1       9.741   6.751  -8.611  0.00  0.00     0.094 A 
ATOM     13  C   UNL d   1      10.272   7.731  -9.489  0.00  0.00     0.024 A 
ATOM     14  C   UNL d   1      11.138   8.726  -9.008  0.00  0.00     0.002 A 
ATOM     15  C   UNL d   1      11.491   8.763  -7.649  0.00  0.00     0.005 A 
ATOM     16  C   UNL d   1      10.965   7.803  -6.754  0.00  0.00     0.059 A 
ATOM     17  C   UNL d   1      10.110   6.794  -7.249  0.00  0.00     0.029 A 
BRANCH  16  18
ATOM     18  C   UNL d   1      11.335   7.825  -5.302  0.00  0.00     0.275 C 
ATOM     19  N   UNL d   1      11.472   9.052  -4.776  0.00  0.00    -0.232 NA
ATOM     20  C   UNL d   1      11.828   9.315  -3.392  0.00  0.00     0.155 C 
ATOM     21  O   UNL d   1      11.452   6.789  -4.651  0.00  0.00    -0.266 OA
ENDBRANCH  16  18
ENDBRANCH  11  12
ENDBRANCH  10  11
ENDBRANCH   9  10
ENDBRANCH   8   9
ENDBRANCH   7   8
ENDBRANCH   1   7
BRANCH   4  22
ATOM     22  C   UNL d   1       8.278   1.162 -18.250  0.00  0.00     0.087 A 
ATOM     23  C   UNL d   1       8.014  -0.054 -18.911  0.00  0.00     0.041 A 
ATOM     24  C   UNL d   1       7.421   0.207 -20.148  0.00  0.00     0.129 A 
ATOM     25  C   UNL d   1       8.236  -1.389 -18.520  0.00  0.00     0.006 A 
ATOM     26  O   UNL d   1       7.328   1.583 -20.223  0.00  0.00    -0.211 OA
ATOM     27  C   UNL d   1       7.040  -0.798 -21.048  0.00  0.00     0.057 A 
ATOM     28  N   UNL d   1       7.862   2.153 -19.034  0.00  0.00    -0.131 NA
ATOM     29  C   UNL d   1       7.262  -2.137 -20.660  0.00  0.00     0.142 A 
ATOM     30  F   UNL d   1       6.925  -3.148 -21.501  0.00  0.00    -0.204 F 
ATOM     31  C   UNL d   1       7.845  -2.429 -19.399  0.00  0.00     0.030 A 
ENDBRANCH   4  22
TORSDOF 8
