REMARK  7 active torsions:
REMARK  status: ('A' for Active; 'I' for Inactive)
REMARK    1  A    between atoms: C_2  and  C_3 
REMARK    2  A    between atoms: C_3  and  C_4 
REMARK       I    between atoms: C_4  and  N_6 
REMARK    3  A    between atoms: N_6  and  C_7 
REMARK    4  A    between atoms: C_10  and  C_11 
REMARK    5  A    between atoms: C_11  and  C_12 
REMARK    6  A    between atoms: C_12  and  N_13 
REMARK    7  A    between atoms: N_16  and  C_17 
ROOT
ATOM      1  N   UNL d   1       8.733   4.978 -12.496  0.00  0.00     0.141 N 
ATOM      2  C   UNL d   1       7.434   4.509 -11.989  0.00  0.00     0.274 C 
ATOM      3  C   UNL d   1       6.516   4.132 -13.156  0.00  0.00     0.137 C 
ATOM      4  N   UNL d   1       7.173   3.157 -14.022  0.00  0.00    -0.343 N 
ATOM      5  C   UNL d   1       8.530   3.508 -14.437  0.00  0.00     0.137 C 
ATOM      6  C   UNL d   1       9.381   3.886 -13.226  0.00  0.00     0.274 C 
ENDROOT
BRANCH   1   7
ATOM      7  C   UNL d   1       9.617   5.357 -11.406  0.00  0.00     0.250 C 
BRANCH   7   8
ATOM      8  C   UNL d   1       9.118   6.601 -10.667  0.00  0.00     0.035 C 
BRANCH   8   9
ATOM      9  C   UNL d   1      10.061   7.075  -9.562  0.00  0.00     0.002 C 
ATOM     10  C   UNL d   1       9.710   8.509  -9.117  0.00  0.00     0.002 C 
ATOM     11  C   UNL d   1      10.605   8.995  -7.967  0.00  0.00     0.024 C 
ATOM     12  C   UNL d   1      10.533   8.041  -6.780  0.00  0.00     0.106 C 
ATOM     13  C   UNL d   1      10.882   6.602  -7.237  0.00  0.00     0.024 C 
ATOM     14  C   UNL d   1       9.981   6.117  -8.369  0.00  0.00     0.002 C 
BRANCH  12  15
ATOM     15  N   UNL d   1      11.420   8.538  -5.727  0.00  0.00    -0.240 NA
ATOM     16  C   UNL d   1      11.552   7.924  -4.533  0.00  0.00     0.251 C 
ATOM     17  O   UNL d   1      11.038   6.864  -4.280  0.00  0.00    -0.271 OA
BRANCH  16  18
ATOM     18  C   UNL d   1      12.421   8.595  -3.492  0.00  0.00     0.090 C 
BRANCH  18  19
ATOM     19  C   UNL d   1      12.421   7.874  -2.110  0.00  0.00     0.010 C 
ATOM     20  C   UNL d   1      12.657   6.330  -2.134  0.00  0.00     0.001 C 
ENDBRANCH  18  19
ENDBRANCH  16  18
ENDBRANCH  12  15
ENDBRANCH   8   9
ENDBRANCH   7   8
ENDBRANCH   1   7
BRANCH   4  21
ATOM     21  C   UNL d   1       6.570   1.925 -14.365  0.00  0.00     0.081 A 
ATOM     22  C   UNL d   1       6.880   1.267 -15.569  0.00  0.00     0.135 A 
ATOM     23  C   UNL d   1       6.270   0.074 -15.935  0.00  0.00     0.121 A 
ATOM     24  O   UNL d   1       7.728   1.646 -16.561  0.00  0.00    -0.298 OA
ATOM     25  C   UNL d   1       5.299  -0.534 -15.127  0.00  0.00     0.026 A 
ATOM     26  O   UNL d   1       6.734  -0.321 -17.146  0.00  0.00    -0.299 OA
ATOM     27  C   UNL d   1       4.960   0.103 -13.920  0.00  0.00     0.004 A 
ATOM     28  C   UNL d   1       5.599   1.312 -13.533  0.00  0.00     0.019 A 
ATOM     29  C   UNL d   1       7.679   0.641 -17.533  0.00  0.00     0.304 A 
ENDBRANCH   4  21
TORSDOF 7
