REMARK  1 active torsions:
REMARK  status: ('A' for Active; 'I' for Inactive)
REMARK    1  A    between atoms: O_2  and  C_3 
ROOT
ATOM      1  C   UNL d   1      12.295   8.239  -3.538  0.00  0.00     0.119 A 
ATOM      2  C   UNL d   1      11.495   7.083  -3.460  0.00  0.00     0.026 A 
ATOM      3  C   UNL d   1      10.833   6.671  -4.611  0.00  0.00    -0.002 A 
ATOM      4  C   UNL d   1      10.931   7.307  -5.843  0.00  0.00    -0.020 A 
ATOM      5  C   UNL d   1      11.749   8.439  -5.942  0.00  0.00     0.034 A 
ATOM      6  C   UNL d   1      12.443   8.881  -4.791  0.00  0.00     0.151 A 
ATOM      7  O   UNL d   1      13.456   9.774  -4.829  0.00  0.00    -0.188 OA
ATOM      8  C   UNL d   1      11.967   9.018  -7.320  0.00  0.00     0.279 C 
ATOM      9  N   UNL d   1      10.889   8.699  -8.264  0.00  0.00     0.144 N 
ATOM     10  C   UNL d   1      11.209   9.273  -9.560  0.00  0.00     0.256 C 
ATOM     11  C   UNL d   1       9.966   9.111 -10.405  0.00  0.00     0.061 C 
ATOM     12  C   UNL d   1       9.537   7.708 -10.592  0.00  0.00    -0.020 A 
ATOM     13  C   UNL d   1       8.785   7.389 -11.756  0.00  0.00     0.022 A 
ATOM     14  C   UNL d   1       8.280   6.103 -11.847  0.00  0.00     0.119 A 
ATOM     15  C   UNL d   1       8.528   5.184 -10.861  0.00  0.00     0.119 A 
ATOM     16  C   UNL d   1       9.328   5.455  -9.723  0.00  0.00     0.024 A 
ATOM     17  C   UNL d   1       9.833   6.771  -9.578  0.00  0.00     0.007 A 
ATOM     18  C   UNL d   1      10.691   7.239  -8.377  0.00  0.00     0.246 C 
ATOM     19  C   UNL d   1      10.116   6.791  -7.027  0.00  0.00     0.064 C 
ATOM     20  O   UNL d   1       7.832   4.065 -11.157  0.00  0.00    -0.300 OA
ATOM     21  C   UNL d   1       7.200   4.281 -12.381  0.00  0.00     0.304 A 
ATOM     22  O   UNL d   1       7.439   5.597 -12.782  0.00  0.00    -0.300 OA
ENDROOT
BRANCH   1  23
ATOM     23  O   UNL d   1      13.032   8.768  -2.504  0.00  0.00    -0.326 OA
ATOM     24  C   UNL d   1      12.862   8.182  -1.241  0.00  0.00     0.181 C 
ENDBRANCH   1  23
TORSDOF 1
