REMARK  2 active torsions:
REMARK  status: ('A' for Active; 'I' for Inactive)
REMARK    1  A    between atoms: C_8  and  C_9 
REMARK    2  A    between atoms: C_9  and  C_10 
ROOT
ATOM      1  C   UNL d   1      11.137   7.061  -7.422  0.00  0.00     0.300 C 
ATOM      2  N   UNL d   1      11.797   8.343  -7.589  0.00  0.00     0.344 N 
ATOM      3  C   UNL d   1      12.428   8.491  -8.875  0.00  0.00     0.295 C 
ATOM      4  C   UNL d   1      11.356   8.590  -9.966  0.00  0.00     0.066 C 
ATOM      5  C   UNL d   1      10.418   7.447  -9.801  0.00  0.00    -0.003 A 
ATOM      6  C   UNL d   1      10.313   6.762  -8.650  0.00  0.00     0.089 A 
ATOM      7  N   UNL d   1       9.366   5.747  -8.824  0.00  0.00    -0.248 NA
ATOM      8  C   UNL d   1       8.855   5.791 -10.114  0.00  0.00     0.081 A 
ATOM      9  C   UNL d   1       7.893   5.046 -10.811  0.00  0.00     0.019 A 
ATOM     10  C   UNL d   1       7.573   5.380 -12.129  0.00  0.00     0.002 A 
ATOM     11  C   UNL d   1       8.240   6.467 -12.757  0.00  0.00     0.000 A 
ATOM     12  C   UNL d   1       9.205   7.213 -12.061  0.00  0.00     0.001 A 
ATOM     13  C   UNL d   1       9.525   6.895 -10.748  0.00  0.00     0.015 A 
ENDROOT
BRANCH   1  14
ATOM     14  C   UNL d   1      10.304   7.126  -6.141  0.00  0.00     0.071 C 
BRANCH  14  15
ATOM     15  C   UNL d   1      11.114   7.558  -4.912  0.00  0.00     0.008 A 
ATOM     16  C   UNL d   1      11.192   8.890  -4.480  0.00  0.00     0.154 A 
ATOM     17  O   UNL d   1      10.616   9.890  -5.212  0.00  0.00    -0.188 OA
ATOM     18  C   UNL d   1      11.843   9.179  -3.258  0.00  0.00     0.165 A 
ATOM     19  F   UNL d   1      11.859  10.426  -2.806  0.00  0.00    -0.202 F 
ATOM     20  C   UNL d   1      12.480   8.193  -2.493  0.00  0.00     0.032 A 
ATOM     21  C   UNL d   1      12.422   6.867  -2.931  0.00  0.00     0.002 A 
ATOM     22  C   UNL d   1      11.750   6.575  -4.125  0.00  0.00    -0.002 A 
ENDBRANCH  14  15
ENDBRANCH   1  14
TORSDOF 2
