REMARK  6 active torsions:
REMARK  status: ('A' for Active; 'I' for Inactive)
REMARK    1  A    between atoms: C_7  and  O_8 
REMARK    2  A    between atoms: O_8  and  C_9 
REMARK    3  A    between atoms: C_9  and  C_10 
REMARK    4  A    between atoms: C_10  and  C_11 
REMARK    5  A    between atoms: C_11  and  N_12 
REMARK    6  A    between atoms: N_15  and  C_16 
ROOT
ATOM      1  C   UNL d   1       9.577   5.430 -12.704  0.00  0.00     0.151 C 
ENDROOT
BRANCH   1   2
ATOM      2  O   UNL d   1       8.392   4.675 -12.902  0.00  0.00    -0.331 OA
BRANCH   2   3
ATOM      3  C   UNL d   1       8.418   3.646 -13.815  0.00  0.00     0.096 A 
ATOM      4  C   UNL d   1       7.195   2.984 -14.041  0.00  0.00     0.024 A 
ATOM      5  C   UNL d   1       7.117   1.909 -14.941  0.00  0.00     0.004 A 
ATOM      6  C   UNL d   1       8.274   1.490 -15.623  0.00  0.00     0.023 A 
ATOM      7  C   UNL d   1       8.262   0.387 -16.575  0.00  0.00     0.003 A 
ATOM      8  C   UNL d   1       9.506   2.137 -15.412  0.00  0.00     0.105 A 
ATOM      9  C   UNL d   1       9.379   0.000 -17.220  0.00  0.00     0.042 A 
ATOM     10  C   UNL d   1       9.404  -1.149 -18.212  0.00  0.00     0.037 C 
ATOM     11  C   UNL d   1      10.672   0.704 -16.985  0.00  0.00     0.296 A 
ATOM     12  O   UNL d   1      10.649   1.732 -16.073  0.00  0.00    -0.273 OA
ATOM     13  O   UNL d   1      11.710   0.393 -17.570  0.00  0.00    -0.259 OA
ATOM     14  C   UNL d   1       9.576   3.219 -14.513  0.00  0.00     0.049 A 
ENDBRANCH   2   3
ENDBRANCH   1   2
BRANCH   1  15
ATOM     15  C   UNL d   1       9.351   6.416 -11.556  0.00  0.00     0.068 C 
BRANCH  15  16
ATOM     16  C   UNL d   1       9.383   5.726 -10.178  0.00  0.00     0.253 C 
BRANCH  16  17
ATOM     17  N   UNL d   1       9.355   6.683  -9.075  0.00  0.00     0.141 N 
ATOM     18  C   UNL d   1      10.621   7.420  -8.933  0.00  0.00     0.274 C 
ATOM     19  C   UNL d   1      10.523   8.444  -7.793  0.00  0.00     0.137 C 
ATOM     20  N   UNL d   1      10.157   7.770  -6.563  0.00  0.00    -0.344 N 
ATOM     21  C   UNL d   1       8.966   6.935  -6.641  0.00  0.00     0.137 C 
ATOM     22  C   UNL d   1       9.066   5.961  -7.830  0.00  0.00     0.274 C 
BRANCH  20  23
ATOM     23  C   UNL d   1      10.915   7.921  -5.396  0.00  0.00     0.056 A 
ATOM     24  C   UNL d   1      11.264   9.214  -4.943  0.00  0.00     0.017 A 
ATOM     25  C   UNL d   1      11.990   9.371  -3.746  0.00  0.00     0.002 A 
ATOM     26  C   UNL d   1      12.408   8.249  -3.014  0.00  0.00     0.000 A 
ATOM     27  C   UNL d   1      12.068   6.961  -3.458  0.00  0.00     0.002 A 
ATOM     28  C   UNL d   1      11.320   6.795  -4.642  0.00  0.00     0.017 A 
ENDBRANCH  20  23
ENDBRANCH  16  17
ENDBRANCH  15  16
ENDBRANCH   1  15
TORSDOF 6
