REMARK  4 active torsions:
REMARK  status: ('A' for Active; 'I' for Inactive)
REMARK    1  A    between atoms: C_2  and  C_5 
REMARK    2  A    between atoms: C_8  and  C_9 
REMARK    3  A    between atoms: C_9  and  N_10 
REMARK    4  A    between atoms: C_13  and  C_14 
ROOT
ATOM      1  N   UNL d   1       8.309   4.958 -11.993  0.00  0.00     0.141 N 
ATOM      2  C   UNL d   1       7.320   4.223 -12.756  0.00  0.00     0.251 C 
ATOM      3  C   UNL d   1       7.836   4.094 -14.174  0.00  0.00     0.036 C 
ATOM      4  C   UNL d   1       9.270   3.529 -14.307  0.00  0.00     0.011 C 
ATOM      5  C   UNL d   1      10.196   4.256 -13.330  0.00  0.00     0.036 C 
ATOM      6  C   UNL d   1       9.571   4.243 -11.962  0.00  0.00     0.251 C 
ENDROOT
BRANCH   1   7
ATOM      7  C   UNL d   1       7.786   5.154 -10.649  0.00  0.00     0.277 C 
BRANCH   7   8
ATOM      8  C   UNL d   1       8.687   5.923  -9.703  0.00  0.00     0.011 A 
ATOM      9  C   UNL d   1       9.579   6.902 -10.178  0.00  0.00    -0.003 A 
ATOM     10  C   UNL d   1      10.433   7.564  -9.284  0.00  0.00    -0.005 A 
ATOM     11  C   UNL d   1      10.334   7.355  -7.886  0.00  0.00    -0.023 A 
ATOM     12  C   UNL d   1       9.359   6.444  -7.417  0.00  0.00    -0.005 A 
ATOM     13  C   UNL d   1       8.581   5.696  -8.320  0.00  0.00    -0.003 A 
BRANCH  11  14
ATOM     14  C   UNL d   1      11.256   8.091  -6.911  0.00  0.00     0.019 C 
ATOM     15  C   UNL d   1      11.660   7.178  -5.734  0.00  0.00     0.004 C 
ATOM     16  C   UNL d   1      10.533   9.307  -6.335  0.00  0.00     0.004 C 
ATOM     17  C   UNL d   1      12.537   8.596  -7.621  0.00  0.00     0.004 C 
ENDBRANCH  11  14
ENDBRANCH   7   8
ENDBRANCH   1   7
BRANCH   4  18
ATOM     18  C   UNL d   1       9.825   3.551 -15.759  0.00  0.00     0.062 C 
ATOM     19  C   UNL d   1       9.089   2.582 -16.719  0.00  0.00     0.172 C 
ATOM     20  C   UNL d   1       9.154   2.871 -18.166  0.00  0.00     0.031 A 
ATOM     21  O   UNL d   1       8.492   1.603 -16.260  0.00  0.00    -0.291 OA
ATOM     22  C   UNL d   1       9.809   4.031 -18.666  0.00  0.00    -0.019 A 
ATOM     23  C   UNL d   1       8.542   1.982 -19.072  0.00  0.00     0.003 A 
ATOM     24  C   UNL d   1      10.482   5.032 -17.741  0.00  0.00     0.027 C 
ATOM     25  C   UNL d   1       9.833   4.284 -20.049  0.00  0.00    -0.004 A 
ATOM     26  C   UNL d   1       9.897   4.996 -16.357  0.00  0.00     0.012 C 
ATOM     27  C   UNL d   1       9.226   3.386 -20.941  0.00  0.00    -0.000 A 
ATOM     28  C   UNL d   1       8.578   2.233 -20.453  0.00  0.00     0.000 A 
ENDBRANCH   4  18
TORSDOF 4
