REMARK  12 active torsions:
REMARK  status: ('A' for Active; 'I' for Inactive)
REMARK    1  A    between atoms: C_2  and  C_3 
REMARK    2  A    between atoms: C_3  and  N_4 
REMARK    3  A    between atoms: N_4  and  C_5 
REMARK    4  A    between atoms: N_4  and  C_24 
REMARK    5  A    between atoms: C_5  and  C_6 
REMARK    6  A    between atoms: C_6  and  C_7 
REMARK    7  A    between atoms: C_7  and  C_8 
REMARK    8  A    between atoms: C_8  and  N_9 
REMARK       I    between atoms: N_9  and  C_10 
REMARK    9  A    between atoms: C_10  and  C_12 
REMARK   10  A    between atoms: C_15  and  C_16 
REMARK   11  A    between atoms: C_24  and  C_25 
REMARK   12  A    between atoms: C_27  and  C_28 
ROOT
ATOM      1  C   UNL d   1       9.023   4.884 -14.324  0.00  0.00     0.037 C 
ENDROOT
BRANCH   1   2
ATOM      2  C   UNL d   1      10.146   4.783 -15.373  0.00  0.00     0.250 C 
BRANCH   2   3
ATOM      3  N   UNL d   1       9.671   4.400 -16.704  0.00  0.00     0.137 N 
BRANCH   3   4
ATOM      4  C   UNL d   1      10.699   4.628 -17.717  0.00  0.00     0.250 C 
BRANCH   4   5
ATOM      5  C   UNL d   1      10.189   4.477 -19.164  0.00  0.00     0.035 C 
ATOM      6  C   UNL d   1       9.229   5.601 -19.566  0.00  0.00     0.002 C 
ENDBRANCH   4   5
ENDBRANCH   3   4
BRANCH   3   7
ATOM      7  C   UNL d   1       9.132   3.037 -16.746  0.00  0.00     0.251 C 
BRANCH   7   8
ATOM      8  C   UNL d   1      10.180   1.941 -16.563  0.00  0.00     0.038 A 
ATOM      9  C   UNL d   1       9.733   0.529 -16.276  0.00  0.00     0.024 A 
ATOM     10  C   UNL d   1      10.362   0.867 -17.611  0.00  0.00     0.007 A 
BRANCH   9  11
ATOM     11  C   UNL d   1       8.273   0.235 -16.127  0.00  0.00    -0.022 A 
ATOM     12  C   UNL d   1       7.636   0.422 -14.876  0.00  0.00     0.007 A 
ATOM     13  C   UNL d   1       6.247   0.181 -14.751  0.00  0.00     0.057 A 
ATOM     14  C   UNL d   1       5.498  -0.221 -15.873  0.00  0.00     0.011 A 
ATOM     15 CL   UNL d   1       5.459   0.407 -13.235  0.00  0.00    -0.082 Cl
ATOM     16  C   UNL d   1       6.129  -0.392 -17.120  0.00  0.00     0.001 A 
ATOM     17  C   UNL d   1       7.514  -0.160 -17.235  0.00  0.00    -0.004 A 
ENDBRANCH   9  11
ENDBRANCH   7   8
ENDBRANCH   3   7
ENDBRANCH   2   3
ENDBRANCH   1   2
BRANCH   1  18
ATOM     18  C   UNL d   1       9.588   5.333 -12.979  0.00  0.00     0.029 C 
BRANCH  18  19
ATOM     19  C   UNL d   1       8.522   5.581 -11.904  0.00  0.00     0.129 C 
BRANCH  19  20
ATOM     20  N   UNL d   1       9.124   5.989 -10.642  0.00  0.00    -0.234 NA
ATOM     21  C   UNL d   1       9.689   7.187 -10.393  0.00  0.00     0.275 C 
ATOM     22  O   UNL d   1       9.820   8.074 -11.236  0.00  0.00    -0.266 OA
BRANCH  21  23
ATOM     23  C   UNL d   1      10.107   7.422  -8.969  0.00  0.00     0.058 A 
ATOM     24  C   UNL d   1      10.047   8.714  -8.419  0.00  0.00     0.005 A 
ATOM     25  C   UNL d   1      10.465   8.945  -7.093  0.00  0.00     0.002 A 
ATOM     26  C   UNL d   1      10.977   7.900  -6.285  0.00  0.00     0.018 A 
ATOM     27  C   UNL d   1      11.043   6.613  -6.861  0.00  0.00     0.002 A 
ATOM     28  C   UNL d   1      10.590   6.368  -8.173  0.00  0.00     0.005 A 
BRANCH  26  29
ATOM     29  C   UNL d   1      11.439   8.136  -4.890  0.00  0.00     0.081 A 
ATOM     30  N   UNL d   1      11.668   7.034  -4.134  0.00  0.00    -0.244 NA
ATOM     31  C   UNL d   1      12.067   7.172  -2.851  0.00  0.00     0.099 A 
ATOM     32  C   UNL d   1      12.270   8.424  -2.257  0.00  0.00     0.021 A 
ATOM     33  C   UNL d   1      12.014   9.581  -3.022  0.00  0.00     0.003 A 
ATOM     34  C   UNL d   1      11.600   9.429  -4.357  0.00  0.00     0.019 A 
ENDBRANCH  26  29
ENDBRANCH  21  23
ENDBRANCH  19  20
ENDBRANCH  18  19
ENDBRANCH   1  18
TORSDOF 12
