REMARK  7 active torsions:
REMARK  status: ('A' for Active; 'I' for Inactive)
REMARK       I    between atoms: C_2  and  N_3 
REMARK    1  A    between atoms: C_2  and  C_20 
REMARK    2  A    between atoms: N_3  and  C_4 
REMARK    3  A    between atoms: C_4  and  C_5 
REMARK    4  A    between atoms: C_5  and  C_6 
REMARK    5  A    between atoms: C_6  and  C_7 
REMARK    6  A    between atoms: C_7  and  N_8 
REMARK    7  A    between atoms: N_11  and  C_12 
ROOT
ATOM      1  C   UNL d   1       8.610   8.472 -12.152  0.00  0.00     0.029 C 
ENDROOT
BRANCH   1   2
ATOM      2  C   UNL d   1       7.246   7.856 -12.584  0.00  0.00     0.129 C 
BRANCH   2   3
ATOM      3  N   UNL d   1       7.153   6.421 -12.370  0.00  0.00    -0.236 NA
ATOM      4  C   UNL d   1       7.939   5.460 -12.863  0.00  0.00     0.274 C 
ATOM      5  O   UNL d   1       9.039   5.669 -13.368  0.00  0.00    -0.268 OA
BRANCH   4   6
ATOM      6  C   UNL d   1       7.432   4.035 -12.806  0.00  0.00     0.184 C 
ATOM      7  N   UNL d   1       7.887   3.311 -13.985  0.00  0.00    -0.263 NA
ATOM      8  C   UNL d   1       7.261   2.133 -14.370  0.00  0.00     0.073 A 
ATOM      9  C   UNL d   1       6.062   1.691 -13.736  0.00  0.00    -0.005 A 
ATOM     10  C   UNL d   1       7.827   1.343 -15.386  0.00  0.00     0.018 A 
ATOM     11  C   UNL d   1       5.429   2.501 -12.622  0.00  0.00     0.030 C 
ATOM     12  C   UNL d   1       5.458   0.484 -14.129  0.00  0.00    -0.003 A 
ATOM     13  C   UNL d   1       5.902   3.939 -12.646  0.00  0.00     0.039 C 
ATOM     14  C   UNL d   1       6.024  -0.290 -15.157  0.00  0.00    -0.000 A 
ATOM     15  C   UNL d   1       7.210   0.148 -15.777  0.00  0.00     0.002 A 
ENDBRANCH   4   6
ENDBRANCH   2   3
ENDBRANCH   1   2
BRANCH   1  16
ATOM     16  C   UNL d   1       9.325   7.788 -10.967  0.00  0.00     0.037 C 
BRANCH  16  17
ATOM     17  C   UNL d   1       9.630   8.758  -9.839  0.00  0.00     0.251 C 
BRANCH  17  18
ATOM     18  N   UNL d   1      10.453   8.074  -8.858  0.00  0.00     0.141 N 
ATOM     19  C   UNL d   1       9.604   7.446  -7.839  0.00  0.00     0.274 C 
ATOM     20  C   UNL d   1      10.476   6.758  -6.777  0.00  0.00     0.137 C 
ATOM     21  N   UNL d   1      11.423   7.718  -6.233  0.00  0.00    -0.344 N 
ATOM     22  C   UNL d   1      12.230   8.427  -7.215  0.00  0.00     0.137 C 
ATOM     23  C   UNL d   1      11.322   9.074  -8.251  0.00  0.00     0.274 C 
BRANCH  21  24
ATOM     24  C   UNL d   1      11.592   7.895  -4.854  0.00  0.00     0.056 A 
ATOM     25  C   UNL d   1      11.580   6.791  -3.983  0.00  0.00     0.017 A 
ATOM     26  C   UNL d   1      11.750   6.952  -2.600  0.00  0.00     0.002 A 
ATOM     27  C   UNL d   1      11.923   8.244  -2.071  0.00  0.00     0.000 A 
ATOM     28  C   UNL d   1      11.928   9.360  -2.931  0.00  0.00     0.002 A 
ATOM     29  C   UNL d   1      11.779   9.190  -4.319  0.00  0.00     0.017 A 
ENDBRANCH  21  24
ENDBRANCH  17  18
ENDBRANCH  16  17
ENDBRANCH   1  16
TORSDOF 7
