REMARK  4 active torsions:
REMARK  status: ('A' for Active; 'I' for Inactive)
REMARK       I    between atoms: C_2  and  N_3 
REMARK    1  A    between atoms: C_2  and  C_26 
REMARK    2  A    between atoms: N_3  and  C_4 
REMARK    3  A    between atoms: N_10  and  S_11 
REMARK    4  A    between atoms: S_11  and  C_14 
ROOT
ATOM      1  C   UNL d   1       7.946   5.082 -11.828  0.00  0.00     0.086 A 
ATOM      2  C   UNL d   1       6.636   4.598 -12.001  0.00  0.00     0.019 A 
ATOM      3  C   UNL d   1       6.334   3.675 -13.029  0.00  0.00     0.005 A 
ATOM      4  C   UNL d   1       7.342   3.243 -13.923  0.00  0.00     0.040 A 
ATOM      5  C   UNL d   1       7.435   2.363 -15.049  0.00  0.00     0.123 A 
ATOM      6  N   UNL d   1       8.649   2.326 -15.537  0.00  0.00    -0.154 NA
ATOM      7  N   UNL d   1       9.389   3.163 -14.755  0.00  0.00    -0.152 N 
ATOM      8  C   UNL d   1       8.659   3.752 -13.736  0.00  0.00     0.098 A 
ATOM      9  C   UNL d   1       8.963   4.667 -12.710  0.00  0.00     0.039 A 
ENDROOT
BRANCH   7  10
ATOM     10  S   UNL d   1      11.048   3.380 -15.180  0.00  0.00     0.286 S 
ATOM     11  O   UNL d   1      11.677   4.128 -14.079  0.00  0.00    -0.198 OA
ATOM     12  O   UNL d   1      11.512   2.032 -15.546  0.00  0.00    -0.198 OA
BRANCH  10  13
ATOM     13  C   UNL d   1      11.029   4.436 -16.641  0.00  0.00     0.105 A 
ATOM     14  C   UNL d   1      12.154   4.556 -17.500  0.00  0.00     0.012 A 
ATOM     15  C   UNL d   1      12.068   5.419 -18.626  0.00  0.00     0.001 A 
ATOM     16  C   UNL d   1      13.363   3.859 -17.270  0.00  0.00     0.001 A 
ATOM     17  C   UNL d   1      10.885   6.138 -18.889  0.00  0.00     0.000 A 
ATOM     18  C   UNL d   1      13.164   5.562 -19.500  0.00  0.00     0.000 A 
ATOM     19  C   UNL d   1       9.782   6.014 -18.030  0.00  0.00     0.001 A 
ATOM     20  C   UNL d   1       9.863   5.185 -16.901  0.00  0.00     0.013 A 
ATOM     21  C   UNL d   1      14.353   4.851 -19.267  0.00  0.00     0.000 A 
ATOM     22  C   UNL d   1      14.452   4.001 -18.151  0.00  0.00     0.000 A 
ENDBRANCH  10  13
ENDBRANCH   7  10
BRANCH   1  23
ATOM     23  N   UNL d   1       8.244   5.988 -10.792  0.00  0.00    -0.212 NA
ATOM     24  C   UNL d   1       9.125   5.761  -9.806  0.00  0.00     0.257 C 
ATOM     25  O   UNL d   1       9.571   4.642  -9.567  0.00  0.00    -0.270 OA
BRANCH  24  26
ATOM     26  C   UNL d   1       9.549   6.979  -8.960  0.00  0.00     0.117 C 
ATOM     27  C   UNL d   1      10.676   7.767  -9.679  0.00  0.00     0.299 C 
ATOM     28  N   UNL d   1      11.063   8.954  -8.916  0.00  0.00     0.340 N 
ATOM     29  C   UNL d   1      11.585   8.563  -7.610  0.00  0.00     0.290 C 
ATOM     30  C   UNL d   1      10.498   7.839  -6.798  0.00  0.00     0.039 C 
ATOM     31  C   UNL d   1       9.999   6.595  -7.540  0.00  0.00     0.014 C 
ENDBRANCH  24  26
ENDBRANCH   1  23
TORSDOF 4
