REMARK  4 active torsions:
REMARK  status: ('A' for Active; 'I' for Inactive)
REMARK    1  A    between atoms: C_2  and  C_3 
REMARK    2  A    between atoms: C_3  and  C_4 
REMARK    3  A    between atoms: C_4  and  N_5 
REMARK    4  A    between atoms: N_8  and  C_9 
ROOT
ATOM      1  N   UNL d   1       8.244   5.356 -12.356  0.00  0.00     0.141 N 
ATOM      2  C   UNL d   1       8.499   4.552 -11.183  0.00  0.00     0.274 C 
ATOM      3  C   UNL d   1       9.632   5.164 -10.418  0.00  0.00     0.137 C 
ATOM      4  N   UNL d   1       9.439   6.567 -10.111  0.00  0.00    -0.344 N 
ATOM      5  C   UNL d   1       9.098   7.388 -11.264  0.00  0.00     0.137 C 
ATOM      6  C   UNL d   1       7.912   6.740 -12.022  0.00  0.00     0.274 C 
ENDROOT
BRANCH   4   7
ATOM      7  C   UNL d   1       9.633   7.047  -8.842  0.00  0.00     0.068 A 
ATOM      8  C   UNL d   1      10.425   8.179  -8.554  0.00  0.00     0.084 A 
ATOM      9  C   UNL d   1      10.536   8.637  -7.220  0.00  0.00     0.070 A 
ATOM     10 CL   UNL d   1      11.354   9.009  -9.759  0.00  0.00    -0.080 Cl
ATOM     11  C   UNL d   1       9.900   7.932  -6.189  0.00  0.00     0.012 A 
ATOM     12 CL   UNL d   1      11.466  10.003  -6.831  0.00  0.00    -0.081 Cl
ATOM     13  C   UNL d   1       9.155   6.792  -6.465  0.00  0.00     0.002 A 
ATOM     14  C   UNL d   1       9.013   6.340  -7.790  0.00  0.00     0.018 A 
ENDBRANCH   4   7
BRANCH   1  15
ATOM     15  C   UNL d   1       7.203   4.669 -13.109  0.00  0.00     0.250 C 
BRANCH  15  16
ATOM     16  C   UNL d   1       5.875   4.500 -12.307  0.00  0.00     0.035 C 
BRANCH  16  17
ATOM     17  C   UNL d   1       4.844   3.685 -13.096  0.00  0.00     0.002 C 
ATOM     18  C   UNL d   1       5.274   2.185 -13.161  0.00  0.00     0.000 C 
ENDBRANCH  16  17
ENDBRANCH  15  16
ENDBRANCH   1  15
TORSDOF 4
