REMARK  7 active torsions:
REMARK  status: ('A' for Active; 'I' for Inactive)
REMARK    1  A    between atoms: C_2  and  C_4 
REMARK    2  A    between atoms: C_4  and  C_5 
REMARK       I    between atoms: C_5  and  N_7 
REMARK    3  A    between atoms: N_7  and  C_8 
REMARK    4  A    between atoms: C_11  and  C_12 
REMARK    5  A    between atoms: C_12  and  C_13 
REMARK    6  A    between atoms: C_13  and  N_14 
REMARK    7  A    between atoms: C_17  and  C_18 
ROOT
ATOM      1  N   UNL d   1       7.785   3.530 -14.012  0.00  0.00     0.137 N 
ATOM      2  C   UNL d   1       6.663   2.593 -14.092  0.00  0.00     0.251 C 
ATOM      3  C   UNL d   1       6.664   1.904 -15.466  0.00  0.00     0.040 C 
ATOM      4  C   UNL d   1       7.981   1.172 -15.790  0.00  0.00     0.028 C 
ATOM      5  C   UNL d   1       9.139   2.152 -15.531  0.00  0.00     0.040 C 
ATOM      6  C   UNL d   1       9.044   2.794 -14.147  0.00  0.00     0.251 C 
ENDROOT
BRANCH   1   7
ATOM      7  C   UNL d   1       7.685   4.261 -12.749  0.00  0.00     0.250 C 
BRANCH   7   8
ATOM      8  C   UNL d   1       8.831   5.251 -12.513  0.00  0.00     0.035 C 
BRANCH   8   9
ATOM      9  C   UNL d   1       8.743   5.946 -11.146  0.00  0.00     0.002 C 
ATOM     10  C   UNL d   1       8.830   4.954  -9.960  0.00  0.00     0.002 C 
ATOM     11  C   UNL d   1       8.837   5.683  -8.617  0.00  0.00     0.024 C 
ATOM     12  C   UNL d   1       9.974   6.701  -8.516  0.00  0.00     0.106 C 
ATOM     13  C   UNL d   1       9.930   7.691  -9.704  0.00  0.00     0.024 C 
ATOM     14  C   UNL d   1       9.895   6.949 -11.028  0.00  0.00     0.002 C 
BRANCH  12  15
ATOM     15  N   UNL d   1       9.879   7.409  -7.244  0.00  0.00    -0.240 NA
ATOM     16  C   UNL d   1      10.858   8.158  -6.728  0.00  0.00     0.251 C 
ATOM     17  O   UNL d   1      11.884   8.437  -7.341  0.00  0.00    -0.271 OA
BRANCH  16  18
ATOM     18  C   UNL d   1      10.666   8.654  -5.301  0.00  0.00     0.090 C 
BRANCH  18  19
ATOM     19  C   UNL d   1      11.943   8.623  -4.434  0.00  0.00     0.009 C 
ATOM     20  C   UNL d   1      12.316   7.190  -4.010  0.00  0.00     0.001 C 
ATOM     21  C   UNL d   1      11.807   9.516  -3.201  0.00  0.00     0.001 C 
ENDBRANCH  18  19
ENDBRANCH  16  18
ENDBRANCH  12  15
ENDBRANCH   8   9
ENDBRANCH   7   8
ENDBRANCH   1   7
BRANCH   4  22
ATOM     22  C   UNL d   1       8.007   0.633 -17.234  0.00  0.00     0.002 A 
ATOM     23  C   UNL d   1       9.160  -0.012 -17.727  0.00  0.00     0.115 A 
ATOM     24  C   UNL d   1       9.243  -0.469 -19.030  0.00  0.00     0.119 A 
ATOM     25  O   UNL d   1      10.331  -0.266 -17.093  0.00  0.00    -0.300 OA
ATOM     26  C   UNL d   1       8.175  -0.331 -19.931  0.00  0.00     0.026 A 
ATOM     27  O   UNL d   1      10.467  -1.006 -19.241  0.00  0.00    -0.300 OA
ATOM     28  C   UNL d   1       7.006   0.299 -19.468  0.00  0.00     0.002 A 
ATOM     29  C   UNL d   1       6.916   0.776 -18.133  0.00  0.00    -0.002 A 
ATOM     30  C   UNL d   1      11.161  -0.891 -18.029  0.00  0.00     0.304 A 
ENDBRANCH   4  22
TORSDOF 7
