REMARK  6 active torsions:
REMARK  status: ('A' for Active; 'I' for Inactive)
REMARK    1  A    between atoms: O_2  and  C_3 
REMARK    2  A    between atoms: C_8  and  N_9 
REMARK    3  A    between atoms: N_12  and  C_13 
REMARK    4  A    between atoms: C_13  and  C_14 
REMARK    5  A    between atoms: C_14  and  O_15 
REMARK    6  A    between atoms: O_15  and  C_16 
ROOT
ATOM      1  N   UNL d   1       8.631   4.658 -11.624  0.00  0.00    -0.343 N 
ATOM      2  C   UNL d   1       7.909   5.900 -11.422  0.00  0.00     0.137 C 
ATOM      3  C   UNL d   1       8.900   6.942 -10.865  0.00  0.00     0.274 C 
ATOM      4  N   UNL d   1       9.424   6.506  -9.550  0.00  0.00     0.144 N 
ATOM      5  C   UNL d   1      10.226   5.343  -9.812  0.00  0.00     0.274 C 
ATOM      6  C   UNL d   1       9.422   4.232 -10.473  0.00  0.00     0.137 C 
ENDROOT
BRANCH   4   7
ATOM      7  C   UNL d   1      10.321   7.536  -9.043  0.00  0.00     0.283 C 
BRANCH   7   8
ATOM      8  C   UNL d   1       9.527   8.620  -8.286  0.00  0.00     0.184 C 
BRANCH   8   9
ATOM      9  O   UNL d   1      10.375   9.406  -7.444  0.00  0.00    -0.329 OA
BRANCH   9  10
ATOM     10  C   UNL d   1      10.820   8.815  -6.278  0.00  0.00     0.096 A 
ATOM     11  C   UNL d   1      11.404   9.602  -5.257  0.00  0.00     0.045 A 
ATOM     12  C   UNL d   1      11.840   8.970  -4.081  0.00  0.00     0.103 A 
ATOM     13  C   UNL d   1      11.769   7.552  -3.902  0.00  0.00     0.101 A 
ATOM     14  N   UNL d   1      12.380   9.409  -2.882  0.00  0.00    -0.223 NA
ATOM     15  C   UNL d   1      11.198   6.793  -4.927  0.00  0.00     0.023 A 
ATOM     16  N   UNL d   1      12.252   7.153  -2.668  0.00  0.00    -0.223 NA
ATOM     17  C   UNL d   1      10.697   7.423  -6.059  0.00  0.00     0.026 A 
ATOM     18  C   UNL d   1      12.592   8.316  -2.136  0.00  0.00     0.199 A 
ENDBRANCH   9  10
ENDBRANCH   8   9
ENDBRANCH   7   8
ENDBRANCH   4   7
BRANCH   1  19
ATOM     19  C   UNL d   1       8.689   4.023 -12.874  0.00  0.00     0.079 A 
ATOM     20  C   UNL d   1       9.927   3.848 -13.541  0.00  0.00     0.110 A 
ATOM     21  C   UNL d   1       9.969   3.147 -14.771  0.00  0.00     0.026 A 
ATOM     22  C   UNL d   1       8.795   2.639 -15.333  0.00  0.00     0.002 A 
ATOM     23  C   UNL d   1       7.564   2.808 -14.678  0.00  0.00     0.002 A 
ATOM     24  C   UNL d   1       7.504   3.532 -13.469  0.00  0.00     0.019 A 
BRANCH  20  25
ATOM     25  O   UNL d   1      11.036   4.403 -12.979  0.00  0.00    -0.327 OA
ATOM     26  C   UNL d   1      12.303   4.203 -13.581  0.00  0.00     0.181 C 
ENDBRANCH  20  25
ENDBRANCH   1  19
TORSDOF 6
