REMARK  6 active torsions:
REMARK  status: ('A' for Active; 'I' for Inactive)
REMARK    1  A    between atoms: C_6  and  C_7 
REMARK    2  A    between atoms: C_10  and  S_11 
REMARK    3  A    between atoms: S_11  and  C_12 
REMARK    4  A    between atoms: C_12  and  C_13 
REMARK    5  A    between atoms: C_13  and  C_14 
REMARK    6  A    between atoms: C_14  and  N_15 
ROOT
ATOM      1  C   UNL d   1       8.806   2.074 -16.116  0.00  0.00     0.047 C 
ENDROOT
BRANCH   1   2
ATOM      2  C   UNL d   1       7.928   1.485 -15.006  0.00  0.00     0.067 C 
BRANCH   2   3
ATOM      3  S   UNL d   1       6.923   2.782 -14.190  0.00  0.00    -0.075 SA
BRANCH   3   4
ATOM      4  C   UNL d   1       8.130   3.721 -13.350  0.00  0.00     0.193 A 
ATOM      5  N   UNL d   1       9.425   3.813 -13.644  0.00  0.00    -0.122 NA
ATOM      6  N   UNL d   1       9.975   4.647 -12.739  0.00  0.00    -0.128 NA
ATOM      7  C   UNL d   1       8.982   4.949 -11.923  0.00  0.00     0.174 A 
ATOM      8  N   UNL d   1       7.801   4.440 -12.289  0.00  0.00    -0.288 N 
ATOM      9  C   UNL d   1       6.525   4.590 -11.643  0.00  0.00     0.134 C 
BRANCH   7  10
ATOM     10  C   UNL d   1       9.223   5.768 -10.736  0.00  0.00     0.080 C 
ATOM     11  C   UNL d   1       9.453   7.117 -10.663  0.00  0.00     0.069 C 
ATOM     12  N   UNL d   1       9.886   7.547  -9.392  0.00  0.00    -0.247 NA
ATOM     13  C   UNL d   1       9.299   8.092 -11.789  0.00  0.00     0.053 C 
ATOM     14  C   UNL d   1       9.799   6.559  -8.496  0.00  0.00     0.088 C 
ATOM     15  C   UNL d   1      10.011   6.763  -7.053  0.00  0.00     0.059 C 
ATOM     16  S   UNL d   1       9.423   4.986  -9.182  0.00  0.00    -0.068 SA
ENDBRANCH   7  10
ENDBRANCH   3   4
ENDBRANCH   2   3
ENDBRANCH   1   2
BRANCH   1  17
ATOM     17  C   UNL d   1       9.713   1.082 -16.863  0.00  0.00     0.251 C 
BRANCH  17  18
ATOM     18  N   UNL d   1      10.547   1.787 -17.857  0.00  0.00     0.137 N 
ATOM     19  C   UNL d   1      11.774   2.402 -17.346  0.00  0.00     0.254 C 
ATOM     20  C   UNL d   1      12.225   3.256 -18.545  0.00  0.00     0.052 C 
ATOM     21  C   UNL d   1      10.948   3.616 -19.324  0.00  0.00     0.041 C 
ATOM     22  C   UNL d   1      13.035   4.465 -18.066  0.00  0.00    -0.024 A 
ATOM     23  C   UNL d   1      13.247   2.487 -19.464  0.00  0.00     0.011 C 
ATOM     24  C   UNL d   1       9.874   2.879 -18.570  0.00  0.00     0.251 C 
ATOM     25  C   UNL d   1      14.339   4.413 -18.531  0.00  0.00    -0.026 A 
ATOM     26  C   UNL d   1      12.613   5.553 -17.265  0.00  0.00     0.007 A 
ATOM     27  C   UNL d   1      14.632   3.153 -19.327  0.00  0.00     0.026 C 
ATOM     28  C   UNL d   1      15.260   5.428 -18.277  0.00  0.00    -0.004 A 
ATOM     29  C   UNL d   1      14.856   6.528 -17.497  0.00  0.00     0.011 A 
ATOM     30  C   UNL d   1      13.539   6.589 -16.986  0.00  0.00     0.057 A 
ATOM     31 CL   UNL d   1      13.067   7.935 -16.049  0.00  0.00    -0.082 Cl
ENDBRANCH  17  18
ENDBRANCH   1  17
TORSDOF 6
