REMARK  4 active torsions:
REMARK  status: ('A' for Active; 'I' for Inactive)
REMARK       I    between atoms: N_10  and  C_11 
REMARK    1  A    between atoms: C_11  and  C_13 
REMARK    2  A    between atoms: C_13  and  C_14 
REMARK    3  A    between atoms: N_17  and  C_18 
REMARK    4  A    between atoms: C_18  and  C_19 
ROOT
ATOM      1  C   UNL d   1      10.066   2.967 -15.037  0.00  0.00     0.013 C 
ATOM      2  C   UNL d   1       9.557   4.334 -15.529  0.00  0.00     0.036 C 
ATOM      3  C   UNL d   1       8.606   4.966 -14.500  0.00  0.00     0.251 C 
ATOM      4  N   UNL d   1       9.295   5.136 -13.220  0.00  0.00     0.141 N 
ATOM      5  C   UNL d   1       9.665   3.818 -12.697  0.00  0.00     0.251 C 
ATOM      6  C   UNL d   1      10.659   3.138 -13.639  0.00  0.00     0.036 C 
ENDROOT
BRANCH   1   7
ATOM      7  C   UNL d   1      11.119   2.377 -16.001  0.00  0.00     0.088 C 
BRANCH   7   8
ATOM      8  C   UNL d   1      10.664   1.106 -16.736  0.00  0.00     0.237 C 
ATOM      9  N   UNL d   1      10.811   1.035 -18.085  0.00  0.00    -0.301 N 
ATOM     10  C   UNL d   1      11.632   1.968 -18.893  0.00  0.00     0.093 A 
ATOM     11  C   UNL d   1      10.125   0.131 -18.942  0.00  0.00     0.058 A 
ATOM     12  C   UNL d   1      13.121   1.977 -18.467  0.00  0.00     0.025 C 
ATOM     13  C   UNL d   1      11.461   1.507 -20.363  0.00  0.00     0.051 A 
ATOM     14  C   UNL d   1      10.468   0.391 -20.263  0.00  0.00    -0.004 A 
ATOM     15  C   UNL d   1       9.912  -0.322 -21.335  0.00  0.00    -0.003 A 
ATOM     16  C   UNL d   1       8.969  -1.330 -21.041  0.00  0.00    -0.000 A 
ATOM     17  C   UNL d   1       8.607  -1.607 -19.700  0.00  0.00     0.002 A 
ATOM     18  C   UNL d   1       9.181  -0.876 -18.637  0.00  0.00     0.017 A 
ATOM     19  O   UNL d   1      10.246   0.169 -16.055  0.00  0.00    -0.272 OA
ENDBRANCH   7   8
ENDBRANCH   1   7
BRANCH   4  20
ATOM     20  C   UNL d   1       8.381   5.801 -12.291  0.00  0.00     0.277 C 
BRANCH  20  21
ATOM     21  C   UNL d   1       8.995   6.078 -10.932  0.00  0.00     0.012 A 
ATOM     22  C   UNL d   1       9.858   7.179 -10.754  0.00  0.00     0.009 A 
ATOM     23  C   UNL d   1      10.416   7.440  -9.489  0.00  0.00     0.058 A 
ATOM     24  C   UNL d   1      10.128   6.594  -8.402  0.00  0.00     0.011 A 
ATOM     25 CL   UNL d   1      11.454   8.793  -9.269  0.00  0.00    -0.082 Cl
ATOM     26  C   UNL d   1       9.267   5.495  -8.578  0.00  0.00     0.001 A 
ATOM     27  C   UNL d   1       8.695   5.240  -9.839  0.00  0.00    -0.002 A 
ENDBRANCH  20  21
ENDBRANCH   4  20
TORSDOF 4
