REMARK  7 active torsions:
REMARK  status: ('A' for Active; 'I' for Inactive)
REMARK    1  A    between atoms: O_2  and  C_3 
REMARK    2  A    between atoms: C_6  and  C_7 
REMARK    3  A    between atoms: C_7  and  C_8 
REMARK    4  A    between atoms: C_8  and  N_9 
REMARK    5  A    between atoms: N_9  and  C_11 
REMARK    6  A    between atoms: C_11  and  C_12 
REMARK    7  A    between atoms: C_12  and  N_13 
ROOT
ATOM      1  C   UNL d   1       8.405   4.377 -12.364  0.00  0.00     0.255 C 
ENDROOT
BRANCH   1   2
ATOM      2  C   UNL d   1       8.222   4.057 -13.866  0.00  0.00     0.062 C 
BRANCH   2   3
ATOM      3  C   UNL d   1       7.574   2.705 -14.095  0.00  0.00    -0.020 A 
ATOM      4  C   UNL d   1       6.260   2.475 -13.639  0.00  0.00    -0.002 A 
ATOM      5  C   UNL d   1       5.659   1.216 -13.813  0.00  0.00     0.024 A 
ATOM      6  C   UNL d   1       6.339   0.181 -14.494  0.00  0.00     0.094 A 
ATOM      7  C   UNL d   1       7.663   0.406 -14.928  0.00  0.00     0.024 A 
ATOM      8  C   UNL d   1       8.276   1.661 -14.742  0.00  0.00    -0.002 A 
BRANCH   6   9
ATOM      9  O   UNL d   1       5.767  -1.045 -14.734  0.00  0.00    -0.328 OA
ATOM     10  C   UNL d   1       4.411  -1.033 -15.171  0.00  0.00     0.181 C 
ENDBRANCH   6   9
ENDBRANCH   2   3
ENDBRANCH   1   2
BRANCH   1  11
ATOM     11  N   UNL d   1       8.941   5.708 -12.062  0.00  0.00     0.142 N 
ATOM     12  C   UNL d   1       8.009   6.754 -12.486  0.00  0.00     0.285 C 
BRANCH  11  13
ATOM     13  C   UNL d   1       9.207   5.843 -10.627  0.00  0.00     0.285 C 
BRANCH  13  14
ATOM     14  C   UNL d   1      10.035   7.093 -10.255  0.00  0.00     0.285 C 
BRANCH  14  15
ATOM     15  N   UNL d   1      10.357   7.234  -8.840  0.00  0.00     0.139 N 
ATOM     16  C   UNL d   1       9.165   7.595  -8.066  0.00  0.00     0.250 C 
ATOM     17  C   UNL d   1       9.457   7.710  -6.566  0.00  0.00     0.035 C 
ATOM     18  C   UNL d   1      10.579   8.728  -6.308  0.00  0.00     0.004 C 
ATOM     19  C   UNL d   1      11.798   8.398  -7.181  0.00  0.00     0.035 C 
ATOM     20  C   UNL d   1      11.390   8.255  -8.653  0.00  0.00     0.250 C 
ENDBRANCH  14  15
ENDBRANCH  13  14
ENDBRANCH  11  13
ENDBRANCH   1  11
TORSDOF 7
