REMARK  4 active torsions:
REMARK  status: ('A' for Active; 'I' for Inactive)
REMARK    1  A    between atoms: N_2  and  C_4 
REMARK    2  A    between atoms: C_4  and  C_5 
REMARK    3  A    between atoms: N_9  and  S_10 
REMARK    4  A    between atoms: S_10  and  C_13 
ROOT
ATOM      1  C   UNL d   1      11.297   4.311 -16.833  0.00  0.00     0.105 C 
ATOM      2  C   UNL d   1      11.426   4.915 -15.636  0.00  0.00     0.019 C 
ATOM      3  C   UNL d   1      10.692   4.391 -14.535  0.00  0.00     0.006 C 
ATOM      4  C   UNL d   1      10.151   5.093 -13.544  0.00  0.00     0.087 C 
ATOM      5  N   UNL d   1       9.154   4.368 -12.883  0.00  0.00    -0.235 N 
ATOM      6  C   UNL d   1       8.916   3.283 -13.766  0.00  0.00     0.059 C 
ATOM      7  C   UNL d   1       7.719   2.781 -14.120  0.00  0.00     0.014 C 
ATOM      8  C   UNL d   1       7.607   1.954 -15.307  0.00  0.00    -0.001 C 
ATOM      9  C   UNL d   1       8.628   1.826 -16.179  0.00  0.00     0.004 C 
ATOM     10  C   UNL d   1      10.016   2.420 -15.961  0.00  0.00     0.152 C 
ATOM     11  O   UNL d   1      10.448   3.241 -17.065  0.00  0.00    -0.331 OA
ATOM     12  C   UNL d   1      10.184   3.009 -14.541  0.00  0.00     0.095 C 
ENDROOT
BRANCH   5  13
ATOM     13  S   UNL d   1       7.920   5.175 -11.973  0.00  0.00     0.271 S 
ATOM     14  O   UNL d   1       7.353   6.218 -12.835  0.00  0.00    -0.200 OA
ATOM     15  O   UNL d   1       7.057   4.129 -11.407  0.00  0.00    -0.200 OA
BRANCH  13  16
ATOM     16  C   UNL d   1       8.836   5.949 -10.646  0.00  0.00     0.104 A 
ATOM     17  C   UNL d   1       8.839   5.373  -9.359  0.00  0.00     0.013 A 
ATOM     18  C   UNL d   1       9.550   6.005  -8.320  0.00  0.00     0.001 A 
ATOM     19  C   UNL d   1      10.268   7.194  -8.571  0.00  0.00     0.000 A 
ATOM     20  C   UNL d   1      10.262   7.763  -9.860  0.00  0.00     0.001 A 
ATOM     21  C   UNL d   1       9.532   7.148 -10.893  0.00  0.00     0.013 A 
ENDBRANCH  13  16
ENDBRANCH   5  13
BRANCH   1  22
ATOM     22  C   UNL d   1      12.021   4.777 -18.089  0.00  0.00     0.301 C 
BRANCH  22  23
ATOM     23  N   UNL d   1      13.310   4.108 -18.316  0.00  0.00     0.148 N 
ATOM     24  C   UNL d   1      13.157   2.664 -18.454  0.00  0.00     0.286 C 
ATOM     25  C   UNL d   1      14.266   4.391 -17.250  0.00  0.00     0.286 C 
ENDBRANCH  22  23
ENDBRANCH   1  22
TORSDOF 4
