REMARK  5 active torsions:
REMARK  status: ('A' for Active; 'I' for Inactive)
REMARK    1  A    between atoms: C_2  and  C_4 
REMARK    2  A    between atoms: C_7  and  C_8 
REMARK    3  A    between atoms: C_8  and  N_9 
REMARK    4  A    between atoms: C_13  and  C_14 
REMARK    5  A    between atoms: C_13  and  C_20 
ROOT
ATOM      1  N   UNL d   1       7.257   5.093 -12.854  0.00  0.00     0.140 N 
ATOM      2  C   UNL d   1       8.285   4.708 -13.816  0.00  0.00     0.255 C 
ATOM      3  C   UNL d   1       8.526   3.196 -13.877  0.00  0.00     0.057 C 
ATOM      4  C   UNL d   1       7.221   2.406 -14.111  0.00  0.00    -0.040 C 
ATOM      5  C   UNL d   1       7.132   1.323 -14.942  0.00  0.00    -0.008 C 
ATOM      6  C   UNL d   1       6.044   2.956 -13.279  0.00  0.00     0.057 C 
ATOM      7  C   UNL d   1       5.994   4.482 -13.258  0.00  0.00     0.255 C 
ENDROOT
BRANCH   5   8
ATOM      8  C   UNL d   1       5.915   0.468 -15.003  0.00  0.00    -0.001 A 
ATOM      9  C   UNL d   1       5.501  -0.139 -16.228  0.00  0.00    -0.000 A 
ATOM     10  C   UNL d   1       4.331  -0.885 -16.323  0.00  0.00    -0.000 A 
ATOM     11  C   UNL d   1       3.504  -1.053 -15.201  0.00  0.00    -0.000 A 
ATOM     12  C   UNL d   1       3.881  -0.479 -13.974  0.00  0.00    -0.000 A 
ATOM     13  C   UNL d   1       5.088   0.224 -13.859  0.00  0.00    -0.000 A 
ENDBRANCH   5   8
BRANCH   5  14
ATOM     14  C   UNL d   1       8.314   0.902 -15.722  0.00  0.00    -0.001 C 
ATOM     15  C   UNL d   1       8.258   0.824 -17.133  0.00  0.00     0.002 C 
ATOM     16  C   UNL d   1       9.301   0.323 -17.896  0.00  0.00     0.030 C 
ATOM     17  C   UNL d   1      10.538   0.037 -17.284  0.00  0.00     0.140 C 
ATOM     18  C   UNL d   1      10.658   0.213 -15.890  0.00  0.00     0.030 C 
ATOM     19  F   UNL d   1      11.601  -0.356 -18.033  0.00  0.00    -0.204 F 
ATOM     20  C   UNL d   1       9.559   0.595 -15.111  0.00  0.00     0.002 C 
ENDBRANCH   5  14
BRANCH   1  21
ATOM     21  C   UNL d   1       7.566   4.692 -11.480  0.00  0.00     0.280 C 
BRANCH  21  22
ATOM     22  C   UNL d   1       8.887   5.191 -10.895  0.00  0.00     0.149 C 
ATOM     23  C   UNL d   1       9.242   4.467  -9.601  0.00  0.00     0.035 C 
ATOM     24  C   UNL d   1       9.959   5.550  -8.850  0.00  0.00     0.042 C 
ATOM     25  C   UNL d   1       9.194   6.804  -9.243  0.00  0.00     0.197 C 
ATOM     26  O   UNL d   1       8.767   6.559 -10.579  0.00  0.00    -0.348 OA
BRANCH  25  27
ATOM     27  C   UNL d   1      10.054   8.075  -9.252  0.00  0.00     0.300 C 
ATOM     28  N   UNL d   1       9.503   9.171  -9.727  0.00  0.00    -0.105 N 
ATOM     29  O   UNL d   1      11.214   8.080  -8.840  0.00  0.00    -0.266 OA
ENDBRANCH  25  27
ENDBRANCH  21  22
ENDBRANCH   1  21
TORSDOF 5
