REMARK  10 active torsions:
REMARK  status: ('A' for Active; 'I' for Inactive)
REMARK    1  A    between atoms: C_2  and  N_3 
REMARK    2  A    between atoms: N_3  and  C_4 
REMARK    3  A    between atoms: N_3  and  C_19 
REMARK    4  A    between atoms: C_4  and  C_5 
REMARK    5  A    between atoms: C_5  and  C_6 
REMARK    6  A    between atoms: C_6  and  O_7 
REMARK    7  A    between atoms: O_7  and  C_8 
REMARK    8  A    between atoms: C_19  and  C_20 
REMARK    9  A    between atoms: C_22  and  C_23 
REMARK   10  A    between atoms: C_29  and  O_30 
ROOT
ATOM      1  N   UNL d   1       6.359   0.155 -16.088  0.00  0.00     0.137 N 
ENDROOT
BRANCH   1   2
ATOM      2  C   UNL d   1       5.859  -0.991 -16.848  0.00  0.00     0.250 C 
ATOM      3  C   UNL d   1       4.415  -0.816 -17.299  0.00  0.00     0.037 C 
ENDBRANCH   1   2
BRANCH   1   4
ATOM      4  C   UNL d   1       7.779  -0.023 -15.782  0.00  0.00     0.253 C 
BRANCH   4   5
ATOM      5  C   UNL d   1       8.704  -0.208 -17.014  0.00  0.00     0.068 C 
BRANCH   5   6
ATOM      6  C   UNL d   1      10.157  -0.477 -16.594  0.00  0.00     0.151 C 
BRANCH   6   7
ATOM      7  O   UNL d   1      10.893  -0.951 -17.719  0.00  0.00    -0.331 OA
BRANCH   7   8
ATOM      8  C   UNL d   1      11.632  -0.042 -18.438  0.00  0.00     0.096 A 
ATOM      9  C   UNL d   1      12.697  -0.541 -19.218  0.00  0.00     0.043 A 
ATOM     10  C   UNL d   1      13.552   0.346 -19.897  0.00  0.00     0.082 A 
ATOM     11  C   UNL d   1      13.338   1.739 -19.809  0.00  0.00    -0.004 A 
ATOM     12  N   UNL d   1      14.643  -0.158 -20.648  0.00  0.00    -0.212 NA
ATOM     13  C   UNL d   1      12.262   2.243 -19.062  0.00  0.00    -0.001 A 
ATOM     14  C   UNL d   1      14.293   2.676 -20.511  0.00  0.00     0.038 C 
ATOM     15  C   UNL d   1      11.401   1.359 -18.394  0.00  0.00     0.024 A 
ATOM     16  C   UNL d   1      14.894   2.024 -21.771  0.00  0.00     0.095 C 
ATOM     17  C   UNL d   1      15.348   0.575 -21.523  0.00  0.00     0.256 C 
ATOM     18  O   UNL d   1      16.303   0.111 -22.135  0.00  0.00    -0.270 OA
ENDBRANCH   7   8
ENDBRANCH   6   7
ENDBRANCH   5   6
ENDBRANCH   4   5
ENDBRANCH   1   4
BRANCH   1  19
ATOM     19  C   UNL d   1       5.596   0.326 -14.837  0.00  0.00     0.251 C 
BRANCH  19  20
ATOM     20  C   UNL d   1       6.266   1.217 -13.791  0.00  0.00     0.038 A 
ATOM     21  C   UNL d   1       6.399   2.706 -14.006  0.00  0.00     0.026 A 
ATOM     22  C   UNL d   1       5.485   2.176 -12.914  0.00  0.00     0.007 A 
BRANCH  21  23
ATOM     23  C   UNL d   1       7.680   3.442 -13.697  0.00  0.00     0.002 A 
ATOM     24  C   UNL d   1       7.641   4.609 -12.903  0.00  0.00     0.090 A 
ATOM     25  C   UNL d   1       8.859   5.267 -12.565  0.00  0.00     0.026 A 
ATOM     26  C   UNL d   1      10.084   4.752 -13.027  0.00  0.00     0.032 A 
ATOM     27  C   UNL d   1      10.127   3.625 -13.828  0.00  0.00     0.140 A 
ATOM     28  C   UNL d   1       8.934   2.971 -14.198  0.00  0.00     0.027 A 
ATOM     29  F   UNL d   1      11.296   3.114 -14.261  0.00  0.00    -0.204 F 
BRANCH  24  30
ATOM     30  O   UNL d   1       6.397   5.057 -12.500  0.00  0.00    -0.328 OA
ATOM     31  C   UNL d   1       6.355   6.191 -11.660  0.00  0.00     0.181 C 
ENDBRANCH  24  30
ENDBRANCH  21  23
ENDBRANCH  19  20
ENDBRANCH   1  19
TORSDOF 10
