REMARK  6 active torsions:
REMARK  status: ('A' for Active; 'I' for Inactive)
REMARK       I    between atoms: C_2  and  N_3 
REMARK    1  A    between atoms: C_2  and  C_22 
REMARK    2  A    between atoms: N_3  and  C_4 
REMARK    3  A    between atoms: C_4  and  C_5 
REMARK    4  A    between atoms: C_6  and  C_7 
REMARK    5  A    between atoms: C_7  and  N_8 
REMARK    6  A    between atoms: N_11  and  C_12 
ROOT
ATOM      1  C   UNL d   1       9.017   8.255 -11.974  0.00  0.00     0.155 C 
ENDROOT
BRANCH   1   2
ATOM      2  N   UNL d   1       9.536   7.889 -10.657  0.00  0.00    -0.229 NA
ATOM      3  C   UNL d   1      10.647   8.400 -10.070  0.00  0.00     0.275 C 
ATOM      4  O   UNL d   1      11.456   9.155 -10.570  0.00  0.00    -0.266 OA
BRANCH   3   5
ATOM      5  C   UNL d   1      10.812   8.115  -8.627  0.00  0.00     0.057 A 
ATOM      6  C   UNL d   1      11.253   9.187  -7.812  0.00  0.00     0.001 A 
ATOM      7  C   UNL d   1      11.465   8.944  -6.455  0.00  0.00    -0.018 A 
ATOM      8  C   UNL d   1      11.295   7.664  -5.950  0.00  0.00    -0.004 A 
ATOM      9  C   UNL d   1      11.885   9.945  -5.392  0.00  0.00     0.053 A 
ATOM     10  C   UNL d   1      10.903   6.572  -6.753  0.00  0.00    -0.000 A 
ATOM     11  C   UNL d   1      11.616   7.698  -4.550  0.00  0.00    -0.004 A 
ATOM     12  C   UNL d   1      10.652   6.821  -8.120  0.00  0.00     0.005 A 
ATOM     13  C   UNL d   1      11.939   9.010  -4.200  0.00  0.00    -0.018 A 
ATOM     14  C   UNL d   1      11.633   6.669  -3.614  0.00  0.00    -0.000 A 
ATOM     15  C   UNL d   1      12.235   9.330  -2.873  0.00  0.00    -0.004 A 
ATOM     16  C   UNL d   1      12.276   8.297  -1.912  0.00  0.00    -0.000 A 
ATOM     17  C   UNL d   1      11.972   6.963  -2.284  0.00  0.00    -0.000 A 
ENDBRANCH   3   5
ENDBRANCH   1   2
BRANCH   1  18
ATOM     18  C   UNL d   1       7.828   7.398 -12.404  0.00  0.00    -0.003 C 
ATOM     19  C   UNL d   1       7.449   6.237 -11.848  0.00  0.00     0.006 C 
BRANCH  19  20
ATOM     20  C   UNL d   1       6.274   5.412 -12.320  0.00  0.00     0.276 C 
BRANCH  20  21
ATOM     21  N   UNL d   1       6.698   4.051 -12.670  0.00  0.00     0.145 N 
ATOM     22  C   UNL d   1       7.738   4.077 -13.709  0.00  0.00     0.275 C 
ATOM     23  C   UNL d   1       8.131   2.649 -14.179  0.00  0.00     0.137 C 
ATOM     24  N   UNL d   1       6.952   1.863 -14.537  0.00  0.00    -0.344 N 
ATOM     25  C   UNL d   1       5.863   1.901 -13.581  0.00  0.00     0.137 C 
ATOM     26  C   UNL d   1       5.519   3.353 -13.182  0.00  0.00     0.275 C 
BRANCH  24  27
ATOM     27  C   UNL d   1       6.862   1.119 -15.775  0.00  0.00     0.068 A 
ATOM     28  C   UNL d   1       6.244  -0.142 -15.889  0.00  0.00     0.084 A 
ATOM     29  C   UNL d   1       6.180  -0.794 -17.167  0.00  0.00     0.070 A 
ATOM     30 CL   UNL d   1       5.600  -1.000 -14.529  0.00  0.00    -0.080 Cl
ATOM     31  C   UNL d   1       6.777  -0.194 -18.280  0.00  0.00     0.012 A 
ATOM     32 CL   UNL d   1       5.426  -2.331 -17.371  0.00  0.00    -0.081 Cl
ATOM     33  C   UNL d   1       7.415   1.039 -18.165  0.00  0.00     0.002 A 
ATOM     34  C   UNL d   1       7.440   1.702 -16.913  0.00  0.00     0.018 A 
ENDBRANCH  24  27
ENDBRANCH  20  21
ENDBRANCH  19  20
ENDBRANCH   1  18
TORSDOF 6
