REMARK  7 active torsions:
REMARK  status: ('A' for Active; 'I' for Inactive)
REMARK       I    between atoms: C_2  and  N_3 
REMARK    1  A    between atoms: C_2  and  C_22 
REMARK    2  A    between atoms: N_3  and  C_4 
REMARK    3  A    between atoms: C_4  and  C_5 
REMARK    4  A    between atoms: C_6  and  C_7 
REMARK    5  A    between atoms: C_7  and  N_8 
REMARK    6  A    between atoms: N_11  and  C_12 
REMARK    7  A    between atoms: C_25  and  C_26 
ROOT
ATOM      1  C   UNL d   1       9.460   4.845 -12.435  0.00  0.00    -0.003 C 
ATOM      2  C   UNL d   1      10.187   4.472 -13.504  0.00  0.00     0.006 C 
ENDROOT
BRANCH   1   3
ATOM      3  C   UNL d   1       9.084   6.270 -12.101  0.00  0.00     0.155 C 
BRANCH   3   4
ATOM      4  N   UNL d   1       9.486   6.575 -10.738  0.00  0.00    -0.229 NA
ATOM      5  C   UNL d   1       9.853   7.780 -10.280  0.00  0.00     0.275 C 
ATOM      6  O   UNL d   1       9.892   8.780 -10.984  0.00  0.00    -0.266 OA
BRANCH   5   7
ATOM      7  C   UNL d   1      10.289   7.826  -8.850  0.00  0.00     0.058 A 
ATOM      8  C   UNL d   1       9.668   6.990  -7.887  0.00  0.00     0.005 A 
ATOM      9  C   UNL d   1      10.067   7.046  -6.538  0.00  0.00     0.003 A 
ATOM     10  C   UNL d   1      11.057   7.956  -6.124  0.00  0.00     0.036 A 
ATOM     11  C   UNL d   1      11.653   8.819  -7.072  0.00  0.00     0.003 A 
ATOM     12  C   UNL d   1      11.266   8.749  -8.428  0.00  0.00     0.005 A 
BRANCH  10  13
ATOM     13  C   UNL d   1      11.471   8.004  -4.717  0.00  0.00     0.162 A 
ATOM     14  N   UNL d   1      11.710   9.205  -4.186  0.00  0.00    -0.225 NA
ATOM     15  C   UNL d   1      12.092   9.246  -2.895  0.00  0.00     0.102 A 
ATOM     16  C   UNL d   1      12.261   8.080  -2.134  0.00  0.00     0.041 A 
ATOM     17  C   UNL d   1      11.989   6.869  -2.787  0.00  0.00     0.102 A 
ATOM     18  N   UNL d   1      11.592   6.837  -4.075  0.00  0.00    -0.225 NA
ENDBRANCH  10  13
ENDBRANCH   5   7
ENDBRANCH   3   4
ENDBRANCH   1   3
BRANCH   2  19
ATOM     19  C   UNL d   1      10.524   3.022 -13.824  0.00  0.00     0.276 C 
BRANCH  19  20
ATOM     20  N   UNL d   1       9.834   2.519 -15.014  0.00  0.00     0.145 N 
ATOM     21  C   UNL d   1       8.405   2.862 -14.974  0.00  0.00     0.275 C 
ATOM     22  C   UNL d   1       7.698   2.349 -16.238  0.00  0.00     0.137 C 
ATOM     23  N   UNL d   1       7.884   0.920 -16.379  0.00  0.00    -0.344 N 
ATOM     24  C   UNL d   1       9.268   0.473 -16.322  0.00  0.00     0.137 C 
ATOM     25  C   UNL d   1       9.959   1.051 -15.064  0.00  0.00     0.275 C 
BRANCH  23  26
ATOM     26  C   UNL d   1       6.795   0.042 -16.475  0.00  0.00     0.068 A 
ATOM     27  C   UNL d   1       5.789  -0.028 -15.478  0.00  0.00     0.084 A 
ATOM     28  C   UNL d   1       4.688  -0.893 -15.651  0.00  0.00     0.070 A 
ATOM     29 CL   UNL d   1       5.875   0.891 -14.011  0.00  0.00    -0.080 Cl
ATOM     30  C   UNL d   1       4.604  -1.724 -16.779  0.00  0.00     0.012 A 
ATOM     31 CL   UNL d   1       3.448  -0.939 -14.455  0.00  0.00    -0.081 Cl
ATOM     32  C   UNL d   1       5.605  -1.675 -17.760  0.00  0.00     0.002 A 
ATOM     33  C   UNL d   1       6.692  -0.787 -17.616  0.00  0.00     0.018 A 
ENDBRANCH  23  26
ENDBRANCH  19  20
ENDBRANCH   2  19
TORSDOF 7
