REMARK  7 active torsions:
REMARK  status: ('A' for Active; 'I' for Inactive)
REMARK    1  A    between atoms: C_6  and  C_7 
REMARK    2  A    between atoms: C_10  and  S_11 
REMARK    3  A    between atoms: S_11  and  C_12 
REMARK    4  A    between atoms: C_12  and  C_13 
REMARK    5  A    between atoms: C_13  and  C_14 
REMARK    6  A    between atoms: C_14  and  N_15 
REMARK    7  A    between atoms: C_20  and  C_21 
ROOT
ATOM      1  C   UNL d   1       9.400   4.562 -11.360  0.00  0.00     0.251 C 
ENDROOT
BRANCH   1   2
ATOM      2  C   UNL d   1       9.592   3.755 -12.646  0.00  0.00     0.047 C 
BRANCH   2   3
ATOM      3  C   UNL d   1       8.978   4.434 -13.879  0.00  0.00     0.067 C 
BRANCH   3   4
ATOM      4  S   UNL d   1       9.481   3.592 -15.404  0.00  0.00    -0.075 SA
BRANCH   4   5
ATOM      5  C   UNL d   1       8.255   2.348 -15.508  0.00  0.00     0.193 A 
ATOM      6  N   UNL d   1       7.547   1.900 -14.474  0.00  0.00    -0.122 NA
ATOM      7  N   UNL d   1       6.725   0.941 -14.996  0.00  0.00    -0.126 NA
ATOM      8  C   UNL d   1       7.002   0.876 -16.302  0.00  0.00     0.191 A 
ATOM      9  N   UNL d   1       7.953   1.762 -16.681  0.00  0.00    -0.287 N 
ATOM     10  C   UNL d   1       8.505   2.032 -18.001  0.00  0.00     0.134 C 
BRANCH   8  11
ATOM     11  C   UNL d   1       6.318  -0.060 -17.183  0.00  0.00     0.151 A 
ATOM     12  C   UNL d   1       5.308  -0.965 -16.960  0.00  0.00     0.087 A 
ATOM     13  C   UNL d   1       4.559  -1.286 -15.703  0.00  0.00     0.054 C 
ATOM     14  N   UNL d   1       5.035  -1.612 -18.156  0.00  0.00    -0.221 NA
ATOM     15  C   UNL d   1       5.886  -1.085 -19.027  0.00  0.00     0.225 A 
ATOM     16  O   UNL d   1       6.692  -0.129 -18.500  0.00  0.00    -0.282 OA
ENDBRANCH   8  11
ENDBRANCH   4   5
ENDBRANCH   3   4
ENDBRANCH   2   3
ENDBRANCH   1   2
BRANCH   1  17
ATOM     17  N   UNL d   1       9.844   5.951 -11.513  0.00  0.00     0.137 N 
ATOM     18  C   UNL d   1      10.241   6.472 -10.211  0.00  0.00     0.251 C 
ATOM     19  C   UNL d   1      10.257   7.971 -10.396  0.00  0.00     0.038 A 
ATOM     20  C   UNL d   1       9.287   8.229 -11.531  0.00  0.00     0.038 C 
ATOM     21  C   UNL d   1      10.422   8.944  -9.234  0.00  0.00     0.026 A 
ATOM     22  C   UNL d   1      11.543   8.779 -10.232  0.00  0.00     0.007 A 
ATOM     23  C   UNL d   1       8.730   6.837 -11.883  0.00  0.00     0.250 C 
BRANCH  21  24
ATOM     24  C   UNL d   1      10.572   8.471  -7.822  0.00  0.00     0.005 A 
ATOM     25  C   UNL d   1       9.679   7.534  -7.275  0.00  0.00     0.138 A 
ATOM     26  C   UNL d   1       9.895   6.965  -6.029  0.00  0.00     0.059 A 
ATOM     27  F   UNL d   1       8.629   7.118  -8.010  0.00  0.00    -0.204 F 
ATOM     28  C   UNL d   1      10.992   7.381  -5.231  0.00  0.00     0.142 A 
ATOM     29  C   UNL d   1      11.822   8.407  -5.722  0.00  0.00     0.029 A 
ATOM     30  F   UNL d   1      11.225   6.811  -4.030  0.00  0.00    -0.204 F 
ATOM     31  C   UNL d   1      11.656   8.909  -7.020  0.00  0.00     0.000 A 
ENDBRANCH  21  24
ENDBRANCH   1  17
TORSDOF 7
