REMARK  9 active torsions:
REMARK  status: ('A' for Active; 'I' for Inactive)
REMARK    1  A    between atoms: O_2  and  C_3 
REMARK    2  A    between atoms: C_8  and  N_9 
REMARK    3  A    between atoms: N_12  and  C_13 
REMARK    4  A    between atoms: C_13  and  C_14 
REMARK    5  A    between atoms: C_14  and  C_15 
REMARK    6  A    between atoms: C_15  and  C_16 
REMARK    7  A    between atoms: C_16  and  N_17 
REMARK       I    between atoms: N_17  and  C_18 
REMARK    8  A    between atoms: C_18  and  C_20 
REMARK    9  A    between atoms: C_23  and  C_24 
ROOT
ATOM      1  C   UNL d   1       9.183   4.166 -12.793  0.00  0.00     0.029 C 
ENDROOT
BRANCH   1   2
ATOM      2  C   UNL d   1       8.784   3.678 -14.189  0.00  0.00     0.037 C 
BRANCH   2   3
ATOM      3  C   UNL d   1       9.140   2.195 -14.440  0.00  0.00     0.251 C 
BRANCH   3   4
ATOM      4  N   UNL d   1       8.741   1.741 -15.779  0.00  0.00     0.141 N 
ATOM      5  C   UNL d   1       7.277   1.700 -15.909  0.00  0.00     0.274 C 
ATOM      6  C   UNL d   1       6.870   1.280 -17.331  0.00  0.00     0.137 C 
ATOM      7  N   UNL d   1       7.454  -0.010 -17.657  0.00  0.00    -0.343 N 
ATOM      8  C   UNL d   1       8.890  -0.119 -17.433  0.00  0.00     0.137 C 
ATOM      9  C   UNL d   1       9.253   0.379 -16.012  0.00  0.00     0.274 C 
BRANCH   7  10
ATOM     10  C   UNL d   1       6.657  -1.113 -18.026  0.00  0.00     0.079 A 
ATOM     11  C   UNL d   1       5.469  -1.431 -17.317  0.00  0.00     0.110 A 
ATOM     12  C   UNL d   1       4.684  -2.525 -17.759  0.00  0.00     0.026 A 
ATOM     13  C   UNL d   1       5.074  -3.295 -18.870  0.00  0.00     0.002 A 
ATOM     14  C   UNL d   1       6.258  -2.984 -19.556  0.00  0.00     0.002 A 
ATOM     15  C   UNL d   1       7.048  -1.897 -19.133  0.00  0.00     0.019 A 
BRANCH  11  16
ATOM     16  O   UNL d   1       5.137  -0.671 -16.210  0.00  0.00    -0.327 OA
ATOM     17  C   UNL d   1       3.936  -0.962 -15.517  0.00  0.00     0.181 C 
ENDBRANCH  11  16
ENDBRANCH   7  10
ENDBRANCH   3   4
ENDBRANCH   2   3
ENDBRANCH   1   2
BRANCH   1  18
ATOM     18  C   UNL d   1       8.622   5.561 -12.482  0.00  0.00     0.129 C 
BRANCH  18  19
ATOM     19  N   UNL d   1       9.066   5.995 -11.166  0.00  0.00    -0.234 NA
ATOM     20  C   UNL d   1       9.462   7.241 -10.861  0.00  0.00     0.275 C 
ATOM     21  O   UNL d   1       9.456   8.169 -11.666  0.00  0.00    -0.266 OA
BRANCH  20  22
ATOM     22  C   UNL d   1       9.954   7.426  -9.454  0.00  0.00     0.058 A 
ATOM     23  C   UNL d   1      11.006   8.328  -9.183  0.00  0.00     0.005 A 
ATOM     24  C   UNL d   1      11.455   8.518  -7.862  0.00  0.00     0.000 A 
ATOM     25  C   UNL d   1      10.857   7.829  -6.782  0.00  0.00     0.002 A 
ATOM     26  C   UNL d   1       9.798   6.937  -7.061  0.00  0.00     0.000 A 
ATOM     27  C   UNL d   1       9.349   6.742  -8.379  0.00  0.00     0.005 A 
BRANCH  25  28
ATOM     28  C   UNL d   1      11.330   8.023  -5.399  0.00  0.00     0.019 A 
ATOM     29  C   UNL d   1      11.685   9.297  -4.905  0.00  0.00     0.101 A 
ATOM     30  N   UNL d   1      12.123   9.523  -3.650  0.00  0.00    -0.217 NA
ATOM     31  C   UNL d   1      12.250   8.472  -2.816  0.00  0.00     0.222 A 
ATOM     32  C   UNL d   1      11.925   7.159  -3.198  0.00  0.00     0.050 A 
ATOM     33  F   UNL d   1      12.699   8.691  -1.561  0.00  0.00    -0.183 F 
ATOM     34  C   UNL d   1      11.459   6.935  -4.506  0.00  0.00     0.005 A 
ENDBRANCH  25  28
ENDBRANCH  20  22
ENDBRANCH  18  19
ENDBRANCH   1  18
TORSDOF 9
