REMARK  0 active torsions:
REMARK  status: ('A' for Active; 'I' for Inactive)
ROOT
ATOM      1  C   UNL d   1       8.712   6.416 -12.626  0.00  0.00     0.038 C 
ATOM      2  C   UNL d   1       8.810   5.048 -13.223  0.00  0.00     0.003 A 
ATOM      3  S   UNL d   1      10.356   4.380 -13.646  0.00  0.00    -0.096 SA
ATOM      4  C   UNL d   1       9.628   2.880 -14.147  0.00  0.00     0.008 A 
ATOM      5  C   UNL d   1      10.524   1.742 -14.524  0.00  0.00     0.038 C 
ATOM      6  C   UNL d   1       8.250   2.932 -14.082  0.00  0.00     0.015 A 
ATOM      7  C   UNL d   1       7.799   4.154 -13.484  0.00  0.00    -0.019 A 
ATOM      8  C   UNL d   1       6.359   4.393 -13.134  0.00  0.00     0.027 C 
ATOM      9  C   UNL d   1       5.878   3.380 -12.080  0.00  0.00     0.011 C 
ATOM     10  C   UNL d   1       5.432   1.997 -12.615  0.00  0.00     0.048 C 
ATOM     11  C   UNL d   1       6.139   1.470 -13.841  0.00  0.00     0.076 A 
ATOM     12  N   UNL d   1       5.575   0.413 -14.551  0.00  0.00    -0.229 NA
ATOM     13  C   UNL d   1       6.352   0.294 -15.618  0.00  0.00     0.178 A 
ATOM     14  N   UNL d   1       7.377   1.156 -15.660  0.00  0.00    -0.308 N 
ATOM     15  C   UNL d   1       8.316   1.284 -16.760  0.00  0.00     0.132 C 
ATOM     16  C   UNL d   1       7.303   1.879 -14.466  0.00  0.00     0.075 A 
ENDROOT
TORSDOF 0
