REMARK  16 active torsions:
REMARK  status: ('A' for Active; 'I' for Inactive)
REMARK    1  A    between atoms: C_2  and  C_3 
REMARK    2  A    between atoms: C_5  and  C_6 
REMARK    3  A    between atoms: C_6  and  C_8 
REMARK    4  A    between atoms: C_8  and  N_9 
REMARK    5  A    between atoms: N_9  and  C_10 
REMARK    6  A    between atoms: C_10  and  C_11 
REMARK    7  A    between atoms: C_11  and  C_12 
REMARK    8  A    between atoms: C_12  and  C_13 
REMARK    9  A    between atoms: C_13  and  C_14 
REMARK   10  A    between atoms: C_14  and  C_15 
REMARK   11  A    between atoms: C_15  and  O_16 
REMARK   12  A    between atoms: O_16  and  C_17 
REMARK   13  A    between atoms: C_17  and  C_18 
REMARK   14  A    between atoms: C_18  and  C_19 
REMARK   15  A    between atoms: C_19  and  C_20 
REMARK   16  A    between atoms: C_20  and  C_21 
ROOT
ATOM      1  C   UNL d   1      10.953   3.482 -15.475  0.00  0.00     0.038 C 
ENDROOT
BRANCH   1   2
ATOM      2  C   UNL d   1      11.548   4.427 -16.523  0.00  0.00     0.290 C 
BRANCH   2   3
ATOM      3  N   UNL d   1      12.682   3.803 -17.194  0.00  0.00     0.342 N 
BRANCH   3   4
ATOM      4  C   UNL d   1      13.441   4.731 -18.024  0.00  0.00     0.327 C 
BRANCH   4   5
ATOM      5  C   UNL d   1      14.625   4.034 -18.725  0.00  0.00     0.210 C 
ATOM      6  O   UNL d   1      15.438   5.018 -19.328  0.00  0.00    -0.216 OA
BRANCH   5   7
ATOM      7  C   UNL d   1      14.183   2.983 -19.738  0.00  0.00     0.010 A 
ATOM      8  C   UNL d   1      14.651   1.651 -19.638  0.00  0.00    -0.002 A 
ATOM      9  C   UNL d   1      14.241   0.673 -20.573  0.00  0.00     0.036 A 
ATOM     10  C   UNL d   1      13.357   1.028 -21.613  0.00  0.00     0.129 A 
ATOM     11  C   UNL d   1      12.884   2.352 -21.712  0.00  0.00     0.027 A 
ATOM     12  O   UNL d   1      12.951   0.107 -22.536  0.00  0.00    -0.190 OA
ATOM     13  C   UNL d   1      13.300   3.323 -20.783  0.00  0.00     0.000 A 
BRANCH   9  14
ATOM     14  C   UNL d   1      14.762  -0.748 -20.436  0.00  0.00     0.211 C 
ATOM     15  O   UNL d   1      13.866  -1.612 -19.767  0.00  0.00    -0.215 OA
ENDBRANCH   9  14
ENDBRANCH   5   7
ENDBRANCH   4   5
ENDBRANCH   3   4
ENDBRANCH   2   3
ENDBRANCH   1   2
BRANCH   1  16
ATOM     16  C   UNL d   1       9.826   4.139 -14.650  0.00  0.00     0.002 C 
BRANCH  16  17
ATOM     17  C   UNL d   1       9.974   3.893 -13.142  0.00  0.00     0.003 C 
BRANCH  17  18
ATOM     18  C   UNL d   1       8.949   4.665 -12.302  0.00  0.00     0.032 C 
BRANCH  18  19
ATOM     19  C   UNL d   1       9.430   4.809 -10.863  0.00  0.00     0.142 C 
BRANCH  19  20
ATOM     20  O   UNL d   1       8.342   5.196 -10.051  0.00  0.00    -0.354 OA
BRANCH  20  21
ATOM     21  C   UNL d   1       8.677   5.367  -8.684  0.00  0.00     0.142 C 
BRANCH  21  22
ATOM     22  C   UNL d   1       9.457   6.672  -8.437  0.00  0.00     0.033 C 
BRANCH  22  23
ATOM     23  C   UNL d   1       9.969   6.730  -7.005  0.00  0.00     0.007 C 
BRANCH  23  24
ATOM     24  C   UNL d   1      10.533   8.101  -6.620  0.00  0.00     0.026 C 
BRANCH  24  25
ATOM     25  C   UNL d   1      11.138   8.152  -5.218  0.00  0.00    -0.022 A 
ATOM     26  C   UNL d   1      11.360   9.408  -4.609  0.00  0.00    -0.004 A 
ATOM     27  C   UNL d   1      11.901   9.481  -3.304  0.00  0.00    -0.000 A 
ATOM     28  C   UNL d   1      12.254   8.307  -2.616  0.00  0.00    -0.000 A 
ATOM     29  C   UNL d   1      12.037   7.054  -3.214  0.00  0.00    -0.000 A 
ATOM     30  C   UNL d   1      11.479   6.979  -4.508  0.00  0.00    -0.004 A 
ENDBRANCH  24  25
ENDBRANCH  23  24
ENDBRANCH  22  23
ENDBRANCH  21  22
ENDBRANCH  20  21
ENDBRANCH  19  20
ENDBRANCH  18  19
ENDBRANCH  17  18
ENDBRANCH  16  17
ENDBRANCH   1  16
TORSDOF 16
