REMARK  7 active torsions:
REMARK  status: ('A' for Active; 'I' for Inactive)
REMARK    1  A    between atoms: C_2  and  C_3 
REMARK       I    between atoms: C_2  and  N_8 
REMARK    2  A    between atoms: C_3  and  C_4 
REMARK    3  A    between atoms: N_8  and  C_9 
REMARK    4  A    between atoms: C_12  and  C_13 
REMARK    5  A    between atoms: C_13  and  C_14 
REMARK    6  A    between atoms: C_14  and  N_15 
REMARK    7  A    between atoms: N_18  and  C_19 
ROOT
ATOM      1  C   UNL d   1       9.803   4.176 -12.113  0.00  0.00     0.250 C 
ENDROOT
BRANCH   1   2
ATOM      2  C   UNL d   1       8.738   4.772 -11.202  0.00  0.00     0.035 C 
BRANCH   2   3
ATOM      3  C   UNL d   1       9.387   5.453  -9.986  0.00  0.00     0.002 C 
ATOM      4  C   UNL d   1       9.866   6.876 -10.348  0.00  0.00     0.002 C 
ATOM      5  C   UNL d   1      10.430   7.616  -9.137  0.00  0.00     0.024 C 
ATOM      6  C   UNL d   1       9.401   7.645  -7.988  0.00  0.00     0.106 C 
ATOM      7  C   UNL d   1       8.867   6.234  -7.635  0.00  0.00     0.024 C 
ATOM      8  C   UNL d   1       8.354   5.505  -8.866  0.00  0.00     0.002 C 
BRANCH   6   9
ATOM      9  N   UNL d   1       9.931   8.343  -6.830  0.00  0.00    -0.240 NA
ATOM     10  C   UNL d   1      10.948   7.916  -6.082  0.00  0.00     0.252 C 
ATOM     11  O   UNL d   1      11.512   6.840  -6.282  0.00  0.00    -0.271 OA
BRANCH  10  12
ATOM     12  C   UNL d   1      11.368   8.830  -4.936  0.00  0.00     0.095 C 
BRANCH  12  13
ATOM     13  C   UNL d   1      12.276   8.089  -3.939  0.00  0.00     0.069 C 
ATOM     14  C   UNL d   1      12.362   8.551  -2.497  0.00  0.00     0.145 C 
ATOM     15  O   UNL d   1      12.359   7.179  -2.031  0.00  0.00    -0.354 OA
ATOM     16  C   UNL d   1      11.844   6.757  -3.310  0.00  0.00     0.145 C 
ENDBRANCH  12  13
ENDBRANCH  10  12
ENDBRANCH   6   9
ENDBRANCH   2   3
ENDBRANCH   1   2
BRANCH   1  17
ATOM     17  N   UNL d   1       9.265   3.359 -13.198  0.00  0.00     0.141 N 
ATOM     18  C   UNL d   1       8.423   4.104 -14.139  0.00  0.00     0.274 C 
ATOM     19  C   UNL d   1       9.264   5.174 -14.830  0.00  0.00     0.137 C 
ATOM     20  N   UNL d   1      10.445   4.593 -15.459  0.00  0.00    -0.343 N 
ATOM     21  C   UNL d   1      11.258   3.690 -14.650  0.00  0.00     0.137 C 
ATOM     22  C   UNL d   1      10.337   2.678 -13.942  0.00  0.00     0.274 C 
BRANCH  20  23
ATOM     23  C   UNL d   1      10.772   4.851 -16.824  0.00  0.00     0.081 A 
ATOM     24  C   UNL d   1      12.097   4.787 -17.272  0.00  0.00     0.135 A 
ATOM     25  C   UNL d   1      12.428   5.014 -18.604  0.00  0.00     0.121 A 
ATOM     26  O   UNL d   1      13.242   4.538 -16.579  0.00  0.00    -0.298 OA
ATOM     27  C   UNL d   1      11.448   5.339 -19.552  0.00  0.00     0.026 A 
ATOM     28  O   UNL d   1      13.767   4.885 -18.769  0.00  0.00    -0.299 OA
ATOM     29  C   UNL d   1      10.107   5.427 -19.126  0.00  0.00     0.004 A 
ATOM     30  C   UNL d   1       9.777   5.176 -17.764  0.00  0.00     0.019 A 
ATOM     31  C   UNL d   1      14.286   4.569 -17.502  0.00  0.00     0.304 A 
ENDBRANCH  20  23
ENDBRANCH   1  17
TORSDOF 7
