REMARK  1 active torsions:
REMARK  status: ('A' for Active; 'I' for Inactive)
REMARK    1  A    between atoms: C_2  and  N_4 
ROOT
ATOM      1  N   UNL d   1       6.240  -0.154 -16.431  0.00  0.00    -0.253 N 
ATOM      2  N   UNL d   1       5.146  -0.936 -16.241  0.00  0.00    -0.168 NA
ATOM      3  C   UNL d   1       4.883  -0.861 -14.949  0.00  0.00     0.117 A 
ATOM      4  C   UNL d   1       5.777   0.017 -14.276  0.00  0.00     0.016 A 
ATOM      5  C   UNL d   1       6.672   0.390 -15.227  0.00  0.00     0.076 A 
ATOM      6  C   UNL d   1       7.820   1.283 -15.042  0.00  0.00     0.031 A 
ATOM      7  C   UNL d   1       9.104   1.084 -15.530  0.00  0.00     0.089 A 
ATOM      8 CL   UNL d   1       9.779  -0.237 -16.412  0.00  0.00    -0.075 Cl
ATOM      9  S   UNL d   1      10.224   2.341 -15.125  0.00  0.00    -0.064 SA
ATOM     10  C   UNL d   1       8.987   3.129 -14.212  0.00  0.00     0.084 A 
ATOM     11 CL   UNL d   1       9.428   4.577 -13.397  0.00  0.00    -0.076 Cl
ATOM     12  C   UNL d   1       7.782   2.465 -14.199  0.00  0.00    -0.003 A 
ATOM     13  C   UNL d   1       6.643   2.990 -13.340  0.00  0.00     0.028 C 
ATOM     14  C   UNL d   1       5.510   2.028 -12.872  0.00  0.00     0.009 C 
ATOM     15  C   UNL d   1       5.748   0.495 -12.867  0.00  0.00     0.030 C 
ENDROOT
BRANCH   1  16
ATOM     16  C   UNL d   1       6.693   0.079 -17.799  0.00  0.00     0.105 C 
ATOM     17  C   UNL d   1       5.710   1.007 -18.522  0.00  0.00     0.026 C 
ATOM     18  C   UNL d   1       6.898  -1.239 -18.567  0.00  0.00     0.026 C 
ENDBRANCH   1  16
TORSDOF 1
