REMARK  0 active torsions:
REMARK  status: ('A' for Active; 'I' for Inactive)
ROOT
ATOM      1  O   UNL d   1       4.417   0.352 -13.640  0.00  0.00    -0.188 OA
ATOM      2  C   UNL d   1       5.582   1.010 -13.921  0.00  0.00     0.156 A 
ATOM      3  C   UNL d   1       5.857   2.269 -13.356  0.00  0.00     0.025 A 
ATOM      4  C   UNL d   1       7.052   2.950 -13.670  0.00  0.00    -0.024 A 
ATOM      5  C   UNL d   1       7.979   2.375 -14.584  0.00  0.00    -0.018 A 
ATOM      6  C   UNL d   1       7.715   1.077 -15.085  0.00  0.00     0.025 A 
ATOM      7  C   UNL d   1       6.516   0.413 -14.780  0.00  0.00     0.156 A 
ATOM      8  O   UNL d   1       6.239  -0.812 -15.309  0.00  0.00    -0.188 OA
ATOM      9  C   UNL d   1       9.321   3.056 -14.900  0.00  0.00     0.079 C 
ATOM     10  C   UNL d   1       9.704   3.262 -16.369  0.00  0.00    -0.001 A 
ATOM     11  C   UNL d   1       9.072   2.639 -17.471  0.00  0.00     0.001 A 
ATOM     12  C   UNL d   1       9.540   2.905 -18.770  0.00  0.00     0.049 A 
ATOM     13  C   UNL d   1      10.618   3.793 -18.934  0.00  0.00     0.222 A 
ATOM     14  F   UNL d   1      11.075   4.038 -20.182  0.00  0.00    -0.183 F 
ATOM     15  N   UNL d   1      11.209   4.419 -17.896  0.00  0.00    -0.221 NA
ATOM     16  C   UNL d   1      10.758   4.165 -16.650  0.00  0.00     0.094 A 
ATOM     17  C   UNL d   1      11.394   5.012 -15.545  0.00  0.00     0.335 C 
ATOM     18  N   UNL d   1      10.938   4.735 -14.181  0.00  0.00     0.344 N 
ATOM     19  C   UNL d   1       9.515   4.414 -14.182  0.00  0.00     0.265 C 
ATOM     20  C   UNL d   1       8.902   4.441 -12.785  0.00  0.00     0.041 C 
ATOM     21  C   UNL d   1       7.386   4.222 -12.907  0.00  0.00     0.028 C 
ENDROOT
TORSDOF 0
