REMARK  5 active torsions:
REMARK  status: ('A' for Active; 'I' for Inactive)
REMARK    1  A    between atoms: C_13  and  C_15 
REMARK    2  A    between atoms: C_15  and  O_16 
REMARK    3  A    between atoms: O_16  and  C_17 
REMARK    4  A    between atoms: C_20  and  C_21 
REMARK    5  A    between atoms: C_21  and  C_22 
ROOT
ATOM      1  C   UNL d   1       8.917   6.460 -11.233  0.00  0.00     0.176 C 
ENDROOT
BRANCH   1   2
ATOM      2  C   UNL d   1       8.346   5.460 -12.213  0.00  0.00     0.127 C 
ATOM      3  C   UNL d   1       7.428   4.445 -11.524  0.00  0.00     0.035 C 
ATOM      4  C   UNL d   1       6.796   3.506 -12.599  0.00  0.00     0.031 C 
ATOM      5  C   UNL d   1       7.888   3.053 -13.607  0.00  0.00    -0.002 A 
ATOM      6  C   UNL d   1       9.131   3.767 -13.714  0.00  0.00     0.085 A 
ATOM      7  C   UNL d   1       7.726   1.911 -14.440  0.00  0.00     0.001 A 
ATOM      8  C   UNL d   1      10.155   3.361 -14.602  0.00  0.00    -0.002 A 
ATOM      9  O   UNL d   1       9.417   4.838 -12.908  0.00  0.00    -0.334 OA
ATOM     10  C   UNL d   1       9.981   2.216 -15.394  0.00  0.00     0.001 A 
ATOM     11  C   UNL d   1      11.462   4.166 -14.668  0.00  0.00     0.033 C 
ATOM     12  C   UNL d   1      11.073   1.791 -16.377  0.00  0.00     0.033 C 
ATOM     13  C   UNL d   1       8.757   1.497 -15.326  0.00  0.00     0.122 A 
ATOM     14  O   UNL d   1       8.599   0.374 -16.077  0.00  0.00    -0.191 OA
ATOM     15  C   UNL d   1       6.483   1.053 -14.266  0.00  0.00     0.033 C 
ATOM     16  C   UNL d   1       7.497   6.216 -13.201  0.00  0.00     0.033 C 
ENDBRANCH   1   2
BRANCH   1  17
ATOM     17  O   UNL d   1       9.546   5.853 -10.134  0.00  0.00    -0.328 OA
BRANCH  17  18
ATOM     18  C   UNL d   1       9.879   6.641  -9.060  0.00  0.00     0.094 C 
ATOM     19  C   UNL d   1       9.655   8.042  -8.940  0.00  0.00     0.024 C 
ATOM     20  C   UNL d   1      10.181   8.756  -7.844  0.00  0.00    -0.002 C 
ATOM     21  C   UNL d   1      11.081   8.120  -6.974  0.00  0.00    -0.021 C 
ATOM     22  C   UNL d   1      11.317   6.742  -7.120  0.00  0.00    -0.002 C 
ATOM     23  C   UNL d   1      10.660   5.990  -8.091  0.00  0.00     0.024 C 
BRANCH  21  24
ATOM     24  C   UNL d   1      11.726   8.904  -5.847  0.00  0.00     0.047 C 
BRANCH  24  25
ATOM     25  C   UNL d   1      11.164   8.419  -4.531  0.00  0.00     0.141 A 
ATOM     26  C   UNL d   1      11.652   9.210  -3.342  0.00  0.00     0.269 A 
ATOM     27  N   UNL d   1      12.221   8.583  -2.326  0.00  0.00    -0.167 NA
ATOM     28  O   UNL d   1      11.415  10.378  -3.316  0.00  0.00    -0.269 OA
ATOM     29  C   UNL d   1      12.187   7.254  -2.454  0.00  0.00     0.309 A 
ATOM     30  S   UNL d   1      11.546   6.739  -3.985  0.00  0.00    -0.043 SA
ATOM     31  O   UNL d   1      12.585   6.465  -1.611  0.00  0.00    -0.258 OA
ENDBRANCH  24  25
ENDBRANCH  21  24
ENDBRANCH  17  18
ENDBRANCH   1  17
TORSDOF 5
