REMARK  8 active torsions:
REMARK  status: ('A' for Active; 'I' for Inactive)
REMARK    1  A    between atoms: O_2  and  C_3 
REMARK    2  A    between atoms: C_9  and  C_10 
REMARK    3  A    between atoms: C_12  and  C_13 
REMARK    4  A    between atoms: C_13  and  N_14 
REMARK    5  A    between atoms: N_14  and  C_16 
REMARK    6  A    between atoms: C_16  and  C_17 
REMARK    7  A    between atoms: N_20  and  C_21 
REMARK    8  A    between atoms: C_21  and  C_22 
ROOT
ATOM      1  C   UNL d   1       9.619   5.502 -12.593  0.00  0.00     0.298 C 
ENDROOT
BRANCH   1   2
ATOM      2  C   UNL d   1      10.114   4.619 -13.676  0.00  0.00     0.119 A 
ATOM      3  N   UNL d   1      11.065   5.053 -14.578  0.00  0.00    -0.222 NA
ATOM      4  C   UNL d   1      11.314   4.010 -15.373  0.00  0.00     0.184 A 
ATOM      5  O   UNL d   1      10.606   2.904 -15.006  0.00  0.00    -0.286 OA
ATOM      6  C   UNL d   1       9.854   3.296 -13.930  0.00  0.00     0.141 A 
BRANCH   4   7
ATOM      7  C   UNL d   1      12.194   3.921 -16.542  0.00  0.00     0.064 A 
ATOM      8  C   UNL d   1      12.976   5.018 -16.999  0.00  0.00     0.098 A 
ATOM      9  C   UNL d   1      13.790   4.847 -18.148  0.00  0.00     0.025 A 
ATOM     10  C   UNL d   1      13.826   3.614 -18.830  0.00  0.00     0.009 A 
ATOM     11  C   UNL d   1      13.047   2.540 -18.379  0.00  0.00     0.035 A 
ATOM     12 BR   UNL d   1      13.087   0.871 -19.292  0.00  0.00    -0.049 Br
ATOM     13  C   UNL d   1      12.236   2.692 -17.244  0.00  0.00     0.012 A 
BRANCH   8  14
ATOM     14  O   UNL d   1      12.917   6.213 -16.305  0.00  0.00    -0.328 OA
ATOM     15  C   UNL d   1      13.618   7.340 -16.811  0.00  0.00     0.181 C 
ENDBRANCH   8  14
ENDBRANCH   4   7
ENDBRANCH   1   2
BRANCH   1  16
ATOM     16  N   UNL d   1       8.435   5.143 -11.841  0.00  0.00     0.145 N 
ATOM     17  C   UNL d   1       7.268   5.411 -12.674  0.00  0.00     0.286 C 
BRANCH  16  18
ATOM     18  C   UNL d   1       8.321   5.941 -10.626  0.00  0.00     0.253 C 
BRANCH  18  19
ATOM     19  C   UNL d   1       9.014   5.274  -9.418  0.00  0.00     0.069 C 
ATOM     20  C   UNL d   1      10.405   5.823  -9.130  0.00  0.00     0.253 C 
ATOM     21  N   UNL d   1      10.240   6.888  -8.178  0.00  0.00     0.141 N 
ATOM     22  C   UNL d   1       9.341   6.287  -7.219  0.00  0.00     0.251 C 
ATOM     23  C   UNL d   1       8.332   5.545  -8.098  0.00  0.00     0.039 C 
BRANCH  21  24
ATOM     24  C   UNL d   1      11.550   7.253  -7.629  0.00  0.00     0.277 C 
BRANCH  24  25
ATOM     25  C   UNL d   1      11.440   8.089  -6.391  0.00  0.00     0.011 A 
ATOM     26  C   UNL d   1      11.193   9.474  -6.491  0.00  0.00    -0.002 A 
ATOM     27  C   UNL d   1      11.078  10.216  -5.308  0.00  0.00    -0.000 A 
ATOM     28  C   UNL d   1      11.252   9.609  -4.048  0.00  0.00    -0.000 A 
ATOM     29  C   UNL d   1      11.533   8.241  -3.959  0.00  0.00    -0.000 A 
ATOM     30  C   UNL d   1      11.560   7.468  -5.140  0.00  0.00    -0.002 A 
ENDBRANCH  24  25
ENDBRANCH  21  24
ENDBRANCH  18  19
ENDBRANCH  16  18
ENDBRANCH   1  16
TORSDOF 8
