REMARK  5 active torsions:
REMARK  status: ('A' for Active; 'I' for Inactive)
REMARK    1  A    between atoms: C_2  and  C_3 
REMARK    2  A    between atoms: C_3  and  N_4 
REMARK    3  A    between atoms: N_4  and  C_5 
REMARK    4  A    between atoms: N_16  and  C_17 
REMARK    5  A    between atoms: C_17  and  C_18 
ROOT
ATOM      1  C   UNL d   1      10.008   1.849 -14.662  0.00  0.00     0.283 C 
ATOM      2  C   UNL d   1       8.612   1.292 -15.046  0.00  0.00     0.066 C 
ATOM      3  C   UNL d   1       7.473   1.908 -14.277  0.00  0.00    -0.003 A 
ATOM      4  C   UNL d   1       6.217   1.368 -13.980  0.00  0.00    -0.003 A 
ATOM      5  C   UNL d   1       5.312   2.128 -13.200  0.00  0.00     0.001 A 
ATOM      6  C   UNL d   1       5.598   3.440 -12.744  0.00  0.00     0.019 A 
ATOM      7  C   UNL d   1       6.855   3.980 -13.048  0.00  0.00     0.080 A 
ATOM      8  C   UNL d   1       7.713   3.189 -13.776  0.00  0.00     0.076 A 
ATOM      9  N   UNL d   1       8.895   3.906 -13.859  0.00  0.00    -0.278 N 
ATOM     10  C   UNL d   1       8.757   5.101 -13.246  0.00  0.00     0.332 A 
ATOM     11  O   UNL d   1       9.613   5.967 -13.164  0.00  0.00    -0.246 OA
ATOM     12  N   UNL d   1       7.497   5.181 -12.740  0.00  0.00    -0.280 N 
ATOM     13  C   UNL d   1      10.059   3.397 -14.572  0.00  0.00     0.147 C 
ENDROOT
BRANCH   1  14
ATOM     14  N   UNL d   1      11.053   1.308 -15.529  0.00  0.00     0.339 N 
BRANCH  14  15
ATOM     15  C   UNL d   1      10.892   1.642 -16.941  0.00  0.00     0.290 C 
BRANCH  15  16
ATOM     16  C   UNL d   1      12.048   1.097 -17.761  0.00  0.00     0.038 C 
ATOM     17  C   UNL d   1      11.852   1.411 -19.248  0.00  0.00     0.002 C 
ENDBRANCH  15  16
ENDBRANCH  14  15
ENDBRANCH   1  14
BRANCH  12  18
ATOM     18  C   UNL d   1       6.933   6.306 -11.989  0.00  0.00     0.111 C 
BRANCH  18  19
ATOM     19  C   UNL d   1       6.006   7.208 -12.832  0.00  0.00     0.025 C 
ATOM     20  C   UNL d   1       5.345   8.373 -12.072  0.00  0.00     0.002 C 
ENDBRANCH  18  19
ENDBRANCH  12  18
TORSDOF 5
