REMARK  12 active torsions:
REMARK  status: ('A' for Active; 'I' for Inactive)
REMARK    1  A    between atoms: C_2  and  C_3 
REMARK    2  A    between atoms: C_3  and  N_4 
REMARK    3  A    between atoms: N_4  and  C_5 
REMARK    4  A    between atoms: N_4  and  C_24 
REMARK    5  A    between atoms: C_5  and  C_6 
REMARK    6  A    between atoms: C_6  and  C_7 
REMARK    7  A    between atoms: C_7  and  C_8 
REMARK    8  A    between atoms: C_8  and  N_9 
REMARK       I    between atoms: N_9  and  C_10 
REMARK    9  A    between atoms: C_10  and  C_12 
REMARK   10  A    between atoms: C_15  and  C_16 
REMARK   11  A    between atoms: C_24  and  C_25 
REMARK   12  A    between atoms: C_27  and  C_28 
ROOT
ATOM      1  C   UNL d   1       8.810   4.564 -14.105  0.00  0.00     0.037 C 
ENDROOT
BRANCH   1   2
ATOM      2  C   UNL d   1       9.669   3.538 -14.871  0.00  0.00     0.250 C 
BRANCH   2   3
ATOM      3  N   UNL d   1       9.480   3.545 -16.326  0.00  0.00     0.137 N 
BRANCH   3   4
ATOM      4  C   UNL d   1       9.996   4.777 -16.928  0.00  0.00     0.250 C 
BRANCH   4   5
ATOM      5  C   UNL d   1       9.557   4.928 -18.394  0.00  0.00     0.035 C 
ATOM      6  C   UNL d   1       9.949   6.301 -18.940  0.00  0.00     0.002 C 
ENDBRANCH   4   5
ENDBRANCH   3   4
BRANCH   3   7
ATOM      7  C   UNL d   1      10.177   2.377 -16.883  0.00  0.00     0.251 C 
BRANCH   7   8
ATOM      8  C   UNL d   1       9.207   1.293 -17.258  0.00  0.00     0.038 A 
ATOM      9  C   UNL d   1       8.550   0.385 -16.242  0.00  0.00     0.024 A 
ATOM     10  C   UNL d   1       9.637  -0.162 -17.138  0.00  0.00     0.007 A 
BRANCH   9  11
ATOM     11  C   UNL d   1       7.119  -0.005 -16.376  0.00  0.00    -0.022 A 
ATOM     12  C   UNL d   1       6.250   0.003 -15.261  0.00  0.00     0.007 A 
ATOM     13  C   UNL d   1       4.912  -0.436 -15.390  0.00  0.00     0.057 A 
ATOM     14  C   UNL d   1       4.440  -0.895 -16.630  0.00  0.00     0.011 A 
ATOM     15 CL   UNL d   1       3.850  -0.403 -14.039  0.00  0.00    -0.082 Cl
ATOM     16  C   UNL d   1       5.290  -0.889 -17.757  0.00  0.00     0.001 A 
ATOM     17  C   UNL d   1       6.610  -0.444 -17.627  0.00  0.00    -0.004 A 
ENDBRANCH   9  11
ENDBRANCH   7   8
ENDBRANCH   3   7
ENDBRANCH   2   3
ENDBRANCH   1   2
BRANCH   1  18
ATOM     18  C   UNL d   1       9.306   4.775 -12.672  0.00  0.00     0.029 C 
BRANCH  18  19
ATOM     19  C   UNL d   1       8.565   5.938 -12.003  0.00  0.00     0.129 C 
BRANCH  19  20
ATOM     20  N   UNL d   1       9.189   6.265 -10.732  0.00  0.00    -0.234 NA
ATOM     21  C   UNL d   1       9.744   7.450 -10.411  0.00  0.00     0.275 C 
ATOM     22  O   UNL d   1       9.864   8.382 -11.206  0.00  0.00    -0.266 OA
BRANCH  21  23
ATOM     23  C   UNL d   1      10.223   7.569  -8.993  0.00  0.00     0.058 A 
ATOM     24  C   UNL d   1      11.281   8.447  -8.680  0.00  0.00     0.005 A 
ATOM     25  C   UNL d   1      11.688   8.620  -7.340  0.00  0.00     0.002 A 
ATOM     26  C   UNL d   1      11.045   7.923  -6.295  0.00  0.00     0.018 A 
ATOM     27  C   UNL d   1       9.985   7.053  -6.614  0.00  0.00     0.002 A 
ATOM     28  C   UNL d   1       9.563   6.886  -7.944  0.00  0.00     0.005 A 
BRANCH  26  29
ATOM     29  C   UNL d   1      11.466   8.096  -4.897  0.00  0.00     0.081 A 
ATOM     30  N   UNL d   1      11.474   9.369  -4.439  0.00  0.00    -0.244 NA
ATOM     31  C   UNL d   1      11.855   9.588  -3.168  0.00  0.00     0.099 A 
ATOM     32  C   UNL d   1      12.262   8.560  -2.294  0.00  0.00     0.021 A 
ATOM     33  C   UNL d   1      12.251   7.237  -2.766  0.00  0.00     0.003 A 
ATOM     34  C   UNL d   1      11.847   7.002  -4.091  0.00  0.00     0.019 A 
ENDBRANCH  26  29
ENDBRANCH  21  23
ENDBRANCH  19  20
ENDBRANCH  18  19
ENDBRANCH   1  18
TORSDOF 12
