REMARK  3 active torsions:
REMARK  status: ('A' for Active; 'I' for Inactive)
REMARK    1  A    between atoms: C_2  and  C_3 
REMARK    2  A    between atoms: C_3  and  N_4 
REMARK    3  A    between atoms: C_7  and  C_8 
ROOT
ATOM      1  N   UNL d   1       8.133   5.936 -11.367  0.00  0.00     0.137 N 
ATOM      2  C   UNL d   1       9.284   6.757 -11.721  0.00  0.00     0.251 C 
ATOM      3  C   UNL d   1       9.818   7.525 -10.507  0.00  0.00     0.040 C 
ATOM      4  C   UNL d   1      10.169   6.603  -9.322  0.00  0.00     0.026 C 
ATOM      5  C   UNL d   1       8.978   5.648  -9.077  0.00  0.00     0.040 C 
ATOM      6  C   UNL d   1       8.517   4.954 -10.360  0.00  0.00     0.251 C 
ENDROOT
BRANCH   4   7
ATOM      7  C   UNL d   1      10.566   7.374  -8.048  0.00  0.00    -0.022 A 
ATOM      8  C   UNL d   1      10.844   8.764  -8.062  0.00  0.00    -0.003 A 
ATOM      9  C   UNL d   1      11.170   9.446  -6.870  0.00  0.00     0.011 A 
ATOM     10  C   UNL d   1      11.215   8.750  -5.648  0.00  0.00     0.058 A 
ATOM     11  C   UNL d   1      10.955   7.366  -5.623  0.00  0.00     0.011 A 
ATOM     12 CL   UNL d   1      11.571   9.578  -4.171  0.00  0.00    -0.082 Cl
ATOM     13  C   UNL d   1      10.639   6.686  -6.814  0.00  0.00    -0.003 A 
ENDBRANCH   4   7
BRANCH   1  14
ATOM     14  C   UNL d   1       7.620   5.275 -12.559  0.00  0.00     0.250 C 
BRANCH  14  15
ATOM     15  C   UNL d   1       6.198   4.737 -12.345  0.00  0.00     0.035 C 
ATOM     16  C   UNL d   1       5.754   3.842 -13.497  0.00  0.00     0.002 C 
ENDBRANCH  14  15
ENDBRANCH   1  14
TORSDOF 3
