REMARK  7 active torsions:
REMARK  status: ('A' for Active; 'I' for Inactive)
REMARK    1  A    between atoms: C_1  and  C_9 
REMARK    2  A    between atoms: C_2  and  C_3 
REMARK    3  A    between atoms: C_9  and  O_10 
REMARK    4  A    between atoms: O_10  and  C_11 
REMARK    5  A    between atoms: C_11  and  C_12 
REMARK    6  A    between atoms: N_15  and  C_16 
REMARK    7  A    between atoms: C_16  and  C_17 
ROOT
ATOM      1  C   UNL d   1       8.559   4.775 -12.208  0.00  0.00     0.034 C 
ATOM      2  C   UNL d   1      10.025   4.436 -12.329  0.00  0.00     0.038 C 
ATOM      3  C   UNL d   1      10.387   3.695 -13.616  0.00  0.00     0.251 C 
ATOM      4  N   UNL d   1      10.049   4.528 -14.759  0.00  0.00     0.141 N 
ATOM      5  C   UNL d   1       8.609   4.797 -14.728  0.00  0.00     0.251 C 
ATOM      6  C   UNL d   1       8.165   5.531 -13.456  0.00  0.00     0.038 C 
ENDROOT
BRANCH   1   7
ATOM      7  C   UNL d   1       8.306   5.632 -10.968  0.00  0.00     0.143 C 
BRANCH   7   8
ATOM      8  O   UNL d   1       8.683   4.873  -9.825  0.00  0.00    -0.349 OA
BRANCH   8   9
ATOM      9  C   UNL d   1       8.273   5.495  -8.625  0.00  0.00     0.169 C 
BRANCH   9  10
ATOM     10  C   UNL d   1       9.177   6.593  -8.143  0.00  0.00     0.006 C 
ATOM     11  C   UNL d   1       9.539   6.710  -6.854  0.00  0.00    -0.002 C 
BRANCH  11  12
ATOM     12  C   UNL d   1      10.418   7.732  -6.300  0.00  0.00    -0.000 A 
ATOM     13  C   UNL d   1      11.070   7.449  -5.078  0.00  0.00    -0.000 A 
ATOM     14  C   UNL d   1      11.970   8.374  -4.523  0.00  0.00    -0.000 A 
ATOM     15  C   UNL d   1      12.258   9.559  -5.221  0.00  0.00    -0.000 A 
ATOM     16  C   UNL d   1      11.598   9.861  -6.421  0.00  0.00    -0.000 A 
ATOM     17  C   UNL d   1      10.693   8.939  -6.978  0.00  0.00    -0.000 A 
ENDBRANCH  11  12
ENDBRANCH   9  10
ENDBRANCH   8   9
ENDBRANCH   7   8
ENDBRANCH   1   7
BRANCH   4  18
ATOM     18  C   UNL d   1      10.405   3.835 -16.000  0.00  0.00     0.277 C 
BRANCH  18  19
ATOM     19  C   UNL d   1      10.412   4.736 -17.229  0.00  0.00     0.011 A 
ATOM     20  C   UNL d   1      11.407   5.728 -17.428  0.00  0.00    -0.002 A 
ATOM     21  C   UNL d   1      11.382   6.522 -18.607  0.00  0.00    -0.000 A 
ATOM     22  C   UNL d   1      12.436   5.951 -16.480  0.00  0.00    -0.000 A 
ATOM     23  C   UNL d   1      10.375   6.332 -19.571  0.00  0.00    -0.000 A 
ATOM     24  C   UNL d   1      12.368   7.510 -18.821  0.00  0.00    -0.000 A 
ATOM     25  C   UNL d   1       9.389   5.346 -19.372  0.00  0.00    -0.000 A 
ATOM     26  C   UNL d   1       9.416   4.551 -18.214  0.00  0.00    -0.002 A 
ATOM     27  C   UNL d   1      13.381   7.716 -17.870  0.00  0.00    -0.000 A 
ATOM     28  C   UNL d   1      13.415   6.937 -16.698  0.00  0.00    -0.000 A 
ENDBRANCH  18  19
ENDBRANCH   4  18
TORSDOF 7
