REMARK  6 active torsions:
REMARK  status: ('A' for Active; 'I' for Inactive)
REMARK    1  A    between atoms: C_2  and  N_3 
REMARK    2  A    between atoms: N_3  and  C_4 
REMARK    3  A    between atoms: C_7  and  C_8 
REMARK    4  A    between atoms: C_8  and  C_9 
REMARK    5  A    between atoms: C_9  and  N_10 
REMARK    6  A    between atoms: C_13  and  C_14 
ROOT
ATOM      1  N   UNL d   1       9.081   6.144  -9.536  0.00  0.00     0.137 N 
ATOM      2  C   UNL d   1      10.535   6.223  -9.437  0.00  0.00     0.251 C 
ATOM      3  C   UNL d   1      10.980   7.274  -8.433  0.00  0.00     0.040 C 
ATOM      4  C   UNL d   1      10.440   6.956  -7.042  0.00  0.00     0.028 C 
ATOM      5  C   UNL d   1       8.919   6.748  -7.135  0.00  0.00     0.040 C 
ATOM      6  C   UNL d   1       8.556   5.723  -8.229  0.00  0.00     0.251 C 
ENDROOT
BRANCH   1   7
ATOM      7  C   UNL d   1       8.661   5.175 -10.546  0.00  0.00     0.250 C 
BRANCH   7   8
ATOM      8  C   UNL d   1       9.197   5.474 -11.965  0.00  0.00     0.035 C 
BRANCH   8   9
ATOM      9  C   UNL d   1       9.285   4.221 -12.854  0.00  0.00     0.002 C 
ATOM     10  C   UNL d   1       7.964   4.010 -13.611  0.00  0.00     0.002 C 
ATOM     11  C   UNL d   1       8.029   2.775 -14.517  0.00  0.00     0.024 C 
ATOM     12  C   UNL d   1       9.216   2.858 -15.501  0.00  0.00     0.107 C 
ATOM     13  C   UNL d   1      10.541   3.067 -14.749  0.00  0.00     0.024 C 
ATOM     14  C   UNL d   1      10.466   4.300 -13.842  0.00  0.00     0.002 C 
BRANCH  12  15
ATOM     15  N   UNL d   1       9.291   1.639 -16.300  0.00  0.00    -0.232 NA
BRANCH  15  16
ATOM     16  C   UNL d   1       8.618   1.426 -17.436  0.00  0.00     0.333 C 
ATOM     17  O   UNL d   1       7.867   2.247 -17.962  0.00  0.00    -0.260 OA
ENDBRANCH  15  16
ENDBRANCH  12  15
ENDBRANCH   8   9
ENDBRANCH   7   8
ENDBRANCH   1   7
BRANCH   4  18
ATOM     18  C   UNL d   1      10.812   8.041  -6.082  0.00  0.00     0.004 A 
ATOM     19  C   UNL d   1      11.403   7.893  -4.786  0.00  0.00     0.021 A 
ATOM     20  C   UNL d   1      11.536   9.203  -4.263  0.00  0.00     0.100 A 
ATOM     21  C   UNL d   1      11.810   6.824  -3.958  0.00  0.00     0.002 A 
ATOM     22  O   UNL d   1      11.069  10.120  -5.182  0.00  0.00    -0.305 OA
ATOM     23  C   UNL d   1      12.049   9.466  -2.991  0.00  0.00     0.025 A 
ATOM     24  C   UNL d   1      10.662   9.397  -6.266  0.00  0.00     0.118 A 
ATOM     25  C   UNL d   1      12.453   8.385  -2.187  0.00  0.00     0.002 A 
ATOM     26  C   UNL d   1      12.320   7.062  -2.665  0.00  0.00     0.000 A 
ENDBRANCH   4  18
TORSDOF 6
