REMARK  6 active torsions:
REMARK  status: ('A' for Active; 'I' for Inactive)
REMARK    1  A    between atoms: O_2  and  C_3 
REMARK    2  A    between atoms: C_8  and  N_9 
REMARK    3  A    between atoms: N_12  and  C_13 
REMARK    4  A    between atoms: C_13  and  C_14 
REMARK    5  A    between atoms: C_14  and  C_15 
REMARK    6  A    between atoms: C_15  and  N_16 
ROOT
ATOM      1  N   UNL d   1       9.051   4.512 -13.285  0.00  0.00    -0.343 N 
ATOM      2  C   UNL d   1      10.190   4.814 -12.434  0.00  0.00     0.137 C 
ATOM      3  C   UNL d   1       9.778   4.806 -10.942  0.00  0.00     0.274 C 
ATOM      4  N   UNL d   1       8.637   5.650 -10.700  0.00  0.00     0.141 N 
ATOM      5  C   UNL d   1       7.507   5.230 -11.510  0.00  0.00     0.274 C 
ATOM      6  C   UNL d   1       7.861   5.312 -13.010  0.00  0.00     0.137 C 
ENDROOT
BRANCH   4   7
ATOM      7  C   UNL d   1       8.300   5.620  -9.285  0.00  0.00     0.253 C 
BRANCH   7   8
ATOM      8  C   UNL d   1       9.290   6.490  -8.493  0.00  0.00     0.071 C 
BRANCH   8   9
ATOM      9  C   UNL d   1       8.700   7.139  -7.210  0.00  0.00     0.253 C 
BRANCH   9  10
ATOM     10  N   UNL d   1       9.697   7.871  -6.414  0.00  0.00     0.142 N 
ATOM     11  C   UNL d   1      10.628   6.952  -5.748  0.00  0.00     0.284 C 
ATOM     12  C   UNL d   1      11.461   7.585  -4.671  0.00  0.00     0.056 C 
ATOM     13  C   UNL d   1      12.169   8.768  -4.711  0.00  0.00     0.064 C 
ATOM     14  S   UNL d   1      11.676   6.794  -3.123  0.00  0.00    -0.067 SA
ATOM     15  C   UNL d   1      12.349   9.637  -5.897  0.00  0.00     0.048 C 
ATOM     16  N   UNL d   1      12.683   9.154  -3.475  0.00  0.00    -0.241 NA
ATOM     17  C   UNL d   1      11.011  10.013  -6.487  0.00  0.00     0.042 C 
ATOM     18  C   UNL d   1      10.359   8.872  -7.255  0.00  0.00     0.251 C 
ATOM     19  C   UNL d   1      12.603   8.163  -2.575  0.00  0.00     0.134 C 
ENDBRANCH   9  10
ENDBRANCH   8   9
ENDBRANCH   7   8
ENDBRANCH   4   7
BRANCH   1  20
ATOM     20  C   UNL d   1       9.068   3.477 -14.233  0.00  0.00     0.079 A 
ATOM     21  C   UNL d   1      10.202   3.233 -15.066  0.00  0.00     0.110 A 
ATOM     22  C   UNL d   1      10.136   2.175 -16.015  0.00  0.00     0.026 A 
ATOM     23  C   UNL d   1       8.981   1.394 -16.146  0.00  0.00     0.002 A 
ATOM     24  C   UNL d   1       7.865   1.636 -15.319  0.00  0.00     0.002 A 
ATOM     25  C   UNL d   1       7.918   2.669 -14.370  0.00  0.00     0.019 A 
BRANCH  21  26
ATOM     26  O   UNL d   1      11.317   4.038 -14.937  0.00  0.00    -0.327 OA
ATOM     27  C   UNL d   1      12.426   3.834 -15.804  0.00  0.00     0.181 C 
ENDBRANCH  21  26
ENDBRANCH   1  20
TORSDOF 6
