REMARK  7 active torsions:
REMARK  status: ('A' for Active; 'I' for Inactive)
REMARK       I    between atoms: C_2  and  N_3 
REMARK    1  A    between atoms: C_2  and  C_23 
REMARK    2  A    between atoms: N_3  and  C_4 
REMARK    3  A    between atoms: C_4  and  C_5 
REMARK    4  A    between atoms: C_5  and  C_6 
REMARK    5  A    between atoms: C_6  and  C_8 
REMARK    6  A    between atoms: C_8  and  N_9 
REMARK    7  A    between atoms: N_12  and  C_13 
ROOT
ATOM      1  C   UNL d   1       7.871   4.563 -12.072  0.00  0.00     0.188 C 
ATOM      2  O   UNL d   1       7.021   5.401 -12.825  0.00  0.00    -0.221 OA
ENDROOT
BRANCH   1   3
ATOM      3  C   UNL d   1       8.702   5.443 -11.132  0.00  0.00     0.061 C 
BRANCH   3   4
ATOM      4  C   UNL d   1       9.162   4.722  -9.840  0.00  0.00     0.132 C 
BRANCH   4   5
ATOM      5  N   UNL d   1       9.528   5.656  -8.782  0.00  0.00    -0.234 NA
ATOM      6  C   UNL d   1      10.260   6.778  -8.904  0.00  0.00     0.276 C 
ATOM      7  O   UNL d   1      10.714   7.221  -9.954  0.00  0.00    -0.266 OA
BRANCH   6   8
ATOM      8  C   UNL d   1      10.525   7.488  -7.629  0.00  0.00     0.077 A 
ATOM      9  C   UNL d   1      11.037   6.792  -6.523  0.00  0.00     0.008 A 
ATOM     10  C   UNL d   1      11.343   7.516  -5.365  0.00  0.00     0.020 A 
ATOM     11  C   UNL d   1      11.155   8.929  -5.365  0.00  0.00     0.082 A 
ATOM     12  C   UNL d   1      11.845   6.847  -4.234  0.00  0.00     0.031 A 
ATOM     13  N   UNL d   1      10.692   9.590  -6.444  0.00  0.00    -0.244 NA
ATOM     14  C   UNL d   1      11.459   9.627  -4.188  0.00  0.00     0.021 A 
ATOM     15  C   UNL d   1      10.373   8.886  -7.545  0.00  0.00     0.104 A 
ATOM     16  C   UNL d   1      11.961   8.967  -3.052  0.00  0.00     0.031 A 
ATOM     17  C   UNL d   1      12.165   7.573  -3.080  0.00  0.00     0.140 A 
ATOM     18  F   UNL d   1      12.648   6.929  -1.994  0.00  0.00    -0.204 F 
ENDBRANCH   6   8
ENDBRANCH   4   5
ENDBRANCH   3   4
ENDBRANCH   1   3
BRANCH   1  19
ATOM     19  C   UNL d   1       8.691   3.656 -13.020  0.00  0.00     0.283 C 
BRANCH  19  20
ATOM     20  N   UNL d   1       9.427   4.352 -14.084  0.00  0.00     0.144 N 
ATOM     21  C   UNL d   1       9.324   3.643 -15.358  0.00  0.00     0.274 C 
ATOM     22  C   UNL d   1      10.003   4.416 -16.513  0.00  0.00     0.137 C 
ATOM     23  N   UNL d   1      11.386   4.752 -16.159  0.00  0.00    -0.344 N 
ATOM     24  C   UNL d   1      11.569   5.353 -14.844  0.00  0.00     0.137 C 
ATOM     25  C   UNL d   1      10.843   4.539 -13.764  0.00  0.00     0.274 C 
BRANCH  23  26
ATOM     26  C   UNL d   1      12.472   4.424 -16.979  0.00  0.00     0.068 A 
ATOM     27  C   UNL d   1      13.541   5.332 -17.216  0.00  0.00     0.084 A 
ATOM     28  C   UNL d   1      14.618   4.946 -18.052  0.00  0.00     0.070 A 
ATOM     29 CL   UNL d   1      13.553   6.941 -16.572  0.00  0.00    -0.080 Cl
ATOM     30  C   UNL d   1      14.610   3.687 -18.667  0.00  0.00     0.012 A 
ATOM     31 CL   UNL d   1      15.930   6.025 -18.356  0.00  0.00    -0.081 Cl
ATOM     32  C   UNL d   1      13.560   2.788 -18.443  0.00  0.00     0.002 A 
ATOM     33  C   UNL d   1      12.499   3.152 -17.592  0.00  0.00     0.018 A 
ENDBRANCH  23  26
ENDBRANCH  19  20
ENDBRANCH   1  19
TORSDOF 7
