REMARK  3 active torsions:
REMARK  status: ('A' for Active; 'I' for Inactive)
REMARK    1  A    between atoms: N_5  and  C_6 
REMARK    2  A    between atoms: N_15  and  N_16 
REMARK       I    between atoms: N_16  and  C_17 
REMARK    3  A    between atoms: C_17  and  C_19 
ROOT
ATOM      1  C   UNL d   1       8.276   1.879 -20.449  0.00  0.00     0.142 C 
ATOM      2  N   UNL d   1       7.053   1.495 -20.233  0.00  0.00    -0.227 NA
ATOM      3  C   UNL d   1       6.600   0.691 -19.174  0.00  0.00     0.101 A 
ATOM      4  C   UNL d   1       5.506  -0.158 -19.470  0.00  0.00     0.032 A 
ATOM      5  C   UNL d   1       4.895  -0.936 -18.470  0.00  0.00     0.059 A 
ATOM      6 CL   UNL d   1       3.584  -1.988 -18.841  0.00  0.00    -0.082 Cl
ATOM      7  C   UNL d   1       5.357  -0.855 -17.149  0.00  0.00     0.013 A 
ATOM      8  C   UNL d   1       6.433  -0.010 -16.836  0.00  0.00     0.022 A 
ATOM      9  C   UNL d   1       7.080   0.757 -17.833  0.00  0.00     0.101 A 
ATOM     10  N   UNL d   1       8.215   1.515 -17.486  0.00  0.00    -0.225 N 
ATOM     11  C   UNL d   1       9.425   1.384 -18.186  0.00  0.00     0.086 A 
ATOM     12  C   UNL d   1      10.620   1.132 -17.473  0.00  0.00     0.020 A 
ATOM     13  C   UNL d   1      11.829   0.895 -18.139  0.00  0.00     0.013 A 
ATOM     14  C   UNL d   1      11.868   0.896 -19.541  0.00  0.00     0.058 A 
ATOM     15 CL   UNL d   1      13.365   0.638 -20.357  0.00  0.00    -0.082 Cl
ATOM     16  C   UNL d   1      10.690   1.147 -20.271  0.00  0.00     0.016 A 
ATOM     17  C   UNL d   1       9.466   1.438 -19.608  0.00  0.00     0.052 A 
ENDROOT
BRANCH  10  18
ATOM     18  N   UNL d   1       8.162   2.353 -16.358  0.00  0.00    -0.123 NA
ATOM     19  C   UNL d   1       8.455   1.962 -15.106  0.00  0.00     0.296 C 
ATOM     20  O   UNL d   1       8.852   0.851 -14.783  0.00  0.00    -0.264 OA
BRANCH  19  21
ATOM     21  C   UNL d   1       8.216   3.000 -14.060  0.00  0.00     0.065 A 
ATOM     22  C   UNL d   1       9.299   3.675 -13.454  0.00  0.00     0.035 A 
ATOM     23  C   UNL d   1       9.042   4.571 -12.396  0.00  0.00     0.006 A 
ATOM     24  I   UNL d   1      11.279   3.378 -14.069  0.00  0.00    -0.043 I 
ATOM     25  C   UNL d   1       7.719   4.803 -11.966  0.00  0.00     0.000 A 
ATOM     26  C   UNL d   1       6.642   4.142 -12.591  0.00  0.00     0.000 A 
ATOM     27  C   UNL d   1       6.893   3.248 -13.646  0.00  0.00     0.005 A 
ENDBRANCH  19  21
ENDBRANCH  10  18
BRANCH   1  28
ATOM     28  N   UNL d   1       8.564   2.773 -21.480  0.00  0.00    -0.330 N 
ATOM     29  C   UNL d   1       7.743   2.895 -22.693  0.00  0.00     0.138 C 
ATOM     30  C   UNL d   1       7.326   4.356 -22.933  0.00  0.00     0.274 C 
ATOM     31  N   UNL d   1       8.510   5.205 -23.023  0.00  0.00     0.143 N 
ATOM     32  C   UNL d   1       8.108   6.580 -23.276  0.00  0.00     0.286 C 
ATOM     33  C   UNL d   1       9.223   5.150 -21.752  0.00  0.00     0.274 C 
ATOM     34  C   UNL d   1       9.690   3.718 -21.492  0.00  0.00     0.138 C 
ENDBRANCH   1  28
TORSDOF 3
