REMARK  7 active torsions:
REMARK  status: ('A' for Active; 'I' for Inactive)
REMARK    1  A    between atoms: C_2  and  C_3 
REMARK       I    between atoms: C_2  and  N_10 
REMARK    2  A    between atoms: C_3  and  C_4 
REMARK    3  A    between atoms: N_10  and  C_11 
REMARK    4  A    between atoms: C_14  and  C_15 
REMARK    5  A    between atoms: C_15  and  C_16 
REMARK    6  A    between atoms: C_16  and  N_17 
REMARK    7  A    between atoms: N_20  and  C_21 
ROOT
ATOM      1  C   UNL d   1       9.193   4.875 -11.607  0.00  0.00     0.035 C 
ENDROOT
BRANCH   1   2
ATOM      2  C   UNL d   1       9.231   4.564 -13.108  0.00  0.00     0.002 C 
ATOM      3  C   UNL d   1      10.663   4.585 -13.692  0.00  0.00     0.002 C 
ATOM      4  C   UNL d   1      10.655   4.264 -15.177  0.00  0.00     0.024 C 
ATOM      5  C   UNL d   1       9.975   2.910 -15.485  0.00  0.00     0.106 C 
ATOM      6  C   UNL d   1       8.579   2.818 -14.821  0.00  0.00     0.024 C 
ATOM      7  C   UNL d   1       8.614   3.188 -13.344  0.00  0.00     0.002 C 
BRANCH   5   8
ATOM      8  N   UNL d   1       9.886   2.641 -16.923  0.00  0.00    -0.240 NA
ATOM      9  C   UNL d   1       9.415   3.476 -17.865  0.00  0.00     0.254 C 
ATOM     10  O   UNL d   1       9.120   4.655 -17.662  0.00  0.00    -0.271 OA
BRANCH   9  11
ATOM     11  C   UNL d   1       9.178   2.870 -19.245  0.00  0.00     0.122 C 
BRANCH  11  12
ATOM     12  C   UNL d   1       8.936   3.934 -20.350  0.00  0.00     0.154 C 
ATOM     13  O   UNL d   1       8.326   3.337 -21.490  0.00  0.00    -0.351 OA
ATOM     14  C   UNL d   1       9.188   2.420 -22.142  0.00  0.00     0.174 C 
ATOM     15  C   UNL d   1      10.463   3.172 -22.560  0.00  0.00     0.174 C 
ATOM     16  O   UNL d   1      11.084   3.753 -21.420  0.00  0.00    -0.349 OA
ATOM     17  C   UNL d   1      10.220   4.683 -20.780  0.00  0.00     0.172 C 
ENDBRANCH  11  12
ENDBRANCH   9  11
ENDBRANCH   5   8
ENDBRANCH   1   2
BRANCH   1  18
ATOM     18  C   UNL d   1       9.571   6.335 -11.289  0.00  0.00     0.250 C 
BRANCH  18  19
ATOM     19  N   UNL d   1       9.381   6.676  -9.896  0.00  0.00     0.141 N 
ATOM     20  C   UNL d   1       9.587   8.122  -9.714  0.00  0.00     0.274 C 
ATOM     21  C   UNL d   1       9.294   8.495  -8.240  0.00  0.00     0.138 C 
ATOM     22  N   UNL d   1      10.130   7.699  -7.355  0.00  0.00    -0.330 N 
ATOM     23  C   UNL d   1      10.133   6.276  -7.595  0.00  0.00     0.138 C 
ATOM     24  C   UNL d   1      10.364   5.999  -9.072  0.00  0.00     0.274 C 
BRANCH  22  25
ATOM     25  C   UNL d   1      10.954   8.288  -6.380  0.00  0.00     0.138 A 
ATOM     26  C   UNL d   1      11.249   7.694  -5.132  0.00  0.00     0.036 A 
ATOM     27  C   UNL d   1      12.064   8.317  -4.215  0.00  0.00     0.095 A 
ATOM     28  C   UNL d   1      10.806   6.425  -4.521  0.00  0.00     0.064 A 
ATOM     29  C   UNL d   1      12.625   9.538  -4.545  0.00  0.00     0.045 A 
ATOM     30  O   UNL d   1      12.233   7.654  -3.035  0.00  0.00    -0.331 OA
ATOM     31  C   UNL d   1      12.250  10.095  -5.790  0.00  0.00     0.103 A 
ATOM     32  N   UNL d   1      11.444   9.501  -6.681  0.00  0.00    -0.228 NA
ATOM     33  C   UNL d   1      11.391   6.497  -3.083  0.00  0.00     0.154 A 
ENDBRANCH  22  25
ENDBRANCH  18  19
ENDBRANCH   1  18
TORSDOF 7
