REMARK  6 active torsions:
REMARK  status: ('A' for Active; 'I' for Inactive)
REMARK    1  A    between atoms: N_17  and  C_18 
REMARK    2  A    between atoms: C_18  and  C_19 
REMARK    3  A    between atoms: C_19  and  C_20 
REMARK    4  A    between atoms: C_20  and  C_21 
REMARK    5  A    between atoms: C_21  and  N_22 
REMARK    6  A    between atoms: N_25  and  C_26 
ROOT
ATOM      1  C   UNL d   1       6.117   2.960 -13.334  0.00  0.00     0.052 C 
ATOM      2  C   UNL d   1       7.425   3.119 -14.039  0.00  0.00     0.073 A 
ATOM      3  C   UNL d   1       8.058   2.309 -14.959  0.00  0.00     0.112 A 
ATOM      4  N   UNL d   1       9.233   2.865 -15.323  0.00  0.00    -0.132 N 
ATOM      5  C   UNL d   1      10.360   2.755 -16.112  0.00  0.00     0.172 A 
ATOM      6  C   UNL d   1      10.737   1.724 -17.064  0.00  0.00     0.284 A 
ATOM      7  O   UNL d   1      10.013   0.747 -17.260  0.00  0.00    -0.265 OA
ATOM      8  N   UNL d   1      11.931   1.974 -17.688  0.00  0.00    -0.246 N 
ATOM      9  C   UNL d   1      12.415   1.000 -18.684  0.00  0.00     0.139 C 
ATOM     10  C   UNL d   1      12.720   3.089 -17.466  0.00  0.00     0.335 A 
ATOM     11  O   UNL d   1      13.775   3.254 -18.088  0.00  0.00    -0.246 OA
ATOM     12  N   UNL d   1      12.312   4.014 -16.537  0.00  0.00    -0.263 N 
ATOM     13  C   UNL d   1      13.136   5.198 -16.273  0.00  0.00     0.137 C 
ATOM     14  C   UNL d   1      11.086   3.858 -15.838  0.00  0.00     0.187 A 
ATOM     15  N   UNL d   1      10.483   4.697 -14.897  0.00  0.00    -0.043 NA
ATOM     16  C   UNL d   1       9.380   4.036 -14.636  0.00  0.00     0.718 A 
ATOM     17  N   UNL d   1       8.299   4.208 -13.832  0.00  0.00    -0.165 N 
ENDROOT
BRANCH  17  18
ATOM     18  C   UNL d   1       8.195   5.397 -12.995  0.00  0.00     0.124 C 
BRANCH  18  19
ATOM     19  C   UNL d   1       9.324   5.499 -11.957  0.00  0.00     0.027 C 
BRANCH  19  20
ATOM     20  C   UNL d   1       9.107   6.621 -10.934  0.00  0.00     0.037 C 
BRANCH  20  21
ATOM     21  C   UNL d   1      10.407   6.984 -10.182  0.00  0.00     0.251 C 
BRANCH  21  22
ATOM     22  N   UNL d   1      10.150   7.641  -8.908  0.00  0.00     0.141 N 
ATOM     23  C   UNL d   1      11.360   8.349  -8.473  0.00  0.00     0.274 C 
ATOM     24  C   UNL d   1      11.094   9.090  -7.154  0.00  0.00     0.137 C 
ATOM     25  N   UNL d   1      10.604   8.166  -6.144  0.00  0.00    -0.343 N 
ATOM     26  C   UNL d   1       9.484   7.321  -6.544  0.00  0.00     0.137 C 
ATOM     27  C   UNL d   1       9.791   6.639  -7.888  0.00  0.00     0.274 C 
BRANCH  25  28
ATOM     28  C   UNL d   1      11.225   8.055  -4.890  0.00  0.00     0.082 A 
ATOM     29  C   UNL d   1      11.462   9.205  -4.105  0.00  0.00     0.146 A 
ATOM     30  C   UNL d   1      12.076   9.113  -2.845  0.00  0.00     0.029 A 
ATOM     31  O   UNL d   1      11.032  10.410  -4.546  0.00  0.00    -0.189 OA
ATOM     32  C   UNL d   1      12.444   7.862  -2.339  0.00  0.00     0.002 A 
ATOM     33  C   UNL d   1      12.204   6.707  -3.100  0.00  0.00     0.002 A 
ATOM     34  C   UNL d   1      11.591   6.796  -4.370  0.00  0.00     0.019 A 
ENDBRANCH  25  28
ENDBRANCH  21  22
ENDBRANCH  20  21
ENDBRANCH  19  20
ENDBRANCH  18  19
ENDBRANCH  17  18
TORSDOF 6
