REMARK  8 active torsions:
REMARK  status: ('A' for Active; 'I' for Inactive)
REMARK    1  A    between atoms: S_2  and  C_3 
REMARK    2  A    between atoms: C_8  and  O_9 
REMARK    3  A    between atoms: O_9  and  C_10 
REMARK    4  A    between atoms: C_10  and  C_11 
REMARK    5  A    between atoms: C_11  and  N_12 
REMARK    6  A    between atoms: C_15  and  N_16 
REMARK    7  A    between atoms: N_16  and  S_17 
REMARK    8  A    between atoms: S_17  and  C_20 
ROOT
ATOM      1  N   UNL d   1       8.752   4.946 -10.802  0.00  0.00     0.142 N 
ATOM      2  C   UNL d   1       8.413   4.673  -9.395  0.00  0.00     0.253 C 
ATOM      3  C   UNL d   1       9.543   5.315  -8.610  0.00  0.00     0.063 C 
ATOM      4  C   UNL d   1      10.030   6.410  -9.528  0.00  0.00     0.151 C 
ATOM      5  C   UNL d   1       9.166   6.337 -10.780  0.00  0.00     0.275 C 
ENDROOT
BRANCH   1   6
ATOM      6  C   UNL d   1       7.603   4.724 -11.675  0.00  0.00     0.283 C 
BRANCH   6   7
ATOM      7  C   UNL d   1       8.040   4.864 -13.147  0.00  0.00     0.184 C 
BRANCH   7   8
ATOM      8  O   UNL d   1       7.618   3.721 -13.908  0.00  0.00    -0.328 OA
BRANCH   8   9
ATOM      9  C   UNL d   1       8.521   2.757 -14.335  0.00  0.00     0.100 A 
ATOM     10  C   UNL d   1       8.019   1.482 -14.726  0.00  0.00     0.048 A 
ATOM     11  C   UNL d   1       8.910   0.481 -15.188  0.00  0.00     0.008 A 
ATOM     12  C   UNL d   1      10.289   0.711 -15.241  0.00  0.00     0.001 A 
ATOM     13  C   UNL d   1      10.792   1.958 -14.854  0.00  0.00     0.002 A 
ATOM     14  C   UNL d   1       9.925   2.973 -14.424  0.00  0.00     0.025 A 
BRANCH  10  15
ATOM     15  S   UNL d   1       6.281   1.124 -14.614  0.00  0.00    -0.111 SA
ATOM     16  C   UNL d   1       6.093  -0.682 -14.715  0.00  0.00     0.074 C 
ENDBRANCH  10  15
ENDBRANCH   8   9
ENDBRANCH   7   8
ENDBRANCH   6   7
ENDBRANCH   1   6
BRANCH   4  17
ATOM     17  N   UNL d   1       9.947   7.728  -8.913  0.00  0.00    -0.185 NA
BRANCH  17  18
ATOM     18  S   UNL d   1      11.338   8.733  -8.662  0.00  0.00     0.281 S 
ATOM     19  O   UNL d   1      12.575   7.993  -8.950  0.00  0.00    -0.199 OA
ATOM     20  O   UNL d   1      11.054   9.976  -9.356  0.00  0.00    -0.199 OA
BRANCH  18  21
ATOM     21  C   UNL d   1      11.269   8.921  -6.869  0.00  0.00     0.106 A 
ATOM     22  C   UNL d   1      11.407   7.790  -6.032  0.00  0.00     0.024 A 
ATOM     23  C   UNL d   1      11.467   7.971  -4.632  0.00  0.00     0.059 A 
ATOM     24  C   UNL d   1      11.287   9.244  -4.069  0.00  0.00     0.011 A 
ATOM     25 CL   UNL d   1      11.796   6.674  -3.558  0.00  0.00    -0.082 Cl
ATOM     26  C   UNL d   1      11.097  10.342  -4.914  0.00  0.00     0.002 A 
ATOM     27  C   UNL d   1      11.134  10.196  -6.301  0.00  0.00     0.013 A 
ENDBRANCH  18  21
ENDBRANCH  17  18
ENDBRANCH   4  17
TORSDOF 8
