REMARK  2 active torsions:
REMARK  status: ('A' for Active; 'I' for Inactive)
REMARK    1  A    between atoms: N_5  and  C_6 
REMARK    2  A    between atoms: C_20  and  C_21 
ROOT
ATOM      1  C   UNL d   1       9.108   5.363 -12.010  0.00  0.00     0.252 A 
ATOM      2  N   UNL d   1       8.223   4.389 -12.230  0.00  0.00    -0.205 NA
ATOM      3  C   UNL d   1       8.619   3.917 -13.462  0.00  0.00     0.107 A 
ATOM      4  C   UNL d   1       8.106   2.909 -14.295  0.00  0.00     0.017 A 
ATOM      5  C   UNL d   1       8.741   2.561 -15.523  0.00  0.00    -0.019 A 
ATOM      6  C   UNL d   1       9.888   3.303 -15.930  0.00  0.00    -0.022 A 
ATOM      7  C   UNL d   1      10.396   4.341 -15.116  0.00  0.00     0.022 A 
ATOM      8  C   UNL d   1       9.749   4.622 -13.909  0.00  0.00     0.120 A 
ATOM      9  O   UNL d   1      10.042   5.591 -12.982  0.00  0.00    -0.275 OA
ATOM     10  C   UNL d   1      10.583   3.048 -17.254  0.00  0.00     0.061 C 
ATOM     11  C   UNL d   1       9.678   3.338 -18.464  0.00  0.00     0.255 C 
ATOM     12  N   UNL d   1       8.751   2.262 -18.785  0.00  0.00     0.140 N 
ATOM     13  C   UNL d   1       9.391   1.058 -19.309  0.00  0.00     0.285 C 
ATOM     14  C   UNL d   1       7.732   1.938 -17.794  0.00  0.00     0.259 C 
ATOM     15  C   UNL d   1       8.193   1.418 -16.406  0.00  0.00     0.078 C 
ENDROOT
BRANCH   1  16
ATOM     16  N   UNL d   1       9.252   6.160 -10.883  0.00  0.00    -0.310 N 
ATOM     17  C   UNL d   1       8.747   5.827  -9.552  0.00  0.00     0.140 C 
ATOM     18  C   UNL d   1       9.845   5.992  -8.481  0.00  0.00     0.274 C 
ATOM     19  N   UNL d   1      10.332   7.373  -8.470  0.00  0.00     0.143 N 
ATOM     20  C   UNL d   1      11.347   7.534  -7.450  0.00  0.00     0.286 C 
ATOM     21  C   UNL d   1      10.897   7.668  -9.786  0.00  0.00     0.274 C 
ATOM     22  C   UNL d   1       9.807   7.514 -10.852  0.00  0.00     0.140 C 
ENDBRANCH   1  16
BRANCH  15  23
ATOM     23  C   UNL d   1       7.096   0.589 -15.709  0.00  0.00    -0.017 A 
ATOM     24  C   UNL d   1       7.395  -0.031 -14.473  0.00  0.00    -0.004 A 
ATOM     25  C   UNL d   1       6.424  -0.811 -13.809  0.00  0.00    -0.000 A 
ATOM     26  C   UNL d   1       5.169  -1.020 -14.409  0.00  0.00    -0.000 A 
ATOM     27  C   UNL d   1       4.859  -0.416 -15.627  0.00  0.00    -0.000 A 
ATOM     28  C   UNL d   1       5.808   0.388 -16.270  0.00  0.00    -0.004 A 
ENDBRANCH  15  23
TORSDOF 2
