REMARK  0 active torsions:
REMARK  status: ('A' for Active; 'I' for Inactive)
ROOT
ATOM      1  C   UNL d   1      12.842   9.479  -2.886  0.00  0.00     0.032 C 
ATOM      2  C   UNL d   1      12.229   8.466  -3.774  0.00  0.00    -0.005 A 
ATOM      3  C   UNL d   1      12.267   7.122  -3.404  0.00  0.00     0.094 A 
ATOM      4  N   UNL d   1      11.851   6.154  -4.227  0.00  0.00    -0.243 NA
ATOM      5  C   UNL d   1      11.277   6.493  -5.401  0.00  0.00     0.095 A 
ATOM      6  C   UNL d   1      11.117   7.805  -5.836  0.00  0.00     0.001 A 
ATOM      7  C   UNL d   1      11.671   8.792  -5.010  0.00  0.00     0.009 A 
ATOM      8  C   UNL d   1      11.803  10.176  -5.516  0.00  0.00     0.316 C 
ATOM      9  N   UNL d   1      11.126  10.377  -6.786  0.00  0.00     0.342 N 
ATOM     10  C   UNL d   1      11.328   9.314  -7.745  0.00  0.00     0.265 C 
ATOM     11  C   UNL d   1      10.929   9.677  -9.183  0.00  0.00     0.041 C 
ATOM     12  C   UNL d   1      11.272   8.528 -10.069  0.00  0.00     0.028 C 
ATOM     13  C   UNL d   1      10.529   7.301  -9.573  0.00  0.00    -0.024 A 
ATOM     14  C   UNL d   1      10.112   6.400 -10.539  0.00  0.00     0.025 A 
ATOM     15  C   UNL d   1       9.321   5.309 -10.220  0.00  0.00     0.156 A 
ATOM     16  O   UNL d   1       8.985   4.482 -11.242  0.00  0.00    -0.188 OA
ATOM     17  C   UNL d   1       8.975   5.101  -8.864  0.00  0.00     0.156 A 
ATOM     18  O   UNL d   1       8.265   3.993  -8.507  0.00  0.00    -0.188 OA
ATOM     19  C   UNL d   1       9.335   6.039  -7.878  0.00  0.00     0.025 A 
ATOM     20  C   UNL d   1      10.161   7.139  -8.201  0.00  0.00    -0.018 A 
ATOM     21  C   UNL d   1      10.475   8.191  -7.162  0.00  0.00     0.080 C 
ENDROOT
TORSDOF 0
