REMARK  3 active torsions:
REMARK  status: ('A' for Active; 'I' for Inactive)
REMARK    1  A    between atoms: C_5  and  C_6 
REMARK    2  A    between atoms: C_6  and  N_7 
REMARK    3  A    between atoms: N_10  and  C_11 
ROOT
ATOM      1  N   UNL d   1       5.888   3.761 -12.318  0.00  0.00    -0.190 NA
ATOM      2  C   UNL d   1       6.726   4.518 -12.058  0.00  0.00     0.120 C 
ATOM      3  C   UNL d   1       7.745   5.441 -11.755  0.00  0.00     0.149 A 
ATOM      4  C   UNL d   1       8.761   5.485 -10.842  0.00  0.00     0.029 A 
ATOM      5  C   UNL d   1       9.456   6.727 -10.998  0.00  0.00     0.032 A 
ATOM      6  C   UNL d   1       8.861   7.386 -12.038  0.00  0.00     0.097 A 
ATOM      7  N   UNL d   1       7.821   6.605 -12.483  0.00  0.00    -0.234 NA
ENDROOT
BRANCH   5   8
ATOM      8  C   UNL d   1      10.625   7.248 -10.191  0.00  0.00     0.279 C 
BRANCH   8   9
ATOM      9  N   UNL d   1      10.273   7.830  -8.908  0.00  0.00     0.145 N 
ATOM     10  C   UNL d   1       9.946   6.762  -7.949  0.00  0.00     0.275 C 
ATOM     11  C   UNL d   1       9.559   7.367  -6.595  0.00  0.00     0.137 C 
ATOM     12  N   UNL d   1      10.620   8.247  -6.132  0.00  0.00    -0.344 N 
ATOM     13  C   UNL d   1      11.060   9.257  -7.072  0.00  0.00     0.137 C 
ATOM     14  C   UNL d   1      11.427   8.586  -8.406  0.00  0.00     0.275 C 
BRANCH  12  15
ATOM     15  C   UNL d   1      11.199   8.141  -4.857  0.00  0.00     0.056 A 
ATOM     16  C   UNL d   1      11.494   9.308  -4.128  0.00  0.00     0.017 A 
ATOM     17  C   UNL d   1      12.051   9.210  -2.842  0.00  0.00     0.002 A 
ATOM     18  C   UNL d   1      12.321   7.960  -2.275  0.00  0.00     0.000 A 
ATOM     19  C   UNL d   1      12.029   6.791  -3.001  0.00  0.00     0.002 A 
ATOM     20  C   UNL d   1      11.460   6.880  -4.283  0.00  0.00     0.017 A 
ENDBRANCH  12  15
ENDBRANCH   8   9
ENDBRANCH   5   8
TORSDOF 3
