REMARK  3 active torsions:
REMARK  status: ('A' for Active; 'I' for Inactive)
REMARK    1  A    between atoms: C_6  and  C_7 
REMARK       I    between atoms: C_7  and  N_9 
REMARK    2  A    between atoms: N_9  and  N_10 
REMARK    3  A    between atoms: C_19  and  N_20 
ROOT
ATOM      1  N   UNL d   1       8.461   1.069 -17.214  0.00  0.00    -0.225 N 
ATOM      2  C   UNL d   1       7.255   0.471 -17.598  0.00  0.00     0.101 A 
ATOM      3  C   UNL d   1       6.593  -0.394 -16.696  0.00  0.00     0.022 A 
ATOM      4  C   UNL d   1       5.423  -1.075 -17.076  0.00  0.00     0.013 A 
ATOM      5  C   UNL d   1       4.896  -0.889 -18.365  0.00  0.00     0.059 A 
ATOM      6 CL   UNL d   1       3.473  -1.736 -18.839  0.00  0.00    -0.082 Cl
ATOM      7  C   UNL d   1       5.536  -0.017 -19.263  0.00  0.00     0.032 A 
ATOM      8  C   UNL d   1       6.719   0.664 -18.902  0.00  0.00     0.101 A 
ATOM      9  N   UNL d   1       7.204   1.584 -19.843  0.00  0.00    -0.227 NA
ATOM     10  C   UNL d   1       8.452   1.882 -20.050  0.00  0.00     0.142 C 
ATOM     11  C   UNL d   1       9.621   1.218 -19.363  0.00  0.00     0.051 A 
ATOM     12  C   UNL d   1      10.802   0.973 -20.112  0.00  0.00     0.004 A 
ATOM     13  C   UNL d   1      11.959   0.472 -19.492  0.00  0.00     0.000 A 
ATOM     14  C   UNL d   1      11.951   0.188 -18.116  0.00  0.00     0.002 A 
ATOM     15  C   UNL d   1      10.784   0.400 -17.362  0.00  0.00     0.019 A 
ATOM     16  C   UNL d   1       9.620   0.900 -17.982  0.00  0.00     0.086 A 
ENDROOT
BRANCH   1  17
ATOM     17  N   UNL d   1       8.539   1.715 -15.966  0.00  0.00    -0.123 NA
ATOM     18  C   UNL d   1       9.058   2.945 -15.790  0.00  0.00     0.295 C 
ATOM     19  O   UNL d   1       9.720   3.554 -16.633  0.00  0.00    -0.264 OA
BRANCH  18  20
ATOM     20  C   UNL d   1       8.759   3.573 -14.466  0.00  0.00     0.059 A 
ATOM     21  C   UNL d   1       9.762   4.296 -13.790  0.00  0.00     0.005 A 
ATOM     22  C   UNL d   1       9.467   4.939 -12.572  0.00  0.00    -0.000 A 
ATOM     23  C   UNL d   1       8.167   4.879 -12.041  0.00  0.00    -0.004 A 
ATOM     24  C   UNL d   1       7.154   4.176 -12.723  0.00  0.00    -0.022 A 
ATOM     25  C   UNL d   1       5.757   4.113 -12.145  0.00  0.00     0.031 C 
ATOM     26  C   UNL d   1       7.450   3.528 -13.938  0.00  0.00     0.001 A 
ENDBRANCH  18  20
ENDBRANCH   1  17
BRANCH  10  27
ATOM     27  N   UNL d   1       8.791   2.903 -20.937  0.00  0.00    -0.330 N 
ATOM     28  C   UNL d   1       9.825   3.906 -20.680  0.00  0.00     0.138 C 
ATOM     29  C   UNL d   1       9.271   5.330 -20.858  0.00  0.00     0.274 C 
ATOM     30  N   UNL d   1       8.723   5.483 -22.207  0.00  0.00     0.143 N 
ATOM     31  C   UNL d   1       7.618   4.540 -22.372  0.00  0.00     0.274 C 
ATOM     32  C   UNL d   1       8.225   6.839 -22.374  0.00  0.00     0.286 C 
ATOM     33  C   UNL d   1       8.121   3.095 -22.218  0.00  0.00     0.138 C 
ENDBRANCH  10  27
TORSDOF 3
