REMARK  3 active torsions:
REMARK  status: ('A' for Active; 'I' for Inactive)
REMARK    1  A    between atoms: N_5  and  C_6 
REMARK    2  A    between atoms: N_15  and  N_16 
REMARK       I    between atoms: N_16  and  C_17 
REMARK    3  A    between atoms: C_17  and  C_19 
ROOT
ATOM      1  C   UNL d   1       8.207   1.280 -20.308  0.00  0.00     0.142 C 
ATOM      2  N   UNL d   1       6.959   0.929 -20.146  0.00  0.00    -0.227 NA
ATOM      3  C   UNL d   1       6.433   0.208 -19.060  0.00  0.00     0.101 A 
ATOM      4  C   UNL d   1       5.382  -0.699 -19.356  0.00  0.00     0.032 A 
ATOM      5  C   UNL d   1       4.714  -1.403 -18.342  0.00  0.00     0.059 A 
ATOM      6 CL   UNL d   1       3.463  -2.509 -18.744  0.00  0.00    -0.082 Cl
ATOM      7  C   UNL d   1       5.065  -1.205 -17.001  0.00  0.00     0.013 A 
ATOM      8  C   UNL d   1       6.096  -0.307 -16.685  0.00  0.00     0.022 A 
ATOM      9  C   UNL d   1       6.805   0.391 -17.695  0.00  0.00     0.101 A 
ATOM     10  N   UNL d   1       7.901   1.194 -17.323  0.00  0.00    -0.225 N 
ATOM     11  C   UNL d   1       9.174   1.042 -17.917  0.00  0.00     0.086 A 
ATOM     12  C   UNL d   1      10.314   0.887 -17.086  0.00  0.00     0.019 A 
ATOM     13  C   UNL d   1      11.582   0.627 -17.628  0.00  0.00     0.002 A 
ATOM     14  C   UNL d   1      11.736   0.503 -19.014  0.00  0.00     0.000 A 
ATOM     15  C   UNL d   1      10.624   0.656 -19.853  0.00  0.00     0.004 A 
ATOM     16  C   UNL d   1       9.332   0.968 -19.333  0.00  0.00     0.051 A 
ENDROOT
BRANCH  10  17
ATOM     17  N   UNL d   1       7.741   2.087 -16.243  0.00  0.00    -0.123 NA
ATOM     18  C   UNL d   1       8.025   1.812 -14.962  0.00  0.00     0.298 C 
ATOM     19  O   UNL d   1       8.373   0.719 -14.525  0.00  0.00    -0.264 OA
BRANCH  18  20
ATOM     20  C   UNL d   1       7.903   2.970 -14.035  0.00  0.00     0.088 A 
ATOM     21  C   UNL d   1       9.047   3.620 -13.519  0.00  0.00     0.143 A 
ATOM     22  N   UNL d   1       8.955   4.601 -12.598  0.00  0.00    -0.233 NA
ATOM     23 CL   UNL d   1      10.630   3.187 -14.056  0.00  0.00    -0.061 Cl
ATOM     24  C   UNL d   1       7.725   4.955 -12.156  0.00  0.00     0.100 A 
ATOM     25  C   UNL d   1       6.532   4.362 -12.622  0.00  0.00     0.021 A 
ATOM     26  C   UNL d   1       6.627   3.350 -13.590  0.00  0.00     0.009 A 
ENDBRANCH  18  20
ENDBRANCH  10  17
BRANCH   1  27
ATOM     27  N   UNL d   1       8.581   2.070 -21.381  0.00  0.00    -0.330 N 
ATOM     28  C   UNL d   1       8.293   3.503 -21.448  0.00  0.00     0.138 C 
ATOM     29  C   UNL d   1       9.582   4.294 -21.738  0.00  0.00     0.274 C 
ATOM     30  N   UNL d   1      10.194   3.827 -22.987  0.00  0.00     0.143 N 
ATOM     31  C   UNL d   1      11.408   4.587 -23.243  0.00  0.00     0.286 C 
ATOM     32  C   UNL d   1      10.532   2.409 -22.848  0.00  0.00     0.274 C 
ATOM     33  C   UNL d   1       9.242   1.589 -22.597  0.00  0.00     0.138 C 
ENDBRANCH   1  27
TORSDOF 3
