REMARK  3 active torsions:
REMARK  status: ('A' for Active; 'I' for Inactive)
REMARK    1  A    between atoms: O_2  and  C_3 
REMARK    2  A    between atoms: C_8  and  O_9 
REMARK    3  A    between atoms: C_13  and  N_14 
REMARK       I    between atoms: N_14  and  C_15 
ROOT
ATOM      1  C   UNL d   1       9.842   1.495 -16.124  0.00  0.00     0.116 A 
ATOM      2  C   UNL d   1       9.916   2.647 -15.316  0.00  0.00     0.022 A 
ATOM      3  C   UNL d   1       8.815   3.033 -14.536  0.00  0.00    -0.020 A 
ATOM      4  C   UNL d   1       7.635   2.248 -14.592  0.00  0.00     0.007 A 
ATOM      5  C   UNL d   1       7.481   1.099 -15.412  0.00  0.00     0.022 A 
ATOM      6  C   UNL d   1       8.640   0.755 -16.181  0.00  0.00     0.116 A 
ATOM      7  C   UNL d   1       6.209   0.328 -15.432  0.00  0.00    -0.001 A 
ATOM      8  C   UNL d   1       5.806  -0.477 -16.524  0.00  0.00     0.019 A 
ATOM      9  C   UNL d   1       4.584  -1.195 -16.536  0.00  0.00     0.084 A 
ATOM     10  C   UNL d   1       3.746  -1.130 -15.412  0.00  0.00     0.019 A 
ATOM     11  C   UNL d   1       4.092  -0.317 -14.316  0.00  0.00    -0.003 A 
ATOM     12  C   UNL d   1       5.305   0.417 -14.340  0.00  0.00    -0.020 A 
ATOM     13  C   UNL d   1       5.636   1.400 -13.229  0.00  0.00     0.064 C 
ATOM     14  C   UNL d   1       6.400   2.656 -13.754  0.00  0.00     0.246 C 
ATOM     15  N   UNL d   1       6.700   3.601 -12.666  0.00  0.00     0.142 N 
ATOM     16  C   UNL d   1       5.501   4.130 -12.043  0.00  0.00     0.286 C 
ATOM     17  C   UNL d   1       7.454   4.722 -13.177  0.00  0.00     0.255 C 
ATOM     18  C   UNL d   1       8.827   4.206 -13.570  0.00  0.00     0.061 C 
ENDROOT
BRANCH   9  19
ATOM     19  N   UNL d   1       4.225  -2.001 -17.649  0.00  0.00    -0.212 NA
ATOM     20  C   UNL d   1       4.486  -1.743 -18.942  0.00  0.00     0.256 C 
ATOM     21  C   UNL d   1       4.136  -2.822 -19.963  0.00  0.00     0.100 C 
ATOM     22  O   UNL d   1       4.972  -0.690 -19.353  0.00  0.00    -0.270 OA
ENDBRANCH   9  19
BRANCH   6  23
ATOM     23  O   UNL d   1       8.638  -0.376 -16.969  0.00  0.00    -0.326 OA
ATOM     24  C   UNL d   1       8.588  -0.128 -18.369  0.00  0.00     0.181 C 
ENDBRANCH   6  23
BRANCH   1  25
ATOM     25  O   UNL d   1      10.915   1.023 -16.857  0.00  0.00    -0.326 OA
ATOM     26  C   UNL d   1      12.071   1.839 -16.981  0.00  0.00     0.181 C 
ENDBRANCH   1  25
TORSDOF 3
