REMARK  7 active torsions:
REMARK  status: ('A' for Active; 'I' for Inactive)
REMARK    1  A    between atoms: C_8  and  N_9 
REMARK    2  A    between atoms: N_12  and  C_13 
REMARK    3  A    between atoms: C_13  and  C_14 
REMARK    4  A    between atoms: C_14  and  C_15 
REMARK    5  A    between atoms: C_15  and  C_16 
REMARK    6  A    between atoms: C_16  and  O_17 
REMARK    7  A    between atoms: O_17  and  C_18 
ROOT
ATOM      1  N   UNL d   1      10.578   2.324 -17.079  0.00  0.00    -0.191 NA
ATOM      2  C   UNL d   1       9.625   1.997 -16.522  0.00  0.00     0.102 C 
ATOM      3  C   UNL d   1       8.412   1.585 -15.812  0.00  0.00     0.084 A 
ATOM      4  C   UNL d   1       7.801   0.384 -16.248  0.00  0.00     0.012 A 
ATOM      5  C   UNL d   1       6.622  -0.074 -15.638  0.00  0.00     0.001 A 
ATOM      6  C   UNL d   1       6.035   0.652 -14.594  0.00  0.00     0.002 A 
ATOM      7  C   UNL d   1       6.631   1.857 -14.165  0.00  0.00     0.018 A 
ATOM      8  C   UNL d   1       7.822   2.323 -14.756  0.00  0.00     0.066 A 
ENDROOT
BRANCH   8   9
ATOM      9  N   UNL d   1       8.381   3.513 -14.234  0.00  0.00    -0.344 N 
ATOM     10  C   UNL d   1       9.792   3.700 -13.998  0.00  0.00     0.137 C 
ATOM     11  C   UNL d   1       9.982   4.267 -12.597  0.00  0.00     0.274 C 
ATOM     12  N   UNL d   1       9.270   5.543 -12.447  0.00  0.00     0.141 N 
ATOM     13  C   UNL d   1       7.836   5.290 -12.615  0.00  0.00     0.274 C 
ATOM     14  C   UNL d   1       7.598   4.710 -14.013  0.00  0.00     0.137 C 
BRANCH  12  15
ATOM     15  C   UNL d   1       9.493   6.109 -11.122  0.00  0.00     0.251 C 
BRANCH  15  16
ATOM     16  C   UNL d   1       9.636   7.646 -11.202  0.00  0.00     0.038 C 
BRANCH  16  17
ATOM     17  C   UNL d   1      10.375   8.187  -9.941  0.00  0.00     0.035 C 
BRANCH  17  18
ATOM     18  C   UNL d   1       9.360   8.786  -8.940  0.00  0.00     0.149 C 
BRANCH  18  19
ATOM     19  O   UNL d   1       9.936   9.504  -7.866  0.00  0.00    -0.331 OA
BRANCH  19  20
ATOM     20  C   UNL d   1      10.483   8.803  -6.838  0.00  0.00     0.096 A 
ATOM     21  C   UNL d   1      10.854   9.553  -5.696  0.00  0.00     0.043 A 
ATOM     22  C   UNL d   1      11.415   8.879  -4.597  0.00  0.00     0.082 A 
ATOM     23  C   UNL d   1      11.633   7.488  -4.663  0.00  0.00    -0.004 A 
ATOM     24  N   UNL d   1      11.739   9.565  -3.419  0.00  0.00    -0.212 NA
ATOM     25  C   UNL d   1      11.305   6.774  -5.824  0.00  0.00    -0.001 A 
ATOM     26  C   UNL d   1      12.245   6.768  -3.493  0.00  0.00     0.038 C 
ATOM     27  C   UNL d   1      10.688   7.406  -6.893  0.00  0.00     0.024 A 
ATOM     28  C   UNL d   1      11.863   7.417  -2.180  0.00  0.00     0.095 C 
ATOM     29  C   UNL d   1      11.991   8.932  -2.263  0.00  0.00     0.256 C 
ATOM     30  O   UNL d   1      12.225   9.548  -1.239  0.00  0.00    -0.270 OA
ENDBRANCH  19  20
ENDBRANCH  18  19
ENDBRANCH  17  18
ENDBRANCH  16  17
ENDBRANCH  15  16
ENDBRANCH  12  15
ENDBRANCH   8   9
TORSDOF 7
