REMARK  2 active torsions:
REMARK  status: ('A' for Active; 'I' for Inactive)
REMARK    1  A    between atoms: N_11  and  C1*_12 
REMARK    2  A    between atoms: C4*_16  and  C5*_17 
ROOT
ATOM      1  N   UNL d   1       5.282  -1.592 -15.337  0.00  0.00    -0.125 N 
ATOM      2  C   UNL d   1       5.924  -0.422 -15.429  0.00  0.00     0.207 A 
ATOM      3  N   UNL d   1       6.673  -0.177 -16.526  0.00  0.00    -0.194 NA
ATOM      4  C   UNL d   1       7.350   0.968 -16.637  0.00  0.00     0.227 A 
ATOM      5 CL   UNL d   1       8.291   1.171 -18.067  0.00  0.00    -0.041 Cl
ATOM      6  N   UNL d   1       7.377   1.986 -15.770  0.00  0.00    -0.198 NA
ATOM      7  C   UNL d   1       6.585   1.762 -14.681  0.00  0.00     0.170 A 
ATOM      8  C   UNL d   1       5.844   0.577 -14.435  0.00  0.00     0.155 A 
ATOM      9  N   UNL d   1       5.160   0.683 -13.238  0.00  0.00    -0.219 NA
ATOM     10  C   UNL d   1       5.457   1.883 -12.823  0.00  0.00     0.182 A 
ATOM     11  N   UNL d   1       6.286   2.619 -13.644  0.00  0.00    -0.272 N 
ENDROOT
BRANCH  11  12
ATOM     12  C1* UNL d   1       6.813   4.019 -13.458  0.00  0.00     0.210 C 
ATOM     13  O4* UNL d   1       7.848   3.995 -12.537  0.00  0.00    -0.333 OA
ATOM     14  C4* UNL d   1       8.026   5.356 -12.126  0.00  0.00     0.181 C 
ATOM     15  C3* UNL d   1       6.589   5.894 -11.998  0.00  0.00     0.186 C 
ATOM     16  C2* UNL d   1       5.756   4.961 -12.862  0.00  0.00     0.090 C 
ATOM     17  O3* UNL d   1       6.456   7.234 -12.439  0.00  0.00    -0.221 OA
BRANCH  14  18
ATOM     18  C5* UNL d   1       8.845   5.451 -10.825  0.00  0.00     0.214 C 
ATOM     19  O5* UNL d   1       9.179   6.798 -10.575  0.00  0.00    -0.218 OA
ENDBRANCH  14  18
ENDBRANCH  11  12
TORSDOF 2
