REMARK  8 active torsions:
REMARK  status: ('A' for Active; 'I' for Inactive)
REMARK       I    between atoms: C_2  and  N_3 
REMARK    1  A    between atoms: C_2  and  C_22 
REMARK    2  A    between atoms: N_3  and  C_4 
REMARK    3  A    between atoms: C_4  and  C_5 
REMARK    4  A    between atoms: C_5  and  C_6 
REMARK    5  A    between atoms: C_6  and  C_7 
REMARK    6  A    between atoms: C_7  and  N_8 
REMARK    7  A    between atoms: N_11  and  C_12 
REMARK    8  A    between atoms: C_25  and  C_26 
ROOT
ATOM      1  C   UNL d   1       7.040   3.595 -12.660  0.00  0.00     0.029 C 
ENDROOT
BRANCH   1   2
ATOM      2  C   UNL d   1       7.003   5.126 -12.669  0.00  0.00     0.129 C 
BRANCH   2   3
ATOM      3  N   UNL d   1       7.672   5.663 -11.487  0.00  0.00    -0.234 NA
ATOM      4  C   UNL d   1       8.996   5.838 -11.365  0.00  0.00     0.275 C 
ATOM      5  O   UNL d   1       9.796   5.588 -12.267  0.00  0.00    -0.266 OA
BRANCH   4   6
ATOM      6  C   UNL d   1       9.461   6.413 -10.057  0.00  0.00     0.058 A 
ATOM      7  C   UNL d   1      10.363   7.498 -10.040  0.00  0.00     0.005 A 
ATOM      8  C   UNL d   1      10.822   8.037  -8.819  0.00  0.00     0.002 A 
ATOM      9  C   UNL d   1      10.383   7.506  -7.587  0.00  0.00     0.018 A 
ATOM     10  C   UNL d   1       9.482   6.418  -7.611  0.00  0.00     0.002 A 
ATOM     11  C   UNL d   1       9.025   5.873  -8.829  0.00  0.00     0.005 A 
BRANCH   9  12
ATOM     12  C   UNL d   1      10.857   8.065  -6.307  0.00  0.00     0.081 A 
ATOM     13  N   UNL d   1      10.753   9.408  -6.177  0.00  0.00    -0.244 NA
ATOM     14  C   UNL d   1      11.172   9.977  -5.029  0.00  0.00     0.099 A 
ATOM     15  C   UNL d   1      11.735   9.249  -3.966  0.00  0.00     0.021 A 
ATOM     16  C   UNL d   1      11.861   7.854  -4.101  0.00  0.00     0.003 A 
ATOM     17  C   UNL d   1      11.398   7.251  -5.289  0.00  0.00     0.019 A 
ENDBRANCH   9  12
ENDBRANCH   4   6
ENDBRANCH   2   3
ENDBRANCH   1   2
BRANCH   1  18
ATOM     18  C   UNL d   1       6.277   2.930 -13.807  0.00  0.00     0.037 C 
BRANCH  18  19
ATOM     19  C   UNL d   1       6.269   1.393 -13.677  0.00  0.00     0.251 C 
BRANCH  19  20
ATOM     20  N   UNL d   1       5.490   0.775 -14.748  0.00  0.00     0.141 N 
ATOM     21  C   UNL d   1       5.016  -0.558 -14.350  0.00  0.00     0.274 C 
ATOM     22  C   UNL d   1       4.152  -1.182 -15.466  0.00  0.00     0.137 C 
ATOM     23  N   UNL d   1       4.904  -1.212 -16.710  0.00  0.00    -0.344 N 
ATOM     24  C   UNL d   1       5.478   0.060 -17.117  0.00  0.00     0.137 C 
ATOM     25  C   UNL d   1       6.301   0.662 -15.968  0.00  0.00     0.274 C 
BRANCH  23  26
ATOM     26  C   UNL d   1       5.047  -2.390 -17.465  0.00  0.00     0.068 A 
ATOM     27  C   UNL d   1       4.771  -2.434 -18.857  0.00  0.00     0.084 A 
ATOM     28  C   UNL d   1       4.914  -3.645 -19.571  0.00  0.00     0.070 A 
ATOM     29 CL   UNL d   1       4.221  -1.032 -19.710  0.00  0.00    -0.080 Cl
ATOM     30  C   UNL d   1       5.329  -4.814 -18.911  0.00  0.00     0.012 A 
ATOM     31 CL   UNL d   1       4.568  -3.714 -21.258  0.00  0.00    -0.081 Cl
ATOM     32  C   UNL d   1       5.602  -4.784 -17.535  0.00  0.00     0.002 A 
ATOM     33  C   UNL d   1       5.457  -3.579 -16.821  0.00  0.00     0.018 A 
ENDBRANCH  23  26
ENDBRANCH  19  20
ENDBRANCH  18  19
ENDBRANCH   1  18
TORSDOF 8
