REMARK  5 active torsions:
REMARK  status: ('A' for Active; 'I' for Inactive)
REMARK    1  A    between atoms: P_2  and  N_3 
REMARK    2  A    between atoms: N_3  and  C_4 
REMARK    3  A    between atoms: N_3  and  C_7 
REMARK    4  A    between atoms: C_4  and  C_5 
REMARK    5  A    between atoms: C_7  and  C_8 
ROOT
ATOM      1  O   UNL d   1       8.668   5.364  -8.191  0.00  0.00    -0.240 OA
ATOM      2  P   UNL d   1       9.542   6.530  -8.482  0.00  0.00     0.411 P 
ATOM      3  N   UNL d   1       9.063   8.027  -7.849  0.00  0.00    -0.209 NA
ATOM      4  C   UNL d   1       9.204   8.187  -6.422  0.00  0.00     0.134 C 
ATOM      5  C   UNL d   1      10.671   7.991  -6.013  0.00  0.00     0.059 C 
ATOM      6  C   UNL d   1      11.193   6.619  -6.451  0.00  0.00     0.155 C 
ATOM      7  O   UNL d   1      11.031   6.418  -7.840  0.00  0.00    -0.283 OA
ENDROOT
BRANCH   2   8
ATOM      8  N   UNL d   1       9.867   6.880 -10.125  0.00  0.00    -0.290 N 
BRANCH   8   9
ATOM      9  C   UNL d   1       9.461   5.935 -11.175  0.00  0.00     0.124 C 
BRANCH   9  10
ATOM     10  C   UNL d   1       7.931   5.836 -11.349  0.00  0.00     0.119 C 
ATOM     11 CL   UNL d   1       7.526   4.673 -12.639  0.00  0.00    -0.112 Cl
ENDBRANCH   9  10
ENDBRANCH   8   9
BRANCH   8  12
ATOM     12  C   UNL d   1      10.155   8.245 -10.601  0.00  0.00     0.124 C 
BRANCH  12  13
ATOM     13  C   UNL d   1      11.251   9.005  -9.805  0.00  0.00     0.119 C 
ATOM     14 CL   UNL d   1      12.740   8.046  -9.642  0.00  0.00    -0.112 Cl
ENDBRANCH  12  13
ENDBRANCH   8  12
ENDBRANCH   2   8
TORSDOF 5
