REMARK  2 active torsions:
REMARK  status: ('A' for Active; 'I' for Inactive)
REMARK    1  A    between atoms: C_2  and  C_3 
REMARK    2  A    between atoms: C_3  and  N_4 
ROOT
ATOM      1  N   UNL d   1       8.568   6.270 -12.059  0.00  0.00     0.140 N 
ATOM      2  C   UNL d   1       7.971   7.522 -12.437  0.00  0.00     0.282 C 
ATOM      3  C   UNL d   1       8.931   8.694 -12.182  0.00  0.00     0.178 C 
ATOM      4  O   UNL d   1       9.399   8.818 -10.850  0.00  0.00    -0.348 OA
ATOM      5  C   UNL d   1       9.785   7.567 -10.306  0.00  0.00     0.169 C 
ATOM      6  C   UNL d   1      10.156   7.694  -8.838  0.00  0.00     0.003 A 
ATOM      7  C   UNL d   1      10.700   8.918  -8.338  0.00  0.00     0.002 A 
ATOM      8  C   UNL d   1      11.070   8.957  -6.968  0.00  0.00     0.055 A 
ATOM      9  C   UNL d   1      10.980   7.855  -6.166  0.00  0.00     0.006 A 
ATOM     10  C   UNL d   1      10.435   6.671  -6.639  0.00  0.00    -0.007 A 
ATOM     11  C   UNL d   1       9.995   6.579  -7.981  0.00  0.00    -0.024 A 
ATOM     12  C   UNL d   1       9.352   5.303  -8.469  0.00  0.00     0.028 C 
ATOM     13  C   UNL d   1       9.280   5.113  -9.959  0.00  0.00     0.041 C 
ATOM     14  C   UNL d   1       8.809   6.362 -10.633  0.00  0.00     0.251 C 
ATOM     15  C   UNL d   1      11.486   8.159  -4.786  0.00  0.00     0.155 A 
ATOM     16  N   UNL d   1      11.868   9.547  -4.922  0.00  0.00    -0.229 NA
ATOM     17  C   UNL d   1      11.608  10.033  -6.119  0.00  0.00     0.275 A 
ATOM     18  O   UNL d   1      11.822  11.188  -6.446  0.00  0.00    -0.266 OA
ENDROOT
BRANCH   1  19
ATOM     19  C   UNL d   1       7.703   5.175 -12.483  0.00  0.00     0.250 C 
BRANCH  19  20
ATOM     20  C   UNL d   1       8.465   3.932 -12.947  0.00  0.00     0.035 C 
ATOM     21  C   UNL d   1       7.584   2.986 -13.770  0.00  0.00     0.002 C 
ENDBRANCH  19  20
ENDBRANCH   1  19
TORSDOF 2
