REMARK  8 active torsions:
REMARK  status: ('A' for Active; 'I' for Inactive)
REMARK    1  A    between atoms: O_2  and  C_3 
REMARK    2  A    between atoms: C_8  and  N_9 
REMARK    3  A    between atoms: N_12  and  C_13 
REMARK    4  A    between atoms: C_13  and  C_14 
REMARK    5  A    between atoms: C_14  and  C_15 
REMARK    6  A    between atoms: C_15  and  N_16 
REMARK       I    between atoms: N_16  and  C_17 
REMARK    7  A    between atoms: N_16  and  C_25 
REMARK    8  A    between atoms: C_17  and  C_19 
ROOT
ATOM      1  C   UNL d   1      12.486   5.372 -16.402  0.00  0.00     0.252 C 
ENDROOT
BRANCH   1   2
ATOM      2  N   UNL d   1      11.619   4.403 -15.731  0.00  0.00     0.141 N 
ATOM      3  C   UNL d   1      10.284   4.423 -16.324  0.00  0.00     0.274 C 
ATOM      4  C   UNL d   1       9.388   3.369 -15.639  0.00  0.00     0.137 C 
ATOM      5  N   UNL d   1       9.315   3.637 -14.202  0.00  0.00    -0.343 N 
ATOM      6  C   UNL d   1      10.617   3.734 -13.559  0.00  0.00     0.137 C 
ATOM      7  C   UNL d   1      11.507   4.747 -14.312  0.00  0.00     0.274 C 
BRANCH   5   8
ATOM      8  C   UNL d   1       8.116   3.859 -13.532  0.00  0.00     0.079 A 
ATOM      9  C   UNL d   1       6.981   3.038 -13.774  0.00  0.00     0.110 A 
ATOM     10  C   UNL d   1       5.802   3.279 -13.021  0.00  0.00     0.026 A 
ATOM     11  C   UNL d   1       5.759   4.299 -12.056  0.00  0.00     0.002 A 
ATOM     12  C   UNL d   1       6.873   5.104 -11.823  0.00  0.00     0.002 A 
ATOM     13  C   UNL d   1       8.059   4.883 -12.562  0.00  0.00     0.019 A 
BRANCH   9  14
ATOM     14  O   UNL d   1       7.095   2.002 -14.687  0.00  0.00    -0.327 OA
ATOM     15  C   UNL d   1       6.049   1.036 -14.781  0.00  0.00     0.181 C 
ENDBRANCH   9  14
ENDBRANCH   5   8
ENDBRANCH   1   2
BRANCH   1  16
ATOM     16  C   UNL d   1      13.796   4.726 -16.838  0.00  0.00     0.060 C 
BRANCH  16  17
ATOM     17  C   UNL d   1      13.630   3.866 -18.117  0.00  0.00     0.107 C 
BRANCH  17  18
ATOM     18  N   UNL d   1      14.608   4.076 -19.186  0.00  0.00    -0.314 N 
ATOM     19  C   UNL d   1      15.076   3.062 -19.996  0.00  0.00     0.257 C 
ATOM     20  O   UNL d   1      15.967   3.226 -20.827  0.00  0.00    -0.267 OA
BRANCH  19  21
ATOM     21  C   UNL d   1      14.545   1.665 -19.852  0.00  0.00     0.056 A 
ATOM     22  C   UNL d   1      15.430   0.568 -19.797  0.00  0.00     0.005 A 
ATOM     23  C   UNL d   1      14.940  -0.739 -19.679  0.00  0.00     0.000 A 
ATOM     24  C   UNL d   1      13.548  -0.973 -19.616  0.00  0.00     0.000 A 
ATOM     25  C   UNL d   1      12.655   0.113 -19.688  0.00  0.00     0.000 A 
ATOM     26  C   UNL d   1      13.137   1.418 -19.847  0.00  0.00     0.005 A 
ENDBRANCH  19  21
BRANCH  18  27
ATOM     27  C   UNL d   1      14.986   5.495 -19.242  0.00  0.00     0.143 C 
ATOM     28  C   UNL d   1      16.414   5.712 -18.812  0.00  0.00     0.167 C 
ATOM     29  O   UNL d   1      16.612   6.755 -19.890  0.00  0.00    -0.350 OA
ATOM     30  C   UNL d   1      15.504   6.145 -20.578  0.00  0.00     0.167 C 
ENDBRANCH  18  27
ENDBRANCH  17  18
ENDBRANCH  16  17
ENDBRANCH   1  16
TORSDOF 8
