REMARK  6 active torsions:
REMARK  status: ('A' for Active; 'I' for Inactive)
REMARK       I    between atoms: C_2  and  N_3 
REMARK    1  A    between atoms: C_2  and  C_23 
REMARK    2  A    between atoms: N_3  and  C_4 
REMARK    3  A    between atoms: C_4  and  C_5 
REMARK    4  A    between atoms: C_5  and  C_6 
REMARK    5  A    between atoms: C_6  and  C_7 
REMARK    6  A    between atoms: C_7  and  N_8 
ROOT
ATOM      1  C   UNL d   1       9.785   5.287 -11.568  0.00  0.00     0.251 C 
ENDROOT
BRANCH   1   2
ATOM      2  C   UNL d   1       8.721   6.223 -11.004  0.00  0.00     0.037 C 
BRANCH   2   3
ATOM      3  C   UNL d   1       9.242   6.805  -9.688  0.00  0.00     0.029 C 
BRANCH   3   4
ATOM      4  C   UNL d   1       8.961   5.971  -8.440  0.00  0.00     0.129 C 
BRANCH   4   5
ATOM      5  N   UNL d   1       9.534   6.546  -7.226  0.00  0.00    -0.233 NA
ATOM      6  C   UNL d   1      10.318   7.620  -7.062  0.00  0.00     0.294 C 
ATOM      7  O   UNL d   1      10.617   8.417  -7.952  0.00  0.00    -0.264 OA
BRANCH   6   8
ATOM      8  C   UNL d   1      10.823   7.800  -5.691  0.00  0.00     0.160 A 
ATOM      9  N   UNL d   1      11.294   6.852  -4.917  0.00  0.00    -0.160 NA
ATOM     10  N   UNL d   1      11.743   7.508  -3.823  0.00  0.00    -0.228 N 
ATOM     11  C   UNL d   1      11.538   8.901  -3.947  0.00  0.00     0.085 A 
ATOM     12  C   UNL d   1      12.271   6.941  -2.728  0.00  0.00     0.101 A 
ATOM     13  C   UNL d   1      10.964   9.103  -5.145  0.00  0.00     0.045 A 
ATOM     14  C   UNL d   1      11.892   9.736  -2.866  0.00  0.00     0.019 A 
ATOM     15  C   UNL d   1      12.397   9.148  -1.734  0.00  0.00     0.003 A 
ATOM     16  C   UNL d   1      12.601   7.761  -1.689  0.00  0.00     0.021 A 
ENDBRANCH   6   8
ENDBRANCH   4   5
ENDBRANCH   3   4
ENDBRANCH   2   3
ENDBRANCH   1   2
BRANCH   1  17
ATOM     17  N   UNL d   1       9.259   4.537 -12.691  0.00  0.00     0.141 N 
ATOM     18  C   UNL d   1       9.207   5.451 -13.844  0.00  0.00     0.283 C 
ATOM     19  C   UNL d   1       8.699   4.631 -15.043  0.00  0.00     0.258 C 
ATOM     20  N   UNL d   1       9.451   3.368 -15.389  0.00  0.00     0.018 N 
ATOM     21  C   UNL d   1       9.560   2.567 -14.128  0.00  0.00     0.258 C 
ATOM     22  C   UNL d   1      10.844   3.617 -16.027  0.00  0.00     0.186 A 
ATOM     23  C   UNL d   1       8.595   2.624 -16.370  0.00  0.00     0.255 C 
ATOM     24  C   UNL d   1      10.133   3.394 -12.965  0.00  0.00     0.283 C 
ATOM     25  C   UNL d   1      11.207   2.912 -17.224  0.00  0.00     0.118 A 
ATOM     26  C   UNL d   1      11.757   4.549 -15.437  0.00  0.00     0.027 A 
ATOM     27  O   UNL d   1      10.411   1.964 -17.810  0.00  0.00    -0.327 OA
ATOM     28  C   UNL d   1      12.453   3.196 -17.831  0.00  0.00     0.026 A 
ATOM     29  C   UNL d   1       9.338   1.450 -17.039  0.00  0.00     0.182 C 
ATOM     30  C   UNL d   1      13.339   4.169 -17.293  0.00  0.00     0.002 A 
ATOM     31  C   UNL d   1      12.970   4.843 -16.102  0.00  0.00     0.002 A 
ENDBRANCH   1  17
TORSDOF 6
