REMARK  4 active torsions:
REMARK  status: ('A' for Active; 'I' for Inactive)
REMARK    1  A    between atoms: C_4  and  C_5 
REMARK    2  A    between atoms: C_7  and  C_8 
REMARK    3  A    between atoms: C_8  and  N_9 
REMARK    4  A    between atoms: N_12  and  C_13 
ROOT
ATOM      1  N   UNL d   1       9.611   7.300  -9.148  0.00  0.00     0.143 N 
ATOM      2  C   UNL d   1       9.584   6.309  -8.063  0.00  0.00     0.274 C 
ATOM      3  C   UNL d   1       9.260   7.006  -6.730  0.00  0.00     0.137 C 
ATOM      4  N   UNL d   1      10.224   8.069  -6.471  0.00  0.00    -0.344 N 
ATOM      5  C   UNL d   1      10.385   9.021  -7.558  0.00  0.00     0.137 C 
ATOM      6  C   UNL d   1      10.673   8.275  -8.876  0.00  0.00     0.274 C 
ENDROOT
BRANCH   1   7
ATOM      7  C   UNL d   1       9.860   6.662 -10.438  0.00  0.00     0.277 C 
BRANCH   7   8
ATOM      8  C   UNL d   1       8.655   5.857 -10.986  0.00  0.00     0.169 A 
ATOM      9  N   UNL d   1       9.140   4.680 -11.656  0.00  0.00    -0.246 NA
ATOM     10  C   UNL d   1       8.632   4.614 -12.809  0.00  0.00     0.174 A 
ATOM     11  O   UNL d   1       7.822   5.659 -13.131  0.00  0.00    -0.313 OA
ATOM     12  C   UNL d   1       7.833   6.582 -12.058  0.00  0.00     0.177 A 
BRANCH  10  13
ATOM     13  C   UNL d   1       8.911   3.510 -13.751  0.00  0.00     0.041 A 
ATOM     14  C   UNL d   1       7.848   2.883 -14.436  0.00  0.00     0.004 A 
ATOM     15  C   UNL d   1       8.114   1.823 -15.328  0.00  0.00     0.000 A 
ATOM     16  C   UNL d   1       9.439   1.393 -15.534  0.00  0.00     0.000 A 
ATOM     17  C   UNL d   1      10.499   2.011 -14.847  0.00  0.00     0.000 A 
ATOM     18  C   UNL d   1      10.235   3.070 -13.953  0.00  0.00     0.004 A 
ENDBRANCH  10  13
ENDBRANCH   7   8
ENDBRANCH   1   7
BRANCH   4  19
ATOM     19  C   UNL d   1      11.001   8.126  -5.301  0.00  0.00     0.056 A 
ATOM     20  C   UNL d   1      11.454   6.946  -4.672  0.00  0.00     0.017 A 
ATOM     21  C   UNL d   1      12.178   7.002  -3.465  0.00  0.00     0.002 A 
ATOM     22  C   UNL d   1      12.473   8.245  -2.882  0.00  0.00     0.000 A 
ATOM     23  C   UNL d   1      12.029   9.426  -3.498  0.00  0.00     0.002 A 
ATOM     24  C   UNL d   1      11.302   9.373  -4.705  0.00  0.00     0.017 A 
ENDBRANCH   4  19
TORSDOF 4
