REMARK  13 active torsions:
REMARK  status: ('A' for Active; 'I' for Inactive)
REMARK    1  A    between atoms: C_2  and  C_3 
REMARK    2  A    between atoms: C_3  and  N_4 
REMARK    3  A    between atoms: N_4  and  C_5 
REMARK    4  A    between atoms: N_4  and  C_24 
REMARK    5  A    between atoms: C_5  and  C_6 
REMARK    6  A    between atoms: C_6  and  C_7 
REMARK    7  A    between atoms: C_7  and  C_8 
REMARK    8  A    between atoms: C_8  and  N_9 
REMARK       I    between atoms: N_9  and  C_10 
REMARK    9  A    between atoms: C_10  and  C_12 
REMARK   10  A    between atoms: C_15  and  C_16 
REMARK   11  A    between atoms: C_24  and  C_25 
REMARK   12  A    between atoms: C_27  and  C_28 
REMARK   13  A    between atoms: C_31  and  C_32 
ROOT
ATOM      1  C   UNL d   1      10.783   3.775 -14.850  0.00  0.00     0.250 C 
ENDROOT
BRANCH   1   2
ATOM      2  N   UNL d   1      10.741   3.676 -16.311  0.00  0.00     0.137 N 
BRANCH   2   3
ATOM      3  C   UNL d   1      11.505   4.732 -16.999  0.00  0.00     0.250 C 
BRANCH   3   4
ATOM      4  C   UNL d   1      13.026   4.723 -16.692  0.00  0.00     0.035 C 
ATOM      5  C   UNL d   1      13.771   5.874 -17.360  0.00  0.00     0.002 C 
ENDBRANCH   3   4
ENDBRANCH   2   3
BRANCH   2   6
ATOM      6  C   UNL d   1      11.128   2.354 -16.810  0.00  0.00     0.251 C 
BRANCH   6   7
ATOM      7  C   UNL d   1      10.161   1.251 -16.416  0.00  0.00     0.038 A 
ATOM      8  C   UNL d   1       8.972   0.894 -17.291  0.00  0.00     0.024 A 
ATOM      9  C   UNL d   1      10.148  -0.052 -17.195  0.00  0.00     0.007 A 
BRANCH   8  10
ATOM     10  C   UNL d   1       7.648   0.527 -16.699  0.00  0.00    -0.022 A 
ATOM     11  C   UNL d   1       7.215   1.072 -15.471  0.00  0.00    -0.004 A 
ATOM     12  C   UNL d   1       5.984   0.681 -14.916  0.00  0.00     0.004 A 
ATOM     13  C   UNL d   1       5.161  -0.239 -15.600  0.00  0.00     0.071 A 
ATOM     14  C   UNL d   1       5.593  -0.783 -16.828  0.00  0.00     0.004 A 
ATOM     15  C   UNL d   1       6.828  -0.398 -17.374  0.00  0.00    -0.004 A 
BRANCH  13  16
ATOM     16  C   UNL d   1       3.840  -0.677 -14.991  0.00  0.00     0.419 C 
ATOM     17  F   UNL d   1       3.183   0.325 -14.407  0.00  0.00    -0.166 F 
ATOM     18  F   UNL d   1       3.057  -1.224 -15.920  0.00  0.00    -0.166 F 
ATOM     19  F   UNL d   1       4.097  -1.570 -14.054  0.00  0.00    -0.166 F 
ENDBRANCH  13  16
ENDBRANCH   8  10
ENDBRANCH   6   7
ENDBRANCH   2   6
ENDBRANCH   1   2
BRANCH   1  20
ATOM     20  C   UNL d   1      10.062   5.037 -14.370  0.00  0.00     0.037 C 
BRANCH  20  21
ATOM     21  C   UNL d   1       9.932   5.079 -12.850  0.00  0.00     0.029 C 
BRANCH  21  22
ATOM     22  C   UNL d   1       8.989   6.184 -12.348  0.00  0.00     0.129 C 
BRANCH  22  23
ATOM     23  N   UNL d   1       9.293   6.493 -10.955  0.00  0.00    -0.234 NA
ATOM     24  C   UNL d   1       9.756   7.674 -10.514  0.00  0.00     0.275 C 
ATOM     25  O   UNL d   1       9.864   8.667 -11.232  0.00  0.00    -0.266 OA
BRANCH  24  26
ATOM     26  C   UNL d   1      10.178   7.736  -9.081  0.00  0.00     0.058 A 
ATOM     27  C   UNL d   1       9.479   7.019  -8.085  0.00  0.00     0.005 A 
ATOM     28  C   UNL d   1       9.892   7.098  -6.743  0.00  0.00     0.002 A 
ATOM     29  C   UNL d   1      10.996   7.902  -6.369  0.00  0.00     0.018 A 
ATOM     30  C   UNL d   1      11.661   8.648  -7.366  0.00  0.00     0.002 A 
ATOM     31  C   UNL d   1      11.258   8.563  -8.711  0.00  0.00     0.005 A 
BRANCH  29  32
ATOM     32  C   UNL d   1      11.438   7.974  -4.971  0.00  0.00     0.081 A 
ATOM     33  N   UNL d   1      11.595   6.792  -4.343  0.00  0.00    -0.244 NA
ATOM     34  C   UNL d   1      12.000   6.785  -3.052  0.00  0.00     0.099 A 
ATOM     35  C   UNL d   1      12.259   7.966  -2.333  0.00  0.00     0.021 A 
ATOM     36  C   UNL d   1      12.086   9.196  -2.983  0.00  0.00     0.003 A 
ATOM     37  C   UNL d   1      11.669   9.204  -4.326  0.00  0.00     0.019 A 
ENDBRANCH  29  32
ENDBRANCH  24  26
ENDBRANCH  22  23
ENDBRANCH  21  22
ENDBRANCH  20  21
ENDBRANCH   1  20
TORSDOF 13
