REMARK  9 active torsions:
REMARK  status: ('A' for Active; 'I' for Inactive)
REMARK    1  A    between atoms: O_2  and  C_3 
REMARK    2  A    between atoms: C_5  and  C_6 
REMARK    3  A    between atoms: C_6  and  N_7 
REMARK    4  A    between atoms: C_15  and  O_16 
REMARK    5  A    between atoms: O_16  and  C_17 
REMARK    6  A    between atoms: C_17  and  C_18 
REMARK    7  A    between atoms: C_18  and  C_19 
REMARK    8  A    between atoms: C_19  and  N_20 
REMARK    9  A    between atoms: C_23  and  C_24 
ROOT
ATOM      1  C   UNL d   1       9.065   4.554 -11.457  0.00  0.00     0.068 C 
ENDROOT
BRANCH   1   2
ATOM      2  C   UNL d   1       9.123   5.739 -12.445  0.00  0.00     0.151 C 
BRANCH   2   3
ATOM      3  O   UNL d   1      10.096   5.536 -13.448  0.00  0.00    -0.329 OA
BRANCH   3   4
ATOM      4  C   UNL d   1       9.855   4.598 -14.410  0.00  0.00     0.116 A 
ATOM      5  C   UNL d   1      10.804   4.474 -15.456  0.00  0.00     0.116 A 
ATOM      6  C   UNL d   1      10.600   3.510 -16.459  0.00  0.00     0.024 A 
ATOM      7  C   UNL d   1       9.520   2.615 -16.340  0.00  0.00     0.013 A 
ATOM      8  C   UNL d   1       8.586   2.726 -15.301  0.00  0.00    -0.000 A 
ATOM      9  C   UNL d   1       8.719   3.755 -14.369  0.00  0.00     0.026 A 
BRANCH   5  10
ATOM     10  O   UNL d   1      11.897   5.310 -15.399  0.00  0.00    -0.326 OA
ATOM     11  C   UNL d   1      12.872   5.199 -16.431  0.00  0.00     0.181 C 
ENDBRANCH   5  10
BRANCH   7  12
ATOM     12  C   UNL d   1       9.306   1.543 -17.381  0.00  0.00     0.277 C 
BRANCH  12  13
ATOM     13  N   UNL d   1      10.288   0.440 -17.353  0.00  0.00     0.147 N 
ATOM     14  C   UNL d   1      11.648   0.808 -17.752  0.00  0.00     0.283 C 
ATOM     15  C   UNL d   1      11.714   1.169 -19.249  0.00  0.00     0.178 C 
ATOM     16  O   UNL d   1      11.245   0.072 -20.031  0.00  0.00    -0.350 OA
ATOM     17  C   UNL d   1       9.923  -0.355 -19.707  0.00  0.00     0.178 C 
ATOM     18  C   UNL d   1       9.839  -0.683 -18.196  0.00  0.00     0.283 C 
ENDBRANCH  12  13
ENDBRANCH   7  12
ENDBRANCH   3   4
ENDBRANCH   2   3
ENDBRANCH   1   2
BRANCH   1  19
ATOM     19  C   UNL d   1       8.191   4.913 -10.262  0.00  0.00     0.253 C 
BRANCH  19  20
ATOM     20  N   UNL d   1       8.769   5.891  -9.348  0.00  0.00     0.137 N 
ATOM     21  C   UNL d   1       8.244   5.597  -8.017  0.00  0.00     0.251 C 
ATOM     22  C   UNL d   1       8.663   6.709  -7.033  0.00  0.00     0.041 C 
ATOM     23  C   UNL d   1      10.195   6.824  -6.998  0.00  0.00     0.047 C 
ATOM     24  C   UNL d   1      10.742   6.985  -8.410  0.00  0.00     0.041 C 
ATOM     25  C   UNL d   1      10.229   5.854  -9.284  0.00  0.00     0.251 C 
BRANCH  23  26
ATOM     26  C   UNL d   1      10.678   7.953  -6.134  0.00  0.00     0.087 A 
ATOM     27  C   UNL d   1      11.325   7.927  -4.898  0.00  0.00     0.041 A 
ATOM     28  C   UNL d   1      11.547   9.245  -4.475  0.00  0.00     0.129 A 
ATOM     29  C   UNL d   1      11.691   6.847  -4.064  0.00  0.00     0.006 A 
ATOM     30  O   UNL d   1      11.055  10.042  -5.492  0.00  0.00    -0.211 OA
ATOM     31  C   UNL d   1      12.089   9.555  -3.229  0.00  0.00     0.057 A 
ATOM     32  N   UNL d   1      10.509   9.213  -6.514  0.00  0.00    -0.131 NA
ATOM     33  C   UNL d   1      12.482   8.469  -2.420  0.00  0.00     0.142 A 
ATOM     34  F   UNL d   1      13.064   8.741  -1.229  0.00  0.00    -0.204 F 
ATOM     35  C   UNL d   1      12.278   7.129  -2.821  0.00  0.00     0.030 A 
ENDBRANCH  23  26
ENDBRANCH  19  20
ENDBRANCH   1  19
TORSDOF 9
