REMARK  3 active torsions:
REMARK  status: ('A' for Active; 'I' for Inactive)
REMARK    1  A    between atoms: C_5  and  N_6 
REMARK    2  A    between atoms: N_9  and  C_10 
REMARK    3  A    between atoms: C_10  and  C_11 
ROOT
ATOM      1  N   UNL d   1      10.565   6.862  -8.729  0.00  0.00    -0.344 N 
ATOM      2  C   UNL d   1      10.970   7.433 -10.006  0.00  0.00     0.137 C 
ATOM      3  C   UNL d   1       9.764   7.496 -10.955  0.00  0.00     0.275 C 
ATOM      4  N   UNL d   1       9.174   6.158 -11.129  0.00  0.00     0.146 N 
ATOM      5  C   UNL d   1       8.693   5.689  -9.822  0.00  0.00     0.275 C 
ATOM      6  C   UNL d   1       9.859   5.586  -8.820  0.00  0.00     0.137 C 
ENDROOT
BRANCH   4   7
ATOM      7  C   UNL d   1       8.049   6.255 -12.056  0.00  0.00     0.280 C 
BRANCH   7   8
ATOM      8  C   UNL d   1       7.302   5.027 -12.474  0.00  0.00     0.050 A 
ATOM      9  C   UNL d   1       7.690   4.018 -13.315  0.00  0.00     0.083 A 
ATOM     10  N   UNL d   1       6.616   3.106 -13.379  0.00  0.00    -0.225 N 
ATOM     11  C   UNL d   1       8.863   3.730 -14.057  0.00  0.00     0.019 A 
ATOM     12  N   UNL d   1       5.571   3.515 -12.588  0.00  0.00    -0.164 NA
ATOM     13  C   UNL d   1       6.682   1.940 -14.092  0.00  0.00     0.112 A 
ATOM     14  C   UNL d   1       6.004   4.638 -12.056  0.00  0.00     0.120 A 
ATOM     15  I   UNL d   1       5.180   0.479 -13.993  0.00  0.00    -0.021 I 
ATOM     16  C   UNL d   1       7.822   1.676 -14.819  0.00  0.00     0.025 A 
ATOM     17  C   UNL d   1       8.919   2.575 -14.800  0.00  0.00     0.004 A 
ENDBRANCH   7   8
ENDBRANCH   4   7
BRANCH   1  18
ATOM     18  C   UNL d   1      10.808   7.522  -7.513  0.00  0.00     0.056 A 
ATOM     19  C   UNL d   1      11.065   6.776  -6.345  0.00  0.00     0.018 A 
ATOM     20  C   UNL d   1      11.308   7.408  -5.112  0.00  0.00     0.013 A 
ATOM     21  C   UNL d   1      11.322   8.809  -5.039  0.00  0.00     0.058 A 
ATOM     22 CL   UNL d   1      11.627   9.588  -3.535  0.00  0.00    -0.082 Cl
ATOM     23  C   UNL d   1      11.073   9.572  -6.192  0.00  0.00     0.013 A 
ATOM     24  C   UNL d   1      10.809   8.935  -7.422  0.00  0.00     0.018 A 
ENDBRANCH   1  18
TORSDOF 3
