REMARK  4 active torsions:
REMARK  status: ('A' for Active; 'I' for Inactive)
REMARK    1  A    between atoms: C_8  and  C_9 
REMARK       I    between atoms: C_9  and  N_11 
REMARK    2  A    between atoms: N_11  and  C_12 
REMARK    3  A    between atoms: C_15  and  O_16 
REMARK    4  A    between atoms: O_16  and  C_17 
ROOT
ATOM      1  C   UNL d   1       9.460   6.572  -9.614  0.00  0.00     0.104 A 
ATOM      2  C   UNL d   1       9.046   6.643  -8.271  0.00  0.00     0.025 A 
ATOM      3  C   UNL d   1       9.839   7.353  -7.367  0.00  0.00     0.046 A 
ATOM      4  C   UNL d   1      11.028   7.946  -7.840  0.00  0.00     0.183 A 
ATOM      5  N   UNL d   1      11.424   7.932  -9.121  0.00  0.00    -0.219 NA
ATOM      6  C   UNL d   1      10.624   7.262  -9.983  0.00  0.00     0.120 A 
ENDROOT
BRANCH   1   7
ATOM      7  N   UNL d   1       8.580   5.916 -10.514  0.00  0.00    -0.206 NA
ATOM      8  C   UNL d   1       8.815   5.470 -11.771  0.00  0.00     0.281 C 
ATOM      9  O   UNL d   1       9.871   5.542 -12.367  0.00  0.00    -0.265 OA
BRANCH   8  10
ATOM     10  C   UNL d   1       7.651   4.770 -12.390  0.00  0.00     0.078 A 
ATOM     11  C   UNL d   1       6.327   5.036 -12.270  0.00  0.00     0.104 A 
ATOM     12  N   UNL d   1       5.638   4.089 -13.023  0.00  0.00    -0.244 NA
ATOM     13  C   UNL d   1       6.515   3.202 -13.631  0.00  0.00     0.082 A 
ATOM     14  C   UNL d   1       6.322   2.036 -14.415  0.00  0.00     0.019 A 
ATOM     15  C   UNL d   1       7.828   3.642 -13.289  0.00  0.00     0.024 A 
ATOM     16  C   UNL d   1       7.415   1.347 -14.937  0.00  0.00    -0.003 A 
ATOM     17  C   UNL d   1       8.716   1.753 -14.614  0.00  0.00    -0.022 A 
ATOM     18  C   UNL d   1       9.883   0.920 -15.090  0.00  0.00     0.031 C 
ATOM     19  C   UNL d   1       8.917   2.892 -13.785  0.00  0.00    -0.003 A 
ENDBRANCH   8  10
ENDBRANCH   1   7
BRANCH   4  20
ATOM     20  O   UNL d   1      11.896   8.598  -7.018  0.00  0.00    -0.288 OA
BRANCH  20  21
ATOM     21  C   UNL d   1      11.720   8.556  -5.674  0.00  0.00     0.115 A 
ATOM     22  C   UNL d   1      11.518   9.753  -5.021  0.00  0.00     0.082 A 
ATOM     23  N   UNL d   1      11.489   9.862  -3.669  0.00  0.00    -0.246 NA
ATOM     24  C   UNL d   1      11.532  11.006  -5.854  0.00  0.00     0.054 C 
ATOM     25  C   UNL d   1      11.623   8.726  -2.939  0.00  0.00     0.099 A 
ATOM     26  C   UNL d   1      11.751   7.448  -3.523  0.00  0.00     0.023 A 
ATOM     27  C   UNL d   1      11.780   7.356  -4.925  0.00  0.00     0.028 A 
ENDBRANCH  20  21
ENDBRANCH   4  20
TORSDOF 4
