REMARK  4 active torsions:
REMARK  status: ('A' for Active; 'I' for Inactive)
REMARK    1  A    between atoms: C_11  and  C_12 
REMARK    2  A    between atoms: C_12  and  C_13 
REMARK    3  A    between atoms: C_13  and  N_14 
REMARK    4  A    between atoms: N_17  and  C_18 
ROOT
ATOM      1  N   UNL d   1       9.447   6.805  -9.973  0.00  0.00     0.141 N 
ATOM      2  C   UNL d   1      10.160   8.054  -9.707  0.00  0.00     0.274 C 
ATOM      3  C   UNL d   1       9.682   8.687  -8.383  0.00  0.00     0.137 C 
ATOM      4  N   UNL d   1       9.793   7.714  -7.298  0.00  0.00    -0.344 N 
ATOM      5  C   UNL d   1       9.153   6.435  -7.583  0.00  0.00     0.137 C 
ATOM      6  C   UNL d   1       9.688   5.851  -8.893  0.00  0.00     0.274 C 
ENDROOT
BRANCH   1   7
ATOM      7  C   UNL d   1       9.807   6.317 -11.290  0.00  0.00     0.253 C 
BRANCH   7   8
ATOM      8  C   UNL d   1       9.127   4.973 -11.671  0.00  0.00     0.062 C 
BRANCH   8   9
ATOM      9  C   UNL d   1       8.624   4.922 -13.128  0.00  0.00     0.109 A 
ATOM     10  N   UNL d   1       9.677   4.440 -14.050  0.00  0.00    -0.313 N 
ATOM     11  C   UNL d   1      10.821   5.263 -14.405  0.00  0.00     0.129 C 
ATOM     12  C   UNL d   1       9.413   3.232 -14.595  0.00  0.00     0.257 A 
ATOM     13  O   UNL d   1      10.117   2.571 -15.354  0.00  0.00    -0.267 OA
ATOM     14  C   UNL d   1       8.049   2.875 -14.146  0.00  0.00     0.054 A 
ATOM     15  C   UNL d   1       7.557   3.863 -13.314  0.00  0.00     0.003 A 
ATOM     16  C   UNL d   1       7.298   1.738 -14.487  0.00  0.00     0.004 A 
ATOM     17  C   UNL d   1       6.255   3.785 -12.776  0.00  0.00    -0.002 A 
ATOM     18  C   UNL d   1       5.476   2.651 -13.107  0.00  0.00    -0.000 A 
ATOM     19  C   UNL d   1       5.995   1.636 -13.950  0.00  0.00     0.000 A 
ENDBRANCH   8   9
ENDBRANCH   7   8
ENDBRANCH   1   7
BRANCH   4  20
ATOM     20  C   UNL d   1      10.512   7.979  -6.111  0.00  0.00     0.056 A 
ATOM     21  C   UNL d   1      11.069   6.926  -5.343  0.00  0.00     0.018 A 
ATOM     22  C   UNL d   1      11.726   7.178  -4.120  0.00  0.00     0.013 A 
ATOM     23  C   UNL d   1      11.866   8.492  -3.648  0.00  0.00     0.058 A 
ATOM     24  C   UNL d   1      11.361   9.556  -4.425  0.00  0.00     0.013 A 
ATOM     25 CL   UNL d   1      12.610   8.791  -2.122  0.00  0.00    -0.082 Cl
ATOM     26  C   UNL d   1      10.684   9.303  -5.643  0.00  0.00     0.018 A 
ENDBRANCH   4  20
TORSDOF 4
