REMARK  7 active torsions:
REMARK  status: ('A' for Active; 'I' for Inactive)
REMARK    1  A    between atoms: C_6  and  C_7 
REMARK    2  A    between atoms: C_10  and  S_11 
REMARK    3  A    between atoms: S_11  and  C_12 
REMARK    4  A    between atoms: C_12  and  C_13 
REMARK    5  A    between atoms: C_13  and  C_14 
REMARK    6  A    between atoms: C_14  and  N_15 
REMARK    7  A    between atoms: C_19  and  C_20 
ROOT
ATOM      1  C   UNL d   1       5.954  -1.113 -18.036  0.00  0.00     0.167 A 
ATOM      2  N   UNL d   1       6.131   0.197 -18.206  0.00  0.00    -0.128 NA
ATOM      3  N   UNL d   1       5.854   0.772 -16.988  0.00  0.00    -0.122 NA
ATOM      4  C   UNL d   1       5.533  -0.241 -16.177  0.00  0.00     0.193 A 
ATOM      5  N   UNL d   1       5.606  -1.445 -16.769  0.00  0.00    -0.289 N 
ATOM      6  C   UNL d   1       5.350  -2.738 -16.171  0.00  0.00     0.134 C 
ENDROOT
BRANCH   4   7
ATOM      7  S   UNL d   1       5.047  -0.059 -14.488  0.00  0.00    -0.075 SA
BRANCH   7   8
ATOM      8  C   UNL d   1       6.671  -0.241 -13.686  0.00  0.00     0.067 C 
BRANCH   8   9
ATOM      9  C   UNL d   1       7.748   0.652 -14.303  0.00  0.00     0.047 C 
BRANCH   9  10
ATOM     10  C   UNL d   1       7.359   2.150 -14.422  0.00  0.00     0.251 C 
BRANCH  10  11
ATOM     11  N   UNL d   1       8.493   3.005 -14.775  0.00  0.00     0.137 N 
ATOM     12  C   UNL d   1       9.367   2.509 -15.848  0.00  0.00     0.254 C 
ATOM     13  C   UNL d   1      10.621   3.306 -15.633  0.00  0.00     0.052 A 
ATOM     14  C   UNL d   1      10.591   3.811 -14.223  0.00  0.00     0.039 A 
ATOM     15  C   UNL d   1      11.676   2.855 -14.656  0.00  0.00     0.008 A 
ATOM     16  C   UNL d   1       9.312   3.314 -13.609  0.00  0.00     0.251 C 
BRANCH  13  17
ATOM     17  C   UNL d   1      10.954   4.255 -16.751  0.00  0.00    -0.021 A 
ATOM     18  C   UNL d   1      10.013   5.235 -17.127  0.00  0.00    -0.003 A 
ATOM     19  C   UNL d   1      10.319   6.158 -18.143  0.00  0.00     0.011 A 
ATOM     20  C   UNL d   1      11.574   6.112 -18.776  0.00  0.00     0.058 A 
ATOM     21  C   UNL d   1      12.518   5.127 -18.407  0.00  0.00     0.011 A 
ATOM     22 CL   UNL d   1      11.962   7.276 -19.991  0.00  0.00    -0.082 Cl
ATOM     23  C   UNL d   1      12.201   4.199 -17.400  0.00  0.00    -0.003 A 
ENDBRANCH  13  17
ENDBRANCH  10  11
ENDBRANCH   9  10
ENDBRANCH   8   9
ENDBRANCH   7   8
ENDBRANCH   4   7
BRANCH   1  24
ATOM     24  C   UNL d   1       6.132  -2.053 -19.135  0.00  0.00     0.037 A 
ATOM     25  C   UNL d   1       5.127  -2.976 -19.526  0.00  0.00     0.021 A 
ATOM     26  C   UNL d   1       3.854  -3.014 -18.904  0.00  0.00     0.003 A 
ATOM     27  C   UNL d   1       5.378  -3.914 -20.576  0.00  0.00     0.081 A 
ATOM     28  C   UNL d   1       2.932  -4.003 -19.272  0.00  0.00     0.015 A 
ATOM     29  C   UNL d   1       3.279  -4.886 -20.309  0.00  0.00     0.059 A 
ATOM     30  C   UNL d   1       2.301  -5.936 -20.775  0.00  0.00     0.052 C 
ATOM     31  N   UNL d   1       4.464  -4.840 -20.951  0.00  0.00    -0.250 NA
ATOM     32  C   UNL d   1       6.621  -3.865 -21.237  0.00  0.00     0.019 A 
ATOM     33  C   UNL d   1       7.605  -2.924 -20.882  0.00  0.00     0.002 A 
ATOM     34  C   UNL d   1       7.361  -2.026 -19.827  0.00  0.00     0.003 A 
ENDBRANCH   1  24
TORSDOF 7
