REMARK  4 active torsions:
REMARK  status: ('A' for Active; 'I' for Inactive)
REMARK    1  A    between atoms: S_2  and  C_4 
REMARK    2  A    between atoms: S_2  and  C_11 
REMARK    3  A    between atoms: C_17  and  N_18 
REMARK    4  A    between atoms: N_18  and  C_19 
ROOT
ATOM      1  C   UNL d   1      12.406   3.823 -16.869  0.00  0.00     0.192 A 
ATOM      2  N   UNL d   1      12.970   2.964 -17.796  0.00  0.00    -0.136 NA
ATOM      3  N   UNL d   1      12.300   1.754 -17.831  0.00  0.00    -0.147 NA
ATOM      4  C   UNL d   1      11.327   1.901 -16.905  0.00  0.00     0.105 A 
ATOM      5  C   UNL d   1      10.358   0.940 -16.547  0.00  0.00     0.022 A 
ATOM      6  C   UNL d   1       9.387   1.293 -15.578  0.00  0.00     0.020 A 
ATOM      7  C   UNL d   1       9.374   2.587 -14.998  0.00  0.00     0.076 A 
ATOM      8  C   UNL d   1      10.364   3.529 -15.367  0.00  0.00     0.022 A 
ATOM      9  C   UNL d   1      11.332   3.153 -16.308  0.00  0.00     0.051 A 
ENDROOT
BRANCH   1  10
ATOM     10  S   UNL d   1      12.907   5.514 -16.567  0.00  0.00     0.228 S 
ATOM     11  O   UNL d   1      14.370   5.545 -16.716  0.00  0.00    -0.216 OA
ATOM     12  O   UNL d   1      12.276   5.953 -15.310  0.00  0.00    -0.216 OA
BRANCH  10  13
ATOM     13  C   UNL d   1      12.178   6.444 -17.908  0.00  0.00     0.090 A 
ATOM     14  C   UNL d   1      10.800   6.324 -18.180  0.00  0.00     0.023 A 
ATOM     15  C   UNL d   1      10.243   7.027 -19.266  0.00  0.00     0.058 A 
ATOM     16  C   UNL d   1      11.057   7.864 -20.058  0.00  0.00     0.011 A 
ATOM     17 CL   UNL d   1       8.568   6.848 -19.636  0.00  0.00    -0.082 Cl
ATOM     18  C   UNL d   1      12.431   7.987 -19.774  0.00  0.00     0.002 A 
ATOM     19  C   UNL d   1      12.996   7.273 -18.700  0.00  0.00     0.011 A 
ENDBRANCH  10  13
ENDBRANCH   1  10
BRANCH   7  20
ATOM     20  N   UNL d   1       8.360   2.905 -14.078  0.00  0.00    -0.273 NA
BRANCH  20  21
ATOM     21  C   UNL d   1       8.211   4.246 -13.525  0.00  0.00     0.108 C 
ATOM     22  C   UNL d   1       6.807   4.419 -12.925  0.00  0.00     0.062 C 
ATOM     23  C   UNL d   1       6.662   5.804 -12.275  0.00  0.00     0.292 C 
ATOM     24  N   UNL d   1       7.672   5.986 -11.241  0.00  0.00     0.339 N 
ATOM     25  C   UNL d   1       9.009   5.951 -11.828  0.00  0.00     0.292 C 
ATOM     26  C   UNL d   1       9.266   4.563 -12.435  0.00  0.00     0.062 C 
ENDBRANCH  20  21
ENDBRANCH   7  20
TORSDOF 4
