REMARK  7 active torsions:
REMARK  status: ('A' for Active; 'I' for Inactive)
REMARK       I    between atoms: C_2  and  N_3 
REMARK    1  A    between atoms: C_2  and  C_21 
REMARK    2  A    between atoms: N_3  and  C_4 
REMARK    3  A    between atoms: C_4  and  C_5 
REMARK    4  A    between atoms: C_5  and  C_6 
REMARK    5  A    between atoms: C_6  and  C_7 
REMARK    6  A    between atoms: C_7  and  N_8 
REMARK    7  A    between atoms: N_11  and  C_12 
ROOT
ATOM      1  C   UNL d   1       9.278   5.902 -10.742  0.00  0.00     0.029 C 
ENDROOT
BRANCH   1   2
ATOM      2  C   UNL d   1       8.711   5.648  -9.344  0.00  0.00     0.129 C 
BRANCH   2   3
ATOM      3  N   UNL d   1       9.505   6.231  -8.264  0.00  0.00    -0.233 NA
ATOM      4  C   UNL d   1      10.161   7.405  -8.290  0.00  0.00     0.293 C 
ATOM      5  O   UNL d   1      10.373   8.082  -9.282  0.00  0.00    -0.264 OA
BRANCH   4   6
ATOM      6  C   UNL d   1      10.603   7.930  -6.947  0.00  0.00     0.139 A 
ATOM      7  N   UNL d   1      10.621   9.269  -6.794  0.00  0.00    -0.239 NA
ATOM      8  C   UNL d   1      11.054   9.800  -5.632  0.00  0.00     0.099 A 
ATOM      9  C   UNL d   1      11.467   9.008  -4.550  0.00  0.00     0.019 A 
ATOM     10  C   UNL d   1      11.461   7.603  -4.712  0.00  0.00     0.003 A 
ATOM     11  C   UNL d   1      11.858   9.583  -3.332  0.00  0.00     0.002 A 
ATOM     12  C   UNL d   1      11.019   7.049  -5.924  0.00  0.00     0.024 A 
ATOM     13  C   UNL d   1      11.871   6.780  -3.652  0.00  0.00     0.000 A 
ATOM     14  C   UNL d   1      12.288   7.351  -2.440  0.00  0.00     0.000 A 
ATOM     15  C   UNL d   1      12.287   8.752  -2.284  0.00  0.00     0.000 A 
ENDBRANCH   4   6
ENDBRANCH   2   3
ENDBRANCH   1   2
BRANCH   1  16
ATOM     16  C   UNL d   1       8.338   5.479 -11.864  0.00  0.00     0.037 C 
BRANCH  16  17
ATOM     17  C   UNL d   1       9.013   5.715 -13.236  0.00  0.00     0.251 C 
BRANCH  17  18
ATOM     18  N   UNL d   1      10.004   4.693 -13.576  0.00  0.00     0.141 N 
ATOM     19  C   UNL d   1       9.338   3.397 -13.744  0.00  0.00     0.274 C 
ATOM     20  C   UNL d   1      10.351   2.302 -14.070  0.00  0.00     0.137 C 
ATOM     21  N   UNL d   1      11.092   2.650 -15.272  0.00  0.00    -0.344 N 
ATOM     22  C   UNL d   1      11.700   3.977 -15.230  0.00  0.00     0.137 C 
ATOM     23  C   UNL d   1      10.643   5.036 -14.854  0.00  0.00     0.274 C 
BRANCH  21  24
ATOM     24  C   UNL d   1      11.174   1.787 -16.389  0.00  0.00     0.058 A 
ATOM     25  C   UNL d   1      10.263   0.713 -16.556  0.00  0.00     0.046 A 
ATOM     26  C   UNL d   1      10.361  -0.153 -17.658  0.00  0.00     0.142 A 
ATOM     27  C   UNL d   1      11.357   0.044 -18.630  0.00  0.00     0.030 A 
ATOM     28  F   UNL d   1       9.486  -1.177 -17.788  0.00  0.00    -0.204 F 
ATOM     29  C   UNL d   1      12.263   1.112 -18.484  0.00  0.00     0.004 A 
ATOM     30  C   UNL d   1      12.178   1.970 -17.371  0.00  0.00     0.017 A 
ENDBRANCH  21  24
ENDBRANCH  17  18
ENDBRANCH  16  17
ENDBRANCH   1  16
TORSDOF 7
