REMARK  6 active torsions:
REMARK  status: ('A' for Active; 'I' for Inactive)
REMARK    1  A    between atoms: C_7  and  N_8 
REMARK    2  A    between atoms: N_11  and  C_12 
REMARK    3  A    between atoms: C_12  and  C_13 
REMARK    4  A    between atoms: C_15  and  C_16 
REMARK    5  A    between atoms: C_16  and  N_17 
REMARK       I    between atoms: N_17  and  C_18 
REMARK    6  A    between atoms: C_18  and  C_20 
ROOT
ATOM      1  N   UNL d   1      19.679   9.046 -19.867  0.00  0.00    -0.191 NA
ATOM      2  C   UNL d   1      18.529   9.062 -19.733  0.00  0.00     0.101 C 
ATOM      3  C   UNL d   1      17.089   9.080 -19.561  0.00  0.00     0.070 A 
ATOM      4  C   UNL d   1      16.298   9.989 -20.296  0.00  0.00     0.010 A 
ATOM      5  C   UNL d   1      14.906  10.017 -20.108  0.00  0.00     0.002 A 
ATOM      6  C   UNL d   1      14.299   9.138 -19.192  0.00  0.00     0.017 A 
ATOM      7  C   UNL d   1      15.081   8.222 -18.448  0.00  0.00     0.057 A 
ATOM      8  C   UNL d   1      16.481   8.199 -18.653  0.00  0.00     0.027 A 
ENDROOT
BRANCH   7   9
ATOM      9  N   UNL d   1      14.488   7.359 -17.529  0.00  0.00    -0.344 N 
ATOM     10  C   UNL d   1      14.901   5.973 -17.424  0.00  0.00     0.137 C 
ATOM     11  C   UNL d   1      13.676   5.077 -17.533  0.00  0.00     0.274 C 
ATOM     12  N   UNL d   1      12.663   5.411 -16.521  0.00  0.00     0.141 N 
ATOM     13  C   UNL d   1      12.219   6.789 -16.754  0.00  0.00     0.274 C 
ATOM     14  C   UNL d   1      13.409   7.761 -16.632  0.00  0.00     0.137 C 
BRANCH  12  15
ATOM     15  C   UNL d   1      11.508   4.520 -16.640  0.00  0.00     0.250 C 
BRANCH  15  16
ATOM     16  C   UNL d   1      11.903   3.070 -16.431  0.00  0.00     0.035 A 
ATOM     17  C   UNL d   1      11.122   1.966 -17.109  0.00  0.00     0.026 A 
ATOM     18  C   UNL d   1      12.508   2.259 -17.572  0.00  0.00     0.004 A 
BRANCH  17  19
ATOM     19  C   UNL d   1      10.843   0.659 -16.405  0.00  0.00     0.129 C 
BRANCH  19  20
ATOM     20  N   UNL d   1       9.544   0.521 -15.765  0.00  0.00    -0.234 NA
ATOM     21  C   UNL d   1       8.364   0.818 -16.329  0.00  0.00     0.275 C 
ATOM     22  O   UNL d   1       8.226   1.362 -17.425  0.00  0.00    -0.266 OA
BRANCH  21  23
ATOM     23  C   UNL d   1       7.159   0.394 -15.552  0.00  0.00     0.060 A 
ATOM     24  C   UNL d   1       6.069  -0.282 -16.161  0.00  0.00     0.022 A 
ATOM     25  C   UNL d   1       4.936  -0.578 -15.349  0.00  0.00     0.082 A 
ATOM     26  C   UNL d   1       6.082  -0.680 -17.526  0.00  0.00     0.002 A 
ATOM     27  N   UNL d   1       4.870  -0.250 -14.037  0.00  0.00    -0.244 NA
ATOM     28  C   UNL d   1       3.840  -1.224 -15.949  0.00  0.00     0.019 A 
ATOM     29  C   UNL d   1       5.920   0.374 -13.473  0.00  0.00     0.099 A 
ATOM     30  C   UNL d   1       7.085   0.711 -14.181  0.00  0.00     0.025 A 
ATOM     31  C   UNL d   1       3.859  -1.609 -17.302  0.00  0.00     0.002 A 
ATOM     32  C   UNL d   1       4.980  -1.333 -18.095  0.00  0.00     0.000 A 
ENDBRANCH  21  23
ENDBRANCH  19  20
ENDBRANCH  17  19
ENDBRANCH  15  16
ENDBRANCH  12  15
ENDBRANCH   7   9
TORSDOF 6
