REMARK  2 active torsions:
REMARK  status: ('A' for Active; 'I' for Inactive)
REMARK    1  A    between atoms: C_8  and  C_9 
REMARK    2  A    between atoms: C_9  and  C_10 
ROOT
ATOM      1  C   UNL d   1      10.927   6.894  -8.349  0.00  0.00     0.300 C 
ATOM      2  N   UNL d   1      11.636   7.824  -9.227  0.00  0.00     0.344 N 
ATOM      3  C   UNL d   1      11.404   9.218  -8.877  0.00  0.00     0.295 C 
ATOM      4  C   UNL d   1      12.012   9.497  -7.497  0.00  0.00     0.066 C 
ATOM      5  C   UNL d   1      11.681   8.434  -6.542  0.00  0.00    -0.003 A 
ATOM      6  C   UNL d   1      11.222   7.229  -6.925  0.00  0.00     0.089 A 
ATOM      7  N   UNL d   1      11.089   6.412  -5.805  0.00  0.00    -0.248 NA
ATOM      8  C   UNL d   1      11.458   7.121  -4.658  0.00  0.00     0.081 A 
ATOM      9  C   UNL d   1      11.501   6.856  -3.283  0.00  0.00     0.019 A 
ATOM     10  C   UNL d   1      11.904   7.880  -2.398  0.00  0.00     0.002 A 
ATOM     11  C   UNL d   1      12.289   9.142  -2.899  0.00  0.00     0.000 A 
ATOM     12  C   UNL d   1      12.255   9.387  -4.269  0.00  0.00     0.001 A 
ATOM     13  C   UNL d   1      11.819   8.418  -5.151  0.00  0.00     0.015 A 
ENDROOT
BRANCH   1  14
ATOM     14  C   UNL d   1       9.439   6.773  -8.650  0.00  0.00     0.071 C 
BRANCH  14  15
ATOM     15  C   UNL d   1       9.117   6.442 -10.106  0.00  0.00     0.008 A 
ATOM     16  C   UNL d   1       8.372   5.289 -10.473  0.00  0.00     0.154 A 
ATOM     17  O   UNL d   1       7.997   4.394  -9.509  0.00  0.00    -0.188 OA
ATOM     18  C   UNL d   1       7.963   5.081 -11.808  0.00  0.00     0.165 A 
ATOM     19  F   UNL d   1       7.222   3.991 -12.142  0.00  0.00    -0.202 F 
ATOM     20  C   UNL d   1       8.318   5.993 -12.799  0.00  0.00     0.032 A 
ATOM     21  C   UNL d   1       9.050   7.146 -12.444  0.00  0.00     0.002 A 
ATOM     22  C   UNL d   1       9.417   7.372 -11.117  0.00  0.00    -0.002 A 
ENDBRANCH  14  15
ENDBRANCH   1  14
TORSDOF 2
