REMARK  0 active torsions:
REMARK  status: ('A' for Active; 'I' for Inactive)
ROOT
ATOM      1  O   UNL d   1       9.275   4.367 -11.101  0.00  0.00    -0.188 OA
ATOM      2  C   UNL d   1       9.439   5.164 -10.028  0.00  0.00     0.158 C 
ATOM      3  C   UNL d   1      10.188   6.283 -10.273  0.00  0.00     0.053 C 
ATOM      4  C   UNL d   1      10.434   7.164  -9.250  0.00  0.00     0.093 C 
ATOM      5  C   UNL d   1       9.833   7.032  -7.980  0.00  0.00     0.008 C 
ATOM      6  C   UNL d   1       8.970   5.942  -7.757  0.00  0.00     0.028 C 
ATOM      7  C   UNL d   1       8.885   4.953  -8.747  0.00  0.00     0.156 C 
ATOM      8  O   UNL d   1       8.282   3.801  -8.452  0.00  0.00    -0.188 OA
ATOM      9  C   UNL d   1      10.006   8.100  -6.904  0.00  0.00     0.083 C 
ATOM     10  C   UNL d   1      10.980   7.798  -5.767  0.00  0.00    -0.018 A 
ATOM     11  C   UNL d   1      11.031   6.546  -5.183  0.00  0.00    -0.004 A 
ATOM     12  C   UNL d   1      11.864   6.368  -4.090  0.00  0.00    -0.000 A 
ATOM     13  C   UNL d   1      12.645   7.336  -3.518  0.00  0.00    -0.000 A 
ATOM     14  C   UNL d   1      12.650   8.597  -4.093  0.00  0.00    -0.003 A 
ATOM     15  C   UNL d   1      11.823   8.791  -5.228  0.00  0.00     0.010 A 
ATOM     16  C   UNL d   1      11.868  10.101  -5.847  0.00  0.00     0.317 C 
ATOM     17  N   UNL d   1      10.677  10.397  -6.588  0.00  0.00     0.345 N 
ATOM     18  C   UNL d   1      10.432   9.345  -7.614  0.00  0.00     0.295 C 
ATOM     19  C   UNL d   1      11.572   9.127  -8.627  0.00  0.00     0.185 C 
ATOM     20  O   UNL d   1      11.231   8.186  -9.633  0.00  0.00    -0.329 OA
ENDROOT
TORSDOF 0
