REMARK  6 active torsions:
REMARK  status: ('A' for Active; 'I' for Inactive)
REMARK    1  A    between atoms: C_2  and  C_3 
REMARK    2  A    between atoms: N_13  and  C_14 
REMARK    3  A    between atoms: C_14  and  C_15 
REMARK    4  A    between atoms: C_15  and  C_17 
REMARK    5  A    between atoms: C_17  and  N_18 
REMARK    6  A    between atoms: N_21  and  C_22 
ROOT
ATOM      1  C   UNL d   1       6.053   1.725 -14.206  0.00  0.00     0.066 A 
ATOM      2  C   UNL d   1       5.114   1.119 -13.344  0.00  0.00     0.018 A 
ATOM      3  C   UNL d   1       4.525  -0.106 -13.677  0.00  0.00     0.002 A 
ATOM      4  C   UNL d   1       4.910  -0.788 -14.845  0.00  0.00     0.001 A 
ATOM      5  C   UNL d   1       5.851  -0.206 -15.709  0.00  0.00     0.012 A 
ATOM      6  C   UNL d   1       6.425   1.040 -15.411  0.00  0.00     0.084 A 
ATOM      7  C   UNL d   1       7.332   1.587 -16.418  0.00  0.00     0.102 C 
ATOM      8  N   UNL d   1       8.054   2.028 -17.208  0.00  0.00    -0.191 NA
ENDROOT
BRANCH   1   9
ATOM      9  N   UNL d   1       6.519   3.007 -13.871  0.00  0.00    -0.344 N 
ATOM     10  C   UNL d   1       7.898   3.381 -14.113  0.00  0.00     0.137 C 
ATOM     11  C   UNL d   1       8.524   3.947 -12.893  0.00  0.00     0.274 C 
ATOM     12  N   UNL d   1       7.755   5.074 -12.334  0.00  0.00     0.144 N 
ATOM     13  C   UNL d   1       6.421   4.583 -12.006  0.00  0.00     0.274 C 
ATOM     14  C   UNL d   1       5.693   4.035 -13.233  0.00  0.00     0.137 C 
BRANCH  12  15
ATOM     15  C   UNL d   1       8.339   5.585 -11.098  0.00  0.00     0.285 C 
BRANCH  15  16
ATOM     16  C   UNL d   1       9.843   5.353 -10.959  0.00  0.00     0.208 C 
ATOM     17  O   UNL d   1       9.829   4.154 -10.224  0.00  0.00    -0.219 OA
BRANCH  16  18
ATOM     18  C   UNL d   1      10.642   6.504 -10.357  0.00  0.00     0.148 C 
BRANCH  18  19
ATOM     19  N   UNL d   1      10.089   7.121  -9.215  0.00  0.00    -0.247 N 
ATOM     20  C   UNL d   1       9.574   8.336  -9.169  0.00  0.00     0.348 A 
ATOM     21  N   UNL d   1       9.069   8.485  -7.958  0.00  0.00    -0.209 NA
ATOM     22  O   UNL d   1       9.494   9.108 -10.123  0.00  0.00    -0.245 OA
ATOM     23  C   UNL d   1       9.304   7.352  -7.076  0.00  0.00     0.179 A 
ATOM     24  C   UNL d   1       7.998   6.661  -6.671  0.00  0.00     0.039 C 
ATOM     25  C   UNL d   1       9.996   6.486  -8.081  0.00  0.00     0.265 A 
ATOM     26  O   UNL d   1      10.327   5.330  -7.948  0.00  0.00    -0.269 OA
BRANCH  23  27
ATOM     27  C   UNL d   1      10.225   7.713  -5.927  0.00  0.00     0.006 A 
ATOM     28  C   UNL d   1      10.741   6.713  -5.088  0.00  0.00    -0.002 A 
ATOM     29  C   UNL d   1      11.530   7.009  -3.985  0.00  0.00     0.006 A 
ATOM     30  C   UNL d   1      11.812   8.350  -3.708  0.00  0.00     0.035 A 
ATOM     31  C   UNL d   1      11.317   9.373  -4.536  0.00  0.00     0.006 A 
ATOM     32 BR   UNL d   1      12.744   8.771  -2.129  0.00  0.00    -0.049 Br
ATOM     33  C   UNL d   1      10.527   9.061  -5.643  0.00  0.00    -0.002 A 
ENDBRANCH  23  27
ENDBRANCH  18  19
ENDBRANCH  16  18
ENDBRANCH  15  16
ENDBRANCH  12  15
ENDBRANCH   1   9
TORSDOF 6
