REMARK  7 active torsions:
REMARK  status: ('A' for Active; 'I' for Inactive)
REMARK    1  A    between atoms: S_2  and  N_4 
REMARK    2  A    between atoms: S_2  and  C_22 
REMARK    3  A    between atoms: N_4  and  C_5 
REMARK    4  A    between atoms: N_8  and  C_9 
REMARK    5  A    between atoms: C_9  and  C_10 
REMARK    6  A    between atoms: C_10  and  C_11 
REMARK    7  A    between atoms: C_11  and  C_12 
ROOT
ATOM      1  C   UNL d   1       8.996   4.712 -10.768  0.00  0.00     0.151 C 
ATOM      2  C   UNL d   1       9.061   4.449  -9.275  0.00  0.00     0.063 C 
ATOM      3  C   UNL d   1       9.485   5.778  -8.698  0.00  0.00     0.252 C 
ATOM      4  N   UNL d   1      10.217   6.455  -9.763  0.00  0.00     0.139 N 
ATOM      5  C   UNL d   1       9.383   6.194 -10.923  0.00  0.00     0.275 C 
ENDROOT
BRANCH   1   6
ATOM      6  N   UNL d   1       7.643   4.453 -11.263  0.00  0.00    -0.184 NA
BRANCH   6   7
ATOM      7  S   UNL d   1       7.259   4.799 -12.895  0.00  0.00     0.287 S 
ATOM      8  O   UNL d   1       5.819   4.522 -13.086  0.00  0.00    -0.198 OA
ATOM      9  O   UNL d   1       7.849   6.099 -13.231  0.00  0.00    -0.198 OA
BRANCH   7  10
ATOM     10  C   UNL d   1       8.170   3.601 -13.832  0.00  0.00     0.134 A 
ATOM     11  S   UNL d   1       9.879   3.811 -14.093  0.00  0.00    -0.074 SA
ATOM     12  C   UNL d   1       9.935   2.344 -15.058  0.00  0.00     0.030 A 
ATOM     13  C   UNL d   1       8.636   1.749 -15.157  0.00  0.00     0.007 A 
ATOM     14  C   UNL d   1      11.057   1.776 -15.683  0.00  0.00     0.006 A 
ATOM     15  C   UNL d   1       7.632   2.500 -14.442  0.00  0.00     0.020 A 
ATOM     16  C   UNL d   1       8.534   0.562 -15.919  0.00  0.00     0.001 A 
ATOM     17  C   UNL d   1       9.653  -0.009 -16.551  0.00  0.00     0.000 A 
ATOM     18  C   UNL d   1      10.917   0.598 -16.436  0.00  0.00     0.001 A 
ENDBRANCH   7  10
ENDBRANCH   6   7
ENDBRANCH   1   6
BRANCH   4  19
ATOM     19  C   UNL d   1      10.368   7.902  -9.558  0.00  0.00     0.251 C 
BRANCH  19  20
ATOM     20  C   UNL d   1      11.202   8.246  -8.305  0.00  0.00     0.042 C 
BRANCH  20  21
ATOM     21  C   UNL d   1      10.541   7.811  -6.978  0.00  0.00     0.050 C 
BRANCH  21  22
ATOM     22  C   UNL d   1      10.921   8.615  -5.799  0.00  0.00     0.088 A 
ATOM     23  C   UNL d   1      11.469   8.180  -4.587  0.00  0.00     0.041 A 
ATOM     24  C   UNL d   1      11.612   9.280  -3.753  0.00  0.00     0.126 A 
ATOM     25  C   UNL d   1      11.853   6.895  -4.130  0.00  0.00     0.003 A 
ATOM     26  O   UNL d   1      11.081  10.358  -4.444  0.00  0.00    -0.211 OA
ATOM     27  C   UNL d   1      12.169   9.191  -2.482  0.00  0.00     0.027 A 
ATOM     28  N   UNL d   1      10.664   9.927  -5.731  0.00  0.00    -0.131 NA
ATOM     29  C   UNL d   1      12.567   7.925  -2.019  0.00  0.00     0.002 A 
ATOM     30  C   UNL d   1      12.404   6.782  -2.834  0.00  0.00     0.000 A 
ENDBRANCH  21  22
ENDBRANCH  20  21
ENDBRANCH  19  20
ENDBRANCH   4  19
TORSDOF 7
