REMARK  5 active torsions:
REMARK  status: ('A' for Active; 'I' for Inactive)
REMARK    1  A    between atoms: C_2  and  C_4 
REMARK    2  A    between atoms: C_8  and  C_9 
REMARK    3  A    between atoms: C_13  and  O_14 
REMARK    4  A    between atoms: O_14  and  C_15 
REMARK       I    between atoms: C_15  and  N_17 
REMARK    5  A    between atoms: N_17  and  C_18 
ROOT
ATOM      1  C   UNL d   1       8.511   3.550 -14.041  0.00  0.00     0.002 A 
ATOM      2  C   UNL d   1       7.211   2.996 -14.156  0.00  0.00     0.000 A 
ATOM      3  C   UNL d   1       6.170   3.384 -13.292  0.00  0.00     0.002 A 
ATOM      4  C   UNL d   1       6.403   4.339 -12.292  0.00  0.00     0.025 A 
ATOM      5  C   UNL d   1       7.686   4.892 -12.143  0.00  0.00     0.105 A 
ATOM      6  C   UNL d   1       8.722   4.506 -13.023  0.00  0.00     0.025 A 
ENDROOT
BRANCH   5   7
ATOM      7  O   UNL d   1       7.908   5.821 -11.161  0.00  0.00    -0.258 OA
BRANCH   7   8
ATOM      8  C   UNL d   1       8.854   5.615 -10.226  0.00  0.00     0.388 C 
ATOM      9  O   UNL d   1       9.462   4.548 -10.063  0.00  0.00    -0.236 OA
ATOM     10  N   UNL d   1       9.061   6.785  -9.527  0.00  0.00    -0.214 NA
BRANCH  10  11
ATOM     11  C   UNL d   1      10.137   6.995  -8.569  0.00  0.00     0.109 C 
ATOM     12  C   UNL d   1      11.104   8.065  -9.111  0.00  0.00     0.025 C 
ATOM     13  C   UNL d   1      12.222   8.369  -8.103  0.00  0.00     0.002 C 
ATOM     14  C   UNL d   1      11.642   8.777  -6.738  0.00  0.00     0.000 C 
ATOM     15  C   UNL d   1      10.681   7.702  -6.201  0.00  0.00     0.002 C 
ATOM     16  C   UNL d   1       9.558   7.407  -7.207  0.00  0.00     0.025 C 
ENDBRANCH  10  11
ENDBRANCH   7   8
ENDBRANCH   5   7
BRANCH   1  17
ATOM     17  C   UNL d   1       9.610   3.157 -14.958  0.00  0.00     0.000 A 
ATOM     18  C   UNL d   1      10.682   4.041 -15.236  0.00  0.00     0.000 A 
ATOM     19  C   UNL d   1      11.732   3.671 -16.094  0.00  0.00     0.000 A 
ATOM     20  C   UNL d   1      11.727   2.411 -16.708  0.00  0.00     0.005 A 
ATOM     21  C   UNL d   1      10.665   1.513 -16.468  0.00  0.00     0.059 A 
ATOM     22  C   UNL d   1       9.629   1.886 -15.583  0.00  0.00     0.005 A 
BRANCH  21  23
ATOM     23  C   UNL d   1      10.659   0.149 -17.092  0.00  0.00     0.297 C 
ATOM     24  N   UNL d   1      11.225   0.054 -18.296  0.00  0.00    -0.102 N 
ATOM     25  O   UNL d   1      10.123  -0.809 -16.546  0.00  0.00    -0.264 OA
ENDBRANCH  21  23
ENDBRANCH   1  17
TORSDOF 5
