REMARK  7 active torsions:
REMARK  status: ('A' for Active; 'I' for Inactive)
REMARK    1  A    between atoms: C_2  and  O_5 
REMARK    2  A    between atoms: O_5  and  C_6 
REMARK       I    between atoms: C_6  and  N_8 
REMARK    3  A    between atoms: N_8  and  C_9 
REMARK    4  A    between atoms: C_9  and  C_10 
REMARK    5  A    between atoms: C_10  and  C_11 
REMARK    6  A    between atoms: C_11  and  N_12 
REMARK    7  A    between atoms: C_15  and  C_17 
ROOT
ATOM      1  N   UNL d   1       9.490   6.053 -10.069  0.00  0.00     0.137 N 
ATOM      2  C   UNL d   1       8.573   5.816  -8.955  0.00  0.00     0.253 C 
ATOM      3  C   UNL d   1       9.267   6.159  -7.627  0.00  0.00     0.070 C 
ATOM      4  C   UNL d   1       9.803   7.600  -7.529  0.00  0.00     0.149 C 
ATOM      5  O   UNL d   1       8.662   8.469  -7.555  0.00  0.00    -0.221 OA
ATOM      6  C   UNL d   1      10.649   7.875  -8.788  0.00  0.00     0.070 C 
ATOM      7  C   UNL d   1       9.933   7.451 -10.090  0.00  0.00     0.253 C 
ENDROOT
BRANCH   1   8
ATOM      8  C   UNL d   1       8.793   5.725 -11.322  0.00  0.00     0.252 C 
BRANCH   8   9
ATOM      9  C   UNL d   1       9.753   4.956 -12.226  0.00  0.00     0.062 C 
BRANCH   9  10
ATOM     10  C   UNL d   1       9.161   4.631 -13.592  0.00  0.00     0.133 C 
BRANCH  10  11
ATOM     11  N   UNL d   1      10.043   3.755 -14.361  0.00  0.00    -0.212 NA
ATOM     12  C   UNL d   1       9.595   2.633 -15.029  0.00  0.00     0.383 C 
ATOM     13  O   UNL d   1       8.454   2.176 -14.984  0.00  0.00    -0.236 OA
BRANCH  12  14
ATOM     14  O   UNL d   1      10.607   2.158 -15.796  0.00  0.00    -0.289 OA
BRANCH  14  15
ATOM     15  C   UNL d   1      10.466   1.091 -16.745  0.00  0.00     0.103 C 
ATOM     16  C   UNL d   1       9.350   1.353 -17.786  0.00  0.00     0.030 C 
ATOM     17  C   UNL d   1      10.252  -0.244 -16.008  0.00  0.00     0.030 C 
ATOM     18  C   UNL d   1      11.812   1.065 -17.492  0.00  0.00     0.030 C 
ENDBRANCH  14  15
ENDBRANCH  12  14
ENDBRANCH  10  11
ENDBRANCH   9  10
ENDBRANCH   8   9
ENDBRANCH   1   8
BRANCH   4  19
ATOM     19  C   UNL d   1      10.644   7.846  -6.251  0.00  0.00     0.005 A 
ATOM     20  C   UNL d   1      10.933   9.156  -5.832  0.00  0.00    -0.001 A 
ATOM     21  C   UNL d   1      11.649   9.389  -4.637  0.00  0.00     0.011 A 
ATOM     22  C   UNL d   1      12.070   8.314  -3.830  0.00  0.00     0.058 A 
ATOM     23  C   UNL d   1      11.854   6.999  -4.279  0.00  0.00     0.011 A 
ATOM     24 CL   UNL d   1      12.732   8.600  -2.263  0.00  0.00    -0.082 Cl
ATOM     25  C   UNL d   1      11.140   6.786  -5.469  0.00  0.00    -0.001 A 
ENDBRANCH   4  19
TORSDOF 7
