REMARK  2 active torsions:
REMARK  status: ('A' for Active; 'I' for Inactive)
REMARK    1  A    between atoms: N_5  and  C_6 
REMARK    2  A    between atoms: C_18  and  C_19 
ROOT
ATOM      1  C   UNL d   1       7.555   0.454 -16.502  0.00  0.00     0.246 C 
ATOM      2  C   UNL d   1       6.571  -0.448 -17.305  0.00  0.00     0.065 C 
ATOM      3  C   UNL d   1       6.533  -0.226 -18.790  0.00  0.00    -0.014 A 
ATOM      4  C   UNL d   1       5.435   0.425 -19.384  0.00  0.00    -0.004 A 
ATOM      5  C   UNL d   1       5.392   0.584 -20.780  0.00  0.00    -0.000 A 
ATOM      6  C   UNL d   1       6.450   0.093 -21.576  0.00  0.00     0.001 A 
ATOM      7  C   UNL d   1       7.547  -0.565 -20.977  0.00  0.00     0.006 A 
ATOM      8  C   UNL d   1       7.578  -0.727 -19.582  0.00  0.00     0.025 A 
ATOM      9  S   UNL d   1       8.936  -1.516 -18.794  0.00  0.00    -0.087 SA
ATOM     10  C   UNL d   1       9.656  -0.081 -18.061  0.00  0.00     0.027 A 
ATOM     11  C   UNL d   1      10.968   0.251 -18.480  0.00  0.00     0.006 A 
ATOM     12  C   UNL d   1      11.609   1.389 -17.956  0.00  0.00     0.004 A 
ATOM     13  C   UNL d   1      10.948   2.226 -17.043  0.00  0.00     0.037 A 
ATOM     14  C   UNL d   1       9.611   1.920 -16.690  0.00  0.00     0.001 A 
ATOM     15  C   UNL d   1       8.967   0.734 -17.124  0.00  0.00     0.015 A 
ENDROOT
BRANCH   1  16
ATOM     16  N   UNL d   1       7.664   0.008 -15.092  0.00  0.00     0.144 N 
ATOM     17  C   UNL d   1       6.394  -0.390 -14.443  0.00  0.00     0.286 C 
ATOM     18  C   UNL d   1       5.465   0.824 -14.250  0.00  0.00     0.286 C 
ATOM     19  N   UNL d   1       6.119   1.864 -13.453  0.00  0.00     0.143 N 
ATOM     20  C   UNL d   1       5.295   3.041 -13.228  0.00  0.00     0.285 C 
ATOM     21  C   UNL d   1       7.430   2.212 -14.016  0.00  0.00     0.286 C 
ATOM     22  C   UNL d   1       8.333   0.960 -14.214  0.00  0.00     0.286 C 
ENDBRANCH   1  16
BRANCH  13  23
ATOM     23  C   UNL d   1      11.621   3.394 -16.450  0.00  0.00     0.184 A 
ATOM     24  N   UNL d   1      11.474   3.897 -15.207  0.00  0.00    -0.211 N 
ATOM     25  N   UNL d   1      12.271   4.986 -15.091  0.00  0.00    -0.043 NA
ATOM     26  C   UNL d   1      10.668   3.506 -14.064  0.00  0.00     0.158 C 
ATOM     27  N   UNL d   1      12.900   5.112 -16.217  0.00  0.00    -0.023 NA
ATOM     28  N   UNL d   1      12.540   4.116 -17.102  0.00  0.00    -0.108 NA
ENDBRANCH  13  23
TORSDOF 2
