REMARK  10 active torsions:
REMARK  status: ('A' for Active; 'I' for Inactive)
REMARK    1  A    between atoms: C_2  and  C_4 
REMARK    2  A    between atoms: C_9  and  N_10 
REMARK    3  A    between atoms: N_13  and  C_14 
REMARK    4  A    between atoms: C_14  and  C_15 
REMARK    5  A    between atoms: C_15  and  C_16 
REMARK    6  A    between atoms: C_16  and  C_17 
REMARK    7  A    between atoms: C_17  and  C_18 
REMARK    8  A    between atoms: C_18  and  C_19 
REMARK       I    between atoms: C_19  and  N_21 
REMARK    9  A    between atoms: N_21  and  C_22 
REMARK   10  A    between atoms: C_22  and  C_23 
ROOT
ATOM      1  N   UNL d   1       7.437   2.655 -14.065  0.00  0.00    -0.344 N 
ATOM      2  C   UNL d   1       6.819   3.948 -13.863  0.00  0.00     0.137 C 
ATOM      3  C   UNL d   1       7.447   4.677 -12.681  0.00  0.00     0.274 C 
ATOM      4  N   UNL d   1       8.903   4.773 -12.866  0.00  0.00     0.141 N 
ATOM      5  C   UNL d   1       9.482   3.417 -12.925  0.00  0.00     0.274 C 
ATOM      6  C   UNL d   1       8.900   2.634 -14.093  0.00  0.00     0.137 C 
ENDROOT
BRANCH   4   7
ATOM      7  C   UNL d   1       9.472   5.480 -11.733  0.00  0.00     0.250 C 
BRANCH   7   8
ATOM      8  C   UNL d   1       9.265   7.003 -11.796  0.00  0.00     0.035 C 
BRANCH   8   9
ATOM      9  C   UNL d   1       9.701   7.747 -10.519  0.00  0.00     0.003 C 
BRANCH   9  10
ATOM     10  C   UNL d   1      11.229   7.813 -10.315  0.00  0.00     0.010 C 
BRANCH  10  11
ATOM     11  C   UNL d   1      11.702   8.471  -9.035  0.00  0.00     0.090 C 
BRANCH  11  12
ATOM     12  C   UNL d   1      11.198   7.807  -7.770  0.00  0.00     0.252 C 
ATOM     13  O   UNL d   1      11.109   6.581  -7.660  0.00  0.00    -0.271 OA
ATOM     14  N   UNL d   1      10.798   8.679  -6.844  0.00  0.00    -0.233 NA
BRANCH  14  15
ATOM     15  C   UNL d   1      10.097   8.323  -5.648  0.00  0.00     0.155 C 
BRANCH  15  16
ATOM     16  C   UNL d   1      11.068   8.236  -4.519  0.00  0.00     0.002 A 
ATOM     17  C   UNL d   1      11.440   9.452  -3.919  0.00  0.00    -0.002 A 
ATOM     18  C   UNL d   1      12.248   9.436  -2.789  0.00  0.00    -0.000 A 
ATOM     19  C   UNL d   1      12.645   8.242  -2.218  0.00  0.00    -0.000 A 
ATOM     20  C   UNL d   1      12.297   7.020  -2.773  0.00  0.00    -0.000 A 
ATOM     21  C   UNL d   1      11.473   6.995  -3.938  0.00  0.00    -0.002 A 
ENDBRANCH  15  16
ENDBRANCH  14  15
ENDBRANCH  11  12
ENDBRANCH  10  11
ENDBRANCH   9  10
ENDBRANCH   8   9
ENDBRANCH   7   8
ENDBRANCH   4   7
BRANCH   1  22
ATOM     22  C   UNL d   1       6.642   1.511 -14.204  0.00  0.00     0.052 A 
ATOM     23  C   UNL d   1       6.783   0.592 -15.288  0.00  0.00    -0.007 A 
ATOM     24  C   UNL d   1       5.931  -0.539 -15.332  0.00  0.00    -0.003 A 
ATOM     25  C   UNL d   1       4.982  -0.773 -14.329  0.00  0.00    -0.000 A 
ATOM     26  C   UNL d   1       4.878   0.120 -13.263  0.00  0.00     0.002 A 
ATOM     27  C   UNL d   1       5.665   1.264 -13.211  0.00  0.00     0.017 A 
BRANCH  23  28
ATOM     28  C   UNL d   1       7.803   0.834 -16.407  0.00  0.00     0.024 C 
ATOM     29  C   UNL d   1       7.082   1.241 -17.695  0.00  0.00     0.005 C 
ATOM     30  C   UNL d   1       8.689  -0.380 -16.629  0.00  0.00     0.005 C 
ENDBRANCH  23  28
ENDBRANCH   1  22
TORSDOF 10
