REMARK  7 active torsions:
REMARK  status: ('A' for Active; 'I' for Inactive)
REMARK    1  A    between atoms: C_2  and  C_3 
REMARK       I    between atoms: C_2  and  N_10 
REMARK    2  A    between atoms: C_3  and  C_4 
REMARK    3  A    between atoms: N_10  and  C_11 
REMARK    4  A    between atoms: C_14  and  C_15 
REMARK    5  A    between atoms: C_15  and  C_16 
REMARK    6  A    between atoms: C_16  and  N_17 
REMARK    7  A    between atoms: C_20  and  C_21 
ROOT
ATOM      1  C   UNL d   1       8.402   4.883 -12.732  0.00  0.00     0.035 C 
ENDROOT
BRANCH   1   2
ATOM      2  C   UNL d   1       8.513   5.694 -11.429  0.00  0.00     0.002 C 
ATOM      3  C   UNL d   1       8.556   4.783 -10.188  0.00  0.00     0.002 C 
ATOM      4  C   UNL d   1       8.696   5.579  -8.889  0.00  0.00     0.024 C 
ATOM      5  C   UNL d   1       9.905   6.510  -8.915  0.00  0.00     0.106 C 
ATOM      6  C   UNL d   1       9.877   7.434 -10.150  0.00  0.00     0.024 C 
ATOM      7  C   UNL d   1       9.736   6.627 -11.430  0.00  0.00     0.002 C 
BRANCH   5   8
ATOM      8  N   UNL d   1       9.936   7.292  -7.686  0.00  0.00    -0.240 NA
ATOM      9  C   UNL d   1      11.028   7.893  -7.207  0.00  0.00     0.251 C 
ATOM     10  O   UNL d   1      12.105   7.884  -7.796  0.00  0.00    -0.271 OA
BRANCH   9  11
ATOM     11  C   UNL d   1      10.874   8.588  -5.856  0.00  0.00     0.092 C 
BRANCH  11  12
ATOM     12  C   UNL d   1      12.186   8.650  -5.058  0.00  0.00     0.039 C 
ATOM     13  C   UNL d   1      12.537   7.284  -4.407  0.00  0.00     0.143 C 
ATOM     14  O   UNL d   1      11.640   6.943  -3.366  0.00  0.00    -0.354 OA
ATOM     15  C   UNL d   1      11.718   7.870  -2.302  0.00  0.00     0.142 C 
ATOM     16  C   UNL d   1      11.353   9.263  -2.819  0.00  0.00     0.032 C 
ATOM     17  C   UNL d   1      12.180   9.694  -3.979  0.00  0.00     0.006 C 
ENDBRANCH  11  12
ENDBRANCH   9  11
ENDBRANCH   5   8
ENDBRANCH   1   2
BRANCH   1  18
ATOM     18  C   UNL d   1       9.640   4.021 -13.046  0.00  0.00     0.250 C 
BRANCH  18  19
ATOM     19  N   UNL d   1       9.530   3.368 -14.344  0.00  0.00     0.137 N 
ATOM     20  C   UNL d   1      10.859   2.938 -14.777  0.00  0.00     0.251 C 
ATOM     21  C   UNL d   1      10.778   2.288 -16.171  0.00  0.00     0.040 C 
ATOM     22  C   UNL d   1       9.813   1.084 -16.184  0.00  0.00     0.028 C 
ATOM     23  C   UNL d   1       8.479   1.531 -15.555  0.00  0.00     0.040 C 
ATOM     24  C   UNL d   1       8.667   2.205 -14.196  0.00  0.00     0.251 C 
BRANCH  22  25
ATOM     25  C   UNL d   1       9.630   0.509 -17.598  0.00  0.00     0.002 A 
ATOM     26  C   UNL d   1      10.736   0.094 -18.369  0.00  0.00     0.115 A 
ATOM     27  C   UNL d   1      10.595  -0.379 -19.652  0.00  0.00     0.119 A 
ATOM     28  O   UNL d   1      12.056   0.097 -18.034  0.00  0.00    -0.300 OA
ATOM     29  C   UNL d   1       9.333  -0.495 -20.267  0.00  0.00     0.026 A 
ATOM     30  O   UNL d   1      11.815  -0.672 -20.161  0.00  0.00    -0.300 OA
ATOM     31  C   UNL d   1       8.209  -0.103 -19.518  0.00  0.00     0.002 A 
ATOM     32  C   UNL d   1       8.344   0.387 -18.207  0.00  0.00    -0.002 A 
ATOM     33  C   UNL d   1      12.745  -0.376 -19.155  0.00  0.00     0.304 A 
ENDBRANCH  22  25
ENDBRANCH  18  19
ENDBRANCH   1  18
TORSDOF 7
