REMARK  7 active torsions:
REMARK  status: ('A' for Active; 'I' for Inactive)
REMARK    1  A    between atoms: C_2  and  C_3 
REMARK       I    between atoms: C_2  and  N_8 
REMARK    2  A    between atoms: C_3  and  C_4 
REMARK    3  A    between atoms: N_8  and  C_9 
REMARK    4  A    between atoms: C_12  and  C_13 
REMARK    5  A    between atoms: C_13  and  C_14 
REMARK    6  A    between atoms: C_14  and  N_15 
REMARK    7  A    between atoms: N_18  and  C_19 
ROOT
ATOM      1  C   UNL d   1       9.188   3.496 -13.518  0.00  0.00     0.250 C 
ENDROOT
BRANCH   1   2
ATOM      2  C   UNL d   1       7.683   3.195 -13.660  0.00  0.00     0.035 C 
BRANCH   2   3
ATOM      3  C   UNL d   1       7.343   1.762 -14.173  0.00  0.00     0.002 C 
ATOM      4  C   UNL d   1       5.935   1.329 -13.702  0.00  0.00     0.002 C 
ATOM      5  C   UNL d   1       5.514  -0.040 -14.273  0.00  0.00     0.024 C 
ATOM      6  C   UNL d   1       5.616  -0.065 -15.805  0.00  0.00     0.106 C 
ATOM      7  C   UNL d   1       7.032   0.307 -16.254  0.00  0.00     0.024 C 
ATOM      8  C   UNL d   1       7.419   1.671 -15.721  0.00  0.00     0.002 C 
BRANCH   6   9
ATOM      9  N   UNL d   1       5.274  -1.383 -16.290  0.00  0.00    -0.240 NA
ATOM     10  C   UNL d   1       4.921  -1.660 -17.552  0.00  0.00     0.252 C 
ATOM     11  O   UNL d   1       4.760  -0.802 -18.417  0.00  0.00    -0.271 OA
BRANCH  10  12
ATOM     12  C   UNL d   1       4.777  -3.142 -17.864  0.00  0.00     0.095 C 
BRANCH  12  13
ATOM     13  C   UNL d   1       3.618  -3.422 -18.808  0.00  0.00     0.069 C 
ATOM     14  C   UNL d   1       3.816  -3.362 -20.320  0.00  0.00     0.145 C 
ATOM     15  O   UNL d   1       3.045  -4.553 -20.505  0.00  0.00    -0.354 OA
ATOM     16  C   UNL d   1       3.219  -4.857 -19.116  0.00  0.00     0.145 C 
ENDBRANCH  12  13
ENDBRANCH  10  12
ENDBRANCH   6   9
ENDBRANCH   2   3
ENDBRANCH   1   2
BRANCH   1  17
ATOM     17  N   UNL d   1       9.861   3.418 -14.812  0.00  0.00     0.141 N 
ATOM     18  C   UNL d   1      11.219   2.864 -14.723  0.00  0.00     0.274 C 
ATOM     19  C   UNL d   1      11.851   2.707 -16.130  0.00  0.00     0.138 C 
ATOM     20  N   UNL d   1      11.770   3.971 -16.840  0.00  0.00    -0.330 N 
ATOM     21  C   UNL d   1      10.443   4.566 -16.913  0.00  0.00     0.138 C 
ATOM     22  C   UNL d   1       9.864   4.716 -15.487  0.00  0.00     0.274 C 
BRANCH  20  23
ATOM     23  C   UNL d   1      12.919   4.595 -17.355  0.00  0.00     0.138 A 
ATOM     24  C   UNL d   1      13.203   5.973 -17.191  0.00  0.00     0.036 A 
ATOM     25  C   UNL d   1      14.320   6.539 -17.747  0.00  0.00     0.095 A 
ATOM     26  C   UNL d   1      12.440   7.021 -16.457  0.00  0.00     0.064 C 
ATOM     27  C   UNL d   1      15.218   5.751 -18.486  0.00  0.00     0.045 A 
ATOM     28  O   UNL d   1      14.434   7.882 -17.489  0.00  0.00    -0.331 OA
ATOM     29  C   UNL d   1      14.883   4.379 -18.598  0.00  0.00     0.103 A 
ATOM     30  N   UNL d   1      13.789   3.815 -18.049  0.00  0.00    -0.228 NA
ATOM     31  C   UNL d   1      13.380   8.232 -16.576  0.00  0.00     0.154 C 
ENDBRANCH  20  23
ENDBRANCH   1  17
TORSDOF 7
