REMARK  8 active torsions:
REMARK  status: ('A' for Active; 'I' for Inactive)
REMARK    1  A    between atoms: O_2  and  C_3 
REMARK    2  A    between atoms: C_8  and  N_9 
REMARK    3  A    between atoms: N_15  and  C_16 
REMARK    4  A    between atoms: C_16  and  C_17 
REMARK    5  A    between atoms: C_17  and  C_18 
REMARK    6  A    between atoms: C_18  and  S_19 
REMARK    7  A    between atoms: S_19  and  C_20 
REMARK    8  A    between atoms: C_23  and  C_24 
ROOT
ATOM      1  N   UNL d   1      10.357   0.832 -17.775  0.00  0.00    -0.347 N 
ATOM      2  C   UNL d   1       9.227   1.555 -17.191  0.00  0.00     0.102 C 
ATOM      3  C   UNL d   1       9.683   2.950 -16.747  0.00  0.00     0.024 C 
ATOM      4  C   UNL d   1      10.932   2.896 -15.812  0.00  0.00     0.008 C 
ATOM      5  C   UNL d   1      11.410   4.317 -15.457  0.00  0.00     0.035 C 
ATOM      6  C   UNL d   1      10.394   5.045 -14.574  0.00  0.00     0.250 C 
ATOM      7  N   UNL d   1      10.163   4.322 -13.318  0.00  0.00     0.137 N 
ATOM      8  C   UNL d   1       9.641   2.986 -13.613  0.00  0.00     0.250 C 
ATOM      9  C   UNL d   1      10.635   2.181 -14.461  0.00  0.00     0.035 C 
ATOM     10  C   UNL d   1      12.052   2.153 -16.578  0.00  0.00     0.024 C 
ATOM     11  C   UNL d   1      11.594   0.750 -16.998  0.00  0.00     0.102 C 
ENDROOT
BRANCH   7  12
ATOM     12  C   UNL d   1       9.180   4.991 -12.474  0.00  0.00     0.251 C 
BRANCH  12  13
ATOM     13  C   UNL d   1       9.774   6.266 -11.895  0.00  0.00     0.047 C 
BRANCH  13  14
ATOM     14  C   UNL d   1       8.873   7.026 -10.985  0.00  0.00     0.067 C 
BRANCH  14  15
ATOM     15  S   UNL d   1       9.515   8.703 -10.730  0.00  0.00    -0.075 SA
BRANCH  15  16
ATOM     16  C   UNL d   1      10.636   8.390  -9.373  0.00  0.00     0.193 A 
ATOM     17  N   UNL d   1      10.242   8.371  -8.083  0.00  0.00    -0.289 N 
ATOM     18  C   UNL d   1      11.390   8.182  -7.437  0.00  0.00     0.169 A 
ATOM     19  C   UNL d   1       8.946   8.515  -7.477  0.00  0.00     0.134 C 
ATOM     20  N   UNL d   1      12.434   8.032  -8.266  0.00  0.00    -0.128 NA
ATOM     21  N   UNL d   1      11.942   8.178  -9.535  0.00  0.00    -0.122 NA
BRANCH  18  22
ATOM     22  C   UNL d   1      11.462   8.132  -5.987  0.00  0.00     0.063 A 
ATOM     23  C   UNL d   1      11.725   6.914  -5.354  0.00  0.00     0.143 A 
ATOM     24  C   UNL d   1      11.908   6.846  -3.957  0.00  0.00     0.030 A 
ATOM     25  F   UNL d   1      12.011   5.866  -6.152  0.00  0.00    -0.204 F 
ATOM     26  C   UNL d   1      11.840   8.033  -3.197  0.00  0.00     0.002 A 
ATOM     27  C   UNL d   1      11.554   9.257  -3.833  0.00  0.00     0.000 A 
ATOM     28  C   UNL d   1      11.357   9.310  -5.228  0.00  0.00     0.005 A 
ENDBRANCH  18  22
ENDBRANCH  15  16
ENDBRANCH  14  15
ENDBRANCH  13  14
ENDBRANCH  12  13
ENDBRANCH   7  12
BRANCH   1  29
ATOM     29  C   UNL d   1      10.289   0.359 -19.076  0.00  0.00     0.079 A 
ATOM     30  C   UNL d   1      11.346   0.561 -20.025  0.00  0.00     0.110 A 
ATOM     31  C   UNL d   1      11.241  -0.018 -21.308  0.00  0.00     0.026 A 
ATOM     32  C   UNL d   1      10.110  -0.761 -21.677  0.00  0.00     0.002 A 
ATOM     33  C   UNL d   1       9.056  -0.939 -20.760  0.00  0.00     0.002 A 
ATOM     34  C   UNL d   1       9.147  -0.381 -19.477  0.00  0.00     0.019 A 
BRANCH  30  35
ATOM     35  O   UNL d   1      12.407   1.352 -19.642  0.00  0.00    -0.327 OA
ATOM     36  C   UNL d   1      13.518   1.497 -20.506  0.00  0.00     0.181 C 
ENDBRANCH  30  35
ENDBRANCH   1  29
TORSDOF 8
