REMARK  9 active torsions:
REMARK  status: ('A' for Active; 'I' for Inactive)
REMARK    1  A    between atoms: C_2  and  C_3 
REMARK       I    between atoms: C_2  and  N_17 
REMARK    2  A    between atoms: C_3  and  N_4 
REMARK       I    between atoms: N_4  and  C_5 
REMARK    3  A    between atoms: C_5  and  C_7 
REMARK    4  A    between atoms: C_11  and  C_12 
REMARK    5  A    between atoms: N_17  and  C_18 
REMARK    6  A    between atoms: N_21  and  C_22 
REMARK    7  A    between atoms: C_22  and  C_23 
REMARK    8  A    between atoms: C_23  and  N_24 
REMARK       I    between atoms: N_27  and  C_28 
REMARK    9  A    between atoms: C_28  and  C_30 
ROOT
ATOM      1  C   UNL d   1       9.565   4.671 -12.324  0.00  0.00     0.142 C 
ATOM      2  C   UNL d   1       9.288   5.745 -13.374  0.00  0.00     0.062 C 
ATOM      3  C   UNL d   1       8.699   4.945 -14.536  0.00  0.00     0.253 C 
ATOM      4  N   UNL d   1       9.203   3.591 -14.380  0.00  0.00     0.141 N 
ATOM      5  C   UNL d   1       9.079   3.388 -12.959  0.00  0.00     0.275 C 
ENDROOT
BRANCH   1   6
ATOM      6  N   UNL d   1       8.924   4.935 -11.047  0.00  0.00    -0.236 NA
ATOM      7  C   UNL d   1       9.321   5.890 -10.200  0.00  0.00     0.276 C 
ATOM      8  O   UNL d   1      10.242   6.666 -10.447  0.00  0.00    -0.268 OA
BRANCH   7   9
ATOM      9  C   UNL d   1       8.529   5.981  -8.896  0.00  0.00     0.218 C 
BRANCH   9  10
ATOM     10  N   UNL d   1       9.084   6.889  -7.891  0.00  0.00    -0.224 NA
ATOM     11  C   UNL d   1      10.291   6.730  -7.326  0.00  0.00     0.275 C 
ATOM     12  O   UNL d   1      11.044   5.829  -7.618  0.00  0.00    -0.266 OA
BRANCH  11  13
ATOM     13  C   UNL d   1      10.682   7.714  -6.276  0.00  0.00     0.058 A 
ATOM     14  C   UNL d   1      11.205   7.279  -5.037  0.00  0.00     0.009 A 
ATOM     15  C   UNL d   1      11.594   8.216  -4.056  0.00  0.00     0.072 A 
ATOM     16  C   UNL d   1      11.476   9.591  -4.346  0.00  0.00     0.004 A 
ATOM     17  C   UNL d   1      11.003  10.029  -5.600  0.00  0.00     0.000 A 
ATOM     18  C   UNL d   1      10.605   9.089  -6.567  0.00  0.00     0.005 A 
BRANCH  15  19
ATOM     19  C   UNL d   1      12.084   7.729  -2.696  0.00  0.00     0.419 C 
ATOM     20  F   UNL d   1      11.078   7.158  -2.037  0.00  0.00    -0.166 F 
ATOM     21  F   UNL d   1      13.063   6.841  -2.833  0.00  0.00    -0.166 F 
ATOM     22  F   UNL d   1      12.544   8.742  -1.962  0.00  0.00    -0.166 F 
ENDBRANCH  15  19
ENDBRANCH  11  13
ENDBRANCH   9  10
ENDBRANCH   7   9
ENDBRANCH   1   6
BRANCH   4  23
ATOM     23  C   UNL d   1       8.461   2.592 -15.123  0.00  0.00     0.285 C 
BRANCH  23  24
ATOM     24  C   UNL d   1       8.795   2.551 -16.618  0.00  0.00     0.286 C 
BRANCH  24  25
ATOM     25  N   UNL d   1       8.028   1.599 -17.413  0.00  0.00     0.143 N 
ATOM     26  C   UNL d   1       8.475   0.225 -17.254  0.00  0.00     0.274 C 
ATOM     27  C   UNL d   1       7.759  -0.704 -18.240  0.00  0.00     0.140 C 
ATOM     28  N   UNL d   1       6.288  -0.602 -18.095  0.00  0.00    -0.312 N 
ATOM     29  C   UNL d   1       5.806   0.787 -18.166  0.00  0.00     0.140 C 
ATOM     30  C   UNL d   1       5.432  -1.647 -17.941  0.00  0.00     0.259 C 
ATOM     31  C   UNL d   1       6.591   1.671 -17.186  0.00  0.00     0.274 C 
ATOM     32  O   UNL d   1       4.240  -1.486 -17.667  0.00  0.00    -0.267 OA
BRANCH  30  33
ATOM     33  C   UNL d   1       5.957  -3.055 -18.076  0.00  0.00     0.083 A 
ATOM     34  C   UNL d   1       6.732  -3.469 -19.186  0.00  0.00     0.145 A 
ATOM     35  C   UNL d   1       7.247  -4.780 -19.247  0.00  0.00     0.030 A 
ATOM     36  F   UNL d   1       7.010  -2.619 -20.204  0.00  0.00    -0.204 F 
ATOM     37  C   UNL d   1       6.931  -5.715 -18.240  0.00  0.00     0.002 A 
ATOM     38  C   UNL d   1       6.105  -5.336 -17.171  0.00  0.00     0.000 A 
ATOM     39  C   UNL d   1       5.612  -4.016 -17.094  0.00  0.00     0.007 A 
ENDBRANCH  30  33
ENDBRANCH  24  25
ENDBRANCH  23  24
ENDBRANCH   4  23
TORSDOF 9
