REMARK  6 active torsions:
REMARK  status: ('A' for Active; 'I' for Inactive)
REMARK       I    between atoms: C_2  and  N_3 
REMARK    1  A    between atoms: C_2  and  C_30 
REMARK    2  A    between atoms: N_3  and  C_4 
REMARK    3  A    between atoms: C_9  and  C_10 
REMARK    4  A    between atoms: C_10  and  C_11 
REMARK    5  A    between atoms: C_11  and  N_12 
REMARK    6  A    between atoms: N_15  and  C_16 
ROOT
ATOM      1  C   UNL d   1       6.977   2.904 -14.178  0.00  0.00     0.062 C 
ENDROOT
BRANCH   1   2
ATOM      2  C   UNL d   1       7.185   1.829 -15.228  0.00  0.00    -0.021 A 
ATOM      3  C   UNL d   1       8.066   2.053 -16.316  0.00  0.00    -0.009 A 
ATOM      4  C   UNL d   1       8.224   1.046 -17.277  0.00  0.00    -0.025 A 
ATOM      5  C   UNL d   1       9.098   1.084 -18.501  0.00  0.00     0.028 C 
ATOM      6  C   UNL d   1       7.529  -0.146 -17.181  0.00  0.00    -0.004 A 
ATOM      7  C   UNL d   1       9.021  -0.357 -19.057  0.00  0.00     0.034 C 
ATOM      8  C   UNL d   1       7.861  -1.074 -18.316  0.00  0.00     0.129 C 
ATOM      9  C   UNL d   1       6.643  -0.386 -16.116  0.00  0.00    -0.003 A 
ATOM     10  C   UNL d   1       6.481   0.606 -15.129  0.00  0.00    -0.004 A 
BRANCH   8  11
ATOM     11  N   UNL d   1       6.704  -1.249 -19.174  0.00  0.00    -0.228 NA
ATOM     12  C   UNL d   1       6.513  -2.269 -20.019  0.00  0.00     0.347 C 
ATOM     13  O   UNL d   1       7.321  -3.190 -20.157  0.00  0.00    -0.261 OA
BRANCH  12  14
ATOM     14  C   UNL d   1       5.233  -2.213 -20.857  0.00  0.00     0.474 C 
ATOM     15  F   UNL d   1       4.251  -1.676 -20.132  0.00  0.00    -0.162 F 
ATOM     16  F   UNL d   1       5.460  -1.450 -21.923  0.00  0.00    -0.162 F 
ATOM     17  F   UNL d   1       4.882  -3.438 -21.250  0.00  0.00    -0.162 F 
ENDBRANCH  12  14
ENDBRANCH   8  11
ENDBRANCH   1   2
BRANCH   1  18
ATOM     18  C   UNL d   1       8.316   3.438 -13.629  0.00  0.00     0.255 C 
BRANCH  18  19
ATOM     19  N   UNL d   1       8.045   4.660 -12.888  0.00  0.00     0.141 N 
ATOM     20  C   UNL d   1       8.953   5.721 -13.321  0.00  0.00     0.274 C 
ATOM     21  C   UNL d   1       8.745   7.005 -12.495  0.00  0.00     0.138 C 
ATOM     22  N   UNL d   1       9.000   6.666 -11.090  0.00  0.00    -0.329 N 
ATOM     23  C   UNL d   1       8.113   5.612 -10.615  0.00  0.00     0.138 C 
ATOM     24  C   UNL d   1       8.312   4.392 -11.481  0.00  0.00     0.274 C 
BRANCH  22  25
ATOM     25  C   UNL d   1       9.753   7.478 -10.225  0.00  0.00     0.148 C 
ATOM     26  C   UNL d   1       9.752   7.409  -8.758  0.00  0.00     0.042 A 
ATOM     27  C   UNL d   1      10.730   8.342  -8.254  0.00  0.00     0.050 A 
ATOM     28  C   UNL d   1       9.040   6.684  -7.773  0.00  0.00     0.004 A 
ATOM     29  S   UNL d   1      11.433   9.161  -9.612  0.00  0.00     0.015 SA
ATOM     30  C   UNL d   1      11.010   8.514  -6.883  0.00  0.00     0.008 A 
ATOM     31  N   UNL d   1      10.500   8.416 -10.766  0.00  0.00    -0.192 NA
ATOM     32  C   UNL d   1      10.323   7.730  -5.947  0.00  0.00     0.001 A 
ATOM     33  C   UNL d   1       9.347   6.822  -6.414  0.00  0.00     0.000 A 
ENDBRANCH  22  25
ENDBRANCH  18  19
ENDBRANCH   1  18
TORSDOF 6
