REMARK  6 active torsions:
REMARK  status: ('A' for Active; 'I' for Inactive)
REMARK    1  A    between atoms: O_2  and  C_3 
REMARK    2  A    between atoms: N_11  and  C_12 
REMARK    3  A    between atoms: C_12  and  C_13 
REMARK    4  A    between atoms: C_18  and  C_19 
REMARK    5  A    between atoms: C_19  and  N_20 
REMARK       I    between atoms: N_20  and  C_21 
REMARK    6  A    between atoms: C_21  and  C_23 
ROOT
ATOM      1  C   UNL d   1      11.212   3.576 -17.576  0.00  0.00     0.009 A 
ATOM      2  C   UNL d   1      12.212   3.831 -16.607  0.00  0.00    -0.003 A 
ATOM      3  C   UNL d   1      12.518   5.144 -16.205  0.00  0.00    -0.000 A 
ATOM      4  C   UNL d   1      11.804   6.220 -16.764  0.00  0.00    -0.000 A 
ATOM      5  C   UNL d   1      10.787   5.982 -17.710  0.00  0.00    -0.003 A 
ATOM      6  C   UNL d   1      10.490   4.665 -18.146  0.00  0.00     0.000 A 
ENDROOT
BRANCH   1   7
ATOM      7  C   UNL d   1      10.965   2.120 -17.979  0.00  0.00     0.277 C 
BRANCH   7   8
ATOM      8  N   UNL d   1       9.601   1.633 -17.746  0.00  0.00     0.146 N 
ATOM      9  C   UNL d   1       9.291   1.651 -16.315  0.00  0.00     0.277 C 
ATOM     10  C   UNL d   1       7.926   1.068 -15.990  0.00  0.00     0.009 A 
ATOM     11  C   UNL d   1       7.317   0.189 -16.898  0.00  0.00    -0.020 A 
ATOM     12  C   UNL d   1       7.290   1.361 -14.764  0.00  0.00     0.027 A 
ATOM     13  C   UNL d   1       6.074  -0.399 -16.594  0.00  0.00     0.022 A 
ATOM     14  C   UNL d   1       7.978  -0.128 -18.225  0.00  0.00     0.061 C 
ATOM     15  C   UNL d   1       5.428  -0.113 -15.356  0.00  0.00     0.119 A 
ATOM     16  C   UNL d   1       6.048   0.768 -14.451  0.00  0.00     0.153 A 
ATOM     17  O   UNL d   1       5.456   1.072 -13.253  0.00  0.00    -0.188 OA
ATOM     18  C   UNL d   1       9.463   0.269 -18.248  0.00  0.00     0.256 C 
BRANCH  15  19
ATOM     19  O   UNL d   1       4.214  -0.656 -15.010  0.00  0.00    -0.326 OA
ATOM     20  C   UNL d   1       3.608  -1.528 -15.950  0.00  0.00     0.181 C 
ENDBRANCH  15  19
ENDBRANCH   7   8
ENDBRANCH   1   7
BRANCH   6  21
ATOM     21  C   UNL d   1       9.426   4.420 -19.233  0.00  0.00     0.155 C 
BRANCH  21  22
ATOM     22  N   UNL d   1       8.727   5.614 -19.697  0.00  0.00    -0.229 NA
ATOM     23  C   UNL d   1       9.229   6.524 -20.534  0.00  0.00     0.275 C 
ATOM     24  O   UNL d   1      10.379   6.463 -20.972  0.00  0.00    -0.266 OA
BRANCH  23  25
ATOM     25  C   UNL d   1       8.312   7.655 -20.939  0.00  0.00     0.058 A 
ATOM     26  C   UNL d   1       7.040   7.823 -20.339  0.00  0.00     0.005 A 
ATOM     27  C   UNL d   1       6.179   8.845 -20.767  0.00  0.00     0.006 A 
ATOM     28  C   UNL d   1       6.580   9.720 -21.790  0.00  0.00     0.030 A 
ATOM     29  C   UNL d   1       7.860   9.590 -22.366  0.00  0.00     0.006 A 
ATOM     30  I   UNL d   1       5.259  11.197 -22.449  0.00  0.00    -0.043 I 
ATOM     31  C   UNL d   1       8.723   8.562 -21.936  0.00  0.00     0.005 A 
ENDBRANCH  23  25
ENDBRANCH  21  22
ENDBRANCH   6  21
TORSDOF 6
