REMARK  7 active torsions:
REMARK  status: ('A' for Active; 'I' for Inactive)
REMARK    1  A    between atoms: C_2  and  C_3 
REMARK    2  A    between atoms: C_3  and  N_4 
REMARK    3  A    between atoms: N_4  and  C_5 
REMARK    4  A    between atoms: N_4  and  C_21 
REMARK    5  A    between atoms: C_5  and  C_6 
REMARK    6  A    between atoms: C_6  and  N_7 
REMARK    7  A    between atoms: N_10  and  C_11 
ROOT
ATOM      1  C   UNL d   1       8.734   6.456 -11.214  0.00  0.00     0.285 C 
ENDROOT
BRANCH   1   2
ATOM      2  N   UNL d   1       7.622   6.104 -12.071  0.00  0.00     0.137 N 
BRANCH   2   3
ATOM      3  C   UNL d   1       7.393   7.209 -13.014  0.00  0.00     0.250 C 
BRANCH   3   4
ATOM      4  C   UNL d   1       5.885   7.582 -13.230  0.00  0.00     0.035 C 
ATOM      5  C   UNL d   1       5.265   8.252 -12.017  0.00  0.00     0.002 C 
ENDBRANCH   3   4
ENDBRANCH   2   3
BRANCH   2   6
ATOM      6  C   UNL d   1       7.807   4.773 -12.685  0.00  0.00     0.224 C 
ATOM      7  C   UNL d   1       6.493   4.064 -13.020  0.00  0.00     0.059 C 
ATOM      8  C   UNL d   1       6.701   2.695 -13.697  0.00  0.00    -0.022 A 
ATOM      9  C   UNL d   1       7.931   2.355 -14.326  0.00  0.00    -0.001 A 
ATOM     10  C   UNL d   1       5.664   1.756 -13.635  0.00  0.00    -0.004 A 
ATOM     11  C   UNL d   1       9.131   3.294 -14.287  0.00  0.00     0.030 C 
ATOM     12  C   UNL d   1       8.058   1.075 -14.918  0.00  0.00     0.127 A 
ATOM     13  C   UNL d   1       8.765   4.718 -13.912  0.00  0.00     0.038 C 
ATOM     14  O   UNL d   1       9.236   0.691 -15.481  0.00  0.00    -0.191 OA
ATOM     15  C   UNL d   1       6.998   0.159 -14.880  0.00  0.00     0.027 A 
ATOM     16  C   UNL d   1       5.802   0.499 -14.239  0.00  0.00     0.002 A 
ENDBRANCH   2   6
ENDBRANCH   1   2
BRANCH   1  17
ATOM     17  C   UNL d   1       8.645   5.917  -9.795  0.00  0.00     0.286 C 
BRANCH  17  18
ATOM     18  N   UNL d   1       9.775   6.312  -8.969  0.00  0.00     0.143 N 
ATOM     19  C   UNL d   1       9.433   5.981  -7.601  0.00  0.00     0.274 C 
ATOM     20  C   UNL d   1      10.568   6.242  -6.615  0.00  0.00     0.137 C 
ATOM     21  N   UNL d   1      11.112   7.567  -6.775  0.00  0.00    -0.344 N 
ATOM     22  C   UNL d   1      11.331   8.051  -8.128  0.00  0.00     0.137 C 
ATOM     23  C   UNL d   1      10.131   7.744  -9.032  0.00  0.00     0.274 C 
BRANCH  21  24
ATOM     24  C   UNL d   1      11.259   8.418  -5.645  0.00  0.00     0.068 A 
ATOM     25  C   UNL d   1      11.748   7.960  -4.374  0.00  0.00     0.084 A 
ATOM     26  C   UNL d   1      11.876   8.889  -3.321  0.00  0.00     0.070 A 
ATOM     27 CL   UNL d   1      12.120   6.373  -3.970  0.00  0.00    -0.080 Cl
ATOM     28  C   UNL d   1      11.456  10.173  -3.521  0.00  0.00     0.012 A 
ATOM     29 CL   UNL d   1      12.503   8.478  -1.761  0.00  0.00    -0.081 Cl
ATOM     30  C   UNL d   1      10.973  10.618  -4.774  0.00  0.00     0.002 A 
ATOM     31  C   UNL d   1      10.864   9.758  -5.843  0.00  0.00     0.018 A 
ENDBRANCH  21  24
ENDBRANCH  17  18
ENDBRANCH   1  17
TORSDOF 7
