REMARK  0 active torsions:
REMARK  status: ('A' for Active; 'I' for Inactive)
ROOT
ATOM      1  C   UNL d   1       2.905  -0.091 -14.095  0.00  0.00     0.285 C 
ATOM      2  N   UNL d   1       4.288  -0.481 -14.165  0.00  0.00     0.140 N 
ATOM      3  C   UNL d   1       5.141   0.654 -13.813  0.00  0.00     0.252 C 
ATOM      4  C   UNL d   1       6.580   0.193 -13.794  0.00  0.00     0.058 C 
ATOM      5  C   UNL d   1       6.958  -0.461 -15.115  0.00  0.00     0.093 C 
ATOM      6  C   UNL d   1       5.881  -1.365 -15.744  0.00  0.00     0.078 C 
ATOM      7  C   UNL d   1       4.481  -0.836 -15.557  0.00  0.00     0.257 C 
ATOM      8  C   UNL d   1       6.235  -1.324 -17.195  0.00  0.00    -0.002 A 
ATOM      9  C   UNL d   1       5.845  -2.148 -18.272  0.00  0.00    -0.003 A 
ATOM     10  C   UNL d   1       6.280  -1.813 -19.568  0.00  0.00     0.000 A 
ATOM     11  C   UNL d   1       7.063  -0.658 -19.783  0.00  0.00     0.008 A 
ATOM     12  C   UNL d   1       7.479   0.191 -18.722  0.00  0.00     0.041 A 
ATOM     13  C   UNL d   1       7.073  -0.224 -17.435  0.00  0.00     0.062 A 
ATOM     14  N   UNL d   1       7.477   0.397 -16.193  0.00  0.00    -0.329 N 
ATOM     15  C   UNL d   1       8.659   1.149 -15.940  0.00  0.00     0.057 A 
ATOM     16  C   UNL d   1       9.617   0.766 -14.962  0.00  0.00     0.017 A 
ATOM     17  C   UNL d   1      10.728   1.582 -14.667  0.00  0.00     0.002 A 
ATOM     18  C   UNL d   1      10.923   2.793 -15.345  0.00  0.00    -0.000 A 
ATOM     19  C   UNL d   1      10.008   3.180 -16.332  0.00  0.00    -0.002 A 
ATOM     20  C   UNL d   1       8.900   2.359 -16.629  0.00  0.00     0.005 A 
ATOM     21  C   UNL d   1       7.990   2.774 -17.740  0.00  0.00     0.090 C 
ATOM     22  S   UNL d   1       8.328   1.679 -19.122  0.00  0.00    -0.107 SA
ENDROOT
TORSDOF 0
