REMARK  8 active torsions:
REMARK  status: ('A' for Active; 'I' for Inactive)
REMARK    1  A    between atoms: O_2  and  C_3 
REMARK    2  A    between atoms: C_9  and  C_10 
REMARK    3  A    between atoms: N_13  and  C_14 
REMARK    4  A    between atoms: C_14  and  C_15 
REMARK    5  A    between atoms: C_15  and  C_16 
REMARK    6  A    between atoms: C_16  and  C_17 
REMARK    7  A    between atoms: C_17  and  N_18 
REMARK    8  A    between atoms: C_22  and  C_23 
ROOT
ATOM      1  C   UNL d   1      11.624   2.836 -16.866  0.00  0.00     0.037 C 
ENDROOT
BRANCH   1   2
ATOM      2  C   UNL d   1      11.690   1.415 -17.420  0.00  0.00     0.250 C 
BRANCH   2   3
ATOM      3  N   UNL d   1      10.359   0.887 -17.698  0.00  0.00     0.137 N 
ATOM      4  C   UNL d   1      10.492  -0.528 -18.062  0.00  0.00     0.251 C 
ATOM      5  C   UNL d   1       9.112  -1.157 -18.272  0.00  0.00     0.040 C 
ATOM      6  C   UNL d   1       8.308  -0.393 -19.340  0.00  0.00     0.028 C 
ATOM      7  C   UNL d   1       8.293   1.103 -19.015  0.00  0.00     0.040 C 
ATOM      8  C   UNL d   1       9.711   1.627 -18.790  0.00  0.00     0.251 C 
BRANCH   6   9
ATOM      9  C   UNL d   1       6.909  -0.926 -19.495  0.00  0.00    -0.002 A 
ATOM     10  C   UNL d   1       6.343  -1.362 -20.663  0.00  0.00     0.095 A 
ATOM     11  N   UNL d   1       5.044  -1.775 -20.414  0.00  0.00    -0.244 NA
ATOM     12  C   UNL d   1       4.737  -1.607 -19.078  0.00  0.00     0.081 A 
ATOM     13  C   UNL d   1       3.574  -1.875 -18.334  0.00  0.00     0.021 A 
ATOM     14  C   UNL d   1       5.906  -1.060 -18.469  0.00  0.00     0.017 A 
ATOM     15  C   UNL d   1       3.556  -1.601 -16.950  0.00  0.00     0.026 A 
ATOM     16  C   UNL d   1       4.676  -1.049 -16.311  0.00  0.00     0.094 A 
ATOM     17  C   UNL d   1       5.840  -0.775 -17.079  0.00  0.00     0.025 A 
BRANCH  16  18
ATOM     18  O   UNL d   1       4.575  -0.820 -14.957  0.00  0.00    -0.328 OA
ATOM     19  C   UNL d   1       5.715  -0.330 -14.268  0.00  0.00     0.181 C 
ENDBRANCH  16  18
ENDBRANCH   6   9
ENDBRANCH   2   3
ENDBRANCH   1   2
BRANCH   1  20
ATOM     20  C   UNL d   1      10.986   2.864 -15.465  0.00  0.00     0.027 C 
BRANCH  20  21
ATOM     21  C   UNL d   1       9.654   3.686 -15.420  0.00  0.00     0.112 C 
BRANCH  21  22
ATOM     22  N   UNL d   1       9.169   4.004 -14.071  0.00  0.00    -0.270 N 
ATOM     23  C   UNL d   1       9.975   4.513 -13.118  0.00  0.00     0.243 A 
ATOM     24  C   UNL d   1       9.233   4.771 -11.827  0.00  0.00     0.113 A 
ATOM     25  O   UNL d   1      11.144   4.780 -13.288  0.00  0.00    -0.272 OA
ATOM     26  C   UNL d   1       7.790   4.412 -12.162  0.00  0.00     0.102 A 
ATOM     27  C   UNL d   1       7.902   3.887 -13.600  0.00  0.00     0.240 A 
ATOM     28  O   UNL d   1       6.921   3.442 -14.171  0.00  0.00    -0.272 OA
BRANCH  24  29
ATOM     29  C   UNL d   1       9.413   6.198 -11.391  0.00  0.00     0.008 A 
ATOM     30  C   UNL d   1       9.844   6.685 -10.108  0.00  0.00     0.018 A 
ATOM     31  C   UNL d   1       9.864   8.109 -10.181  0.00  0.00     0.081 A 
ATOM     32  C   UNL d   1      10.236   6.106  -8.883  0.00  0.00     0.031 A 
ATOM     33  N   UNL d   1       9.469   8.430 -11.465  0.00  0.00    -0.244 NA
ATOM     34  C   UNL d   1      10.258   8.917  -9.103  0.00  0.00     0.021 A 
ATOM     35  C   UNL d   1       9.143   7.289 -12.154  0.00  0.00     0.095 A 
ATOM     36  C   UNL d   1      10.621   8.308  -7.890  0.00  0.00     0.031 A 
ATOM     37  C   UNL d   1      10.629   6.906  -7.784  0.00  0.00     0.140 A 
ATOM     38  F   UNL d   1      11.038   6.344  -6.625  0.00  0.00    -0.204 F 
ENDBRANCH  24  29
ENDBRANCH  21  22
ENDBRANCH  20  21
ENDBRANCH   1  20
TORSDOF 8
