REMARK  5 active torsions:
REMARK  status: ('A' for Active; 'I' for Inactive)
REMARK    1  A    between atoms: C_2  and  C_3 
REMARK    2  A    between atoms: C_3  and  N_4 
REMARK    3  A    between atoms: N_4  and  C_5 
REMARK    4  A    between atoms: N_4  and  C_8 
REMARK    5  A    between atoms: C_5  and  C_6 
ROOT
ATOM      1  C   UNL d   1      10.730   7.552  -7.792  0.00  0.00     0.224 C 
ATOM      2  C   UNL d   1      11.985   8.486  -7.822  0.00  0.00     0.040 C 
ATOM      3  C   UNL d   1      12.052   9.362  -6.575  0.00  0.00     0.048 C 
ATOM      4  C   UNL d   1      11.853   8.589  -5.295  0.00  0.00     0.056 A 
ATOM      5  N   UNL d   1      12.238   9.218  -4.162  0.00  0.00    -0.236 NA
ATOM      6  C   UNL d   1      12.117   8.524  -3.025  0.00  0.00     0.150 A 
ATOM      7  N   UNL d   1      12.519   9.176  -1.850  0.00  0.00    -0.080 NA
ATOM      8  C   UNL d   1      11.620   7.220  -2.928  0.00  0.00     0.033 A 
ATOM      9  C   UNL d   1      11.217   6.593  -4.118  0.00  0.00    -0.000 A 
ATOM     10  C   UNL d   1      11.334   7.268  -5.316  0.00  0.00    -0.006 A 
ATOM     11  C   UNL d   1      10.887   6.593  -6.576  0.00  0.00     0.061 C 
ENDROOT
BRANCH   1  12
ATOM     12  N   UNL d   1      10.523   6.776  -9.037  0.00  0.00     0.135 N 
BRANCH  12  13
ATOM     13  C   UNL d   1       9.253   6.027  -9.115  0.00  0.00     0.250 C 
BRANCH  13  14
ATOM     14  C   UNL d   1       9.402   4.737  -9.936  0.00  0.00     0.035 C 
ATOM     15  C   UNL d   1      10.005   3.620  -9.088  0.00  0.00     0.002 C 
ENDBRANCH  13  14
ENDBRANCH  12  13
BRANCH  12  16
ATOM     16  C   UNL d   1      10.671   7.551 -10.278  0.00  0.00     0.250 C 
BRANCH  16  17
ATOM     17  C   UNL d   1       9.748   8.784 -10.338  0.00  0.00     0.035 C 
ATOM     18  C   UNL d   1       8.906   8.814 -11.633  0.00  0.00     0.002 C 
ENDBRANCH  16  17
ENDBRANCH  12  16
ENDBRANCH   1  12
TORSDOF 5
