REMARK  1 active torsions:
REMARK  status: ('A' for Active; 'I' for Inactive)
REMARK    1  A    between atoms: C_11  and  C_13 
ROOT
ATOM      1  C   UNL d   1       8.701  -0.131 -15.539  0.00  0.00     0.033 C 
ATOM      2  C   UNL d   1       8.517   1.179 -14.817  0.00  0.00     0.003 A 
ATOM      3  C   UNL d   1       7.226   1.587 -14.428  0.00  0.00    -0.007 A 
ATOM      4  C   UNL d   1       7.046   2.814 -13.770  0.00  0.00    -0.022 A 
ATOM      5  C   UNL d   1       8.159   3.654 -13.557  0.00  0.00     0.007 A 
ATOM      6  C   UNL d   1       9.461   3.208 -13.869  0.00  0.00     0.024 A 
ATOM      7  C   UNL d   1       9.634   1.986 -14.526  0.00  0.00     0.127 A 
ATOM      8  O   UNL d   1      10.886   1.605 -14.898  0.00  0.00    -0.191 OA
ATOM      9  C   UNL d   1       7.966   4.932 -12.775  0.00  0.00     0.244 C 
ATOM     10  C   UNL d   1       8.886   6.089 -13.160  0.00  0.00     0.073 C 
ATOM     11  C   UNL d   1       8.723   7.336 -12.273  0.00  0.00     0.150 C 
ATOM     12  O   UNL d   1       9.454   8.434 -12.795  0.00  0.00    -0.221 OA
ATOM     13  C   UNL d   1       7.242   7.754 -12.354  0.00  0.00     0.070 C 
ATOM     14  C   UNL d   1       6.332   6.602 -11.873  0.00  0.00     0.254 C 
ATOM     15  N   UNL d   1       6.554   5.401 -12.704  0.00  0.00     0.140 N 
ATOM     16  C   UNL d   1       5.704   4.325 -12.215  0.00  0.00     0.255 C 
ATOM     17  C   UNL d   1       5.670   3.226 -13.277  0.00  0.00     0.061 C 
ENDROOT
BRANCH  11  18
ATOM     18  C   UNL d   1       9.286   7.069 -10.863  0.00  0.00     0.005 A 
ATOM     19  C   UNL d   1      10.297   7.914 -10.350  0.00  0.00    -0.001 A 
ATOM     20  C   UNL d   1      10.774   7.675  -9.070  0.00  0.00     0.011 A 
ATOM     21  C   UNL d   1      10.256   6.647  -8.284  0.00  0.00     0.058 A 
ATOM     22  C   UNL d   1       9.261   5.799  -8.765  0.00  0.00     0.011 A 
ATOM     23 CL   UNL d   1      10.843   6.508  -6.701  0.00  0.00    -0.082 Cl
ATOM     24  C   UNL d   1       8.796   6.029 -10.035  0.00  0.00    -0.001 A 
ENDBRANCH  11  18
TORSDOF 1
