REMARK  7 active torsions:
REMARK  status: ('A' for Active; 'I' for Inactive)
REMARK    1  A    between atoms: C_6  and  C_7 
REMARK    2  A    between atoms: C_10  and  S_11 
REMARK    3  A    between atoms: S_11  and  C_12 
REMARK    4  A    between atoms: C_12  and  C_13 
REMARK    5  A    between atoms: C_13  and  C_14 
REMARK    6  A    between atoms: C_14  and  N_15 
REMARK    7  A    between atoms: C_19  and  C_20 
ROOT
ATOM      1  C   UNL d   1       9.793   4.493 -14.123  0.00  0.00     0.047 C 
ENDROOT
BRANCH   1   2
ATOM      2  C   UNL d   1       9.274   4.203 -15.532  0.00  0.00     0.067 C 
BRANCH   2   3
ATOM      3  S   UNL d   1      10.531   3.397 -16.573  0.00  0.00    -0.075 SA
BRANCH   3   4
ATOM      4  C   UNL d   1      11.619   4.762 -16.813  0.00  0.00     0.193 A 
ATOM      5  N   UNL d   1      11.311   6.012 -16.478  0.00  0.00    -0.122 NA
ATOM      6  N   UNL d   1      12.406   6.771 -16.783  0.00  0.00    -0.126 NA
ATOM      7  C   UNL d   1      13.295   5.920 -17.300  0.00  0.00     0.191 A 
ATOM      8  N   UNL d   1      12.848   4.646 -17.353  0.00  0.00    -0.287 N 
ATOM      9  C   UNL d   1      13.511   3.463 -17.878  0.00  0.00     0.134 C 
BRANCH   7  10
ATOM     10  C   UNL d   1      14.588   6.399 -17.765  0.00  0.00     0.151 A 
ATOM     11  C   UNL d   1      14.994   7.626 -18.224  0.00  0.00     0.087 A 
ATOM     12  C   UNL d   1      14.220   8.899 -18.411  0.00  0.00     0.054 C 
ATOM     13  N   UNL d   1      16.345   7.547 -18.530  0.00  0.00    -0.221 NA
ATOM     14  C   UNL d   1      16.673   6.293 -18.248  0.00  0.00     0.225 A 
ATOM     15  O   UNL d   1      15.645   5.534 -17.785  0.00  0.00    -0.282 OA
ENDBRANCH   7  10
ENDBRANCH   3   4
ENDBRANCH   2   3
ENDBRANCH   1   2
BRANCH   1  16
ATOM     16  C   UNL d   1       8.831   5.340 -13.261  0.00  0.00     0.251 C 
BRANCH  16  17
ATOM     17  N   UNL d   1       9.405   5.563 -11.939  0.00  0.00     0.137 N 
ATOM     18  C   UNL d   1       8.514   6.347 -11.079  0.00  0.00     0.254 C 
ATOM     19  C   UNL d   1       8.946   5.973  -9.674  0.00  0.00     0.052 A 
ATOM     20  C   UNL d   1       9.635   4.660  -9.789  0.00  0.00     0.039 A 
ATOM     21  C   UNL d   1       8.401   4.753  -8.956  0.00  0.00     0.008 A 
ATOM     22  C   UNL d   1       9.559   4.290 -11.250  0.00  0.00     0.251 C 
BRANCH  19  23
ATOM     23  C   UNL d   1       9.623   7.066  -8.909  0.00  0.00    -0.021 A 
ATOM     24  C   UNL d   1       9.058   7.499  -7.692  0.00  0.00    -0.004 A 
ATOM     25  C   UNL d   1       9.684   8.506  -6.951  0.00  0.00     0.006 A 
ATOM     26  C   UNL d   1      10.893   9.069  -7.391  0.00  0.00     0.035 A 
ATOM     27  C   UNL d   1      11.458   8.654  -8.617  0.00  0.00     0.006 A 
ATOM     28 BR   UNL d   1      11.737  10.364  -6.280  0.00  0.00    -0.049 Br
ATOM     29  C   UNL d   1      10.822   7.647  -9.373  0.00  0.00    -0.004 A 
ENDBRANCH  19  23
ENDBRANCH  16  17
ENDBRANCH   1  16
TORSDOF 7
