REMARK  7 active torsions:
REMARK  status: ('A' for Active; 'I' for Inactive)
REMARK    1  A    between atoms: C_3  and  S_4 
REMARK    2  A    between atoms: S_4  and  C_5 
REMARK    3  A    between atoms: C_5  and  C_6 
REMARK    4  A    between atoms: C_6  and  C_7 
REMARK    5  A    between atoms: C_7  and  N_8 
REMARK    6  A    between atoms: N_13  and  C_14 
REMARK    7  A    between atoms: C_25  and  C_26 
ROOT
ATOM      1  C   UNL d   1       9.387   3.917 -13.466  0.00  0.00     0.251 C 
ENDROOT
BRANCH   1   2
ATOM      2  C   UNL d   1      10.790   3.693 -14.024  0.00  0.00     0.047 C 
BRANCH   2   3
ATOM      3  C   UNL d   1      10.817   2.650 -15.160  0.00  0.00     0.067 C 
BRANCH   3   4
ATOM      4  S   UNL d   1      10.230   3.323 -16.748  0.00  0.00    -0.075 SA
BRANCH   4   5
ATOM      5  C   UNL d   1      11.467   4.565 -16.984  0.00  0.00     0.193 A 
ATOM      6  N   UNL d   1      11.275   5.654 -17.778  0.00  0.00    -0.292 N 
ATOM      7  C   UNL d   1      10.129   5.968 -18.613  0.00  0.00     0.134 C 
ATOM      8  C   UNL d   1      12.431   6.317 -17.566  0.00  0.00     0.143 A 
ATOM      9  N   UNL d   1      13.254   5.740 -16.715  0.00  0.00    -0.133 NA
ATOM     10  N   UNL d   1      12.650   4.536 -16.392  0.00  0.00    -0.122 NA
BRANCH   8  11
ATOM     11  C   UNL d   1      12.797   7.622 -18.305  0.00  0.00     0.064 C 
ATOM     12  C   UNL d   1      14.159   8.178 -17.835  0.00  0.00     0.040 C 
ATOM     13  C   UNL d   1      15.354   7.326 -18.355  0.00  0.00     0.143 C 
ATOM     14  O   UNL d   1      15.294   7.200 -19.774  0.00  0.00    -0.354 OA
ATOM     15  C   UNL d   1      14.091   6.592 -20.233  0.00  0.00     0.143 C 
ATOM     16  C   UNL d   1      12.889   7.460 -19.835  0.00  0.00     0.040 C 
ENDBRANCH   8  11
ENDBRANCH   4   5
ENDBRANCH   3   4
ENDBRANCH   2   3
ENDBRANCH   1   2
BRANCH   1  17
ATOM     17  N   UNL d   1       9.360   5.217 -12.813  0.00  0.00     0.138 N 
ATOM     18  C   UNL d   1       9.290   5.141 -11.358  0.00  0.00     0.266 C 
ATOM     19  C   UNL d   1       8.703   6.477 -10.933  0.00  0.00     0.097 C 
ATOM     20  C   UNL d   1       8.088   7.088 -12.188  0.00  0.00     0.052 C 
ATOM     21  N   UNL d   1       9.729   7.400 -10.449  0.00  0.00    -0.252 NA
ATOM     22  C   UNL d   1       8.191   5.977 -13.212  0.00  0.00     0.252 C 
ATOM     23  C   UNL d   1       8.884   8.375 -12.431  0.00  0.00     0.021 C 
ATOM     24  C   UNL d   1       9.475   8.677 -11.055  0.00  0.00     0.077 C 
BRANCH  21  25
ATOM     25  C   UNL d   1      10.078   7.426  -9.073  0.00  0.00     0.037 A 
ATOM     26  C   UNL d   1      11.102   8.313  -8.618  0.00  0.00     0.013 A 
ATOM     27  C   UNL d   1      11.437   8.353  -7.242  0.00  0.00     0.031 A 
ATOM     28  C   UNL d   1      10.759   7.530  -6.328  0.00  0.00     0.140 A 
ATOM     29  C   UNL d   1       9.748   6.663  -6.777  0.00  0.00     0.031 A 
ATOM     30  F   UNL d   1      11.105   7.549  -5.015  0.00  0.00    -0.204 F 
ATOM     31  C   UNL d   1       9.427   6.609  -8.155  0.00  0.00     0.013 A 
ENDBRANCH  21  25
ENDBRANCH   1  17
TORSDOF 7
