REMARK  5 active torsions:
REMARK  status: ('A' for Active; 'I' for Inactive)
REMARK    1  A    between atoms: N_11  and  C_12 
REMARK    2  A    between atoms: C_12  and  C_13 
REMARK    3  A    between atoms: C_13  and  C_14 
REMARK    4  A    between atoms: C_14  and  N_15 
REMARK    5  A    between atoms: C_18  and  N_19 
ROOT
ATOM      1  N   UNL d   1       9.034   6.090  -9.751  0.00  0.00     0.137 N 
ATOM      2  C   UNL d   1      10.481   6.096  -9.781  0.00  0.00     0.252 C 
ATOM      3  C   UNL d   1      10.991   7.183  -8.856  0.00  0.00     0.058 C 
ATOM      4  C   UNL d   1      10.583   6.880  -7.411  0.00  0.00     0.094 C 
ATOM      5  C   UNL d   1       9.056   6.687  -7.364  0.00  0.00     0.058 C 
ATOM      6  C   UNL d   1       8.604   5.668  -8.426  0.00  0.00     0.252 C 
ENDROOT
BRANCH   1   7
ATOM      7  C   UNL d   1       8.474   5.173 -10.757  0.00  0.00     0.252 C 
BRANCH   7   8
ATOM      8  C   UNL d   1       9.072   5.425 -12.146  0.00  0.00     0.060 C 
BRANCH   8   9
ATOM      9  C   UNL d   1       8.099   5.290 -13.332  0.00  0.00     0.111 C 
BRANCH   9  10
ATOM     10  N   UNL d   1       7.473   3.978 -13.470  0.00  0.00    -0.295 N 
ATOM     11  C   UNL d   1       6.192   3.794 -13.072  0.00  0.00     0.268 C 
ATOM     12  O   UNL d   1       5.457   4.699 -12.663  0.00  0.00    -0.269 OA
ATOM     13  C   UNL d   1       5.630   2.375 -13.113  0.00  0.00     0.236 C 
ATOM     14  O   UNL d   1       6.133   1.620 -14.216  0.00  0.00    -0.319 OA
ATOM     15  C   UNL d   1       7.488   1.726 -14.436  0.00  0.00     0.110 A 
ATOM     16  C   UNL d   1       8.191   2.896 -14.085  0.00  0.00     0.085 A 
ATOM     17  C   UNL d   1       8.149   0.654 -15.089  0.00  0.00     0.026 A 
ATOM     18  C   UNL d   1       9.586   2.967 -14.366  0.00  0.00     0.019 A 
ATOM     19  C   UNL d   1      10.255   1.869 -14.942  0.00  0.00     0.002 A 
ATOM     20  C   UNL d   1       9.538   0.720 -15.315  0.00  0.00     0.002 A 
ENDBRANCH   9  10
ENDBRANCH   8   9
ENDBRANCH   7   8
ENDBRANCH   1   7
BRANCH   4  21
ATOM     21  N   UNL d   1      11.005   7.894  -6.461  0.00  0.00    -0.281 N 
ATOM     22  C   UNL d   1      11.305   7.696  -5.105  0.00  0.00     0.084 A 
ATOM     23  C   UNL d   1      11.608   8.915  -4.576  0.00  0.00     0.129 A 
ATOM     24  C   UNL d   1      11.270   6.531  -4.324  0.00  0.00     0.019 A 
ATOM     25  N   UNL d   1      11.533   9.858  -5.555  0.00  0.00    -0.189 NA
ATOM     26  C   UNL d   1      11.881   9.092  -3.247  0.00  0.00     0.159 A 
ATOM     27  C   UNL d   1      11.178   9.229  -6.681  0.00  0.00     0.350 A 
ATOM     28  O   UNL d   1      11.059   9.735  -7.792  0.00  0.00    -0.244 OA
ATOM     29  F   UNL d   1      12.061  10.354  -2.796  0.00  0.00    -0.203 F 
ATOM     30  C   UNL d   1      11.906   7.962  -2.405  0.00  0.00     0.031 A 
ATOM     31  C   UNL d   1      11.575   6.682  -2.950  0.00  0.00     0.004 A 
ENDBRANCH   4  21
TORSDOF 5
