REMARK  9 active torsions:
REMARK  status: ('A' for Active; 'I' for Inactive)
REMARK    1  A    between atoms: C_8  and  O_9 
REMARK    2  A    between atoms: O_9  and  C_10 
REMARK    3  A    between atoms: C_10  and  C_11 
REMARK    4  A    between atoms: C_11  and  C_12 
REMARK    5  A    between atoms: C_12  and  C_13 
REMARK    6  A    between atoms: C_13  and  N_14 
REMARK    7  A    between atoms: N_14  and  C_15 
REMARK    8  A    between atoms: C_15  and  C_16 
REMARK    9  A    between atoms: C_18  and  C_19 
ROOT
ATOM      1  C   UNL d   1       9.239   4.557 -11.396  0.00  0.00     0.290 C 
ENDROOT
BRANCH   1   2
ATOM      2  C   UNL d   1       8.565   4.732 -12.716  0.00  0.00     0.041 C 
BRANCH   2   3
ATOM      3  C   UNL d   1       9.171   3.629 -13.612  0.00  0.00     0.035 C 
BRANCH   3   4
ATOM      4  C   UNL d   1       8.661   3.895 -15.009  0.00  0.00     0.149 C 
BRANCH   4   5
ATOM      5  O   UNL d   1       9.319   3.232 -16.101  0.00  0.00    -0.331 OA
BRANCH   5   6
ATOM      6  C   UNL d   1      10.544   3.733 -16.479  0.00  0.00     0.096 A 
ATOM      7  C   UNL d   1      11.164   4.812 -15.809  0.00  0.00     0.024 A 
ATOM      8  C   UNL d   1      12.488   5.133 -16.096  0.00  0.00    -0.001 A 
ATOM      9  C   UNL d   1      13.144   4.467 -17.123  0.00  0.00    -0.004 A 
ATOM     10  C   UNL d   1      14.568   4.842 -17.460  0.00  0.00     0.038 C 
ATOM     11  C   UNL d   1      12.501   3.454 -17.874  0.00  0.00     0.082 A 
ATOM     12  C   UNL d   1      14.836   4.659 -18.958  0.00  0.00     0.095 C 
ATOM     13  C   UNL d   1      14.300   3.312 -19.492  0.00  0.00     0.256 C 
ATOM     14  O   UNL d   1      14.908   2.715 -20.381  0.00  0.00    -0.270 OA
ATOM     15  N   UNL d   1      13.165   2.834 -18.954  0.00  0.00    -0.212 NA
ATOM     16  C   UNL d   1      11.193   3.078 -17.537  0.00  0.00     0.043 A 
ENDBRANCH   5   6
ENDBRANCH   4   5
ENDBRANCH   3   4
ENDBRANCH   2   3
ENDBRANCH   1   2
BRANCH   1  17
ATOM     17  N   UNL d   1       8.998   5.644 -10.478  0.00  0.00     0.339 N 
BRANCH  17  18
ATOM     18  C   UNL d   1       9.510   5.328  -9.156  0.00  0.00     0.290 C 
BRANCH  18  19
ATOM     19  C   UNL d   1       9.266   6.545  -8.333  0.00  0.00     0.041 A 
ATOM     20  C   UNL d   1       9.749   6.528  -6.874  0.00  0.00     0.024 A 
ATOM     21  C   UNL d   1       8.279   6.543  -7.170  0.00  0.00     0.007 A 
BRANCH  20  22
ATOM     22  C   UNL d   1      10.365   7.738  -6.268  0.00  0.00    -0.022 C 
ATOM     23  C   UNL d   1      11.146   7.662  -5.057  0.00  0.00    -0.004 A 
ATOM     24  C   UNL d   1      11.662   8.891  -4.534  0.00  0.00    -0.000 A 
ATOM     25  C   UNL d   1      11.397   6.494  -4.323  0.00  0.00    -0.000 A 
ATOM     26  C   UNL d   1      11.422  10.091  -5.209  0.00  0.00    -0.000 C 
ATOM     27  C   UNL d   1      12.380   8.936  -3.303  0.00  0.00    -0.000 A 
ATOM     28  C   UNL d   1      10.761  10.076  -6.405  0.00  0.00    -0.000 C 
ATOM     29  C   UNL d   1      10.136   8.961  -6.912  0.00  0.00    -0.004 C 
ATOM     30  C   UNL d   1      12.572   7.776  -2.563  0.00  0.00    -0.000 A 
ATOM     31  C   UNL d   1      12.113   6.560  -3.100  0.00  0.00    -0.000 A 
ENDBRANCH  20  22
ENDBRANCH  18  19
ENDBRANCH  17  18
ENDBRANCH   1  17
TORSDOF 9
