REMARK  5 active torsions:
REMARK  status: ('A' for Active; 'I' for Inactive)
REMARK    1  A    between atoms: P_2  and  N_3 
REMARK    2  A    between atoms: N_3  and  C_4 
REMARK    3  A    between atoms: C_4  and  C_5 
REMARK    4  A    between atoms: N_11  and  C_12 
REMARK    5  A    between atoms: C_12  and  C_13 
ROOT
ATOM      1  O   UNL d   1       9.761   4.566 -11.778  0.00  0.00    -0.240 OA
ATOM      2  P   UNL d   1       8.762   5.316 -10.967  0.00  0.00     0.411 P 
ATOM      3  O   UNL d   1       8.141   4.494  -9.729  0.00  0.00    -0.283 OA
ATOM      4  C   UNL d   1       8.846   4.345  -8.521  0.00  0.00     0.155 C 
ATOM      5  C   UNL d   1       9.177   5.740  -7.954  0.00  0.00     0.057 C 
ATOM      6  C   UNL d   1       9.999   6.582  -8.943  0.00  0.00     0.109 C 
ATOM      7  N   UNL d   1       9.283   6.759 -10.208  0.00  0.00    -0.291 N 
ENDROOT
BRANCH   2   8
ATOM      8  N   UNL d   1       7.361   5.742 -11.837  0.00  0.00    -0.208 NA
BRANCH   8   9
ATOM      9  C   UNL d   1       6.686   4.748 -12.649  0.00  0.00     0.148 C 
BRANCH   9  10
ATOM     10  C   UNL d   1       5.977   3.679 -11.814  0.00  0.00     0.121 C 
ATOM     11 CL   UNL d   1       5.431   2.341 -12.843  0.00  0.00    -0.112 Cl
ENDBRANCH   9  10
ENDBRANCH   8   9
ENDBRANCH   2   8
BRANCH   7  12
ATOM     12  C   UNL d   1       9.927   7.813 -10.990  0.00  0.00     0.124 C 
BRANCH  12  13
ATOM     13  C   UNL d   1       9.413   7.951 -12.445  0.00  0.00     0.119 C 
ATOM     14 CL   UNL d   1       7.957   8.967 -12.434  0.00  0.00    -0.112 Cl
ENDBRANCH  12  13
ENDBRANCH   7  12
TORSDOF 5
