REMARK  0 active torsions:
REMARK  status: ('A' for Active; 'I' for Inactive)
ROOT
ATOM      1  N   UNL d   1       9.168   7.079  -7.920  0.00  0.00     0.616 N 
ATOM      2  C   UNL d   1      10.607   7.100  -8.150  0.00  0.00     0.307 C 
ATOM      3  C   UNL d   1      11.067   8.531  -8.423  0.00  0.00     0.044 C 
ATOM      4  C   UNL d   1      10.837   9.414  -7.195  0.00  0.00     0.030 C 
ATOM      5  C   UNL d   1      11.215   8.786  -5.859  0.00  0.00    -0.001 A 
ATOM      6  C   UNL d   1      11.312   9.591  -4.718  0.00  0.00     0.127 A 
ATOM      7  O   UNL d   1      10.986  10.886  -4.846  0.00  0.00    -0.191 OA
ATOM      8  C   UNL d   1      11.694   9.093  -3.463  0.00  0.00     0.027 A 
ATOM      9  C   UNL d   1      11.927   7.717  -3.329  0.00  0.00     0.002 A 
ATOM     10  C   UNL d   1      11.793   6.883  -4.459  0.00  0.00    -0.004 A 
ATOM     11  C   UNL d   1      11.439   7.410  -5.720  0.00  0.00    -0.022 A 
ATOM     12  C   UNL d   1      11.341   6.507  -6.933  0.00  0.00     0.065 C 
ENDROOT
TORSDOF 0
