REMARK  1 active torsions:
REMARK  status: ('A' for Active; 'I' for Inactive)
REMARK    1  A    between atoms: C_4  and  C_5 
ROOT
ATOM      1  C   UNL d   1      10.673   9.167  -5.337  0.00  0.00     0.318 C 
ATOM      2  N   UNL d   1      11.479  10.183  -5.910  0.00  0.00     0.348 N 
ATOM      3  C   UNL d   1      12.451   9.568  -6.782  0.00  0.00     0.296 C 
ATOM      4  C   UNL d   1      11.915   8.853  -8.031  0.00  0.00     0.066 C 
ATOM      5  C   UNL d   1      10.764   8.042  -7.656  0.00  0.00    -0.003 A 
ATOM      6  C   UNL d   1      10.198   8.201  -6.426  0.00  0.00     0.093 A 
ATOM      7  N   UNL d   1       9.146   7.289  -6.383  0.00  0.00    -0.248 NA
ATOM      8  C   UNL d   1       9.072   6.536  -7.557  0.00  0.00     0.081 A 
ATOM      9  C   UNL d   1       8.287   5.500  -8.014  0.00  0.00     0.019 A 
ATOM     10  C   UNL d   1       8.540   4.949  -9.283  0.00  0.00     0.002 A 
ATOM     11  C   UNL d   1       9.556   5.475 -10.099  0.00  0.00     0.000 A 
ATOM     12  C   UNL d   1      10.352   6.521  -9.635  0.00  0.00     0.001 A 
ATOM     13  C   UNL d   1      10.104   7.037  -8.367  0.00  0.00     0.015 A 
ENDROOT
BRANCH   1  14
ATOM     14  C   UNL d   1      11.450   8.444  -4.220  0.00  0.00     0.017 A 
ATOM     15  C   UNL d   1      11.759   7.072  -4.303  0.00  0.00    -0.002 A 
ATOM     16  C   UNL d   1      12.296   6.374  -3.216  0.00  0.00    -0.000 A 
ATOM     17  C   UNL d   1      12.563   7.064  -2.024  0.00  0.00    -0.000 A 
ATOM     18  C   UNL d   1      12.282   8.426  -1.915  0.00  0.00    -0.000 A 
ATOM     19  C   UNL d   1      11.747   9.139  -3.011  0.00  0.00    -0.002 A 
ENDBRANCH   1  14
TORSDOF 1
