REMARK  9 active torsions:
REMARK  status: ('A' for Active; 'I' for Inactive)
REMARK    1  A    between atoms: C_2  and  C_4 
REMARK    2  A    between atoms: C_9  and  O_10 
REMARK    3  A    between atoms: O_10  and  C_11 
REMARK    4  A    between atoms: C_11  and  C_12 
REMARK    5  A    between atoms: C_12  and  C_13 
REMARK    6  A    between atoms: C_13  and  N_14 
REMARK    7  A    between atoms: N_17  and  C_18 
REMARK    8  A    between atoms: N_26  and  C_27 
REMARK    9  A    between atoms: C_27  and  C_28 
ROOT
ATOM      1  N   UNL d   1       9.095   7.129 -11.186  0.00  0.00     0.141 N 
ATOM      2  C   UNL d   1       9.345   6.848 -12.591  0.00  0.00     0.274 C 
ATOM      3  C   UNL d   1       8.056   6.326 -13.235  0.00  0.00     0.137 C 
ATOM      4  N   UNL d   1       7.562   5.157 -12.516  0.00  0.00    -0.344 N 
ATOM      5  C   UNL d   1       7.423   5.330 -11.068  0.00  0.00     0.137 C 
ATOM      6  C   UNL d   1       8.720   5.904 -10.474  0.00  0.00     0.274 C 
ENDROOT
BRANCH   4   7
ATOM      7  C   UNL d   1       7.311   3.947 -13.146  0.00  0.00     0.058 A 
ATOM      8  C   UNL d   1       8.252   3.389 -14.058  0.00  0.00     0.033 A 
ATOM      9  C   UNL d   1       7.962   2.109 -14.638  0.00  0.00     0.062 A 
ATOM     10  C   UNL d   1       9.539   3.790 -14.563  0.00  0.00     0.021 A 
ATOM     11  C   UNL d   1       6.789   1.412 -14.295  0.00  0.00     0.017 A 
ATOM     12  N   UNL d   1       9.005   1.812 -15.504  0.00  0.00    -0.322 N 
ATOM     13  C   UNL d   1       5.861   1.992 -13.416  0.00  0.00     0.003 A 
ATOM     14  C   UNL d   1       6.123   3.252 -12.839  0.00  0.00     0.017 A 
ATOM     15  C   UNL d   1       9.951   2.829 -15.437  0.00  0.00     0.076 A 
BRANCH  12  16
ATOM     16  C   UNL d   1       9.124   0.631 -16.338  0.00  0.00     0.133 C 
BRANCH  16  17
ATOM     17  C   UNL d   1       8.232   0.709 -17.569  0.00  0.00     0.000 A 
ATOM     18  C   UNL d   1       8.757   1.113 -18.812  0.00  0.00    -0.002 A 
ATOM     19  C   UNL d   1       7.918   1.183 -19.952  0.00  0.00    -0.000 A 
ATOM     20  C   UNL d   1       6.543   0.869 -19.842  0.00  0.00    -0.000 A 
ATOM     21  C   UNL d   1       6.017   0.470 -18.606  0.00  0.00    -0.000 A 
ATOM     22  C   UNL d   1       6.861   0.365 -17.481  0.00  0.00    -0.002 A 
ENDBRANCH  16  17
ENDBRANCH  12  16
ENDBRANCH   4   7
BRANCH   1  23
ATOM     23  C   UNL d   1      10.286   7.741 -10.598  0.00  0.00     0.253 C 
BRANCH  23  24
ATOM     24  C   UNL d   1       9.927   8.500  -9.322  0.00  0.00     0.068 C 
BRANCH  24  25
ATOM     25  C   UNL d   1      11.140   9.357  -8.874  0.00  0.00     0.151 C 
BRANCH  25  26
ATOM     26  O   UNL d   1      11.183   9.546  -7.464  0.00  0.00    -0.331 OA
BRANCH  26  27
ATOM     27  C   UNL d   1      11.419   8.456  -6.675  0.00  0.00     0.099 A 
ATOM     28  C   UNL d   1      11.410   8.583  -5.243  0.00  0.00     0.082 A 
ATOM     29  C   UNL d   1      11.604   7.476  -4.422  0.00  0.00     0.007 A 
ATOM     30  C   UNL d   1      11.843   6.242  -5.002  0.00  0.00     0.000 A 
ATOM     31  C   UNL d   1      11.861   6.086  -6.395  0.00  0.00     0.002 A 
ATOM     32  C   UNL d   1      11.666   7.186  -7.237  0.00  0.00     0.024 A 
BRANCH  28  33
ATOM     33  C   UNL d   1      11.149   9.883  -4.580  0.00  0.00     0.299 C 
ATOM     34  N   UNL d   1      11.495   9.997  -3.297  0.00  0.00    -0.102 N 
ATOM     35  O   UNL d   1      10.656  10.799  -5.211  0.00  0.00    -0.264 OA
ENDBRANCH  28  33
ENDBRANCH  26  27
ENDBRANCH  25  26
ENDBRANCH  24  25
ENDBRANCH  23  24
ENDBRANCH   1  23
TORSDOF 9
