REMARK  5 active torsions:
REMARK  status: ('A' for Active; 'I' for Inactive)
REMARK    1  A    between atoms: C_2  and  C_3 
REMARK    2  A    between atoms: C_3  and  C_4 
REMARK    3  A    between atoms: C_4  and  C_5 
REMARK    4  A    between atoms: C_5  and  N_6 
REMARK    5  A    between atoms: C_9  and  C_10 
ROOT
ATOM      1  N   UNL d   1       9.382   6.874  -8.082  0.00  0.00     0.137 N 
ATOM      2  C   UNL d   1      10.835   6.824  -8.282  0.00  0.00     0.251 C 
ATOM      3  C   UNL d   1      11.329   8.131  -7.696  0.00  0.00     0.042 C 
ATOM      4  C   UNL d   1      10.317   8.444  -6.608  0.00  0.00     0.058 C 
ATOM      5  C   UNL d   1       9.255   7.334  -6.704  0.00  0.00     0.255 C 
ENDROOT
BRANCH   4   6
ATOM      6  C   UNL d   1      10.976   8.548  -5.247  0.00  0.00    -0.018 A 
ATOM      7  C   UNL d   1      11.518   7.383  -4.639  0.00  0.00     0.023 A 
ATOM      8  C   UNL d   1      12.140   7.468  -3.383  0.00  0.00     0.131 A 
ATOM      9  C   UNL d   1      12.246   8.707  -2.732  0.00  0.00     0.027 A 
ATOM     10  O   UNL d   1      12.620   6.359  -2.772  0.00  0.00    -0.190 OA
ATOM     11  C   UNL d   1      11.717   9.855  -3.333  0.00  0.00     0.002 A 
ATOM     12  C   UNL d   1      11.084   9.785  -4.595  0.00  0.00    -0.004 A 
ENDBRANCH   4   6
BRANCH   1  13
ATOM     13  C   UNL d   1       8.733   5.573  -8.257  0.00  0.00     0.250 C 
BRANCH  13  14
ATOM     14  C   UNL d   1       8.279   5.295  -9.693  0.00  0.00     0.035 C 
BRANCH  14  15
ATOM     15  C   UNL d   1       9.410   5.357 -10.736  0.00  0.00     0.002 C 
BRANCH  15  16
ATOM     16  C   UNL d   1       8.951   5.355 -12.195  0.00  0.00     0.000 C 
ATOM     17  C   UNL d   1       8.341   4.037 -12.645  0.00  0.00     0.000 C 
ENDBRANCH  15  16
ENDBRANCH  14  15
ENDBRANCH  13  14
ENDBRANCH   1  13
TORSDOF 5
