REMARK  7 active torsions:
REMARK  status: ('A' for Active; 'I' for Inactive)
REMARK    1  A    between atoms: C_5  and  C_6 
REMARK    2  A    between atoms: C_6  and  O_7 
REMARK    3  A    between atoms: C_6  and  C_19 
REMARK    4  A    between atoms: O_7  and  C_8 
REMARK    5  A    between atoms: C_8  and  C_9 
REMARK    6  A    between atoms: C_9  and  O_10 
REMARK    7  A    between atoms: O_10  and  C_11 
ROOT
ATOM      1  C   UNL d   1       8.403   4.323 -14.106  0.00  0.00     0.160 C 
ENDROOT
BRANCH   1   2
ATOM      2  C   UNL d   1       7.370   3.223 -13.853  0.00  0.00     0.009 A 
ATOM      3  C   UNL d   1       7.600   1.958 -14.422  0.00  0.00     0.001 A 
ATOM      4  C   UNL d   1       6.626   0.922 -14.277  0.00  0.00     0.029 A 
ATOM      5  C   UNL d   1       5.486   1.109 -13.437  0.00  0.00     0.140 A 
ATOM      6  F   UNL d   1       4.626   0.097 -13.233  0.00  0.00    -0.204 F 
ATOM      7  C   UNL d   1       5.327   2.375 -12.765  0.00  0.00     0.029 A 
ATOM      8  C   UNL d   1       6.221   3.456 -13.019  0.00  0.00     0.001 A 
ENDBRANCH   1   2
BRANCH   1   9
ATOM      9  O   UNL d   1       9.594   3.820 -14.728  0.00  0.00    -0.345 OA
BRANCH   9  10
ATOM     10  C   UNL d   1      10.342   4.755 -15.503  0.00  0.00     0.175 C 
BRANCH  10  11
ATOM     11  C   UNL d   1      11.608   4.053 -16.020  0.00  0.00     0.174 C 
BRANCH  11  12
ATOM     12  O   UNL d   1      11.253   3.064 -16.975  0.00  0.00    -0.354 OA
BRANCH  12  13
ATOM     13  C   UNL d   1      11.750   1.758 -16.711  0.00  0.00     0.119 C 
ATOM     14  C   UNL d   1      10.893   1.035 -15.649  0.00  0.00     0.066 C 
ATOM     15  C   UNL d   1       9.599   0.454 -16.265  0.00  0.00     0.259 C 
ATOM     16  C   UNL d   1       8.738   1.488 -17.058  0.00  0.00     0.038 C 
ATOM     17  N   UNL d   1       9.927  -0.483 -17.291  0.00  0.00     0.335 N 
ATOM     18  C   UNL d   1       9.221   1.447 -18.435  0.00  0.00     0.038 C 
ATOM     19  C   UNL d   1      10.336   0.380 -18.394  0.00  0.00     0.259 C 
ATOM     20  C   UNL d   1      11.731   0.951 -18.025  0.00  0.00     0.066 C 
ENDBRANCH  12  13
ENDBRANCH  11  12
ENDBRANCH  10  11
ENDBRANCH   9  10
ENDBRANCH   1   9
BRANCH   1  21
ATOM     21  C   UNL d   1       8.764   5.059 -12.843  0.00  0.00     0.009 A 
ATOM     22  C   UNL d   1       8.604   6.450 -12.776  0.00  0.00     0.001 A 
ATOM     23  C   UNL d   1       8.912   7.128 -11.590  0.00  0.00     0.029 A 
ATOM     24  C   UNL d   1       9.327   6.416 -10.449  0.00  0.00     0.140 A 
ATOM     25  C   UNL d   1       9.449   5.019 -10.502  0.00  0.00     0.029 A 
ATOM     26  F   UNL d   1       9.585   7.066  -9.292  0.00  0.00    -0.204 F 
ATOM     27  C   UNL d   1       9.220   4.353 -11.720  0.00  0.00     0.001 A 
ENDBRANCH   1  21
TORSDOF 7
