REMARK  5 active torsions:
REMARK  status: ('A' for Active; 'I' for Inactive)
REMARK    1  A    between atoms: C_2  and  C_3 
REMARK    2  A    between atoms: C_3  and  N_4 
REMARK    3  A    between atoms: N_4  and  C_5 
REMARK    4  A    between atoms: N_4  and  C_8 
REMARK    5  A    between atoms: C_5  and  C_6 
ROOT
ATOM      1  C   UNL d   1       8.417   4.149 -12.406  0.00  0.00     0.227 C 
ATOM      2  C   UNL d   1       6.889   3.854 -12.198  0.00  0.00     0.058 C 
ATOM      3  C   UNL d   1       6.195   3.059 -13.324  0.00  0.00     0.108 C 
ATOM      4  N   UNL d   1       7.118   2.269 -14.149  0.00  0.00    -0.323 N 
ATOM      5  C   UNL d   1       6.900   1.067 -14.803  0.00  0.00     0.129 A 
ATOM      6  C   UNL d   1       5.654   0.391 -14.708  0.00  0.00     0.118 C 
ATOM      7  N   UNL d   1       4.641  -0.141 -14.621  0.00  0.00    -0.190 NA
ATOM      8  C   UNL d   1       8.045   0.732 -15.483  0.00  0.00     0.029 A 
ATOM      9  C   UNL d   1       9.002   1.752 -15.222  0.00  0.00     0.015 A 
ATOM     10  C   UNL d   1       8.417   2.692 -14.428  0.00  0.00     0.040 A 
ATOM     11  C   UNL d   1       8.903   3.973 -13.859  0.00  0.00     0.077 C 
ENDROOT
BRANCH   1  12
ATOM     12  N   UNL d   1       8.897   5.403 -11.759  0.00  0.00     0.135 N 
BRANCH  12  13
ATOM     13  C   UNL d   1       8.337   6.611 -12.384  0.00  0.00     0.250 C 
BRANCH  13  14
ATOM     14  C   UNL d   1       9.018   7.935 -11.994  0.00  0.00     0.035 C 
ATOM     15  C   UNL d   1       8.148   9.197 -12.210  0.00  0.00     0.002 C 
ENDBRANCH  13  14
ENDBRANCH  12  13
BRANCH  12  16
ATOM     16  C   UNL d   1       8.613   5.382 -10.325  0.00  0.00     0.250 C 
BRANCH  16  17
ATOM     17  C   UNL d   1       9.472   4.387  -9.520  0.00  0.00     0.035 C 
ATOM     18  C   UNL d   1       8.653   3.732  -8.449  0.00  0.00     0.002 C 
ENDBRANCH  16  17
ENDBRANCH  12  16
ENDBRANCH   1  12
TORSDOF 5
