REMARK  5 active torsions:
REMARK  status: ('A' for Active; 'I' for Inactive)
REMARK    1  A    between atoms: C_4  and  C_5 
REMARK    2  A    between atoms: C_5  and  C_6 
REMARK    3  A    between atoms: C_6  and  N_7 
REMARK    4  A    between atoms: C_10  and  C_11 
REMARK    5  A    between atoms: C_13  and  C_14 
ROOT
ATOM      1  N   UNL d   1       9.976   6.767  -8.285  0.00  0.00     0.137 N 
ATOM      2  C   UNL d   1       9.943   7.737  -9.380  0.00  0.00     0.251 C 
ATOM      3  C   UNL d   1       9.967   7.007 -10.730  0.00  0.00     0.041 C 
ATOM      4  C   UNL d   1       8.823   5.993 -10.871  0.00  0.00     0.046 C 
ATOM      5  C   UNL d   1       8.791   5.086  -9.636  0.00  0.00     0.041 C 
ATOM      6  C   UNL d   1       8.794   5.908  -8.348  0.00  0.00     0.251 C 
ENDROOT
BRANCH   4   7
ATOM      7  C   UNL d   1       8.957   5.196 -12.142  0.00  0.00     0.082 A 
ATOM      8  N   UNL d   1       8.428   5.654 -13.265  0.00  0.00    -0.153 NA
ATOM      9  N   UNL d   1       8.746   4.723 -14.186  0.00  0.00    -0.153 NA
ATOM     10  C   UNL d   1       9.455   3.669 -13.659  0.00  0.00     0.081 A 
ATOM     11  C   UNL d   1       9.616   3.951 -12.335  0.00  0.00     0.033 A 
BRANCH  10  12
ATOM     12  C   UNL d   1       9.899   2.486 -14.454  0.00  0.00     0.042 C 
ATOM     13  C   UNL d   1       8.718   1.569 -14.829  0.00  0.00     0.006 C 
ATOM     14  C   UNL d   1       9.188   0.338 -15.622  0.00  0.00     0.000 C 
ATOM     15  C   UNL d   1       9.973   0.753 -16.875  0.00  0.00     0.000 C 
ATOM     16  C   UNL d   1      11.154   1.666 -16.514  0.00  0.00     0.000 C 
ATOM     17  C   UNL d   1      10.691   2.893 -15.713  0.00  0.00     0.006 C 
ENDBRANCH  10  12
ENDBRANCH   4   7
BRANCH   1  18
ATOM     18  C   UNL d   1       9.992   7.438  -6.988  0.00  0.00     0.255 C 
BRANCH  18  19
ATOM     19  C   UNL d   1      11.372   8.038  -6.686  0.00  0.00     0.062 C 
BRANCH  19  20
ATOM     20  C   UNL d   1      11.593   8.201  -5.194  0.00  0.00    -0.020 A 
ATOM     21  C   UNL d   1      11.614   9.476  -4.594  0.00  0.00    -0.004 A 
ATOM     22  C   UNL d   1      11.857   9.589  -3.210  0.00  0.00    -0.000 A 
ATOM     23  C   UNL d   1      12.088   8.443  -2.429  0.00  0.00    -0.000 A 
ATOM     24  C   UNL d   1      12.067   7.167  -3.023  0.00  0.00    -0.000 A 
ATOM     25  C   UNL d   1      11.829   7.052  -4.404  0.00  0.00    -0.004 A 
ENDBRANCH  19  20
ENDBRANCH  18  19
ENDBRANCH   1  18
TORSDOF 5
