REMARK  5 active torsions:
REMARK  status: ('A' for Active; 'I' for Inactive)
REMARK    1  A    between atoms: C_2  and  C_4 
REMARK    2  A    between atoms: C_4  and  S_5 
REMARK    3  A    between atoms: S_5  and  N_8 
REMARK    4  A    between atoms: C_12  and  C_13 
REMARK    5  A    between atoms: C_21  and  N_22 
ROOT
ATOM      1  N   UNL d   1       6.078  -0.563 -16.901  0.00  0.00    -0.218 N 
ATOM      2  C   UNL d   1       5.280  -0.312 -15.787  0.00  0.00     0.093 A 
ATOM      3  C   UNL d   1       5.859   0.659 -15.008  0.00  0.00     0.023 A 
ATOM      4  C   UNL d   1       7.079   1.053 -15.683  0.00  0.00     0.037 A 
ATOM      5  C   UNL d   1       8.118   1.990 -15.461  0.00  0.00     0.006 A 
ATOM      6  C   UNL d   1       9.177   2.057 -16.399  0.00  0.00     0.037 A 
ATOM      7  C   UNL d   1       9.204   1.193 -17.515  0.00  0.00     0.142 A 
ATOM      8  N   UNL d   1       8.213   0.310 -17.764  0.00  0.00    -0.211 NA
ATOM      9  C   UNL d   1       7.194   0.262 -16.856  0.00  0.00     0.158 A 
ENDROOT
BRANCH   1  10
ATOM     10  S   UNL d   1       5.685  -1.735 -18.096  0.00  0.00     0.252 S 
ATOM     11  O   UNL d   1       6.866  -1.923 -18.941  0.00  0.00    -0.204 OA
ATOM     12  O   UNL d   1       4.423  -1.248 -18.673  0.00  0.00    -0.204 OA
BRANCH  10  13
ATOM     13  C   UNL d   1       5.375  -3.232 -17.048  0.00  0.00     0.145 C 
BRANCH  13  14
ATOM     14  C   UNL d   1       5.740  -4.604 -17.671  0.00  0.00     0.018 C 
ATOM     15  C   UNL d   1       5.359  -5.749 -16.714  0.00  0.00     0.001 C 
ATOM     16  C   UNL d   1       7.213  -4.784 -18.110  0.00  0.00     0.001 C 
ENDBRANCH  13  14
ENDBRANCH  10  13
ENDBRANCH   1  10
BRANCH   5  17
ATOM     17  C   UNL d   1       8.119   2.901 -14.310  0.00  0.00     0.000 A 
ATOM     18  C   UNL d   1       6.920   3.500 -13.854  0.00  0.00     0.002 A 
ATOM     19  C   UNL d   1       6.920   4.364 -12.745  0.00  0.00     0.027 A 
ATOM     20  C   UNL d   1       8.130   4.660 -12.089  0.00  0.00     0.131 A 
ATOM     21  C   UNL d   1       9.329   4.082 -12.544  0.00  0.00     0.027 A 
ATOM     22  O   UNL d   1       8.151   5.492 -11.008  0.00  0.00    -0.190 OA
ATOM     23  C   UNL d   1       9.324   3.208 -13.643  0.00  0.00     0.002 A 
ENDBRANCH   5  17
BRANCH   7  24
ATOM     24  N   UNL d   1      10.277   1.222 -18.430  0.00  0.00    -0.330 N 
ATOM     25  C   UNL d   1      10.158   0.776 -19.822  0.00  0.00     0.138 C 
ATOM     26  C   UNL d   1      11.259  -0.251 -20.160  0.00  0.00     0.274 C 
ATOM     27  N   UNL d   1      12.584   0.303 -19.863  0.00  0.00     0.143 N 
ATOM     28  C   UNL d   1      12.658   0.615 -18.435  0.00  0.00     0.274 C 
ATOM     29  C   UNL d   1      13.617  -0.669 -20.188  0.00  0.00     0.286 C 
ATOM     30  C   UNL d   1      11.612   1.668 -18.045  0.00  0.00     0.138 C 
ENDBRANCH   7  24
TORSDOF 5
