REMARK  4 active torsions:
REMARK  status: ('A' for Active; 'I' for Inactive)
REMARK    1  A    between atoms: C_6  and  C_7 
REMARK       I    between atoms: C_7  and  N_9 
REMARK    2  A    between atoms: N_9  and  C_10 
REMARK    3  A    between atoms: C_10  and  N_11 
REMARK    4  A    between atoms: C_14  and  C_15 
ROOT
ATOM      1  N   UNL d   1       9.862   7.593  -9.264  0.00  0.00    -0.235 NA
ATOM      2  C   UNL d   1      10.034   8.973  -8.823  0.00  0.00     0.079 C 
ATOM      3  C   UNL d   1      10.238   9.025  -7.294  0.00  0.00     0.024 C 
ATOM      4  C   UNL d   1      11.435   8.174  -6.849  0.00  0.00     0.043 C 
ATOM      5  C   UNL d   1      11.293   6.771  -7.468  0.00  0.00     0.024 C 
ATOM      6  C   UNL d   1      11.049   6.807  -8.986  0.00  0.00     0.079 C 
ENDROOT
BRANCH   1   7
ATOM      7  C   UNL d   1       9.551   7.518 -10.684  0.00  0.00     0.152 C 
BRANCH   7   8
ATOM      8  N   UNL d   1       8.781   6.359 -11.103  0.00  0.00    -0.194 NA
ATOM      9  C   UNL d   1       9.039   5.567 -12.156  0.00  0.00     0.280 C 
ATOM     10  O   UNL d   1      10.096   5.589 -12.790  0.00  0.00    -0.265 OA
BRANCH   9  11
ATOM     11  C   UNL d   1       7.946   4.630 -12.592  0.00  0.00     0.058 A 
ATOM     12  C   UNL d   1       6.642   4.701 -12.041  0.00  0.00     0.005 A 
ATOM     13  C   UNL d   1       5.639   3.821 -12.482  0.00  0.00    -0.000 A 
ATOM     14  C   UNL d   1       5.921   2.853 -13.463  0.00  0.00    -0.004 A 
ATOM     15  C   UNL d   1       7.202   2.794 -14.046  0.00  0.00    -0.022 A 
ATOM     16  C   UNL d   1       7.514   1.782 -15.129  0.00  0.00     0.031 C 
ATOM     17  C   UNL d   1       8.204   3.679 -13.612  0.00  0.00     0.001 A 
ENDBRANCH   9  11
ENDBRANCH   7   8
ENDBRANCH   1   7
BRANCH   4  18
ATOM     18  C   UNL d   1      11.560   8.137  -5.314  0.00  0.00     0.059 A 
ATOM     19  N   UNL d   1      11.719   9.339  -4.709  0.00  0.00    -0.248 NA
ATOM     20  C   UNL d   1      11.873   9.365  -3.364  0.00  0.00     0.099 A 
ATOM     21  C   UNL d   1      11.902   8.206  -2.567  0.00  0.00     0.021 A 
ATOM     22  C   UNL d   1      11.771   6.956  -3.199  0.00  0.00     0.003 A 
ATOM     23  C   UNL d   1      11.596   6.920  -4.594  0.00  0.00     0.015 A 
ENDBRANCH   4  18
TORSDOF 4
