REMARK  3 active torsions:
REMARK  status: ('A' for Active; 'I' for Inactive)
REMARK    1  A    between atoms: C_2  and  C_3 
REMARK    2  A    between atoms: C_2  and  N_6 
REMARK    3  A    between atoms: C_9  and  C_10 
ROOT
ATOM      1  N   UNL d   1      11.111   1.438 -18.429  0.00  0.00     0.135 N 
ATOM      2  C   UNL d   1      11.148   0.333 -17.459  0.00  0.00     0.250 C 
ATOM      3  C   UNL d   1      10.594   0.763 -16.099  0.00  0.00     0.036 C 
ATOM      4  C   UNL d   1       9.151   1.290 -16.242  0.00  0.00     0.011 C 
ATOM      5  C   UNL d   1       9.101   2.365 -17.350  0.00  0.00     0.036 C 
ATOM      6  C   UNL d   1       9.718   1.843 -18.644  0.00  0.00     0.250 C 
ENDROOT
BRANCH   4   7
ATOM      7  C   UNL d   1       8.507   1.758 -14.912  0.00  0.00     0.062 C 
ATOM      8  C   UNL d   1       9.096   3.072 -14.365  0.00  0.00     0.172 C 
ATOM      9  C   UNL d   1       8.220   3.948 -13.568  0.00  0.00     0.031 A 
ATOM     10  O   UNL d   1      10.285   3.377 -14.593  0.00  0.00    -0.291 OA
ATOM     11  C   UNL d   1       6.874   3.593 -13.268  0.00  0.00    -0.019 A 
ATOM     12  C   UNL d   1       8.745   5.157 -13.067  0.00  0.00     0.003 A 
ATOM     13  C   UNL d   1       6.254   2.308 -13.787  0.00  0.00     0.027 C 
ATOM     14  C   UNL d   1       6.089   4.457 -12.470  0.00  0.00    -0.004 A 
ATOM     15  C   UNL d   1       6.967   1.788 -15.038  0.00  0.00     0.012 C 
ATOM     16  C   UNL d   1       6.636   5.654 -11.980  0.00  0.00    -0.000 A 
ATOM     17  C   UNL d   1       7.967   6.010 -12.270  0.00  0.00     0.000 A 
ENDBRANCH   4   7
BRANCH   1  18
ATOM     18  C   UNL d   1      11.726   1.051 -19.705  0.00  0.00     0.219 C 
ATOM     19  C   UNL d   1      11.729   2.223 -20.713  0.00  0.00     0.035 C 
BRANCH  18  20
ATOM     20  C   UNL d   1      13.154   0.558 -19.498  0.00  0.00     0.031 A 
ATOM     21  C   UNL d   1      13.473  -0.922 -19.542  0.00  0.00     0.002 A 
ATOM     22  C   UNL d   1      13.923  -0.027 -20.662  0.00  0.00     0.002 A 
ENDBRANCH  18  20
ENDBRANCH   1  18
TORSDOF 3
