REMARK  8 active torsions:
REMARK  status: ('A' for Active; 'I' for Inactive)
REMARK    1  A    between atoms: C_2  and  C_3 
REMARK    2  A    between atoms: C_10  and  O_11 
REMARK    3  A    between atoms: O_11  and  C_12 
REMARK    4  A    between atoms: C_12  and  C_13 
REMARK    5  A    between atoms: C_13  and  C_14 
REMARK    6  A    between atoms: C_14  and  C_15 
REMARK    7  A    between atoms: C_15  and  N_16 
REMARK    8  A    between atoms: N_19  and  C_20 
ROOT
ATOM      1  C   UNL d   1       8.949   2.495 -14.707  0.00  0.00     0.038 C 
ENDROOT
BRANCH   1   2
ATOM      2  C   UNL d   1       9.539   1.780 -15.930  0.00  0.00     0.035 C 
BRANCH   2   3
ATOM      3  C   UNL d   1       9.250   0.259 -15.936  0.00  0.00     0.149 C 
BRANCH   3   4
ATOM      4  O   UNL d   1       7.953  -0.018 -16.442  0.00  0.00    -0.329 OA
BRANCH   4   5
ATOM      5  C   UNL d   1       6.865  -0.033 -15.591  0.00  0.00     0.112 C 
ATOM      6  C   UNL d   1       6.903   0.441 -14.289  0.00  0.00     0.027 C 
ATOM      7  C   UNL d   1       5.748   0.560 -13.494  0.00  0.00     0.023 C 
ATOM      8  C   UNL d   1       4.574   0.004 -13.919  0.00  0.00     0.101 C 
ATOM      9  N   UNL d   1       4.546  -0.588 -15.150  0.00  0.00    -0.226 N 
ATOM     10  N   UNL d   1       3.451  -1.221 -15.652  0.00  0.00    -0.163 NA
ATOM     11  C   UNL d   1       5.646  -0.618 -16.044  0.00  0.00     0.110 A 
ATOM     12  C   UNL d   1       3.855  -1.620 -16.837  0.00  0.00     0.125 A 
ATOM     13  C   UNL d   1       5.179  -1.274 -17.161  0.00  0.00     0.083 A 
BRANCH  13  14
ATOM     14  C   UNL d   1       5.913  -1.604 -18.374  0.00  0.00     0.237 C 
ATOM     15  O   UNL d   1       7.087  -1.359 -18.644  0.00  0.00    -0.283 OA
ENDBRANCH  13  14
ENDBRANCH   4   5
ENDBRANCH   3   4
ENDBRANCH   2   3
ENDBRANCH   1   2
BRANCH   1  16
ATOM     16  C   UNL d   1       9.246   3.975 -14.577  0.00  0.00     0.251 C 
BRANCH  16  17
ATOM     17  N   UNL d   1       8.729   4.466 -13.295  0.00  0.00     0.141 N 
ATOM     18  C   UNL d   1       9.635   4.070 -12.209  0.00  0.00     0.274 C 
ATOM     19  C   UNL d   1       9.160   4.638 -10.876  0.00  0.00     0.137 C 
ATOM     20  N   UNL d   1       9.044   6.088 -10.973  0.00  0.00    -0.344 N 
ATOM     21  C   UNL d   1       8.201   6.559 -12.062  0.00  0.00     0.137 C 
ATOM     22  C   UNL d   1       8.703   5.930 -13.366  0.00  0.00     0.274 C 
BRANCH  20  23
ATOM     23  C   UNL d   1       9.613   6.986 -10.061  0.00  0.00     0.068 A 
ATOM     24  C   UNL d   1       9.521   6.778  -8.674  0.00  0.00     0.084 A 
ATOM     25  C   UNL d   1      10.110   7.678  -7.746  0.00  0.00     0.070 A 
ATOM     26 CL   UNL d   1       8.628   5.416  -8.108  0.00  0.00    -0.080 Cl
ATOM     27  C   UNL d   1      10.804   8.790  -8.234  0.00  0.00     0.012 A 
ATOM     28 CL   UNL d   1      10.003   7.431  -6.042  0.00  0.00    -0.081 Cl
ATOM     29  C   UNL d   1      10.903   9.015  -9.614  0.00  0.00     0.002 A 
ATOM     30  C   UNL d   1      10.287   8.122 -10.513  0.00  0.00     0.018 A 
ENDBRANCH  20  23
ENDBRANCH  16  17
ENDBRANCH   1  16
TORSDOF 8
