REMARK  10 active torsions:
REMARK  status: ('A' for Active; 'I' for Inactive)
REMARK    1  A    between atoms: O_2  and  C_3 
REMARK    2  A    between atoms: C_8  and  N_9 
REMARK    3  A    between atoms: N_12  and  C_13 
REMARK    4  A    between atoms: C_13  and  C_14 
REMARK    5  A    between atoms: C_14  and  C_15 
REMARK    6  A    between atoms: C_15  and  C_16 
REMARK    7  A    between atoms: C_16  and  C_17 
REMARK    8  A    between atoms: C_17  and  C_18 
REMARK       I    between atoms: C_18  and  N_20 
REMARK    9  A    between atoms: N_20  and  C_21 
REMARK   10  A    between atoms: C_21  and  C_22 
ROOT
ATOM      1  C   UNL d   1       6.497   1.188 -14.139  0.00  0.00     0.250 C 
ENDROOT
BRANCH   1   2
ATOM      2  N   UNL d   1       7.402   0.440 -15.007  0.00  0.00     0.141 N 
ATOM      3  C   UNL d   1       8.805   0.664 -14.643  0.00  0.00     0.274 C 
ATOM      4  C   UNL d   1       9.754  -0.186 -15.487  0.00  0.00     0.137 C 
ATOM      5  N   UNL d   1       9.490   0.017 -16.901  0.00  0.00    -0.343 N 
ATOM      6  C   UNL d   1       8.097  -0.120 -17.323  0.00  0.00     0.137 C 
ATOM      7  C   UNL d   1       7.177   0.738 -16.423  0.00  0.00     0.274 C 
BRANCH   5   8
ATOM      8  C   UNL d   1      10.489   0.469 -17.776  0.00  0.00     0.079 A 
ATOM      9  C   UNL d   1      11.358   1.546 -17.432  0.00  0.00     0.110 A 
ATOM     10  C   UNL d   1      12.380   1.925 -18.335  0.00  0.00     0.026 A 
ATOM     11  C   UNL d   1      12.543   1.251 -19.559  0.00  0.00     0.002 A 
ATOM     12  C   UNL d   1      11.681   0.194 -19.901  0.00  0.00     0.002 A 
ATOM     13  C   UNL d   1      10.657  -0.187 -19.015  0.00  0.00     0.019 A 
BRANCH   9  14
ATOM     14  O   UNL d   1      11.141   2.192 -16.230  0.00  0.00    -0.327 OA
ATOM     15  C   UNL d   1      11.943   3.307 -15.890  0.00  0.00     0.181 C 
ENDBRANCH   9  14
ENDBRANCH   5   8
ENDBRANCH   1   2
BRANCH   1  16
ATOM     16  C   UNL d   1       6.662   2.721 -14.239  0.00  0.00     0.035 C 
BRANCH  16  17
ATOM     17  C   UNL d   1       6.059   3.478 -13.056  0.00  0.00     0.003 C 
BRANCH  17  18
ATOM     18  C   UNL d   1       6.315   4.986 -13.205  0.00  0.00     0.010 C 
BRANCH  18  19
ATOM     19  C   UNL d   1       6.653   5.736 -11.907  0.00  0.00     0.090 C 
BRANCH  19  20
ATOM     20  C   UNL d   1       7.982   5.327 -11.241  0.00  0.00     0.252 C 
ATOM     21  O   UNL d   1       8.701   4.452 -11.722  0.00  0.00    -0.271 OA
ATOM     22  N   UNL d   1       8.290   5.974 -10.113  0.00  0.00    -0.233 NA
BRANCH  22  23
ATOM     23  C   UNL d   1       9.386   5.609  -9.226  0.00  0.00     0.155 C 
BRANCH  23  24
ATOM     24  C   UNL d   1      10.009   6.817  -8.562  0.00  0.00     0.002 A 
ATOM     25  C   UNL d   1      10.864   7.660  -9.301  0.00  0.00    -0.002 A 
ATOM     26  C   UNL d   1      11.456   8.777  -8.685  0.00  0.00    -0.000 A 
ATOM     27  C   UNL d   1      11.193   9.059  -7.330  0.00  0.00    -0.000 A 
ATOM     28  C   UNL d   1      10.333   8.222  -6.593  0.00  0.00    -0.000 A 
ATOM     29  C   UNL d   1       9.742   7.101  -7.207  0.00  0.00    -0.002 A 
ENDBRANCH  23  24
ENDBRANCH  22  23
ENDBRANCH  19  20
ENDBRANCH  18  19
ENDBRANCH  17  18
ENDBRANCH  16  17
ENDBRANCH   1  16
TORSDOF 10
