REMARK  3 active torsions:
REMARK  status: ('A' for Active; 'I' for Inactive)
REMARK    1  A    between atoms: C_4  and  C_5 
REMARK    2  A    between atoms: C_5  and  C_6 
REMARK    3  A    between atoms: C_6  and  N_7 
ROOT
ATOM      1  C   UNL d   1      11.353   7.779  -7.338  0.00  0.00     0.081 C 
ENDROOT
BRANCH   1   2
ATOM      2  C   UNL d   1      10.524   7.179  -8.459  0.00  0.00     0.061 A 
ATOM      3  C   UNL d   1      10.288   7.900  -9.650  0.00  0.00     0.015 A 
ATOM      4  C   UNL d   1       9.535   7.288 -10.671  0.00  0.00     0.003 A 
ATOM      5  C   UNL d   1       9.062   5.980 -10.472  0.00  0.00     0.021 A 
ATOM      6  C   UNL d   1       9.353   5.342  -9.254  0.00  0.00     0.099 A 
ATOM      7  N   UNL d   1      10.086   5.914  -8.279  0.00  0.00    -0.248 NA
ENDBRANCH   1   2
BRANCH   1   8
ATOM      8  C   UNL d   1      11.032   7.176  -5.949  0.00  0.00     0.257 C 
BRANCH   8   9
ATOM      9  N   UNL d   1      11.819   7.775  -4.878  0.00  0.00     0.137 N 
ATOM     10  C   UNL d   1      11.709   7.010  -3.646  0.00  0.00     0.250 C 
ATOM     11  C   UNL d   1      12.245   7.981  -2.595  0.00  0.00     0.037 C 
ATOM     12  C   UNL d   1      12.031   9.370  -3.190  0.00  0.00     0.037 C 
ATOM     13  C   UNL d   1      11.376   9.117  -4.543  0.00  0.00     0.250 C 
ENDBRANCH   8   9
ENDBRANCH   1   8
TORSDOF 3
