REMARK  10 active torsions:
REMARK  status: ('A' for Active; 'I' for Inactive)
REMARK    1  A    between atoms: C_2  and  O_3 
REMARK    2  A    between atoms: O_3  and  C_4 
REMARK    3  A    between atoms: C_4  and  C_6 
REMARK    4  A    between atoms: C_12  and  C_13 
REMARK    5  A    between atoms: N_22  and  C_23 
REMARK    6  A    between atoms: C_23  and  C_24 
REMARK    7  A    between atoms: C_26  and  C_27 
REMARK    8  A    between atoms: C_27  and  C_28 
REMARK    9  A    between atoms: C_28  and  N_29 
REMARK       I    between atoms: N_29  and  C_30 
REMARK   10  A    between atoms: C_30  and  C_32 
ROOT
ATOM      1  C   UNL d   1       9.191   4.072 -17.059  0.00  0.00     0.062 C 
ATOM      2  C   UNL d   1       8.971   2.754 -16.808  0.00  0.00    -0.005 C 
ATOM      3  C   UNL d   1       9.067   1.620 -17.835  0.00  0.00     0.238 C 
ATOM      4  C   UNL d   1       7.689   0.971 -18.073  0.00  0.00     0.037 C 
ATOM      5  C   UNL d   1       6.975   0.521 -16.793  0.00  0.00     0.003 C 
ATOM      6  C   UNL d   1       7.179   1.491 -15.615  0.00  0.00     0.008 C 
ATOM      7  C   UNL d   1       8.563   2.187 -15.431  0.00  0.00     0.038 C 
ATOM      8  C   UNL d   1       9.658   1.152 -15.043  0.00  0.00     0.043 C 
ATOM      9  C   UNL d   1       9.964   0.087 -16.125  0.00  0.00     0.251 C 
ATOM     10  N   UNL d   1      10.116   0.653 -17.469  0.00  0.00     0.139 N 
ENDROOT
BRANCH  10  11
ATOM     11  C   UNL d   1      11.443   1.256 -17.606  0.00  0.00     0.251 C 
BRANCH  11  12
ATOM     12  C   UNL d   1      12.403   0.307 -18.288  0.00  0.00     0.034 A 
ATOM     13  C   UNL d   1      13.435   0.873 -19.236  0.00  0.00     0.004 A 
ATOM     14  C   UNL d   1      12.306   0.020 -19.768  0.00  0.00     0.002 A 
BRANCH  13  15
ATOM     15  C   UNL d   1      13.492   2.365 -19.556  0.00  0.00     0.026 C 
BRANCH  15  16
ATOM     16  C   UNL d   1      14.244   3.162 -18.478  0.00  0.00     0.129 C 
BRANCH  16  17
ATOM     17  N   UNL d   1      14.277   4.579 -18.798  0.00  0.00    -0.233 NA
ATOM     18  C   UNL d   1      15.191   5.444 -18.330  0.00  0.00     0.293 C 
ATOM     19  O   UNL d   1      15.952   5.190 -17.395  0.00  0.00    -0.264 OA
BRANCH  18  20
ATOM     20  C   UNL d   1      15.325   6.731 -19.043  0.00  0.00     0.139 A 
ATOM     21  N   UNL d   1      14.427   7.090 -20.041  0.00  0.00    -0.241 NA
ATOM     22  C   UNL d   1      14.726   8.332 -20.555  0.00  0.00     0.082 A 
ATOM     23  C   UNL d   1      15.899   8.751 -19.869  0.00  0.00     0.019 A 
ATOM     24  C   UNL d   1      14.095   9.125 -21.528  0.00  0.00     0.019 A 
ATOM     25  C   UNL d   1      16.258   7.731 -18.924  0.00  0.00     0.025 A 
ATOM     26  C   UNL d   1      16.438  10.008 -20.228  0.00  0.00     0.002 A 
ATOM     27  C   UNL d   1      15.817  10.811 -21.206  0.00  0.00     0.000 A 
ATOM     28  C   UNL d   1      14.647  10.378 -21.854  0.00  0.00     0.002 A 
ENDBRANCH  18  20
ENDBRANCH  16  17
ENDBRANCH  15  16
ENDBRANCH  13  15
ENDBRANCH  11  12
ENDBRANCH  10  11
BRANCH   1  29
ATOM     29  C   UNL d   1       9.501   4.705 -18.358  0.00  0.00     0.295 C 
ATOM     30  O   UNL d   1       9.512   4.136 -19.450  0.00  0.00    -0.259 OA
BRANCH  29  31
ATOM     31  O   UNL d   1       9.726   6.019 -18.198  0.00  0.00    -0.298 OA
BRANCH  31  32
ATOM     32  C   UNL d   1      10.010   6.835 -19.325  0.00  0.00     0.152 C 
ATOM     33  C   UNL d   1      11.494   6.738 -19.663  0.00  0.00     0.035 C 
ENDBRANCH  31  32
ENDBRANCH  29  31
ENDBRANCH   1  29
BRANCH   7  34
ATOM     34  C   UNL d   1       8.437   3.258 -14.298  0.00  0.00    -0.017 A 
ATOM     35  C   UNL d   1       7.197   3.482 -13.640  0.00  0.00     0.023 A 
ATOM     36  C   UNL d   1       7.066   4.445 -12.617  0.00  0.00     0.131 A 
ATOM     37  C   UNL d   1       8.173   5.209 -12.211  0.00  0.00     0.027 A 
ATOM     38  O   UNL d   1       5.842   4.615 -12.041  0.00  0.00    -0.190 OA
ATOM     39  C   UNL d   1       9.411   5.005 -12.847  0.00  0.00     0.002 A 
ATOM     40  C   UNL d   1       9.543   4.034 -13.870  0.00  0.00    -0.004 A 
ENDBRANCH   7  34
TORSDOF 10
