REMARK  5 active torsions:
REMARK  status: ('A' for Active; 'I' for Inactive)
REMARK    1  A    between atoms: C_2  and  N_3 
REMARK    2  A    between atoms: C_7  and  C_8 
REMARK    3  A    between atoms: C_8  and  N_9 
REMARK       I    between atoms: N_9  and  C_10 
REMARK    4  A    between atoms: C_10  and  C_12 
REMARK    5  A    between atoms: C_13  and  O_14 
ROOT
ATOM      1  N   UNL d   1       9.430   7.387  -7.289  0.00  0.00    -0.232 NA
ATOM      2  C   UNL d   1       9.927   6.497  -8.113  0.00  0.00     0.279 C 
ATOM      3  O   UNL d   1      10.682   5.588  -7.739  0.00  0.00    -0.265 OA
ENDROOT
BRANCH   2   4
ATOM      4  C   UNL d   1       9.535   6.585  -9.526  0.00  0.00     0.106 A 
ATOM      5  C   UNL d   1       8.726   5.580 -10.083  0.00  0.00     0.144 A 
ATOM      6  C   UNL d   1       8.315   5.705 -11.438  0.00  0.00     0.060 A 
ATOM      7  O   UNL d   1       8.260   4.582  -9.283  0.00  0.00    -0.189 OA
ATOM      8  C   UNL d   1       8.713   6.833 -12.191  0.00  0.00     0.011 A 
ATOM      9 BR   UNL d   1       7.172   4.440 -12.283  0.00  0.00    -0.047 Br
ATOM     10  C   UNL d   1       9.469   7.855 -11.607  0.00  0.00     0.025 A 
ATOM     11  C   UNL d   1       9.907   7.724 -10.282  0.00  0.00     0.101 A 
BRANCH  11  12
ATOM     12  O   UNL d   1      10.665   8.702  -9.723  0.00  0.00    -0.328 OA
ATOM     13  C   UNL d   1      12.036   8.677 -10.093  0.00  0.00     0.181 C 
ENDBRANCH  11  12
ENDBRANCH   2   4
BRANCH   1  14
ATOM     14  C   UNL d   1       9.708   7.332  -5.876  0.00  0.00     0.162 C 
BRANCH  14  15
ATOM     15  C   UNL d   1      11.165   7.751  -5.495  0.00  0.00     0.243 C 
ATOM     16  N   UNL d   1      11.207   9.020  -4.778  0.00  0.00     0.137 N 
ATOM     17  C   UNL d   1      12.502   9.097  -4.114  0.00  0.00     0.250 C 
ATOM     18  C   UNL d   1      12.681   7.696  -3.550  0.00  0.00     0.037 C 
ATOM     19  C   UNL d   1      11.803   6.811  -4.454  0.00  0.00     0.037 C 
BRANCH  16  20
ATOM     20  C   UNL d   1      10.863  10.188  -5.600  0.00  0.00     0.250 C 
ATOM     21  C   UNL d   1      11.921  10.616  -6.603  0.00  0.00     0.037 C 
ENDBRANCH  16  20
ENDBRANCH  14  15
ENDBRANCH   1  14
TORSDOF 5
