REMARK  8 active torsions:
REMARK  status: ('A' for Active; 'I' for Inactive)
REMARK    1  A    between atoms: N_14  and  C_15 
REMARK    2  A    between atoms: C_15  and  C_16 
REMARK    3  A    between atoms: C_16  and  C_17 
REMARK    4  A    between atoms: C_17  and  C_18 
REMARK    5  A    between atoms: C_18  and  C_19 
REMARK    6  A    between atoms: C_19  and  C_20 
REMARK    7  A    between atoms: C_20  and  N_21 
REMARK    8  A    between atoms: N_24  and  C_25 
ROOT
ATOM      1  C   UNL d   1       6.846   3.094 -13.911  0.00  0.00     0.002 C 
ENDROOT
BRANCH   1   2
ATOM      2  C   UNL d   1       8.159   2.853 -14.711  0.00  0.00     0.025 C 
BRANCH   2   3
ATOM      3  C   UNL d   1       8.652   1.394 -14.629  0.00  0.00     0.118 C 
BRANCH   3   4
ATOM      4  N   UNL d   1       7.956   0.477 -15.525  0.00  0.00    -0.254 N 
ATOM      5  S   UNL d   1       8.432   0.270 -17.174  0.00  0.00     0.268 S 
ATOM      6  O   UNL d   1       9.460  -0.783 -17.217  0.00  0.00    -0.200 OA
ATOM      7  O   UNL d   1       8.611   1.601 -17.775  0.00  0.00    -0.200 OA
ATOM      8  C   UNL d   1       6.820  -0.382 -17.541  0.00  0.00     0.105 A 
ATOM      9  C   UNL d   1       5.991  -0.412 -16.404  0.00  0.00     0.029 A 
ATOM     10  C   UNL d   1       6.323  -0.853 -18.770  0.00  0.00     0.013 A 
ATOM     11  C   UNL d   1       4.660  -0.866 -16.435  0.00  0.00     0.002 A 
ATOM     12  C   UNL d   1       6.647   0.051 -15.251  0.00  0.00     0.071 A 
ATOM     13  C   UNL d   1       4.171  -1.327 -17.677  0.00  0.00     0.000 A 
ATOM     14  C   UNL d   1       3.938  -0.821 -15.227  0.00  0.00     0.000 A 
ATOM     15  C   UNL d   1       4.994  -1.327 -18.830  0.00  0.00     0.001 A 
ATOM     16  C   UNL d   1       4.558  -0.352 -14.049  0.00  0.00     0.002 A 
ATOM     17  C   UNL d   1       5.922   0.024 -14.037  0.00  0.00     0.018 A 
ENDBRANCH   3   4
ENDBRANCH   2   3
ENDBRANCH   1   2
BRANCH   1  18
ATOM     18  C   UNL d   1       6.813   4.374 -13.088  0.00  0.00     0.002 C 
BRANCH  18  19
ATOM     19  C   UNL d   1       7.846   4.411 -11.959  0.00  0.00     0.035 C 
BRANCH  19  20
ATOM     20  C   UNL d   1       8.161   5.848 -11.530  0.00  0.00     0.250 C 
BRANCH  20  21
ATOM     21  N   UNL d   1       9.308   5.895 -10.621  0.00  0.00     0.141 N 
ATOM     22  C   UNL d   1       8.862   5.524  -9.272  0.00  0.00     0.274 C 
ATOM     23  C   UNL d   1      10.033   5.579  -8.290  0.00  0.00     0.137 C 
ATOM     24  N   UNL d   1      10.654   6.899  -8.325  0.00  0.00    -0.344 N 
ATOM     25  C   UNL d   1      11.028   7.388  -9.652  0.00  0.00     0.137 C 
ATOM     26  C   UNL d   1       9.830   7.265 -10.598  0.00  0.00     0.274 C 
BRANCH  24  27
ATOM     27  C   UNL d   1      10.903   7.618  -7.159  0.00  0.00     0.057 A 
ATOM     28  C   UNL d   1      11.242   6.950  -5.954  0.00  0.00     0.029 A 
ATOM     29  C   UNL d   1      11.461   7.657  -4.767  0.00  0.00     0.070 A 
ATOM     30  C   UNL d   1      11.365   9.062  -4.758  0.00  0.00     0.068 A 
ATOM     31 CL   UNL d   1      11.864   6.798  -3.324  0.00  0.00    -0.081 Cl
ATOM     32  C   UNL d   1      11.050   9.748  -5.947  0.00  0.00     0.014 A 
ATOM     33 CL   UNL d   1      11.597   9.916  -3.288  0.00  0.00    -0.082 Cl
ATOM     34  C   UNL d   1      10.814   9.036  -7.135  0.00  0.00     0.018 A 
ENDBRANCH  24  27
ENDBRANCH  20  21
ENDBRANCH  19  20
ENDBRANCH  18  19
ENDBRANCH   1  18
TORSDOF 8
