REMARK  9 active torsions:
REMARK  status: ('A' for Active; 'I' for Inactive)
REMARK    1  A    between atoms: O_2  and  C_3 
REMARK    2  A    between atoms: C_8  and  C_9 
REMARK    3  A    between atoms: C_11  and  C_12 
REMARK    4  A    between atoms: C_12  and  N_13 
REMARK    5  A    between atoms: N_13  and  C_14 
REMARK    6  A    between atoms: C_14  and  C_15 
REMARK    7  A    between atoms: C_16  and  C_17 
REMARK    8  A    between atoms: C_17  and  O_18 
REMARK    9  A    between atoms: O_18  and  C_19 
ROOT
ATOM      1  C   UNL d   1       9.184   5.190 -13.747  0.00  0.00     0.009 C 
ATOM      2  C   UNL d   1       9.440   5.788 -12.589  0.00  0.00     0.004 C 
ENDROOT
BRANCH   1   3
ATOM      3  C   UNL d   1       9.940   3.994 -14.282  0.00  0.00     0.316 C 
BRANCH   3   4
ATOM      4  N   UNL d   1       9.042   2.874 -14.445  0.00  0.00     0.344 N 
BRANCH   4   5
ATOM      5  C   UNL d   1       9.686   1.854 -15.250  0.00  0.00     0.291 C 
BRANCH   5   6
ATOM      6  C   UNL d   1       8.756   0.684 -15.468  0.00  0.00     0.041 A 
ATOM      7  C   UNL d   1       7.496   0.819 -16.305  0.00  0.00     0.026 A 
ATOM      8  C   UNL d   1       8.673   0.032 -16.839  0.00  0.00     0.007 A 
BRANCH   7   9
ATOM      9  C   UNL d   1       6.228   0.155 -15.880  0.00  0.00    -0.000 A 
ATOM     10  C   UNL d   1       5.588   0.494 -14.664  0.00  0.00     0.090 A 
ATOM     11  C   UNL d   1       4.395  -0.181 -14.301  0.00  0.00     0.024 A 
ATOM     12  C   UNL d   1       3.858  -1.178 -15.131  0.00  0.00     0.002 A 
ATOM     13  C   UNL d   1       4.495  -1.506 -16.344  0.00  0.00    -0.000 A 
ATOM     14  C   UNL d   1       5.665  -0.841 -16.716  0.00  0.00    -0.002 A 
BRANCH  10  15
ATOM     15  O   UNL d   1       6.141   1.511 -13.909  0.00  0.00    -0.328 OA
ATOM     16  C   UNL d   1       5.495   1.893 -12.700  0.00  0.00     0.181 C 
ENDBRANCH  10  15
ENDBRANCH   7   9
ENDBRANCH   5   6
ENDBRANCH   4   5
ENDBRANCH   3   4
ENDBRANCH   1   3
BRANCH   2  17
ATOM     17  C   UNL d   1       8.684   6.998 -12.023  0.00  0.00     0.175 C 
BRANCH  17  18
ATOM     18  O   UNL d   1       9.519   7.938 -11.330  0.00  0.00    -0.326 OA
BRANCH  18  19
ATOM     19  C   UNL d   1       9.850   7.658 -10.019  0.00  0.00     0.096 A 
ATOM     20  C   UNL d   1      10.191   8.751  -9.179  0.00  0.00     0.043 A 
ATOM     21  C   UNL d   1      10.490   8.526  -7.815  0.00  0.00     0.087 A 
ATOM     22  C   UNL d   1      10.470   7.212  -7.307  0.00  0.00     0.018 A 
ATOM     23  N   UNL d   1      10.784   9.577  -6.909  0.00  0.00    -0.208 NA
ATOM     24  C   UNL d   1      10.137   6.138  -8.138  0.00  0.00     0.004 A 
ATOM     25  C   UNL d   1      10.771   7.010  -5.894  0.00  0.00     0.006 A 
ATOM     26  C   UNL d   1       9.818   6.353  -9.489  0.00  0.00     0.024 A 
ATOM     27  C   UNL d   1      11.051   8.052  -5.085  0.00  0.00     0.063 A 
ATOM     28  C   UNL d   1      11.020   9.430  -5.583  0.00  0.00     0.279 A 
ATOM     29  O   UNL d   1      11.128  10.383  -4.850  0.00  0.00    -0.265 OA
ENDBRANCH  18  19
ENDBRANCH  17  18
ENDBRANCH   2  17
TORSDOF 9
