REMARK  9 active torsions:
REMARK  status: ('A' for Active; 'I' for Inactive)
REMARK    1  A    between atoms: O_2  and  C_3 
REMARK    2  A    between atoms: C_9  and  C_10 
REMARK    3  A    between atoms: C_12  and  C_13 
REMARK    4  A    between atoms: C_13  and  N_14 
REMARK    5  A    between atoms: N_14  and  C_15 
REMARK    6  A    between atoms: C_15  and  C_16 
REMARK    7  A    between atoms: C_16  and  C_17 
REMARK    8  A    between atoms: C_17  and  O_18 
REMARK    9  A    between atoms: O_18  and  C_19 
ROOT
ATOM      1  C   UNL d   1       9.716   7.996 -11.954  0.00  0.00     0.293 C 
ENDROOT
BRANCH   1   2
ATOM      2  N   UNL d   1       9.167   6.648 -11.779  0.00  0.00     0.339 N 
BRANCH   2   3
ATOM      3  C   UNL d   1       8.943   6.068 -13.082  0.00  0.00     0.290 C 
BRANCH   3   4
ATOM      4  C   UNL d   1       8.778   4.557 -12.990  0.00  0.00     0.041 A 
ATOM      5  C   UNL d   1       9.336   3.616 -14.053  0.00  0.00     0.026 A 
ATOM      6  C   UNL d   1       9.951   3.636 -12.682  0.00  0.00     0.007 A 
BRANCH   5   7
ATOM      7  C   UNL d   1      10.127   4.117 -15.256  0.00  0.00     0.002 C 
ATOM      8  C   UNL d   1       9.794   3.727 -16.575  0.00  0.00     0.090 C 
ATOM      9  C   UNL d   1      10.496   4.325 -17.660  0.00  0.00     0.026 C 
ATOM     10  C   UNL d   1      11.508   5.289 -17.444  0.00  0.00     0.032 C 
ATOM     11  C   UNL d   1      11.850   5.638 -16.137  0.00  0.00     0.140 C 
ATOM     12  F   UNL d   1      12.770   6.593 -15.878  0.00  0.00    -0.204 F 
ATOM     13  C   UNL d   1      11.223   4.994 -15.078  0.00  0.00     0.027 C 
BRANCH   8  14
ATOM     14  O   UNL d   1       8.783   2.800 -16.733  0.00  0.00    -0.328 OA
ATOM     15  C   UNL d   1       8.552   2.292 -18.029  0.00  0.00     0.181 C 
ENDBRANCH   8  14
ENDBRANCH   5   7
ENDBRANCH   3   4
ENDBRANCH   2   3
ENDBRANCH   1   2
BRANCH   1  16
ATOM     16  C   UNL d   1      10.455   8.429 -10.689  0.00  0.00     0.071 C 
BRANCH  16  17
ATOM     17  C   UNL d   1       9.451   8.917  -9.653  0.00  0.00     0.151 C 
BRANCH  17  18
ATOM     18  O   UNL d   1      10.062   9.585  -8.544  0.00  0.00    -0.331 OA
BRANCH  18  19
ATOM     19  C   UNL d   1      10.523   8.817  -7.528  0.00  0.00     0.096 A 
ATOM     20  C   UNL d   1      10.870   9.438  -6.289  0.00  0.00     0.043 A 
ATOM     21  C   UNL d   1      11.323   8.677  -5.216  0.00  0.00     0.087 A 
ATOM     22  C   UNL d   1      11.440   7.285  -5.373  0.00  0.00     0.018 A 
ATOM     23  N   UNL d   1      11.671   9.239  -3.962  0.00  0.00    -0.208 NA
ATOM     24  C   UNL d   1      11.153   6.638  -6.574  0.00  0.00     0.004 A 
ATOM     25  C   UNL d   1      11.908   6.535  -4.218  0.00  0.00     0.006 A 
ATOM     26  C   UNL d   1      10.680   7.390  -7.647  0.00  0.00     0.024 A 
ATOM     27  C   UNL d   1      12.241   7.108  -3.059  0.00  0.00     0.063 A 
ATOM     28  C   UNL d   1      12.108   8.558  -2.888  0.00  0.00     0.279 A 
ATOM     29  O   UNL d   1      12.370   9.109  -1.831  0.00  0.00    -0.265 OA
ENDBRANCH  18  19
ENDBRANCH  17  18
ENDBRANCH  16  17
ENDBRANCH   1  16
TORSDOF 9
