REMARK  11 active torsions:
REMARK  status: ('A' for Active; 'I' for Inactive)
REMARK    1  A    between atoms: C_2  and  C_3 
REMARK    2  A    between atoms: C_3  and  N_4 
REMARK    3  A    between atoms: N_4  and  C_5 
REMARK    4  A    between atoms: N_4  and  C_21 
REMARK    5  A    between atoms: C_5  and  C_6 
REMARK    6  A    between atoms: C_6  and  C_7 
REMARK    7  A    between atoms: C_7  and  C_8 
REMARK    8  A    between atoms: C_8  and  O_9 
REMARK    9  A    between atoms: O_9  and  C_10 
REMARK   10  A    between atoms: C_21  and  C_22 
REMARK   11  A    between atoms: C_24  and  C_25 
ROOT
ATOM      1  N   UNL d   1       9.344   4.623 -13.899  0.00  0.00     0.137 N 
ENDROOT
BRANCH   1   2
ATOM      2  C   UNL d   1       8.387   5.726 -13.872  0.00  0.00     0.250 C 
BRANCH   2   3
ATOM      3  C   UNL d   1       7.013   5.477 -13.228  0.00  0.00     0.035 C 
ATOM      4  C   UNL d   1       6.567   6.779 -12.534  0.00  0.00     0.002 C 
ENDBRANCH   2   3
ENDBRANCH   1   2
BRANCH   1   5
ATOM      5  C   UNL d   1       9.994   4.458 -12.596  0.00  0.00     0.250 C 
BRANCH   5   6
ATOM      6  C   UNL d   1       9.001   4.412 -11.438  0.00  0.00     0.038 C 
BRANCH   6   7
ATOM      7  C   UNL d   1       9.496   4.458 -10.043  0.00  0.00     0.035 C 
BRANCH   7   8
ATOM      8  C   UNL d   1       8.272   4.773  -9.102  0.00  0.00     0.149 C 
BRANCH   8   9
ATOM      9  O   UNL d   1       8.833   5.114  -7.833  0.00  0.00    -0.331 OA
BRANCH   9  10
ATOM     10  C   UNL d   1       9.453   6.310  -7.639  0.00  0.00     0.096 A 
ATOM     11  C   UNL d   1      10.045   6.616  -6.381  0.00  0.00     0.043 A 
ATOM     12  C   UNL d   1      10.696   7.819  -6.181  0.00  0.00     0.087 A 
ATOM     13  C   UNL d   1      10.751   8.722  -7.222  0.00  0.00     0.018 A 
ATOM     14  N   UNL d   1      11.288   8.129  -4.920  0.00  0.00    -0.208 NA
ATOM     15  C   UNL d   1      10.178   8.466  -8.475  0.00  0.00     0.004 A 
ATOM     16  C   UNL d   1      11.389   9.940  -6.947  0.00  0.00     0.006 A 
ATOM     17  C   UNL d   1       9.519   7.264  -8.661  0.00  0.00     0.024 A 
ATOM     18  C   UNL d   1      11.949  10.235  -5.774  0.00  0.00     0.063 A 
ATOM     19  C   UNL d   1      11.904   9.300  -4.670  0.00  0.00     0.279 A 
ATOM     20  O   UNL d   1      12.392   9.537  -3.562  0.00  0.00    -0.265 OA
ENDBRANCH   9  10
ENDBRANCH   8   9
ENDBRANCH   7   8
ENDBRANCH   6   7
ENDBRANCH   5   6
ENDBRANCH   1   5
BRANCH   1  21
ATOM     21  C   UNL d   1      10.399   4.797 -14.924  0.00  0.00     0.251 C 
BRANCH  21  22
ATOM     22  C   UNL d   1       9.936   5.333 -16.314  0.00  0.00     0.038 A 
ATOM     23  C   UNL d   1      10.065   4.548 -17.572  0.00  0.00     0.025 A 
ATOM     24  C   UNL d   1      10.954   5.756 -17.356  0.00  0.00     0.007 A 
BRANCH  23  25
ATOM     25  C   UNL d   1      10.611   3.176 -17.512  0.00  0.00    -0.011 A 
ATOM     26  C   UNL d   1       9.979   2.118 -16.801  0.00  0.00     0.064 A 
ATOM     27  C   UNL d   1      10.624   0.879 -16.727  0.00  0.00     0.068 A 
ATOM     28 CL   UNL d   1       8.462   2.349 -15.986  0.00  0.00    -0.082 Cl
ATOM     29  C   UNL d   1      11.833   0.673 -17.343  0.00  0.00     0.012 A 
ATOM     30 CL   UNL d   1       9.884  -0.351 -15.826  0.00  0.00    -0.082 Cl
ATOM     31  C   UNL d   1      12.486   1.717 -18.049  0.00  0.00     0.001 A 
ATOM     32  C   UNL d   1      11.871   2.969 -18.123  0.00  0.00    -0.003 A 
ENDBRANCH  23  25
ENDBRANCH  21  22
ENDBRANCH   1  21
TORSDOF 11
