REMARK  11 active torsions:
REMARK  status: ('A' for Active; 'I' for Inactive)
REMARK    1  A    between atoms: C_2  and  C_3 
REMARK    2  A    between atoms: C_3  and  N_4 
REMARK    3  A    between atoms: N_4  and  C_5 
REMARK    4  A    between atoms: N_4  and  C_21 
REMARK    5  A    between atoms: C_5  and  C_6 
REMARK    6  A    between atoms: C_6  and  C_7 
REMARK    7  A    between atoms: C_7  and  C_8 
REMARK    8  A    between atoms: C_8  and  N_9 
REMARK       I    between atoms: N_9  and  C_10 
REMARK    9  A    between atoms: C_10  and  C_12 
REMARK   10  A    between atoms: C_21  and  C_22 
REMARK   11  A    between atoms: C_24  and  C_25 
ROOT
ATOM      1  C   UNL d   1      10.529   4.734 -13.199  0.00  0.00     0.250 C 
ENDROOT
BRANCH   1   2
ATOM      2  N   UNL d   1      10.483   4.872 -14.654  0.00  0.00     0.137 N 
BRANCH   2   3
ATOM      3  C   UNL d   1      11.540   4.110 -15.317  0.00  0.00     0.250 C 
BRANCH   3   4
ATOM      4  C   UNL d   1      12.902   4.799 -15.247  0.00  0.00     0.035 C 
ATOM      5  C   UNL d   1      13.710   4.559 -16.528  0.00  0.00     0.002 C 
ENDBRANCH   3   4
ENDBRANCH   2   3
BRANCH   2   6
ATOM      6  C   UNL d   1       9.180   4.530 -15.230  0.00  0.00     0.251 C 
BRANCH   6   7
ATOM      7  C   UNL d   1       8.764   3.108 -14.892  0.00  0.00     0.038 A 
ATOM      8  C   UNL d   1       7.944   2.277 -15.854  0.00  0.00     0.024 A 
ATOM      9  C   UNL d   1       9.374   1.900 -15.581  0.00  0.00     0.007 A 
BRANCH   8  10
ATOM     10  C   UNL d   1       6.867   1.377 -15.365  0.00  0.00    -0.022 A 
ATOM     11  C   UNL d   1       6.499   0.262 -16.145  0.00  0.00    -0.002 A 
ATOM     12  C   UNL d   1       5.492  -0.620 -15.698  0.00  0.00     0.029 A 
ATOM     13  C   UNL d   1       4.858  -0.386 -14.461  0.00  0.00     0.140 A 
ATOM     14  C   UNL d   1       5.246   0.713 -13.662  0.00  0.00     0.029 A 
ATOM     15  F   UNL d   1       3.865  -1.205 -14.044  0.00  0.00    -0.204 F 
ATOM     16  C   UNL d   1       6.231   1.600 -14.120  0.00  0.00    -0.002 A 
ENDBRANCH   8  10
ENDBRANCH   6   7
ENDBRANCH   2   6
ENDBRANCH   1   2
BRANCH   1  17
ATOM     17  C   UNL d   1       9.684   5.829 -12.519  0.00  0.00     0.037 C 
BRANCH  17  18
ATOM     18  C   UNL d   1      10.016   5.970 -11.027  0.00  0.00     0.029 C 
BRANCH  18  19
ATOM     19  C   UNL d   1       9.062   6.869 -10.276  0.00  0.00     0.129 C 
BRANCH  19  20
ATOM     20  N   UNL d   1       9.515   7.047  -8.901  0.00  0.00    -0.233 NA
ATOM     21  C   UNL d   1      10.264   8.066  -8.457  0.00  0.00     0.293 C 
ATOM     22  O   UNL d   1      10.551   9.059  -9.126  0.00  0.00    -0.264 OA
BRANCH  21  23
ATOM     23  C   UNL d   1      10.684   7.957  -7.048  0.00  0.00     0.139 A 
ATOM     24  N   UNL d   1      10.832   9.107  -6.293  0.00  0.00    -0.241 NA
ATOM     25  C   UNL d   1      11.274   8.796  -5.020  0.00  0.00     0.082 A 
ATOM     26  C   UNL d   1      11.416   7.380  -4.996  0.00  0.00     0.019 A 
ATOM     27  C   UNL d   1      11.558   9.590  -3.895  0.00  0.00     0.019 A 
ATOM     28  C   UNL d   1      11.049   6.877  -6.289  0.00  0.00     0.025 A 
ATOM     29  C   UNL d   1      11.863   6.792  -3.790  0.00  0.00     0.002 A 
ATOM     30  C   UNL d   1      12.169   7.579  -2.661  0.00  0.00     0.000 A 
ATOM     31  C   UNL d   1      12.016   8.976  -2.715  0.00  0.00     0.002 A 
ENDBRANCH  21  23
ENDBRANCH  19  20
ENDBRANCH  18  19
ENDBRANCH  17  18
ENDBRANCH   1  17
TORSDOF 11
