REMARK  9 active torsions:
REMARK  status: ('A' for Active; 'I' for Inactive)
REMARK    1  A    between atoms: O_2  and  C_3 
REMARK    2  A    between atoms: C_7  and  C_8 
REMARK       I    between atoms: C_8  and  N_10 
REMARK    3  A    between atoms: N_10  and  C_11 
REMARK    4  A    between atoms: C_11  and  C_12 
REMARK    5  A    between atoms: C_12  and  C_13 
REMARK    6  A    between atoms: C_13  and  C_14 
REMARK    7  A    between atoms: C_14  and  C_15 
REMARK    8  A    between atoms: C_15  and  N_16 
REMARK    9  A    between atoms: N_19  and  C_20 
ROOT
ATOM      1  C   UNL d   1       9.305   5.421 -11.747  0.00  0.00     0.035 C 
ENDROOT
BRANCH   1   2
ATOM      2  C   UNL d   1       8.937   4.222 -12.630  0.00  0.00     0.004 C 
BRANCH   2   3
ATOM      3  C   UNL d   1       9.178   4.529 -14.114  0.00  0.00     0.026 C 
BRANCH   3   4
ATOM      4  C   UNL d   1       9.441   3.275 -14.976  0.00  0.00     0.129 C 
BRANCH   4   5
ATOM      5  N   UNL d   1       9.482   3.556 -16.411  0.00  0.00    -0.234 NA
ATOM      6  C   UNL d   1      10.255   4.474 -17.026  0.00  0.00     0.275 C 
ATOM      7  O   UNL d   1      11.122   5.127 -16.436  0.00  0.00    -0.266 OA
BRANCH   6   8
ATOM      8  C   UNL d   1       9.940   4.760 -18.468  0.00  0.00     0.059 A 
ATOM      9  C   UNL d   1      10.232   6.052 -18.953  0.00  0.00     0.005 A 
ATOM     10  C   UNL d   1      10.005   6.370 -20.298  0.00  0.00     0.002 A 
ATOM     11  C   UNL d   1       9.476   5.401 -21.170  0.00  0.00     0.024 A 
ATOM     12  C   UNL d   1       9.168   4.089 -20.703  0.00  0.00     0.094 A 
ATOM     13  C   UNL d   1       9.412   3.781 -19.348  0.00  0.00     0.029 A 
BRANCH  12  14
ATOM     14  O   UNL d   1       8.650   3.087 -21.488  0.00  0.00    -0.328 OA
ATOM     15  C   UNL d   1       8.428   3.377 -22.858  0.00  0.00     0.181 C 
ENDBRANCH  12  14
ENDBRANCH   6   8
ENDBRANCH   4   5
ENDBRANCH   3   4
ENDBRANCH   2   3
ENDBRANCH   1   2
BRANCH   1  16
ATOM     16  C   UNL d   1       9.004   5.156 -10.267  0.00  0.00     0.250 C 
BRANCH  16  17
ATOM     17  N   UNL d   1       9.229   6.345  -9.434  0.00  0.00     0.141 N 
ATOM     18  C   UNL d   1      10.653   6.540  -9.164  0.00  0.00     0.274 C 
ATOM     19  C   UNL d   1      10.893   7.801  -8.311  0.00  0.00     0.137 C 
ATOM     20  N   UNL d   1      10.137   7.695  -7.085  0.00  0.00    -0.344 N 
ATOM     21  C   UNL d   1       8.730   7.394  -7.247  0.00  0.00     0.137 C 
ATOM     22  C   UNL d   1       8.554   6.149  -8.151  0.00  0.00     0.274 C 
BRANCH  20  23
ATOM     23  C   UNL d   1      10.725   7.909  -5.840  0.00  0.00     0.056 A 
ATOM     24  C   UNL d   1      10.879   9.211  -5.331  0.00  0.00     0.018 A 
ATOM     25  C   UNL d   1      11.471   9.403  -4.066  0.00  0.00     0.013 A 
ATOM     26  C   UNL d   1      11.936   8.297  -3.324  0.00  0.00     0.058 A 
ATOM     27  C   UNL d   1      11.789   6.997  -3.838  0.00  0.00     0.013 A 
ATOM     28 CL   UNL d   1      12.656   8.523  -1.783  0.00  0.00    -0.082 Cl
ATOM     29  C   UNL d   1      11.177   6.807  -5.092  0.00  0.00     0.018 A 
ENDBRANCH  20  23
ENDBRANCH  16  17
ENDBRANCH   1  16
TORSDOF 9
