REMARK  4 active torsions:
REMARK  status: ('A' for Active; 'I' for Inactive)
REMARK    1  A    between atoms: C_8  and  O_9 
REMARK    2  A    between atoms: O_9  and  C_10 
REMARK    3  A    between atoms: N_13  and  C_14 
REMARK    4  A    between atoms: C_14  and  C_15 
ROOT
ATOM      1  C   UNL d   1      10.968   3.445 -16.142  0.00  0.00     0.126 C 
ATOM      2  C   UNL d   1      11.311   2.133 -15.404  0.00  0.00     0.066 C 
ATOM      3  C   UNL d   1      10.156   1.667 -14.489  0.00  0.00     0.253 C 
ATOM      4  N   UNL d   1       8.940   1.492 -15.275  0.00  0.00     0.137 N 
ATOM      5  C   UNL d   1       8.557   2.766 -15.861  0.00  0.00     0.253 C 
ATOM      6  C   UNL d   1       9.616   3.241 -16.833  0.00  0.00     0.066 C 
ENDROOT
BRANCH   4   7
ATOM      7  C   UNL d   1       7.857   0.996 -14.438  0.00  0.00     0.251 C 
BRANCH   7   8
ATOM      8  C   UNL d   1       6.676   0.452 -15.277  0.00  0.00     0.038 C 
ATOM      9  C   UNL d   1       7.084  -0.157 -16.669  0.00  0.00     0.030 C 
ATOM     10  C   UNL d   1       5.959  -0.948 -17.301  0.00  0.00    -0.007 A 
ATOM     11  C   UNL d   1       4.870  -1.315 -16.572  0.00  0.00     0.055 A 
ATOM     12  C   UNL d   1       5.737  -1.462 -18.637  0.00  0.00     0.017 A 
ATOM     13  C   UNL d   1       4.623  -1.058 -15.147  0.00  0.00     0.046 C 
ATOM     14  N   UNL d   1       3.995  -2.014 -17.354  0.00  0.00    -0.250 NA
ATOM     15  C   UNL d   1       5.851  -0.528 -14.408  0.00  0.00     0.009 C 
ATOM     16  C   UNL d   1       4.466  -2.149 -18.630  0.00  0.00     0.081 A 
ATOM     17  C   UNL d   1       3.945  -2.806 -19.761  0.00  0.00     0.021 A 
ATOM     18  C   UNL d   1       4.655  -2.771 -20.962  0.00  0.00     0.031 A 
ATOM     19  C   UNL d   1       5.905  -2.091 -21.025  0.00  0.00     0.140 A 
ATOM     20  F   UNL d   1       6.602  -2.036 -22.176  0.00  0.00    -0.204 F 
ATOM     21  C   UNL d   1       6.426  -1.463 -19.873  0.00  0.00     0.031 A 
ENDBRANCH   7   8
ENDBRANCH   4   7
BRANCH   1  22
ATOM     22  O   UNL d   1      12.014   3.730 -17.074  0.00  0.00    -0.331 OA
BRANCH  22  23
ATOM     23  C   UNL d   1      12.171   5.015 -17.555  0.00  0.00     0.118 A 
ATOM     24  C   UNL d   1      11.171   5.749 -18.258  0.00  0.00     0.026 A 
ATOM     25  C   UNL d   1      11.435   7.042 -18.774  0.00  0.00     0.004 A 
ATOM     26  C   UNL d   1      12.709   7.629 -18.652  0.00  0.00     0.021 A 
ATOM     27  C   UNL d   1      13.679   6.874 -17.980  0.00  0.00     0.111 A 
ATOM     28  N   UNL d   1      15.012   7.146 -17.729  0.00  0.00    -0.184 NA
ATOM     29  C   UNL d   1      13.434   5.625 -17.446  0.00  0.00     0.145 A 
ATOM     30  C   UNL d   1      15.576   6.084 -17.031  0.00  0.00     0.392 A 
ATOM     31  O   UNL d   1      16.723   5.983 -16.599  0.00  0.00    -0.236 OA
ATOM     32  O   UNL d   1      14.582   5.153 -16.879  0.00  0.00    -0.254 OA
ENDBRANCH  22  23
ENDBRANCH   1  22
TORSDOF 4
