REMARK  7 active torsions:
REMARK  status: ('A' for Active; 'I' for Inactive)
REMARK    1  A    between atoms: O_2  and  C_3 
REMARK    2  A    between atoms: C_8  and  N_9 
REMARK    3  A    between atoms: N_12  and  C_13 
REMARK    4  A    between atoms: C_13  and  C_14 
REMARK    5  A    between atoms: C_14  and  C_15 
REMARK    6  A    between atoms: C_15  and  C_16 
REMARK    7  A    between atoms: C_16  and  N_17 
ROOT
ATOM      1  C   UNL d   1       8.344   4.893 -12.498  0.00  0.00     0.251 C 
ENDROOT
BRANCH   1   2
ATOM      2  N   UNL d   1       8.457   4.850 -11.036  0.00  0.00     0.141 N 
ATOM      3  C   UNL d   1       8.087   6.160 -10.506  0.00  0.00     0.274 C 
ATOM      4  C   UNL d   1       8.202   6.198  -8.943  0.00  0.00     0.137 C 
ATOM      5  N   UNL d   1       9.508   5.855  -8.504  0.00  0.00    -0.343 N 
ATOM      6  C   UNL d   1       9.989   4.638  -9.071  0.00  0.00     0.137 C 
ATOM      7  C   UNL d   1       9.854   4.686 -10.620  0.00  0.00     0.274 C 
BRANCH   5   8
ATOM      8  C   UNL d   1      10.231   6.753  -7.704  0.00  0.00     0.079 C 
ATOM      9  C   UNL d   1      11.082   7.735  -8.257  0.00  0.00     0.110 C 
ATOM     10  C   UNL d   1      11.796   8.594  -7.379  0.00  0.00     0.026 C 
ATOM     11  C   UNL d   1      11.657   8.492  -5.981  0.00  0.00     0.002 C 
ATOM     12  C   UNL d   1      10.793   7.526  -5.453  0.00  0.00     0.002 C 
ATOM     13  C   UNL d   1      10.034   6.726  -6.312  0.00  0.00     0.019 C 
BRANCH   9  14
ATOM     14  O   UNL d   1      11.153   7.799  -9.628  0.00  0.00    -0.327 OA
ATOM     15  C   UNL d   1      11.902   8.861 -10.170  0.00  0.00     0.181 C 
ENDBRANCH   9  14
ENDBRANCH   5   8
ENDBRANCH   1   2
BRANCH   1  16
ATOM     16  C   UNL d   1       8.339   3.474 -13.058  0.00  0.00     0.037 C 
BRANCH  16  17
ATOM     17  C   UNL d   1       8.613   3.342 -14.548  0.00  0.00     0.028 C 
BRANCH  17  18
ATOM     18  C   UNL d   1       9.089   1.942 -14.983  0.00  0.00     0.122 C 
BRANCH  18  19
ATOM     19  N   UNL d   1       8.049   1.206 -15.720  0.00  0.00    -0.221 N 
ATOM     20  S   UNL d   1       8.231   0.815 -17.389  0.00  0.00     0.270 S 
ATOM     21  C   UNL d   1       6.809  -0.230 -17.385  0.00  0.00     0.108 A 
ATOM     22  O   UNL d   1       7.971   2.010 -18.202  0.00  0.00    -0.200 OA
ATOM     23  O   UNL d   1       9.454   0.006 -17.547  0.00  0.00    -0.200 OA
ATOM     24  C   UNL d   1       6.238  -0.253 -16.112  0.00  0.00     0.069 A 
ATOM     25  C   UNL d   1       6.278  -0.952 -18.465  0.00  0.00     0.013 A 
ATOM     26  C   UNL d   1       6.963   0.570 -15.101  0.00  0.00     0.271 A 
ATOM     27  C   UNL d   1       5.092  -1.029 -15.862  0.00  0.00     0.005 A 
ATOM     28  O   UNL d   1       6.658   0.650 -13.913  0.00  0.00    -0.266 OA
ATOM     29  C   UNL d   1       4.540  -1.769 -16.932  0.00  0.00     0.000 A 
ATOM     30  C   UNL d   1       5.125  -1.730 -18.221  0.00  0.00     0.001 A 
ENDBRANCH  18  19
ENDBRANCH  17  18
ENDBRANCH  16  17
ENDBRANCH   1  16
TORSDOF 7
