REMARK  5 active torsions:
REMARK  status: ('A' for Active; 'I' for Inactive)
REMARK    1  A    between atoms: C_10  and  C_11 
REMARK    2  A    between atoms: C_11  and  C_12 
REMARK    3  A    between atoms: C_12  and  N_13 
REMARK    4  A    between atoms: C_16  and  C_17 
REMARK    5  A    between atoms: C_17  and  C_19 
ROOT
ATOM      1  N   UNL d   1       8.810   5.816  -9.681  0.00  0.00     0.137 N 
ATOM      2  C   UNL d   1      10.123   6.377  -9.985  0.00  0.00     0.251 C 
ATOM      3  C   UNL d   1      10.405   7.617  -9.152  0.00  0.00     0.043 C 
ATOM      4  C   UNL d   1      10.376   7.248  -7.664  0.00  0.00     0.066 C 
ATOM      5  C   UNL d   1       9.037   6.563  -7.340  0.00  0.00     0.043 C 
ATOM      6  C   UNL d   1       8.785   5.376  -8.285  0.00  0.00     0.251 C 
ENDROOT
BRANCH   1   7
ATOM      7  C   UNL d   1       8.522   4.684 -10.556  0.00  0.00     0.250 C 
BRANCH   7   8
ATOM      8  C   UNL d   1       8.149   5.151 -11.976  0.00  0.00     0.038 C 
BRANCH   8   9
ATOM      9  C   UNL d   1       8.223   4.019 -13.030  0.00  0.00     0.037 C 
ATOM     10  C   UNL d   1       6.872   3.290 -13.261  0.00  0.00     0.174 C 
ATOM     11  C   UNL d   1       6.957   2.245 -14.358  0.00  0.00     0.005 A 
ATOM     12  O   UNL d   1       5.844   4.235 -13.523  0.00  0.00    -0.219 OA
ATOM     13  C   UNL d   1       7.959   2.272 -15.371  0.00  0.00    -0.024 A 
ATOM     14  C   UNL d   1       5.963   1.239 -14.403  0.00  0.00     0.012 A 
ATOM     15  C   UNL d   1       7.906   1.340 -16.428  0.00  0.00    -0.003 A 
ATOM     16  C   UNL d   1       9.076   3.309 -15.335  0.00  0.00     0.026 C 
ATOM     17  C   UNL d   1       6.881   0.378 -16.484  0.00  0.00     0.014 A 
ATOM     18  C   UNL d   1       5.902   0.317 -15.471  0.00  0.00     0.070 A 
ATOM     19  N   UNL d   1       4.858  -0.597 -15.527  0.00  0.00    -0.101 NA
ATOM     20  C   UNL d   1       8.819   4.485 -14.375  0.00  0.00     0.008 C 
ENDBRANCH   8   9
ENDBRANCH   7   8
ENDBRANCH   1   7
BRANCH   4  21
ATOM     21  C   UNL d   1      10.576   8.473  -6.758  0.00  0.00     0.175 C 
ATOM     22  O   UNL d   1      10.293   9.583  -7.196  0.00  0.00    -0.291 OA
BRANCH  21  23
ATOM     23  C   UNL d   1      11.102   8.280  -5.374  0.00  0.00     0.060 A 
ATOM     24  C   UNL d   1      11.244   9.390  -4.493  0.00  0.00     0.136 A 
ATOM     25  C   UNL d   1      11.794   9.217  -3.212  0.00  0.00     0.057 A 
ATOM     26  O   UNL d   1      10.836  10.647  -4.845  0.00  0.00    -0.190 OA
ATOM     27  C   UNL d   1      12.170   7.938  -2.775  0.00  0.00     0.142 A 
ATOM     28  C   UNL d   1      12.012   6.829  -3.621  0.00  0.00     0.030 A 
ATOM     29  F   UNL d   1      12.659   7.771  -1.535  0.00  0.00    -0.204 F 
ATOM     30  C   UNL d   1      11.466   6.993  -4.902  0.00  0.00     0.007 A 
ENDBRANCH  21  23
ENDBRANCH   4  21
TORSDOF 5
