REMARK  0 active torsions:
REMARK  status: ('A' for Active; 'I' for Inactive)
ROOT
ATOM      1  C   UNL d   1       3.831  -1.253 -16.576  0.00  0.00    -0.000 A 
ATOM      2  C   UNL d   1       5.109  -1.289 -17.201  0.00  0.00    -0.000 A 
ATOM      3  C   UNL d   1       6.255  -0.815 -16.534  0.00  0.00    -0.002 A 
ATOM      4  C   UNL d   1       6.074  -0.308 -15.236  0.00  0.00     0.012 A 
ATOM      5  C   UNL d   1       4.836  -0.286 -14.629  0.00  0.00     0.009 A 
ATOM      6  C   UNL d   1       3.680  -0.766 -15.257  0.00  0.00    -0.003 A 
ATOM      7  C   UNL d   1       4.976   0.395 -13.299  0.00  0.00     0.277 C 
ATOM      8  N   UNL d   1       6.257   1.069 -13.344  0.00  0.00     0.149 N 
ATOM      9  C   UNL d   1       6.088   2.444 -13.844  0.00  0.00     0.256 C 
ATOM     10  C   UNL d   1       7.427   3.198 -13.967  0.00  0.00     0.063 C 
ATOM     11  C   UNL d   1       8.403   2.339 -14.723  0.00  0.00    -0.003 A 
ATOM     12  C   UNL d   1       8.234   0.988 -14.827  0.00  0.00     0.090 A 
ATOM     13  N   UNL d   1       9.302   0.428 -15.494  0.00  0.00    -0.248 NA
ATOM     14  C   UNL d   1      10.175   1.422 -15.892  0.00  0.00     0.081 A 
ATOM     15  C   UNL d   1      11.384   1.388 -16.610  0.00  0.00     0.019 A 
ATOM     16  C   UNL d   1      12.069   2.589 -16.869  0.00  0.00     0.002 A 
ATOM     17  C   UNL d   1      11.542   3.813 -16.413  0.00  0.00     0.000 A 
ATOM     18  C   UNL d   1      10.330   3.844 -15.696  0.00  0.00     0.001 A 
ATOM     19  C   UNL d   1       9.619   2.652 -15.418  0.00  0.00     0.015 A 
ATOM     20  C   UNL d   1       7.070   0.240 -14.256  0.00  0.00     0.281 C 
ENDROOT
TORSDOF 0
