REMARK  8 active torsions:
REMARK  status: ('A' for Active; 'I' for Inactive)
REMARK    1  A    between atoms: C_3  and  S_4 
REMARK    2  A    between atoms: S_4  and  C_5 
REMARK    3  A    between atoms: C_5  and  C_6 
REMARK    4  A    between atoms: C_6  and  C_7 
REMARK    5  A    between atoms: C_7  and  N_8 
REMARK    6  A    between atoms: N_13  and  C_14 
REMARK    7  A    between atoms: C_17  and  C_18 
REMARK    8  A    between atoms: C_28  and  C_29 
ROOT
ATOM      1  N   UNL d   1       8.232   3.159 -14.829  0.00  0.00     0.138 N 
ATOM      2  C   UNL d   1       7.029   2.490 -14.348  0.00  0.00     0.252 C 
ATOM      3  C   UNL d   1       6.603   3.318 -13.132  0.00  0.00     0.052 C 
ATOM      4  C   UNL d   1       5.635   4.478 -13.367  0.00  0.00     0.021 C 
ATOM      5  C   UNL d   1       6.230   5.603 -12.502  0.00  0.00     0.077 C 
ATOM      6  N   UNL d   1       7.668   5.417 -12.592  0.00  0.00    -0.252 NA
ATOM      7  C   UNL d   1       7.892   3.976 -12.655  0.00  0.00     0.097 C 
ATOM      8  C   UNL d   1       8.982   3.558 -13.645  0.00  0.00     0.266 C 
ENDROOT
BRANCH   1   9
ATOM      9  C   UNL d   1       8.995   2.341 -15.758  0.00  0.00     0.251 C 
BRANCH   9  10
ATOM     10  C   UNL d   1       9.850   3.230 -16.669  0.00  0.00     0.047 C 
BRANCH  10  11
ATOM     11  C   UNL d   1      10.886   2.396 -17.436  0.00  0.00     0.067 C 
BRANCH  11  12
ATOM     12  S   UNL d   1      11.646   3.301 -18.815  0.00  0.00    -0.075 SA
BRANCH  12  13
ATOM     13  C   UNL d   1      12.907   4.212 -17.974  0.00  0.00     0.193 A 
ATOM     14  N   UNL d   1      14.022   4.646 -18.601  0.00  0.00    -0.287 N 
ATOM     15  C   UNL d   1      14.399   4.439 -19.999  0.00  0.00     0.134 C 
ATOM     16  C   UNL d   1      14.697   5.258 -17.591  0.00  0.00     0.186 A 
ATOM     17  N   UNL d   1      14.012   5.241 -16.440  0.00  0.00    -0.127 NA
ATOM     18  N   UNL d   1      12.855   4.549 -16.685  0.00  0.00    -0.122 NA
BRANCH  16  19
ATOM     19  C   UNL d   1      16.010   5.918 -17.677  0.00  0.00     0.139 A 
ATOM     20  N   UNL d   1      16.833   5.797 -16.597  0.00  0.00    -0.145 NA
ATOM     21  N   UNL d   1      18.035   6.385 -16.569  0.00  0.00    -0.146 NA
ATOM     22  C   UNL d   1      18.467   7.080 -17.646  0.00  0.00     0.122 A 
ATOM     23  C   UNL d   1      17.682   7.245 -18.800  0.00  0.00     0.024 A 
ATOM     24  C   UNL d   1      16.400   6.664 -18.809  0.00  0.00     0.026 A 
ENDBRANCH  16  19
ENDBRANCH  12  13
ENDBRANCH  11  12
ENDBRANCH  10  11
ENDBRANCH   9  10
ENDBRANCH   1   9
BRANCH   6  25
ATOM     25  C   UNL d   1       8.411   6.083 -11.601  0.00  0.00     0.036 A 
ATOM     26  C   UNL d   1       8.533   5.599 -10.273  0.00  0.00     0.011 A 
ATOM     27  C   UNL d   1       9.326   6.289  -9.333  0.00  0.00     0.005 A 
ATOM     28  C   UNL d   1       9.986   7.482  -9.696  0.00  0.00     0.071 A 
ATOM     29  C   UNL d   1       9.854   7.971 -11.008  0.00  0.00     0.005 A 
ATOM     30  C   UNL d   1       9.073   7.274 -11.954  0.00  0.00     0.011 A 
BRANCH  28  31
ATOM     31  C   UNL d   1      10.824   8.243  -8.680  0.00  0.00     0.419 C 
ATOM     32  F   UNL d   1      10.281   8.154  -7.465  0.00  0.00    -0.166 F 
ATOM     33  F   UNL d   1      12.045   7.719  -8.646  0.00  0.00    -0.166 F 
ATOM     34  F   UNL d   1      10.934   9.533  -9.002  0.00  0.00    -0.166 F 
ENDBRANCH  28  31
ENDBRANCH   6  25
TORSDOF 8
