REMARK  9 active torsions:
REMARK  status: ('A' for Active; 'I' for Inactive)
REMARK    1  A    between atoms: C_8  and  O_9 
REMARK    2  A    between atoms: O_9  and  C_10 
REMARK    3  A    between atoms: C_10  and  C_11 
REMARK    4  A    between atoms: C_11  and  C_12 
REMARK    5  A    between atoms: C_12  and  C_13 
REMARK    6  A    between atoms: C_13  and  N_14 
REMARK    7  A    between atoms: N_14  and  C_15 
REMARK    8  A    between atoms: C_15  and  C_16 
REMARK    9  A    between atoms: C_18  and  C_19 
ROOT
ATOM      1  C   UNL d   1       9.861   6.910 -10.894  0.00  0.00     0.041 C 
ENDROOT
BRANCH   1   2
ATOM      2  C   UNL d   1       9.817   8.221 -10.103  0.00  0.00     0.035 C 
BRANCH   2   3
ATOM      3  C   UNL d   1      11.237   8.809  -9.941  0.00  0.00     0.149 C 
BRANCH   3   4
ATOM      4  O   UNL d   1      11.381   9.504  -8.713  0.00  0.00    -0.331 OA
BRANCH   4   5
ATOM      5  C   UNL d   1      11.452   8.768  -7.548  0.00  0.00     0.096 A 
ATOM      6  C   UNL d   1      11.312   7.358  -7.503  0.00  0.00     0.024 A 
ATOM      7  C   UNL d   1      11.311   6.682  -6.287  0.00  0.00     0.004 A 
ATOM      8  C   UNL d   1      11.490   7.389  -5.094  0.00  0.00     0.018 A 
ATOM      9  C   UNL d   1      11.602   6.715  -3.812  0.00  0.00     0.006 A 
ATOM     10  C   UNL d   1      11.692   8.785  -5.121  0.00  0.00     0.087 A 
ATOM     11  C   UNL d   1      11.873   7.387  -2.688  0.00  0.00     0.063 A 
ATOM     12  C   UNL d   1      12.055   8.839  -2.692  0.00  0.00     0.279 A 
ATOM     13  O   UNL d   1      12.263   9.467  -1.669  0.00  0.00    -0.265 OA
ATOM     14  N   UNL d   1      11.963   9.444  -3.902  0.00  0.00    -0.208 NA
ATOM     15  C   UNL d   1      11.659   9.480  -6.347  0.00  0.00     0.043 A 
ENDBRANCH   4   5
ENDBRANCH   3   4
ENDBRANCH   2   3
ENDBRANCH   1   2
BRANCH   1  16
ATOM     16  C   UNL d   1       8.509   6.225 -10.935  0.00  0.00     0.290 C 
BRANCH  16  17
ATOM     17  N   UNL d   1       8.519   5.116 -11.860  0.00  0.00     0.339 N 
BRANCH  17  18
ATOM     18  C   UNL d   1       7.230   4.458 -11.766  0.00  0.00     0.290 C 
BRANCH  18  19
ATOM     19  C   UNL d   1       6.847   3.950 -13.134  0.00  0.00     0.041 A 
ATOM     20  C   UNL d   1       6.262   2.550 -13.348  0.00  0.00     0.025 A 
ATOM     21  C   UNL d   1       5.393   3.771 -13.474  0.00  0.00     0.007 A 
BRANCH  20  22
ATOM     22  C   UNL d   1       6.644   1.696 -14.525  0.00  0.00    -0.011 A 
ATOM     23  C   UNL d   1       5.871   0.550 -14.883  0.00  0.00     0.064 A 
ATOM     24  C   UNL d   1       6.191  -0.186 -16.052  0.00  0.00     0.068 A 
ATOM     25 CL   UNL d   1       4.544   0.019 -13.903  0.00  0.00    -0.082 Cl
ATOM     26  C   UNL d   1       7.282   0.192 -16.846  0.00  0.00     0.012 A 
ATOM     27 CL   UNL d   1       5.213  -1.535 -16.532  0.00  0.00    -0.082 Cl
ATOM     28  C   UNL d   1       8.073   1.300 -16.490  0.00  0.00     0.001 A 
ATOM     29  C   UNL d   1       7.759   2.038 -15.332  0.00  0.00    -0.003 A 
ENDBRANCH  20  22
ENDBRANCH  18  19
ENDBRANCH  17  18
ENDBRANCH  16  17
ENDBRANCH   1  16
TORSDOF 9
