REMARK  3 active torsions:
REMARK  status: ('A' for Active; 'I' for Inactive)
REMARK    1  A    between atoms: C_13  and  N_14 
REMARK    2  A    between atoms: N_17  and  C_18 
REMARK    3  A    between atoms: C_18  and  C_19 
ROOT
ATOM      1  C   UNL d   1       6.429   0.201 -16.746  0.00  0.00     0.025 C 
ATOM      2  C   UNL d   1       7.588   0.083 -17.758  0.00  0.00     0.093 A 
ATOM      3  C   UNL d   1       7.105   0.265 -19.191  0.00  0.00     0.050 A 
ATOM      4  C   UNL d   1       7.857   1.446 -19.730  0.00  0.00    -0.005 A 
ATOM      5  C   UNL d   1       7.788   2.030 -21.005  0.00  0.00    -0.003 A 
ATOM      6  C   UNL d   1       8.591   3.149 -21.288  0.00  0.00    -0.001 A 
ATOM      7  C   UNL d   1       9.440   3.678 -20.295  0.00  0.00    -0.003 A 
ATOM      8  C   UNL d   1       9.529   3.100 -19.007  0.00  0.00    -0.006 A 
ATOM      9  C   UNL d   1       8.720   1.956 -18.738  0.00  0.00     0.054 A 
ATOM     10  N   UNL d   1       8.611   1.126 -17.560  0.00  0.00    -0.300 N 
ATOM     11  C   UNL d   1       9.431   0.999 -16.480  0.00  0.00     0.269 C 
ATOM     12  O   UNL d   1       9.509  -0.062 -15.855  0.00  0.00    -0.270 OA
ATOM     13  C   UNL d   1      10.283   2.153 -15.936  0.00  0.00     0.297 C 
ATOM     14  C   UNL d   1      11.161   2.747 -17.035  0.00  0.00     0.048 C 
ATOM     15  C   UNL d   1      10.381   3.715 -17.914  0.00  0.00     0.030 C 
ENDROOT
BRANCH  13  16
ATOM     16  N   UNL d   1       9.533   3.142 -15.110  0.00  0.00     0.148 N 
ATOM     17  C   UNL d   1       8.461   2.567 -14.280  0.00  0.00     0.286 C 
ATOM     18  C   UNL d   1       7.719   3.630 -13.459  0.00  0.00     0.286 C 
ATOM     19  N   UNL d   1       8.622   4.348 -12.572  0.00  0.00     0.146 N 
ATOM     20  C   UNL d   1       9.667   4.949 -13.393  0.00  0.00     0.286 C 
ATOM     21  C   UNL d   1      10.426   3.907 -14.234  0.00  0.00     0.286 C 
BRANCH  19  22
ATOM     22  C   UNL d   1       7.897   5.332 -11.768  0.00  0.00     0.277 C 
BRANCH  22  23
ATOM     23  C   UNL d   1       8.758   5.982 -10.703  0.00  0.00     0.011 A 
ATOM     24  C   UNL d   1       9.461   7.173 -10.987  0.00  0.00    -0.002 A 
ATOM     25  C   UNL d   1      10.258   7.778  -9.999  0.00  0.00     0.011 A 
ATOM     26  C   UNL d   1      10.338   7.208  -8.713  0.00  0.00     0.058 A 
ATOM     27  C   UNL d   1       9.628   6.024  -8.423  0.00  0.00     0.011 A 
ATOM     28 CL   UNL d   1      11.303   7.959  -7.494  0.00  0.00    -0.082 Cl
ATOM     29  C   UNL d   1       8.844   5.411  -9.418  0.00  0.00    -0.002 A 
ENDBRANCH  22  23
ENDBRANCH  19  22
ENDBRANCH  13  16
TORSDOF 3
