REMARK  10 active torsions:
REMARK  status: ('A' for Active; 'I' for Inactive)
REMARK    1  A    between atoms: O_2  and  C_3 
REMARK    2  A    between atoms: C_7  and  C_8 
REMARK    3  A    between atoms: C_8  and  C_9 
REMARK    4  A    between atoms: C_9  and  C_10 
REMARK    5  A    between atoms: C_15  and  O_16 
REMARK    6  A    between atoms: O_16  and  C_17 
REMARK    7  A    between atoms: C_17  and  C_18 
REMARK    8  A    between atoms: C_18  and  C_19 
REMARK    9  A    between atoms: C_19  and  N_20 
REMARK   10  A    between atoms: N_23  and  C_24 
ROOT
ATOM      1  O   UNL d   1       9.028   2.179 -17.789  0.00  0.00    -0.331 OA
ENDROOT
BRANCH   1   2
ATOM      2  C   UNL d   1      10.044   1.417 -18.316  0.00  0.00     0.090 A 
ATOM      3  C   UNL d   1       9.727   0.545 -19.385  0.00  0.00     0.001 A 
ATOM      4  C   UNL d   1      10.741  -0.234 -19.979  0.00  0.00    -0.002 A 
ATOM      5  C   UNL d   1      12.064  -0.161 -19.508  0.00  0.00    -0.000 A 
ATOM      6  C   UNL d   1      12.379   0.696 -18.438  0.00  0.00     0.002 A 
ATOM      7  C   UNL d   1      11.374   1.470 -17.834  0.00  0.00     0.024 A 
BRANCH   3   8
ATOM      8  C   UNL d   1       8.311   0.467 -19.941  0.00  0.00     0.033 C 
BRANCH   8   9
ATOM      9  C   UNL d   1       7.609  -0.862 -19.614  0.00  0.00     0.031 C 
BRANCH   9  10
ATOM     10  C   UNL d   1       6.606  -0.734 -18.483  0.00  0.00    -0.020 A 
ATOM     11  C   UNL d   1       5.231  -0.921 -18.732  0.00  0.00    -0.004 A 
ATOM     12  C   UNL d   1       4.308  -0.824 -17.675  0.00  0.00     0.002 A 
ATOM     13  C   UNL d   1       4.751  -0.532 -16.371  0.00  0.00     0.024 A 
ATOM     14  C   UNL d   1       6.128  -0.313 -16.111  0.00  0.00     0.094 A 
ATOM     15  C   UNL d   1       7.041  -0.414 -17.179  0.00  0.00     0.020 A 
BRANCH  14  16
ATOM     16  O   UNL d   1       6.646  -0.007 -14.871  0.00  0.00    -0.328 OA
ATOM     17  C   UNL d   1       5.745   0.074 -13.780  0.00  0.00     0.181 C 
ENDBRANCH  14  16
ENDBRANCH   9  10
ENDBRANCH   8   9
ENDBRANCH   3   8
ENDBRANCH   1   2
BRANCH   1  18
ATOM     18  C   UNL d   1       9.354   3.447 -17.231  0.00  0.00     0.151 C 
BRANCH  18  19
ATOM     19  C   UNL d   1       9.229   3.396 -15.698  0.00  0.00     0.068 C 
BRANCH  19  20
ATOM     20  C   UNL d   1       9.391   4.785 -15.061  0.00  0.00     0.253 C 
BRANCH  20  21
ATOM     21  N   UNL d   1       8.893   4.810 -13.685  0.00  0.00     0.141 N 
ATOM     22  C   UNL d   1       8.648   6.191 -13.259  0.00  0.00     0.274 C 
ATOM     23  C   UNL d   1       8.062   6.298 -11.864  0.00  0.00     0.137 C 
ATOM     24  N   UNL d   1       8.999   5.659 -10.969  0.00  0.00    -0.344 N 
ATOM     25  C   UNL d   1       9.345   4.302 -11.325  0.00  0.00     0.137 C 
ATOM     26  C   UNL d   1       9.880   4.231 -12.773  0.00  0.00     0.274 C 
BRANCH  24  27
ATOM     27  C   UNL d   1       9.439   6.279  -9.801  0.00  0.00     0.056 A 
ATOM     28  C   UNL d   1       9.092   5.750  -8.541  0.00  0.00     0.019 A 
ATOM     29  C   UNL d   1       9.532   6.396  -7.367  0.00  0.00     0.031 A 
ATOM     30  C   UNL d   1      10.329   7.549  -7.449  0.00  0.00     0.140 A 
ATOM     31  C   UNL d   1      10.678   8.079  -8.706  0.00  0.00     0.031 A 
ATOM     32  F   UNL d   1      10.761   8.152  -6.317  0.00  0.00    -0.204 F 
ATOM     33  C   UNL d   1      10.221   7.444  -9.881  0.00  0.00     0.019 A 
ENDBRANCH  24  27
ENDBRANCH  20  21
ENDBRANCH  19  20
ENDBRANCH  18  19
ENDBRANCH   1  18
TORSDOF 10
