REMARK  9 active torsions:
REMARK  status: ('A' for Active; 'I' for Inactive)
REMARK    1  A    between atoms: N_2  and  C_3 
REMARK    2  A    between atoms: N_2  and  C_19 
REMARK    3  A    between atoms: C_3  and  C_4 
REMARK    4  A    between atoms: C_4  and  C_5 
REMARK    5  A    between atoms: C_5  and  C_6 
REMARK    6  A    between atoms: C_6  and  O_7 
REMARK    7  A    between atoms: O_7  and  C_8 
REMARK    8  A    between atoms: C_19  and  C_20 
REMARK    9  A    between atoms: C_22  and  C_23 
ROOT
ATOM      1  C   UNL d   1       8.904   5.242 -11.857  0.00  0.00     0.250 C 
ENDROOT
BRANCH   1   2
ATOM      2  N   UNL d   1       9.379   4.078 -12.591  0.00  0.00     0.139 N 
ATOM      3  C   UNL d   1      10.501   4.448 -13.454  0.00  0.00     0.285 C 
BRANCH   2   4
ATOM      4  C   UNL d   1       8.333   3.528 -13.420  0.00  0.00     0.251 C 
BRANCH   4   5
ATOM      5  C   UNL d   1       6.923   3.449 -12.833  0.00  0.00     0.038 A 
ATOM      6  C   UNL d   1       5.887   2.507 -13.406  0.00  0.00     0.025 A 
ATOM      7  C   UNL d   1       5.736   3.994 -13.595  0.00  0.00     0.007 A 
BRANCH   6   8
ATOM      8  C   UNL d   1       6.193   1.586 -14.578  0.00  0.00    -0.011 A 
ATOM      9  C   UNL d   1       5.526   0.344 -14.751  0.00  0.00     0.064 A 
ATOM     10  C   UNL d   1       5.832  -0.462 -15.873  0.00  0.00     0.068 A 
ATOM     11 CL   UNL d   1       4.262  -0.145 -13.655  0.00  0.00    -0.082 Cl
ATOM     12  C   UNL d   1       6.800  -0.055 -16.817  0.00  0.00     0.012 A 
ATOM     13 CL   UNL d   1       5.030  -1.970 -16.128  0.00  0.00    -0.082 Cl
ATOM     14  C   UNL d   1       7.439   1.181 -16.660  0.00  0.00     0.001 A 
ATOM     15  C   UNL d   1       7.098   1.984 -15.588  0.00  0.00    -0.003 A 
ENDBRANCH   6   8
ENDBRANCH   4   5
ENDBRANCH   2   4
ENDBRANCH   1   2
BRANCH   1  16
ATOM     16  C   UNL d   1       9.120   4.944 -10.371  0.00  0.00     0.038 C 
BRANCH  16  17
ATOM     17  C   UNL d   1       8.809   6.147  -9.508  0.00  0.00     0.035 C 
BRANCH  17  18
ATOM     18  C   UNL d   1       9.618   7.404  -9.951  0.00  0.00     0.149 C 
BRANCH  18  19
ATOM     19  O   UNL d   1       9.740   8.401  -8.944  0.00  0.00    -0.331 OA
BRANCH  19  20
ATOM     20  C   UNL d   1      10.418   8.057  -7.798  0.00  0.00     0.096 A 
ATOM     21  C   UNL d   1      10.511   9.008  -6.766  0.00  0.00     0.043 A 
ATOM     22  C   UNL d   1      11.119   8.656  -5.537  0.00  0.00     0.082 A 
ATOM     23  C   UNL d   1      11.592   7.335  -5.340  0.00  0.00    -0.004 A 
ATOM     24  N   UNL d   1      11.311   9.617  -4.519  0.00  0.00    -0.212 NA
ATOM     25  C   UNL d   1      11.526   6.431  -6.372  0.00  0.00    -0.001 A 
ATOM     26  C   UNL d   1      12.344   6.999  -4.063  0.00  0.00     0.038 C 
ATOM     27  C   UNL d   1      10.994   6.781  -7.599  0.00  0.00     0.024 A 
ATOM     28  C   UNL d   1      11.877   7.824  -2.890  0.00  0.00     0.095 C 
ATOM     29  C   UNL d   1      11.719   9.269  -3.303  0.00  0.00     0.256 C 
ATOM     30  O   UNL d   1      11.906  10.104  -2.443  0.00  0.00    -0.270 OA
ENDBRANCH  19  20
ENDBRANCH  18  19
ENDBRANCH  17  18
ENDBRANCH  16  17
ENDBRANCH   1  16
TORSDOF 9
