REMARK  9 active torsions:
REMARK  status: ('A' for Active; 'I' for Inactive)
REMARK    1  A    between atoms: C_2  and  C_3 
REMARK    2  A    between atoms: C_3  and  N_4 
REMARK    3  A    between atoms: N_4  and  C_5 
REMARK    4  A    between atoms: N_4  and  C_8 
REMARK    5  A    between atoms: C_5  and  C_6 
REMARK    6  A    between atoms: C_13  and  C_14 
REMARK    7  A    between atoms: C_14  and  C_15 
REMARK    8  A    between atoms: C_15  and  C_16 
REMARK    9  A    between atoms: C_19  and  O_20 
ROOT
ATOM      1  C   UNL d   1       6.615   1.640 -15.040  0.00  0.00     0.224 C 
ATOM      2  C   UNL d   1       5.832   1.465 -13.686  0.00  0.00     0.038 C 
ATOM      3  C   UNL d   1       5.731   2.821 -12.962  0.00  0.00     0.028 C 
ATOM      4  C   UNL d   1       7.017   3.604 -12.962  0.00  0.00    -0.026 A 
ATOM      5  C   UNL d   1       7.193   4.608 -11.978  0.00  0.00    -0.009 A 
ATOM      6  C   UNL d   1       8.450   5.259 -11.842  0.00  0.00    -0.022 A 
ATOM      7  C   UNL d   1       9.493   4.935 -12.713  0.00  0.00    -0.005 A 
ATOM      8  C   UNL d   1       9.329   3.943 -13.687  0.00  0.00    -0.005 A 
ATOM      9  C   UNL d   1       8.117   3.247 -13.782  0.00  0.00    -0.024 A 
ATOM     10  C   UNL d   1       8.061   2.067 -14.723  0.00  0.00     0.059 C 
ENDROOT
BRANCH   6  11
ATOM     11  C   UNL d   1       8.636   6.247 -10.724  0.00  0.00     0.031 C 
BRANCH  11  12
ATOM     12  C   UNL d   1       9.847   5.961  -9.832  0.00  0.00     0.031 C 
BRANCH  12  13
ATOM     13  C   UNL d   1      10.003   6.972  -8.731  0.00  0.00    -0.022 A 
ATOM     14  C   UNL d   1       9.068   7.034  -7.663  0.00  0.00    -0.002 A 
ATOM     15  C   UNL d   1       9.239   7.997  -6.678  0.00  0.00     0.024 A 
ATOM     16  C   UNL d   1      10.343   8.863  -6.687  0.00  0.00     0.094 A 
ATOM     17  C   UNL d   1      11.268   8.817  -7.753  0.00  0.00     0.024 A 
ATOM     18  C   UNL d   1      11.074   7.864  -8.787  0.00  0.00    -0.002 A 
BRANCH  16  19
ATOM     19  O   UNL d   1      10.443   9.734  -5.637  0.00  0.00    -0.328 OA
ATOM     20  C   UNL d   1      11.430  10.740  -5.718  0.00  0.00     0.181 C 
ENDBRANCH  16  19
ENDBRANCH  12  13
ENDBRANCH  11  12
ENDBRANCH   6  11
BRANCH   1  21
ATOM     21  N   UNL d   1       6.498   0.438 -15.931  0.00  0.00     0.135 N 
BRANCH  21  22
ATOM     22  C   UNL d   1       7.418   0.454 -17.078  0.00  0.00     0.250 C 
BRANCH  22  23
ATOM     23  C   UNL d   1       7.116   1.585 -18.097  0.00  0.00     0.035 C 
ATOM     24  C   UNL d   1       8.080   1.590 -19.276  0.00  0.00     0.002 C 
ENDBRANCH  22  23
ENDBRANCH  21  22
BRANCH  21  25
ATOM     25  C   UNL d   1       5.121   0.082 -16.348  0.00  0.00     0.250 C 
BRANCH  25  26
ATOM     26  C   UNL d   1       5.004  -1.366 -16.856  0.00  0.00     0.035 C 
ATOM     27  C   UNL d   1       3.587  -1.663 -17.325  0.00  0.00     0.002 C 
ENDBRANCH  25  26
ENDBRANCH  21  25
ENDBRANCH   1  21
TORSDOF 9
