REMARK  7 active torsions:
REMARK  status: ('A' for Active; 'I' for Inactive)
REMARK    1  A    between atoms: C_6  and  N_7 
REMARK    2  A    between atoms: N_10  and  C_11 
REMARK    3  A    between atoms: C_11  and  C_12 
REMARK    4  A    between atoms: C_12  and  C_13 
REMARK    5  A    between atoms: C_13  and  C_14 
REMARK    6  A    between atoms: C_14  and  N_15 
REMARK       I    between atoms: N_15  and  C_16 
REMARK    7  A    between atoms: C_16  and  C_18 
ROOT
ATOM      1  C   UNL d   1       8.311   5.489 -12.128  0.00  0.00     0.037 C 
ENDROOT
BRANCH   1   2
ATOM      2  C   UNL d   1       7.247   4.413 -11.945  0.00  0.00     0.251 C 
BRANCH   2   3
ATOM      3  N   UNL d   1       6.189   4.483 -12.934  0.00  0.00     0.141 N 
ATOM      4  C   UNL d   1       5.065   3.625 -12.599  0.00  0.00     0.274 C 
ATOM      5  C   UNL d   1       5.500   2.146 -12.582  0.00  0.00     0.137 C 
ATOM      6  N   UNL d   1       6.063   1.700 -13.864  0.00  0.00    -0.344 N 
ATOM      7  C   UNL d   1       7.118   2.588 -14.392  0.00  0.00     0.137 C 
ATOM      8  C   UNL d   1       6.616   4.037 -14.236  0.00  0.00     0.274 C 
BRANCH   6   9
ATOM      9  C   UNL d   1       5.598   0.578 -14.593  0.00  0.00     0.056 A 
ATOM     10  C   UNL d   1       4.449  -0.138 -14.169  0.00  0.00     0.017 A 
ATOM     11  C   UNL d   1       3.974  -1.238 -14.911  0.00  0.00     0.001 A 
ATOM     12  C   UNL d   1       4.628  -1.660 -16.072  0.00  0.00    -0.004 A 
ATOM     13  C   UNL d   1       5.753  -0.949 -16.527  0.00  0.00    -0.020 A 
ATOM     14  C   UNL d   1       6.475  -1.360 -17.791  0.00  0.00     0.031 C 
ATOM     15  C   UNL d   1       6.247   0.148 -15.795  0.00  0.00     0.013 A 
ENDBRANCH   6   9
ENDBRANCH   2   3
ENDBRANCH   1   2
BRANCH   1  16
ATOM     16  C   UNL d   1       9.330   5.413 -10.984  0.00  0.00     0.029 C 
BRANCH  16  17
ATOM     17  C   UNL d   1       8.703   5.707  -9.617  0.00  0.00     0.129 C 
BRANCH  17  18
ATOM     18  N   UNL d   1       9.646   6.427  -8.772  0.00  0.00    -0.236 NA
ATOM     19  C   UNL d   1       9.426   6.724  -7.482  0.00  0.00     0.274 C 
ATOM     20  O   UNL d   1       8.402   6.391  -6.890  0.00  0.00    -0.268 OA
BRANCH  19  21
ATOM     21  C   UNL d   1      10.524   7.505  -6.753  0.00  0.00     0.184 C 
ATOM     22  N   UNL d   1      10.951   6.786  -5.566  0.00  0.00    -0.263 NA
ATOM     23  C   UNL d   1      11.466   7.450  -4.466  0.00  0.00     0.073 A 
ATOM     24  C   UNL d   1      11.558   8.861  -4.411  0.00  0.00    -0.005 A 
ATOM     25  C   UNL d   1      11.915   6.701  -3.374  0.00  0.00     0.018 A 
ATOM     26  C   UNL d   1      11.057   9.707  -5.572  0.00  0.00     0.030 C 
ATOM     27  C   UNL d   1      12.093   9.473  -3.246  0.00  0.00    -0.003 A 
ATOM     28  C   UNL d   1      10.047   8.938  -6.444  0.00  0.00     0.039 C 
ATOM     29  C   UNL d   1      12.576   8.708  -2.176  0.00  0.00    -0.000 A 
ATOM     30  C   UNL d   1      12.466   7.314  -2.232  0.00  0.00     0.002 A 
ENDBRANCH  19  21
ENDBRANCH  17  18
ENDBRANCH  16  17
ENDBRANCH   1  16
TORSDOF 7
