REMARK  8 active torsions:
REMARK  status: ('A' for Active; 'I' for Inactive)
REMARK    1  A    between atoms: C_2  and  C_5 
REMARK    2  A    between atoms: C_7  and  N_8 
REMARK    3  A    between atoms: N_11  and  C_12 
REMARK    4  A    between atoms: C_12  and  C_13 
REMARK    5  A    between atoms: C_13  and  C_14 
REMARK    6  A    between atoms: C_14  and  C_15 
REMARK    7  A    between atoms: C_15  and  N_16 
REMARK    8  A    between atoms: C_30  and  C_31 
ROOT
ATOM      1  N   UNL d   1       8.964   2.324 -16.306  0.00  0.00    -0.330 N 
ATOM      2  C   UNL d   1       9.892   3.457 -16.140  0.00  0.00     0.138 C 
ATOM      3  C   UNL d   1      10.361   3.553 -14.671  0.00  0.00     0.274 C 
ATOM      4  N   UNL d   1       9.201   3.660 -13.781  0.00  0.00     0.141 N 
ATOM      5  C   UNL d   1       8.377   2.464 -13.920  0.00  0.00     0.274 C 
ATOM      6  C   UNL d   1       7.859   2.300 -15.336  0.00  0.00     0.138 C 
ENDROOT
BRANCH   4   7
ATOM      7  C   UNL d   1       9.622   3.762 -12.390  0.00  0.00     0.251 C 
BRANCH   7   8
ATOM      8  C   UNL d   1       8.570   4.519 -11.562  0.00  0.00     0.037 C 
BRANCH   8   9
ATOM      9  C   UNL d   1       9.008   4.738 -10.080  0.00  0.00     0.027 C 
BRANCH   9  10
ATOM     10  C   UNL d   1       8.454   6.016  -9.479  0.00  0.00     0.109 C 
BRANCH  10  11
ATOM     11  N   UNL d   1       9.486   7.061  -9.321  0.00  0.00    -0.296 N 
ATOM     12  C   UNL d   1      10.086   7.326  -8.025  0.00  0.00     0.062 A 
ATOM     13  C   UNL d   1      11.146   8.254  -7.929  0.00  0.00     0.016 A 
ATOM     14  C   UNL d   1       9.656   6.711  -6.829  0.00  0.00     0.017 A 
ATOM     15  C   UNL d   1      11.580   8.879  -9.153  0.00  0.00     0.006 A 
ATOM     16  C   UNL d   1      11.751   8.590  -6.703  0.00  0.00     0.001 A 
ATOM     17  C   UNL d   1      10.976   8.649 -10.312  0.00  0.00     0.061 A 
ATOM     18  C   UNL d   1       9.854   7.746 -10.451  0.00  0.00     0.261 A 
ATOM     19  O   UNL d   1       9.321   7.625 -11.551  0.00  0.00    -0.267 OA
ATOM     20  C   UNL d   1      11.320   7.953  -5.527  0.00  0.00     0.000 A 
ATOM     21  C   UNL d   1      10.289   7.007  -5.611  0.00  0.00     0.002 A 
ENDBRANCH  10  11
ENDBRANCH   9  10
ENDBRANCH   8   9
ENDBRANCH   7   8
ENDBRANCH   4   7
BRANCH   1  22
ATOM     22  C   UNL d   1       9.150   1.318 -17.269  0.00  0.00     0.143 A 
ATOM     23  N   UNL d   1      10.301   1.311 -17.985  0.00  0.00    -0.214 NA
ATOM     24  C   UNL d   1      10.479   0.383 -18.924  0.00  0.00     0.140 A 
ATOM     25  N   UNL d   1       9.639  -0.633 -19.170  0.00  0.00    -0.227 NA
ATOM     26  C   UNL d   1       8.478  -0.652 -18.480  0.00  0.00     0.157 A 
ATOM     27  C   UNL d   1       8.182   0.321 -17.517  0.00  0.00     0.060 A 
BRANCH  24  28
ATOM     28  C   UNL d   1      11.846   0.339 -19.638  0.00  0.00     0.052 C 
ATOM     29  C   UNL d   1      11.694  -0.161 -21.090  0.00  0.00     0.008 C 
ATOM     30  C   UNL d   1      12.793  -0.588 -18.878  0.00  0.00     0.008 C 
ATOM     31  C   UNL d   1      12.470   1.762 -19.716  0.00  0.00     0.008 C 
ENDBRANCH  24  28
BRANCH  26  32
ATOM     32  C   UNL d   1       7.494  -1.782 -18.776  0.00  0.00     0.435 C 
ATOM     33  F   UNL d   1       7.191  -1.769 -20.076  0.00  0.00    -0.165 F 
ATOM     34  F   UNL d   1       8.061  -2.947 -18.475  0.00  0.00    -0.165 F 
ATOM     35  F   UNL d   1       6.364  -1.666 -18.081  0.00  0.00    -0.165 F 
ENDBRANCH  26  32
ENDBRANCH   1  22
TORSDOF 8
