REMARK  2 active torsions:
REMARK  status: ('A' for Active; 'I' for Inactive)
REMARK    1  A    between atoms: C_2  and  C_3 
REMARK    2  A    between atoms: C_3  and  N_4 
ROOT
ATOM      1  N   UNL d   1      11.417   7.965  -5.681  0.00  0.00     0.141 N 
ATOM      2  C   UNL d   1      10.904   9.300  -5.394  0.00  0.00     0.282 C 
ATOM      3  C   UNL d   1      10.960  10.188  -6.618  0.00  0.00     0.178 C 
ATOM      4  O   UNL d   1      10.185   9.577  -7.641  0.00  0.00    -0.348 OA
ATOM      5  C   UNL d   1      10.704   8.316  -8.048  0.00  0.00     0.170 C 
ATOM      6  C   UNL d   1      10.014   7.804  -9.333  0.00  0.00     0.014 A 
ATOM      7  C   UNL d   1       9.762   8.742 -10.323  0.00  0.00     0.026 A 
ATOM      8  C   UNL d   1       9.111   8.357 -11.539  0.00  0.00     0.131 A 
ATOM      9  O   UNL d   1       8.701   9.277 -12.452  0.00  0.00    -0.190 OA
ATOM     10  C   UNL d   1       8.768   7.014 -11.777  0.00  0.00     0.028 A 
ATOM     11  C   UNL d   1       9.026   6.067 -10.792  0.00  0.00     0.008 A 
ATOM     12  C   UNL d   1       9.635   6.461  -9.579  0.00  0.00     0.024 A 
ATOM     13  S   UNL d   1       9.884   5.239  -8.370  0.00  0.00    -0.112 SA
ATOM     14  C   UNL d   1      11.093   6.065  -7.279  0.00  0.00     0.098 C 
ATOM     15  C   UNL d   1      10.621   7.412  -6.804  0.00  0.00     0.261 C 
ENDROOT
BRANCH   1  16
ATOM     16  C   UNL d   1      11.430   7.127  -4.460  0.00  0.00     0.250 C 
BRANCH  16  17
ATOM     17  C   UNL d   1      12.088   7.795  -3.237  0.00  0.00     0.035 C 
ATOM     18  C   UNL d   1      12.229   6.847  -2.047  0.00  0.00     0.002 C 
ENDBRANCH  16  17
ENDBRANCH   1  16
TORSDOF 2
