REMARK  0 active torsions:
REMARK  status: ('A' for Active; 'I' for Inactive)
ROOT
ATOM      1  O   UNL d   1      12.627   6.485  -2.068  0.00  0.00    -0.259 OA
ATOM      2  C   UNL d   1      12.212   7.191  -2.982  0.00  0.00     0.300 A 
ATOM      3  C   UNL d   1      12.063   8.661  -2.841  0.00  0.00     0.069 A 
ATOM      4  C   UNL d   1      11.604   9.419  -3.851  0.00  0.00     0.007 A 
ATOM      5  C   UNL d   1      11.247   8.823  -5.133  0.00  0.00     0.023 A 
ATOM      6  C   UNL d   1      10.785   9.588  -6.220  0.00  0.00     0.002 A 
ATOM      7  C   UNL d   1      10.450   8.952  -7.432  0.00  0.00     0.000 A 
ATOM      8  C   UNL d   1      10.591   7.558  -7.558  0.00  0.00     0.002 A 
ATOM      9  C   UNL d   1      11.063   6.799  -6.471  0.00  0.00     0.025 A 
ATOM     10  C   UNL d   1      11.388   7.424  -5.250  0.00  0.00     0.103 A 
ATOM     11  O   UNL d   1      11.852   6.662  -4.197  0.00  0.00    -0.273 OA
ENDROOT
TORSDOF 0
