REMARK  5 active torsions:
REMARK  status: ('A' for Active; 'I' for Inactive)
REMARK    1  A    between atoms: N_3  and  C_4 
REMARK    2  A    between atoms: C_4  and  C_5 
REMARK    3  A    between atoms: C_8  and  C_9 
REMARK    4  A    between atoms: C_9  and  N_10 
REMARK    5  A    between atoms: N_13  and  C_14 
ROOT
ATOM      1  C   UNL d   1       6.321   0.621 -14.125  0.00  0.00     0.002 A 
ATOM      2  C   UNL d   1       7.252   1.548 -14.641  0.00  0.00    -0.003 A 
ATOM      3  C   UNL d   1       7.177   2.899 -14.249  0.00  0.00    -0.003 A 
ATOM      4  C   UNL d   1       6.232   3.313 -13.288  0.00  0.00     0.011 A 
ATOM      5  C   UNL d   1       5.353   2.366 -12.730  0.00  0.00    -0.003 A 
ATOM      6  C   UNL d   1       5.389   1.026 -13.156  0.00  0.00    -0.003 A 
ENDROOT
BRANCH   4   7
ATOM      7  C   UNL d   1       6.195   4.754 -12.822  0.00  0.00     0.277 C 
BRANCH   7   8
ATOM      8  N   UNL d   1       7.519   5.307 -12.499  0.00  0.00     0.145 N 
ATOM      9  C   UNL d   1       8.078   4.588 -11.358  0.00  0.00     0.275 C 
ATOM     10  C   UNL d   1       9.489   5.048 -11.019  0.00  0.00     0.137 C 
ATOM     11  N   UNL d   1       9.471   6.480 -10.741  0.00  0.00    -0.344 N 
ATOM     12  C   UNL d   1       8.800   7.276 -11.773  0.00  0.00     0.137 C 
ATOM     13  C   UNL d   1       7.409   6.701 -12.115  0.00  0.00     0.275 C 
BRANCH  11  14
ATOM     14  C   UNL d   1       9.941   7.023  -9.557  0.00  0.00     0.056 A 
ATOM     15  C   UNL d   1      10.511   8.320  -9.554  0.00  0.00     0.018 A 
ATOM     16  C   UNL d   1      11.026   8.880  -8.372  0.00  0.00     0.013 A 
ATOM     17  C   UNL d   1      10.972   8.168  -7.162  0.00  0.00     0.058 A 
ATOM     18  C   UNL d   1      10.420   6.874  -7.147  0.00  0.00     0.013 A 
ATOM     19 CL   UNL d   1      11.549   8.893  -5.711  0.00  0.00    -0.082 Cl
ATOM     20  C   UNL d   1       9.902   6.310  -8.328  0.00  0.00     0.018 A 
ENDBRANCH  11  14
ENDBRANCH   7   8
ENDBRANCH   4   7
BRANCH   1  21
ATOM     21  C   UNL d   1       6.326  -0.808 -14.607  0.00  0.00     0.159 C 
BRANCH  21  22
ATOM     22  N   UNL d   1       5.835  -0.996 -15.982  0.00  0.00    -0.196 N 
ATOM     23  C   UNL d   1       6.280  -0.420 -17.116  0.00  0.00     0.352 A 
ATOM     24  O   UNL d   1       7.186   0.416 -17.266  0.00  0.00    -0.244 OA
ATOM     25  N   UNL d   1       5.542  -0.970 -18.067  0.00  0.00    -0.241 N 
ATOM     26  C   UNL d   1       4.714  -1.913 -17.495  0.00  0.00     0.171 A 
ATOM     27  C   UNL d   1       5.584  -0.681 -19.426  0.00  0.00     0.086 A 
ATOM     28  N   UNL d   1       4.882  -1.945 -16.220  0.00  0.00    -0.147 NA
ATOM     29  C   UNL d   1       3.853  -2.647 -18.414  0.00  0.00     0.039 A 
ATOM     30  C   UNL d   1       3.895  -2.363 -19.739  0.00  0.00     0.005 A 
ATOM     31  C   UNL d   1       4.785  -1.339 -20.277  0.00  0.00     0.019 A 
ENDBRANCH  21  22
ENDBRANCH   1  21
TORSDOF 5
