REMARK  3 active torsions:
REMARK  status: ('A' for Active; 'I' for Inactive)
REMARK    1  A    between atoms: N_5  and  C_6 
REMARK    2  A    between atoms: N_15  and  N_16 
REMARK       I    between atoms: N_16  and  C_17 
REMARK    3  A    between atoms: C_17  and  C_19 
ROOT
ATOM      1  C   UNL d   1      10.062   4.974 -19.490  0.00  0.00     0.142 C 
ATOM      2  N   UNL d   1       9.592   3.763 -19.385  0.00  0.00    -0.227 NA
ATOM      3  C   UNL d   1       9.966   2.806 -18.431  0.00  0.00     0.101 A 
ATOM      4  C   UNL d   1       9.914   1.459 -18.860  0.00  0.00     0.032 A 
ATOM      5  C   UNL d   1      10.151   0.406 -17.960  0.00  0.00     0.059 A 
ATOM      6 CL   UNL d   1      10.075  -1.218 -18.486  0.00  0.00    -0.082 Cl
ATOM      7  C   UNL d   1      10.432   0.669 -16.617  0.00  0.00     0.013 A 
ATOM      8  C   UNL d   1      10.484   1.992 -16.175  0.00  0.00     0.022 A 
ATOM      9  C   UNL d   1      10.269   3.077 -17.063  0.00  0.00     0.101 A 
ATOM     10  N   UNL d   1      10.409   4.391 -16.587  0.00  0.00    -0.225 N 
ATOM     11  C   UNL d   1      11.240   5.327 -17.222  0.00  0.00     0.086 A 
ATOM     12  C   UNL d   1      12.224   6.010 -16.470  0.00  0.00     0.019 A 
ATOM     13  C   UNL d   1      13.148   6.869 -17.080  0.00  0.00     0.002 A 
ATOM     14  C   UNL d   1      13.109   7.053 -18.469  0.00  0.00     0.000 A 
ATOM     15  C   UNL d   1      12.129   6.391 -19.231  0.00  0.00     0.004 A 
ATOM     16  C   UNL d   1      11.165   5.544 -18.621  0.00  0.00     0.051 A 
ENDROOT
BRANCH  10  17
ATOM     17  N   UNL d   1       9.726   4.768 -15.421  0.00  0.00    -0.123 NA
ATOM     18  C   UNL d   1      10.222   4.622 -14.178  0.00  0.00     0.295 C 
ATOM     19  O   UNL d   1      11.361   4.242 -13.918  0.00  0.00    -0.264 OA
BRANCH  18  20
ATOM     20  C   UNL d   1       9.276   4.953 -13.072  0.00  0.00     0.060 A 
ATOM     21  C   UNL d   1       9.470   4.370 -11.811  0.00  0.00     0.011 A 
ATOM     22  C   UNL d   1       8.719   4.789 -10.716  0.00  0.00     0.030 A 
ATOM     23  C   UNL d   1       7.653   5.668 -10.905  0.00  0.00     0.006 A 
ATOM     24  I   UNL d   1       9.142   4.064  -8.819  0.00  0.00    -0.043 I 
ATOM     25  C   UNL d   1       7.412   6.232 -12.162  0.00  0.00     0.001 A 
ATOM     26  C   UNL d   1       8.247   5.896 -13.238  0.00  0.00     0.005 A 
ENDBRANCH  18  20
ENDBRANCH  10  17
BRANCH   1  27
ATOM     27  N   UNL d   1       9.543   5.853 -20.436  0.00  0.00    -0.330 N 
ATOM     28  C   UNL d   1       9.155   5.444 -21.786  0.00  0.00     0.138 C 
ATOM     29  C   UNL d   1       7.709   5.860 -22.088  0.00  0.00     0.274 C 
ATOM     30  N   UNL d   1       7.557   7.302 -21.913  0.00  0.00     0.143 N 
ATOM     31  C   UNL d   1       6.198   7.696 -22.233  0.00  0.00     0.286 C 
ATOM     32  C   UNL d   1       7.832   7.636 -20.520  0.00  0.00     0.274 C 
ATOM     33  C   UNL d   1       9.286   7.273 -20.185  0.00  0.00     0.138 C 
ENDBRANCH   1  27
TORSDOF 3
