REMARK  8 active torsions:
REMARK  status: ('A' for Active; 'I' for Inactive)
REMARK    1  A    between atoms: N_12  and  C_13 
REMARK    2  A    between atoms: C_13  and  C_14 
REMARK    3  A    between atoms: C_14  and  C_15 
REMARK    4  A    between atoms: C_15  and  C_16 
REMARK    5  A    between atoms: C_16  and  C_17 
REMARK    6  A    between atoms: C_17  and  C_18 
REMARK    7  A    between atoms: C_18  and  N_19 
REMARK    8  A    between atoms: N_22  and  C_23 
ROOT
ATOM      1  C   UNL d   1       9.467   6.809 -11.127  0.00  0.00     0.002 C 
ENDROOT
BRANCH   1   2
ATOM      2  C   UNL d   1       9.941   8.090 -10.418  0.00  0.00     0.002 C 
BRANCH   2   3
ATOM      3  C   UNL d   1      10.541   7.769  -9.057  0.00  0.00     0.025 C 
BRANCH   3   4
ATOM      4  C   UNL d   1      10.496   8.946  -8.069  0.00  0.00     0.122 C 
BRANCH   4   5
ATOM      5  N   UNL d   1      11.114   8.595  -6.779  0.00  0.00    -0.221 N 
ATOM      6  C   UNL d   1      11.415   9.559  -5.804  0.00  0.00     0.271 C 
ATOM      7  O   UNL d   1      11.461  10.774  -5.993  0.00  0.00    -0.266 OA
ATOM      8  C   UNL d   1      11.659   8.874  -4.491  0.00  0.00     0.069 A 
ATOM      9  C   UNL d   1      11.467   7.500  -4.528  0.00  0.00     0.108 A 
ATOM     10  C   UNL d   1      12.047   9.476  -3.278  0.00  0.00     0.005 A 
ATOM     11  C   UNL d   1      11.700   6.676  -3.419  0.00  0.00     0.013 A 
ATOM     12  S   UNL d   1      10.883   7.034  -6.117  0.00  0.00     0.270 S 
ATOM     13  C   UNL d   1      12.135   7.269  -2.218  0.00  0.00     0.001 A 
ATOM     14  C   UNL d   1      12.293   8.670  -2.147  0.00  0.00     0.000 A 
ATOM     15  O   UNL d   1      11.820   6.105  -6.772  0.00  0.00    -0.200 OA
ATOM     16  O   UNL d   1       9.437   6.803  -6.061  0.00  0.00    -0.200 OA
ENDBRANCH   4   5
ENDBRANCH   3   4
ENDBRANCH   2   3
ENDBRANCH   1   2
BRANCH   1  17
ATOM     17  C   UNL d   1       9.035   7.108 -12.557  0.00  0.00     0.035 C 
BRANCH  17  18
ATOM     18  C   UNL d   1       8.324   5.920 -13.217  0.00  0.00     0.250 C 
BRANCH  18  19
ATOM     19  N   UNL d   1       9.218   4.798 -13.513  0.00  0.00     0.141 N 
ATOM     20  C   UNL d   1      10.007   5.052 -14.735  0.00  0.00     0.274 C 
ATOM     21  C   UNL d   1      10.943   3.875 -15.040  0.00  0.00     0.137 C 
ATOM     22  N   UNL d   1      10.144   2.661 -15.169  0.00  0.00    -0.344 N 
ATOM     23  C   UNL d   1       9.280   2.393 -14.034  0.00  0.00     0.137 C 
ATOM     24  C   UNL d   1       8.379   3.612 -13.748  0.00  0.00     0.274 C 
BRANCH  22  25
ATOM     25  C   UNL d   1      10.209   1.832 -16.286  0.00  0.00     0.067 A 
ATOM     26  C   UNL d   1       9.063   1.338 -16.992  0.00  0.00     0.073 A 
ATOM     27  C   UNL d   1       9.230   0.494 -18.091  0.00  0.00     0.013 A 
ATOM     28 CL   UNL d   1       7.425   1.769 -16.650  0.00  0.00    -0.081 Cl
ATOM     29  C   UNL d   1      10.499   0.136 -18.548  0.00  0.00     0.001 A 
ATOM     30  C   UNL d   1      11.633   0.621 -17.886  0.00  0.00     0.002 A 
ATOM     31  C   UNL d   1      11.491   1.460 -16.768  0.00  0.00     0.018 A 
ENDBRANCH  22  25
ENDBRANCH  18  19
ENDBRANCH  17  18
ENDBRANCH   1  17
TORSDOF 8
