REMARK  9 active torsions:
REMARK  status: ('A' for Active; 'I' for Inactive)
REMARK    1  A    between atoms: C_8  and  O_9 
REMARK    2  A    between atoms: O_9  and  C_10 
REMARK    3  A    between atoms: C_10  and  C_11 
REMARK    4  A    between atoms: C_11  and  C_12 
REMARK    5  A    between atoms: C_12  and  C_13 
REMARK    6  A    between atoms: C_13  and  N_14 
REMARK    7  A    between atoms: N_14  and  C_15 
REMARK    8  A    between atoms: C_15  and  C_16 
REMARK    9  A    between atoms: C_18  and  C_19 
ROOT
ATOM      1  C   UNL d   1       8.086   4.497 -11.040  0.00  0.00     0.041 C 
ENDROOT
BRANCH   1   2
ATOM      2  C   UNL d   1       8.910   4.086 -12.271  0.00  0.00     0.035 C 
BRANCH   2   3
ATOM      3  C   UNL d   1       8.009   4.032 -13.514  0.00  0.00     0.149 C 
BRANCH   3   4
ATOM      4  O   UNL d   1       8.854   3.990 -14.658  0.00  0.00    -0.331 OA
BRANCH   4   5
ATOM      5  C   UNL d   1       9.174   2.796 -15.260  0.00  0.00     0.096 A 
ATOM      6  C   UNL d   1       8.538   1.569 -14.958  0.00  0.00     0.024 A 
ATOM      7  C   UNL d   1       8.882   0.404 -15.661  0.00  0.00     0.004 A 
ATOM      8  C   UNL d   1       9.869   0.445 -16.663  0.00  0.00     0.018 A 
ATOM      9  C   UNL d   1      10.257  -0.735 -17.432  0.00  0.00     0.006 A 
ATOM     10  C   UNL d   1      10.520   1.656 -16.960  0.00  0.00     0.087 A 
ATOM     11  C   UNL d   1      11.218  -0.666 -18.377  0.00  0.00     0.063 A 
ATOM     12  C   UNL d   1      11.907   0.588 -18.686  0.00  0.00     0.279 A 
ATOM     13  O   UNL d   1      12.790   0.684 -19.538  0.00  0.00    -0.265 OA
ATOM     14  N   UNL d   1      11.519   1.667 -17.974  0.00  0.00    -0.208 NA
ATOM     15  C   UNL d   1      10.172   2.832 -16.265  0.00  0.00     0.043 A 
ENDBRANCH   4   5
ENDBRANCH   3   4
ENDBRANCH   2   3
ENDBRANCH   1   2
BRANCH   1  16
ATOM     16  C   UNL d   1       8.993   4.907  -9.885  0.00  0.00     0.290 C 
BRANCH  16  17
ATOM     17  N   UNL d   1       8.353   5.979  -9.147  0.00  0.00     0.339 N 
BRANCH  17  18
ATOM     18  C   UNL d   1       9.308   6.557  -8.249  0.00  0.00     0.290 C 
BRANCH  18  19
ATOM     19  C   UNL d   1      10.145   7.631  -8.944  0.00  0.00     0.041 A 
ATOM     20  C   UNL d   1      11.206   8.384  -8.163  0.00  0.00     0.025 A 
ATOM     21  C   UNL d   1       9.958   9.098  -8.625  0.00  0.00     0.007 A 
BRANCH  20  22
ATOM     22  C   UNL d   1      11.436   8.114  -6.717  0.00  0.00    -0.011 A 
ATOM     23  C   UNL d   1      11.554   9.139  -5.739  0.00  0.00     0.064 A 
ATOM     24  C   UNL d   1      11.727   8.821  -4.367  0.00  0.00     0.068 A 
ATOM     25 CL   UNL d   1      11.464  10.791  -6.212  0.00  0.00    -0.082 Cl
ATOM     26  C   UNL d   1      11.777   7.491  -3.954  0.00  0.00     0.012 A 
ATOM     27 CL   UNL d   1      11.813   9.980  -3.123  0.00  0.00    -0.082 Cl
ATOM     28  C   UNL d   1      11.668   6.524  -4.924  0.00  0.00     0.001 A 
ATOM     29  C   UNL d   1      11.533   6.779  -6.291  0.00  0.00    -0.003 A 
ENDBRANCH  20  22
ENDBRANCH  18  19
ENDBRANCH  17  18
ENDBRANCH  16  17
ENDBRANCH   1  16
TORSDOF 9
