REMARK  12 active torsions:
REMARK  status: ('A' for Active; 'I' for Inactive)
REMARK    1  A    between atoms: C_2  and  C_3 
REMARK    2  A    between atoms: C_3  and  N_4 
REMARK    3  A    between atoms: N_4  and  C_5 
REMARK    4  A    between atoms: N_4  and  C_21 
REMARK    5  A    between atoms: C_5  and  C_6 
REMARK    6  A    between atoms: C_6  and  C_7 
REMARK    7  A    between atoms: C_7  and  S_8 
REMARK    8  A    between atoms: S_8  and  C_9 
REMARK    9  A    between atoms: C_12  and  C_13 
REMARK   10  A    between atoms: C_21  and  C_22 
REMARK   11  A    between atoms: C_24  and  C_25 
REMARK   12  A    between atoms: C_31  and  O_32 
ROOT
ATOM      1  N   UNL d   1      10.503   3.968 -15.736  0.00  0.00     0.137 N 
ENDROOT
BRANCH   1   2
ATOM      2  C   UNL d   1      10.964   4.928 -16.750  0.00  0.00     0.250 C 
BRANCH   2   3
ATOM      3  C   UNL d   1      12.460   4.754 -17.104  0.00  0.00     0.035 C 
ATOM      4  C   UNL d   1      12.966   5.762 -18.141  0.00  0.00     0.002 C 
ENDBRANCH   2   3
ENDBRANCH   1   2
BRANCH   1   5
ATOM      5  C   UNL d   1       9.162   4.320 -15.274  0.00  0.00     0.251 C 
BRANCH   5   6
ATOM      6  C   UNL d   1       9.080   4.342 -13.745  0.00  0.00     0.047 C 
BRANCH   6   7
ATOM      7  C   UNL d   1       7.689   4.782 -13.262  0.00  0.00     0.067 C 
BRANCH   7   8
ATOM      8  S   UNL d   1       7.537   4.655 -11.466  0.00  0.00    -0.075 SA
BRANCH   8   9
ATOM      9  C   UNL d   1       8.631   5.938 -10.949  0.00  0.00     0.193 A 
ATOM     10  N   UNL d   1       9.064   6.042  -9.681  0.00  0.00    -0.289 N 
ATOM     11  C   UNL d   1       9.785   7.186  -9.731  0.00  0.00     0.167 A 
ATOM     12  C   UNL d   1       8.810   5.172  -8.540  0.00  0.00     0.134 C 
ATOM     13  N   UNL d   1       9.850   7.714 -10.953  0.00  0.00    -0.128 NA
ATOM     14  N   UNL d   1       9.073   6.912 -11.750  0.00  0.00    -0.122 NA
BRANCH  11  15
ATOM     15  C   UNL d   1      10.448   7.814  -8.604  0.00  0.00     0.036 A 
ATOM     16  C   UNL d   1       9.740   8.111  -7.420  0.00  0.00     0.003 A 
ATOM     17  C   UNL d   1      10.402   8.732  -6.346  0.00  0.00     0.000 A 
ATOM     18  C   UNL d   1      11.768   9.067  -6.463  0.00  0.00     0.000 A 
ATOM     19  C   UNL d   1      12.457   8.782  -7.660  0.00  0.00     0.000 A 
ATOM     20  C   UNL d   1      11.807   8.159  -8.725  0.00  0.00     0.003 A 
ENDBRANCH  11  15
ENDBRANCH   8   9
ENDBRANCH   7   8
ENDBRANCH   6   7
ENDBRANCH   5   6
ENDBRANCH   1   5
BRANCH   1  21
ATOM     21  C   UNL d   1      10.479   2.615 -16.294  0.00  0.00     0.251 C 
BRANCH  21  22
ATOM     22  C   UNL d   1      10.024   1.550 -15.292  0.00  0.00     0.038 A 
ATOM     23  C   UNL d   1       9.639   0.182 -15.838  0.00  0.00     0.026 A 
ATOM     24  C   UNL d   1      10.918   0.365 -15.049  0.00  0.00     0.007 A 
BRANCH  23  25
ATOM     25  C   UNL d   1       9.643  -0.051 -17.321  0.00  0.00     0.002 A 
ATOM     26  C   UNL d   1       8.438   0.073 -18.062  0.00  0.00     0.090 A 
ATOM     27  C   UNL d   1       8.465  -0.119 -19.470  0.00  0.00     0.026 A 
ATOM     28  C   UNL d   1       9.680  -0.411 -20.125  0.00  0.00     0.032 A 
ATOM     29  C   UNL d   1      10.870  -0.527 -19.385  0.00  0.00     0.140 A 
ATOM     30  C   UNL d   1      10.848  -0.363 -17.994  0.00  0.00     0.027 A 
ATOM     31  F   UNL d   1      12.048  -0.788 -20.002  0.00  0.00    -0.204 F 
BRANCH  26  32
ATOM     32  O   UNL d   1       7.287   0.418 -17.376  0.00  0.00    -0.328 OA
ATOM     33  C   UNL d   1       6.037   0.344 -18.060  0.00  0.00     0.181 C 
ENDBRANCH  26  32
ENDBRANCH  23  25
ENDBRANCH  21  22
ENDBRANCH   1  21
TORSDOF 12
