REMARK  6 active torsions:
REMARK  status: ('A' for Active; 'I' for Inactive)
REMARK    1  A    between atoms: N_2  and  C_3 
REMARK    2  A    between atoms: C_5  and  O_6 
REMARK    3  A    between atoms: C_8  and  C_9 
REMARK       I    between atoms: C_9  and  N_11 
REMARK    4  A    between atoms: N_11  and  C_12 
REMARK    5  A    between atoms: N_15  and  C_16 
REMARK    6  A    between atoms: C_16  and  C_17 
ROOT
ATOM      1  C   UNL d   1       9.053   6.645 -11.888  0.00  0.00     0.277 C 
ATOM      2  O   UNL d   1       9.449   7.670 -12.439  0.00  0.00    -0.266 OA
ATOM      3  N   UNL d   1       9.092   6.471 -10.578  0.00  0.00    -0.234 NA
ENDROOT
BRANCH   3   4
ATOM      4  C   UNL d   1       9.646   7.409  -9.598  0.00  0.00     0.140 C 
ATOM      5  C   UNL d   1       9.062   7.155  -8.204  0.00  0.00     0.242 C 
ATOM      6  N   UNL d   1      10.183   7.533  -7.343  0.00  0.00     0.141 N 
ATOM      7  C   UNL d   1       8.538   5.697  -7.986  0.00  0.00     0.037 C 
ATOM      8  C   UNL d   1      11.367   6.947  -7.939  0.00  0.00     0.253 C 
ATOM      9  C   UNL d   1      11.160   7.248  -9.424  0.00  0.00     0.062 C 
BRANCH   6  10
ATOM     10  C   UNL d   1      10.014   7.117  -5.968  0.00  0.00     0.277 C 
BRANCH  10  11
ATOM     11  C   UNL d   1      11.031   7.695  -5.020  0.00  0.00     0.011 A 
ATOM     12  C   UNL d   1      11.048   9.082  -4.785  0.00  0.00    -0.002 A 
ATOM     13  C   UNL d   1      11.829   9.589  -3.740  0.00  0.00    -0.000 A 
ATOM     14  C   UNL d   1      12.661   8.743  -2.988  0.00  0.00    -0.000 A 
ATOM     15  C   UNL d   1      12.668   7.359  -3.248  0.00  0.00    -0.000 A 
ATOM     16  C   UNL d   1      11.821   6.832  -4.242  0.00  0.00    -0.002 A 
ENDBRANCH  10  11
ENDBRANCH   6  10
ENDBRANCH   3   4
BRANCH   1  17
ATOM     17  C   UNL d   1       8.539   5.463 -12.655  0.00  0.00     0.081 A 
ATOM     18  C   UNL d   1       9.359   4.764 -13.581  0.00  0.00     0.100 A 
ATOM     19  C   UNL d   1       8.832   3.647 -14.271  0.00  0.00     0.044 A 
ATOM     20  C   UNL d   1       7.502   3.208 -14.043  0.00  0.00     0.089 A 
ATOM     21  C   UNL d   1       6.694   3.914 -13.119  0.00  0.00     0.075 A 
ATOM     22  C   UNL d   1       7.218   5.022 -12.426  0.00  0.00     0.020 A 
ATOM     23 CL   UNL d   1       5.064   3.424 -12.827  0.00  0.00    -0.081 Cl
BRANCH  18  24
ATOM     24  O   UNL d   1      10.662   5.193 -13.745  0.00  0.00    -0.328 OA
ATOM     25  C   UNL d   1      11.508   4.489 -14.647  0.00  0.00     0.181 C 
ENDBRANCH  18  24
BRANCH  20  26
ATOM     26  N   UNL d   1       6.955   2.121 -14.741  0.00  0.00    -0.268 NA
ATOM     27  C   UNL d   1       7.755   1.292 -15.632  0.00  0.00     0.152 C 
ENDBRANCH  20  26
ENDBRANCH   1  17
TORSDOF 6
