REMARK  2 active torsions:
REMARK  status: ('A' for Active; 'I' for Inactive)
REMARK    1  A    between atoms: N_13  and  C_14 
REMARK    2  A    between atoms: C_14  and  C_15 
ROOT
ATOM      1  N   UNL d   1       6.989   4.538 -12.837  0.00  0.00    -0.072 NA
ATOM      2  C   UNL d   1       7.824   5.273 -12.013  0.00  0.00     0.181 A 
ATOM      3  N   UNL d   1       8.342   4.789 -10.880  0.00  0.00    -0.225 NA
ATOM      4  C   UNL d   1       9.137   5.756 -10.277  0.00  0.00     0.089 A 
ATOM      5  C   UNL d   1       9.839   5.655  -9.053  0.00  0.00     0.015 A 
ATOM      6  C   UNL d   1      10.602   6.731  -8.539  0.00  0.00    -0.022 A 
ATOM      7  C   UNL d   1      10.682   7.939  -9.259  0.00  0.00    -0.024 A 
ATOM      8  C   UNL d   1       9.992   8.057 -10.478  0.00  0.00     0.004 A 
ATOM      9  C   UNL d   1       9.245   6.984 -10.981  0.00  0.00     0.049 A 
ATOM     10  S   UNL d   1       8.276   6.918 -12.439  0.00  0.00    -0.052 SA
ATOM     11  C   UNL d   1      11.507   9.095  -8.738  0.00  0.00     0.061 C 
ATOM     12  C   UNL d   1      11.062   9.589  -7.348  0.00  0.00     0.255 C 
ATOM     13  N   UNL d   1      11.541   8.821  -6.197  0.00  0.00     0.140 N 
ATOM     14  C   UNL d   1      10.951   7.483  -6.127  0.00  0.00     0.255 C 
ATOM     15  C   UNL d   1      11.385   6.563  -7.252  0.00  0.00     0.061 C 
ENDROOT
BRANCH  13  16
ATOM     16  C   UNL d   1      11.297   9.564  -4.971  0.00  0.00     0.286 C 
BRANCH  16  17
ATOM     17  C   UNL d   1      12.010   9.013  -3.730  0.00  0.00     0.218 C 
ATOM     18  O   UNL d   1      11.859   9.937  -2.681  0.00  0.00    -0.218 OA
ENDBRANCH  16  17
ENDBRANCH  13  16
TORSDOF 2
