REMARK  4 active torsions:
REMARK  status: ('A' for Active; 'I' for Inactive)
REMARK    1  A    between atoms: C_2  and  N_3 
REMARK    2  A    between atoms: C_6  and  N_7 
REMARK    3  A    between atoms: N_10  and  C_11 
REMARK    4  A    between atoms: C_11  and  C_12 
ROOT
ATOM      1  N   UNL d   1      13.720   6.509 -17.986  0.00  0.00    -0.298 N 
ATOM      2  C   UNL d   1      12.711   6.122 -17.156  0.00  0.00     0.269 C 
ATOM      3  O   UNL d   1      12.752   6.368 -15.927  0.00  0.00    -0.270 OA
ATOM      4  C   UNL d   1      11.536   5.331 -17.724  0.00  0.00     0.297 C 
ATOM      5  C   UNL d   1      10.563   6.293 -18.443  0.00  0.00     0.048 C 
ATOM      6  C   UNL d   1      11.207   7.315 -19.396  0.00  0.00     0.030 C 
ATOM      7  C   UNL d   1      12.434   6.783 -20.120  0.00  0.00    -0.006 A 
ATOM      8  C   UNL d   1      12.410   6.688 -21.531  0.00  0.00    -0.003 A 
ATOM      9  C   UNL d   1      13.539   6.269 -22.252  0.00  0.00    -0.000 A 
ATOM     10  C   UNL d   1      14.719   5.939 -21.563  0.00  0.00     0.002 A 
ATOM     11  C   UNL d   1      14.752   6.019 -20.159  0.00  0.00     0.017 A 
ATOM     12  C   UNL d   1      13.629   6.419 -19.419  0.00  0.00     0.058 A 
ENDROOT
BRANCH   4  13
ATOM     13  N   UNL d   1      10.908   4.474 -16.689  0.00  0.00     0.148 N 
ATOM     14  C   UNL d   1      11.801   3.398 -16.192  0.00  0.00     0.286 C 
ATOM     15  C   UNL d   1      11.126   2.530 -15.116  0.00  0.00     0.286 C 
ATOM     16  N   UNL d   1       9.869   1.953 -15.592  0.00  0.00     0.146 N 
ATOM     17  C   UNL d   1       9.004   3.064 -16.014  0.00  0.00     0.286 C 
ATOM     18  C   UNL d   1       9.662   3.860 -17.132  0.00  0.00     0.286 C 
BRANCH  16  19
ATOM     19  C   UNL d   1       9.254   1.086 -14.592  0.00  0.00     0.277 C 
BRANCH  19  20
ATOM     20  C   UNL d   1       7.933   0.448 -15.030  0.00  0.00     0.011 A 
ATOM     21  C   UNL d   1       7.575   0.352 -16.393  0.00  0.00    -0.002 A 
ATOM     22  C   UNL d   1       6.308  -0.115 -16.768  0.00  0.00     0.011 A 
ATOM     23  C   UNL d   1       5.415  -0.588 -15.788  0.00  0.00     0.058 A 
ATOM     24  C   UNL d   1       5.785  -0.563 -14.432  0.00  0.00     0.011 A 
ATOM     25 CL   UNL d   1       3.870  -1.225 -16.249  0.00  0.00    -0.082 Cl
ATOM     26  C   UNL d   1       7.042  -0.035 -14.051  0.00  0.00    -0.002 A 
ENDBRANCH  19  20
ENDBRANCH  16  19
ENDBRANCH   4  13
BRANCH   1  27
ATOM     27  C   UNL d   1      14.989   6.959 -17.392  0.00  0.00     0.109 C 
ATOM     28  C   UNL d   1      15.823   5.771 -16.874  0.00  0.00     0.027 C 
ENDBRANCH   1  27
TORSDOF 4
