REMARK  8 active torsions:
REMARK  status: ('A' for Active; 'I' for Inactive)
REMARK    1  A    between atoms: C_2  and  C_3 
REMARK       I    between atoms: C_2  and  N_10 
REMARK    2  A    between atoms: C_3  and  C_4 
REMARK    3  A    between atoms: C_4  and  C_6 
REMARK    4  A    between atoms: N_10  and  C_11 
REMARK    5  A    between atoms: C_14  and  C_15 
REMARK    6  A    between atoms: C_15  and  C_16 
REMARK    7  A    between atoms: C_16  and  N_17 
REMARK    8  A    between atoms: C_20  and  C_21 
ROOT
ATOM      1  C   UNL d   1       7.855   5.586 -11.314  0.00  0.00     0.035 C 
ENDROOT
BRANCH   1   2
ATOM      2  C   UNL d   1       7.538   4.817 -12.610  0.00  0.00     0.002 C 
ATOM      3  C   UNL d   1       8.664   3.829 -12.992  0.00  0.00     0.002 C 
ATOM      4  C   UNL d   1       8.309   2.986 -14.211  0.00  0.00     0.024 C 
ATOM      5  C   UNL d   1       6.969   2.264 -14.044  0.00  0.00     0.106 C 
ATOM      6  C   UNL d   1       5.848   3.253 -13.681  0.00  0.00     0.024 C 
ATOM      7  C   UNL d   1       6.194   4.079 -12.445  0.00  0.00     0.002 C 
BRANCH   5   8
ATOM      8  N   UNL d   1       6.662   1.541 -15.266  0.00  0.00    -0.240 NA
ATOM      9  C   UNL d   1       5.977   0.385 -15.297  0.00  0.00     0.254 C 
ATOM     10  O   UNL d   1       5.588  -0.195 -14.283  0.00  0.00    -0.270 OA
BRANCH   9  11
ATOM     11  C   UNL d   1       5.699  -0.190 -16.686  0.00  0.00     0.131 C 
BRANCH  11  12
ATOM     12  C   UNL d   1       5.131  -1.627 -16.692  0.00  0.00     0.256 C 
ATOM     13  O   UNL d   1       3.808  -1.628 -16.172  0.00  0.00    -0.214 OA
BRANCH  12  14
ATOM     14  C   UNL d   1       5.096  -2.236 -18.108  0.00  0.00     0.426 C 
ATOM     15  F   UNL d   1       4.676  -3.499 -18.052  0.00  0.00    -0.167 F 
ATOM     16  F   UNL d   1       4.293  -1.528 -18.904  0.00  0.00    -0.167 F 
ATOM     17  F   UNL d   1       6.321  -2.233 -18.638  0.00  0.00    -0.167 F 
ENDBRANCH  12  14
ENDBRANCH  11  12
ENDBRANCH   9  11
ENDBRANCH   5   8
ENDBRANCH   1   2
BRANCH   1  18
ATOM     18  C   UNL d   1       9.277   6.176 -11.280  0.00  0.00     0.250 C 
BRANCH  18  19
ATOM     19  N   UNL d   1       9.580   6.882 -10.048  0.00  0.00     0.137 N 
ATOM     20  C   UNL d   1       9.620   5.971  -8.901  0.00  0.00     0.251 C 
ATOM     21  C   UNL d   1       9.851   6.767  -7.615  0.00  0.00     0.040 C 
ATOM     22  C   UNL d   1      11.155   7.572  -7.680  0.00  0.00     0.028 C 
ATOM     23  C   UNL d   1      11.185   8.395  -8.985  0.00  0.00     0.040 C 
ATOM     24  C   UNL d   1      10.881   7.528 -10.203  0.00  0.00     0.251 C 
BRANCH  22  25
ATOM     25  C   UNL d   1      11.297   8.447  -6.466  0.00  0.00     0.004 A 
ATOM     26  C   UNL d   1      11.537   8.029  -5.114  0.00  0.00     0.021 A 
ATOM     27  C   UNL d   1      11.600   9.214  -4.343  0.00  0.00     0.100 A 
ATOM     28  C   UNL d   1      11.750   6.809  -4.433  0.00  0.00     0.002 A 
ATOM     29  O   UNL d   1      11.386  10.302  -5.157  0.00  0.00    -0.305 OA
ATOM     30  C   UNL d   1      11.868   9.226  -2.965  0.00  0.00     0.025 A 
ATOM     31  C   UNL d   1      11.233   9.817  -6.418  0.00  0.00     0.118 A 
ATOM     32  C   UNL d   1      12.062   7.996  -2.311  0.00  0.00     0.002 A 
ATOM     33  C   UNL d   1      12.005   6.790  -3.043  0.00  0.00     0.000 A 
ENDBRANCH  22  25
ENDBRANCH  18  19
ENDBRANCH   1  18
TORSDOF 8
