REMARK  3 active torsions:
REMARK  status: ('A' for Active; 'I' for Inactive)
REMARK    1  A    between atoms: C_14  and  C_15 
REMARK    2  A    between atoms: C_15  and  N_16 
REMARK    3  A    between atoms: N_26  and  C_27 
ROOT
ATOM      1  N   UNL d   1       9.097  -1.499 -20.852  0.00  0.00    -0.190 NA
ATOM      2  C   UNL d   1       9.054  -0.812 -19.914  0.00  0.00     0.120 C 
ATOM      3  C   UNL d   1       9.015   0.024 -18.786  0.00  0.00     0.149 A 
ATOM      4  C   UNL d   1       9.936   0.999 -18.378  0.00  0.00     0.033 A 
ATOM      5  C   UNL d   1       9.399   1.552 -17.160  0.00  0.00     0.044 A 
ATOM      6  C   UNL d   1       9.718   2.557 -16.157  0.00  0.00     0.118 A 
ATOM      7  C   UNL d   1       8.844   2.766 -15.047  0.00  0.00     0.116 A 
ATOM      8  C   UNL d   1       7.654   2.041 -14.911  0.00  0.00     0.028 A 
ATOM      9  C   UNL d   1       7.302   1.073 -15.854  0.00  0.00     0.021 A 
ATOM     10  C   UNL d   1       8.156   0.853 -16.919  0.00  0.00     0.084 A 
ATOM     11  N   UNL d   1       7.972  -0.058 -17.927  0.00  0.00    -0.235 NA
ATOM     12  O   UNL d   1       9.108   3.707 -14.074  0.00  0.00    -0.326 OA
ATOM     13  C   UNL d   1      10.443   4.168 -14.022  0.00  0.00     0.181 C 
ATOM     14  C   UNL d   1      10.915   4.495 -15.440  0.00  0.00     0.185 C 
ATOM     15  O   UNL d   1      10.872   3.328 -16.274  0.00  0.00    -0.327 OA
ENDROOT
BRANCH  14  16
ATOM     16  C   UNL d   1      12.320   5.088 -15.351  0.00  0.00     0.283 C 
BRANCH  16  17
ATOM     17  N   UNL d   1      12.820   5.396 -16.677  0.00  0.00     0.140 N 
ATOM     18  C   UNL d   1      13.447   6.719 -16.678  0.00  0.00     0.253 C 
ATOM     19  C   UNL d   1      13.837   7.072 -18.109  0.00  0.00     0.065 C 
ATOM     20  C   UNL d   1      14.794   6.035 -18.763  0.00  0.00     0.142 A 
ATOM     21  C   UNL d   1      14.224   4.610 -18.544  0.00  0.00     0.065 C 
ATOM     22  N   UNL d   1      15.008   6.335 -20.186  0.00  0.00    -0.323 N 
ATOM     23  C   UNL d   1      16.223   6.144 -18.171  0.00  0.00     0.271 A 
ATOM     24  C   UNL d   1      13.780   4.369 -17.094  0.00  0.00     0.253 C 
ATOM     25  C   UNL d   1      16.435   6.556 -20.449  0.00  0.00     0.234 A 
ATOM     26  N   UNL d   1      17.081   6.457 -19.141  0.00  0.00    -0.211 NA
ATOM     27  O   UNL d   1      16.517   5.996 -16.994  0.00  0.00    -0.269 OA
BRANCH  22  28
ATOM     28  C   UNL d   1      14.042   7.083 -20.886  0.00  0.00     0.058 A 
ATOM     29  C   UNL d   1      14.244   8.445 -21.208  0.00  0.00     0.017 A 
ATOM     30  C   UNL d   1      13.240   9.167 -21.870  0.00  0.00     0.002 A 
ATOM     31  C   UNL d   1      12.016   8.555 -22.195  0.00  0.00     0.000 A 
ATOM     32  C   UNL d   1      11.803   7.208 -21.853  0.00  0.00     0.002 A 
ATOM     33  C   UNL d   1      12.808   6.478 -21.203  0.00  0.00     0.017 A 
ENDBRANCH  22  28
ENDBRANCH  16  17
ENDBRANCH  14  16
TORSDOF 3
