REMARK  6 active torsions:
REMARK  status: ('A' for Active; 'I' for Inactive)
REMARK       I    between atoms: C_2  and  N_3 
REMARK       I    between atoms: C_2  and  N_24 
REMARK    1  A    between atoms: N_3  and  C_4 
REMARK    2  A    between atoms: C_7  and  C_8 
REMARK    3  A    between atoms: C_8  and  C_9 
REMARK    4  A    between atoms: C_9  and  N_10 
REMARK    5  A    between atoms: N_13  and  C_14 
REMARK    6  A    between atoms: N_24  and  C_25 
ROOT
ATOM      1  C   UNL d   1       8.236   3.243 -14.261  0.00  0.00     0.086 A 
ATOM      2  C   UNL d   1       7.199   3.936 -13.594  0.00  0.00     0.019 A 
ATOM      3  C   UNL d   1       7.498   4.947 -12.667  0.00  0.00    -0.003 A 
ATOM      4  C   UNL d   1       8.836   5.310 -12.418  0.00  0.00    -0.020 A 
ATOM      5  C   UNL d   1       9.871   4.636 -13.099  0.00  0.00    -0.003 A 
ATOM      6  C   UNL d   1       9.576   3.621 -14.033  0.00  0.00     0.019 A 
ENDROOT
BRANCH   4   7
ATOM      7  C   UNL d   1       9.144   6.388 -11.386  0.00  0.00     0.062 C 
BRANCH   7   8
ATOM      8  C   UNL d   1       9.527   5.793 -10.018  0.00  0.00     0.255 C 
BRANCH   8   9
ATOM      9  N   UNL d   1       9.463   6.794  -8.961  0.00  0.00     0.141 N 
ATOM     10  C   UNL d   1      10.731   7.512  -8.822  0.00  0.00     0.274 C 
ATOM     11  C   UNL d   1      10.652   8.573  -7.706  0.00  0.00     0.137 C 
ATOM     12  N   UNL d   1      10.234   7.938  -6.472  0.00  0.00    -0.344 N 
ATOM     13  C   UNL d   1       9.026   7.126  -6.556  0.00  0.00     0.137 C 
ATOM     14  C   UNL d   1       9.144   6.116  -7.705  0.00  0.00     0.274 C 
BRANCH  12  15
ATOM     15  C   UNL d   1      10.953   8.109  -5.285  0.00  0.00     0.056 A 
ATOM     16  C   UNL d   1      11.142   9.405  -4.761  0.00  0.00     0.017 A 
ATOM     17  C   UNL d   1      11.824   9.584  -3.540  0.00  0.00     0.002 A 
ATOM     18  C   UNL d   1      12.355   8.479  -2.857  0.00  0.00     0.000 A 
ATOM     19  C   UNL d   1      12.172   7.185  -3.374  0.00  0.00     0.002 A 
ATOM     20  C   UNL d   1      11.457   6.995  -4.574  0.00  0.00     0.017 A 
ENDBRANCH  12  15
ENDBRANCH   8   9
ENDBRANCH   7   8
ENDBRANCH   4   7
BRANCH   1  21
ATOM     21  N   UNL d   1       7.976   2.209 -15.199  0.00  0.00    -0.191 NA
ATOM     22  C   UNL d   1       6.943   1.344 -15.159  0.00  0.00     0.370 C 
ATOM     23  O   UNL d   1       6.203   1.217 -14.181  0.00  0.00    -0.242 OA
ATOM     24  N   UNL d   1       6.821   0.656 -16.307  0.00  0.00    -0.172 NA
BRANCH  24  25
ATOM     25  C   UNL d   1       5.784  -0.241 -16.687  0.00  0.00     0.167 A 
ATOM     26  N   UNL d   1       4.859  -0.743 -15.831  0.00  0.00    -0.225 NA
ATOM     27  C   UNL d   1       3.927  -1.601 -16.297  0.00  0.00     0.101 A 
ATOM     28  C   UNL d   1       3.859  -2.002 -17.644  0.00  0.00     0.021 A 
ATOM     29  C   UNL d   1       4.803  -1.482 -18.543  0.00  0.00     0.005 A 
ATOM     30  C   UNL d   1       5.777  -0.589 -18.056  0.00  0.00     0.039 A 
ENDBRANCH  24  25
ENDBRANCH   1  21
TORSDOF 6
