REMARK  8 active torsions:
REMARK  status: ('A' for Active; 'I' for Inactive)
REMARK    1  A    between atoms: O_2  and  C_3 
REMARK    2  A    between atoms: C_8  and  N_9 
REMARK    3  A    between atoms: N_12  and  C_13 
REMARK    4  A    between atoms: C_13  and  C_14 
REMARK    5  A    between atoms: C_14  and  C_15 
REMARK    6  A    between atoms: C_15  and  C_16 
REMARK    7  A    between atoms: C_16  and  C_17 
REMARK    8  A    between atoms: C_17  and  N_18 
ROOT
ATOM      1  C   UNL d   1       8.997   2.516 -14.132  0.00  0.00     0.250 C 
ENDROOT
BRANCH   1   2
ATOM      2  N   UNL d   1       9.396   1.649 -15.235  0.00  0.00     0.141 N 
ATOM      3  C   UNL d   1       8.808   2.050 -16.518  0.00  0.00     0.274 C 
ATOM      4  C   UNL d   1       7.265   1.959 -16.489  0.00  0.00     0.137 C 
ATOM      5  N   UNL d   1       6.866   0.633 -16.040  0.00  0.00    -0.343 N 
ATOM      6  C   UNL d   1       7.497   0.111 -14.833  0.00  0.00     0.137 C 
ATOM      7  C   UNL d   1       9.031   0.257 -14.951  0.00  0.00     0.274 C 
BRANCH   5   8
ATOM      8  C   UNL d   1       5.905  -0.107 -16.724  0.00  0.00     0.079 A 
ATOM      9  C   UNL d   1       4.810  -0.680 -16.033  0.00  0.00     0.110 A 
ATOM     10  C   UNL d   1       3.858  -1.430 -16.767  0.00  0.00     0.026 A 
ATOM     11  C   UNL d   1       3.992  -1.592 -18.159  0.00  0.00     0.002 A 
ATOM     12  C   UNL d   1       5.075  -1.014 -18.839  0.00  0.00     0.002 A 
ATOM     13  C   UNL d   1       6.029  -0.271 -18.120  0.00  0.00     0.019 A 
BRANCH   9  14
ATOM     14  O   UNL d   1       4.710  -0.458 -14.675  0.00  0.00    -0.327 OA
ATOM     15  C   UNL d   1       3.449  -0.626 -14.049  0.00  0.00     0.181 C 
ENDBRANCH   9  14
ENDBRANCH   5   8
ENDBRANCH   1   2
BRANCH   1  16
ATOM     16  C   UNL d   1       9.745   3.857 -14.142  0.00  0.00     0.035 C 
BRANCH  16  17
ATOM     17  C   UNL d   1       8.917   4.933 -13.429  0.00  0.00     0.004 C 
BRANCH  17  18
ATOM     18  C   UNL d   1       9.486   5.260 -12.053  0.00  0.00     0.024 C 
BRANCH  18  19
ATOM     19  C   UNL d   1       8.622   6.258 -11.276  0.00  0.00     0.104 C 
BRANCH  19  20
ATOM     20  N   UNL d   1       9.417   6.874 -10.214  0.00  0.00    -0.316 N 
ATOM     21  C   UNL d   1       9.452   6.348  -8.975  0.00  0.00     0.257 C 
ATOM     22  C   UNL d   1      10.204   7.127  -7.937  0.00  0.00     0.052 A 
ATOM     23  O   UNL d   1       8.894   5.293  -8.660  0.00  0.00    -0.267 OA
ATOM     24  C   UNL d   1      11.106   8.154  -8.310  0.00  0.00    -0.016 A 
ATOM     25  C   UNL d   1      10.040   6.814  -6.572  0.00  0.00     0.004 A 
ATOM     26  C   UNL d   1      11.277   8.497  -9.775  0.00  0.00     0.051 C 
ATOM     27  C   UNL d   1      11.840   8.837  -7.320  0.00  0.00    -0.004 A 
ATOM     28  C   UNL d   1       9.996   8.180 -10.564  0.00  0.00     0.109 C 
ATOM     29  C   UNL d   1      11.661   8.518  -5.960  0.00  0.00    -0.000 A 
ATOM     30  C   UNL d   1      10.778   7.491  -5.589  0.00  0.00     0.000 A 
ENDBRANCH  19  20
ENDBRANCH  18  19
ENDBRANCH  17  18
ENDBRANCH  16  17
ENDBRANCH   1  16
TORSDOF 8
