REMARK  9 active torsions:
REMARK  status: ('A' for Active; 'I' for Inactive)
REMARK    1  A    between atoms: O_2  and  C_3 
REMARK    2  A    between atoms: C_8  and  N_9 
REMARK    3  A    between atoms: N_12  and  C_13 
REMARK    4  A    between atoms: C_13  and  C_14 
REMARK    5  A    between atoms: C_14  and  C_15 
REMARK    6  A    between atoms: C_15  and  C_16 
REMARK    7  A    between atoms: C_16  and  O_17 
REMARK    8  A    between atoms: O_17  and  C_18 
REMARK    9  A    between atoms: C_22  and  C_23 
ROOT
ATOM      1  C   UNL d   1       8.972   5.160 -10.367  0.00  0.00     0.038 C 
ENDROOT
BRANCH   1   2
ATOM      2  C   UNL d   1       8.503   5.780  -9.043  0.00  0.00     0.251 C 
BRANCH   2   3
ATOM      3  N   UNL d   1       9.521   6.656  -8.470  0.00  0.00     0.141 N 
ATOM      4  C   UNL d   1      10.498   5.845  -7.761  0.00  0.00     0.274 C 
ATOM      5  C   UNL d   1      11.595   6.721  -7.151  0.00  0.00     0.137 C 
ATOM      6  N   UNL d   1      10.995   7.720  -6.277  0.00  0.00    -0.343 N 
ATOM      7  C   UNL d   1       9.919   8.489  -6.891  0.00  0.00     0.137 C 
ATOM      8  C   UNL d   1       8.883   7.548  -7.502  0.00  0.00     0.274 C 
BRANCH   6   9
ATOM      9  C   UNL d   1      11.436   7.923  -4.974  0.00  0.00     0.079 A 
ATOM     10  C   UNL d   1      11.527   9.214  -4.380  0.00  0.00     0.110 A 
ATOM     11  C   UNL d   1      11.915   9.316  -3.028  0.00  0.00     0.026 A 
ATOM     12  C   UNL d   1      12.264   8.181  -2.272  0.00  0.00     0.002 A 
ATOM     13  C   UNL d   1      12.201   6.910  -2.859  0.00  0.00     0.002 A 
ATOM     14  C   UNL d   1      11.779   6.786  -4.195  0.00  0.00     0.019 A 
BRANCH  10  15
ATOM     15  O   UNL d   1      11.221  10.373  -5.060  0.00  0.00    -0.327 OA
ATOM     16  C   UNL d   1      11.979  10.653  -6.227  0.00  0.00     0.181 C 
ENDBRANCH  10  15
ENDBRANCH   6   9
ENDBRANCH   2   3
ENDBRANCH   1   2
BRANCH   1  17
ATOM     17  C   UNL d   1       9.109   6.215 -11.482  0.00  0.00     0.035 C 
BRANCH  17  18
ATOM     18  C   UNL d   1       9.053   5.598 -12.883  0.00  0.00     0.149 C 
BRANCH  18  19
ATOM     19  O   UNL d   1      10.244   4.873 -13.175  0.00  0.00    -0.329 OA
BRANCH  19  20
ATOM     20  C   UNL d   1      10.149   3.811 -14.039  0.00  0.00     0.113 A 
ATOM     21  C   UNL d   1      11.180   3.580 -14.921  0.00  0.00     0.124 A 
ATOM     22  N   UNL d   1      11.081   2.560 -15.813  0.00  0.00    -0.226 N 
ATOM     23  C   UNL d   1       9.972   1.690 -15.863  0.00  0.00     0.086 A 
ATOM     24  N   UNL d   1      12.009   2.239 -16.784  0.00  0.00    -0.164 NA
ATOM     25  C   UNL d   1       8.922   1.895 -14.932  0.00  0.00     0.021 A 
ATOM     26  C   UNL d   1      10.233   0.811 -16.872  0.00  0.00     0.060 A 
ATOM     27  C   UNL d   1       9.024   2.930 -14.033  0.00  0.00     0.027 A 
ATOM     28  C   UNL d   1      11.492   1.194 -17.394  0.00  0.00     0.124 A 
BRANCH  26  29
ATOM     29  C   UNL d   1       9.388  -0.300 -17.331  0.00  0.00     0.134 C 
ATOM     30  N   UNL d   1       9.722  -1.108 -18.243  0.00  0.00    -0.095 NA
ATOM     31  O   UNL d   1       8.657  -2.038 -18.436  0.00  0.00    -0.061 OA
ENDBRANCH  26  29
ENDBRANCH  19  20
ENDBRANCH  18  19
ENDBRANCH  17  18
ENDBRANCH   1  17
TORSDOF 9
