REMARK  2 active torsions:
REMARK  status: ('A' for Active; 'I' for Inactive)
REMARK    1  A    between atoms: C_5  and  C_6 
REMARK    2  A    between atoms: C_8  and  C_9 
ROOT
ATOM      1  C   UNL d   1      10.229   7.701  -8.542  0.00  0.00     0.104 A 
ATOM      2  C   UNL d   1      10.688   7.252  -7.340  0.00  0.00     0.037 A 
ATOM      3  C   UNL d   1      11.173   8.427  -6.682  0.00  0.00     0.082 A 
ATOM      4  N   UNL d   1      11.059   9.501  -7.446  0.00  0.00    -0.152 NA
ATOM      5  N   UNL d   1      10.454   9.057  -8.566  0.00  0.00    -0.148 NA
ENDROOT
BRANCH   1   6
ATOM      6  C   UNL d   1       9.596   6.989  -9.641  0.00  0.00     0.019 A 
ATOM      7  C   UNL d   1       8.946   5.759  -9.401  0.00  0.00     0.002 A 
ATOM      8  C   UNL d   1       8.290   5.087 -10.447  0.00  0.00     0.011 A 
ATOM      9  C   UNL d   1       8.290   5.625 -11.745  0.00  0.00     0.058 A 
ATOM     10 CL   UNL d   1       7.500   4.781 -13.023  0.00  0.00    -0.082 Cl
ATOM     11  C   UNL d   1       8.934   6.850 -11.995  0.00  0.00     0.011 A 
ATOM     12  C   UNL d   1       9.579   7.529 -10.947  0.00  0.00     0.002 A 
ENDBRANCH   1   6
BRANCH   3  13
ATOM     13  C   UNL d   1      11.845   8.537  -5.339  0.00  0.00     0.046 C 
ATOM     14  C   UNL d   1      11.275   9.655  -4.473  0.00  0.00     0.044 C 
ATOM     15  C   UNL d   1      11.901   9.631  -3.081  0.00  0.00     0.291 C 
ATOM     16  N   UNL d   1      11.761   8.335  -2.439  0.00  0.00     0.339 N 
ATOM     17  C   UNL d   1      12.438   7.297  -3.186  0.00  0.00     0.291 C 
ATOM     18  C   UNL d   1      11.794   7.191  -4.575  0.00  0.00     0.044 C 
ENDBRANCH   3  13
TORSDOF 2
