REMARK  5 active torsions:
REMARK  status: ('A' for Active; 'I' for Inactive)
REMARK    1  A    between atoms: C_2  and  C_3 
REMARK    2  A    between atoms: C_2  and  C_16 
REMARK    3  A    between atoms: C_3  and  C_4 
REMARK    4  A    between atoms: C_4  and  C_5 
REMARK    5  A    between atoms: C_5  and  N_6 
ROOT
ATOM      1  C   UNL d   1       8.287   5.268 -12.559  0.00  0.00     0.043 C 
ENDROOT
BRANCH   1   2
ATOM      2  C   UNL d   1       8.455   4.819 -14.024  0.00  0.00     0.071 C 
BRANCH   2   3
ATOM      3  C   UNL d   1       9.815   4.163 -14.359  0.00  0.00     0.173 C 
ATOM      4  O   UNL d   1      10.846   4.805 -14.186  0.00  0.00    -0.291 OA
BRANCH   3   5
ATOM      5  C   UNL d   1       9.808   2.799 -14.979  0.00  0.00     0.035 A 
ATOM      6  C   UNL d   1      11.014   2.311 -15.546  0.00  0.00     0.005 A 
ATOM      7  C   UNL d   1      11.052   1.058 -16.193  0.00  0.00     0.030 A 
ATOM      8  C   UNL d   1       9.901   0.263 -16.257  0.00  0.00     0.140 A 
ATOM      9  C   UNL d   1       8.697   0.721 -15.665  0.00  0.00     0.030 A 
ATOM     10  F   UNL d   1       9.949  -0.943 -16.881  0.00  0.00    -0.204 F 
ATOM     11  C   UNL d   1       8.656   1.973 -15.013  0.00  0.00     0.005 A 
ENDBRANCH   3   5
ENDBRANCH   2   3
ENDBRANCH   1   2
BRANCH   1  12
ATOM     12  C   UNL d   1       9.469   6.058 -11.972  0.00  0.00     0.251 C 
BRANCH  12  13
ATOM     13  N   UNL d   1       9.311   6.439 -10.593  0.00  0.00     0.142 N 
ATOM     14  C   UNL d   1      10.449   7.290 -10.216  0.00  0.00     0.276 C 
ATOM     15  C   UNL d   1      10.483   7.676  -8.754  0.00  0.00     0.007 A 
ATOM     16  C   UNL d   1       9.774   6.896  -7.815  0.00  0.00    -0.022 A 
ATOM     17  C   UNL d   1      11.256   8.773  -8.326  0.00  0.00    -0.003 A 
ATOM     18  C   UNL d   1       8.935   5.726  -8.296  0.00  0.00     0.061 C 
ATOM     19  C   UNL d   1       9.818   7.225  -6.450  0.00  0.00    -0.004 A 
ATOM     20  C   UNL d   1       9.286   5.275  -9.709  0.00  0.00     0.255 C 
ATOM     21  C   UNL d   1      10.578   8.329  -6.025  0.00  0.00    -0.000 A 
ATOM     22  C   UNL d   1      11.295   9.103  -6.958  0.00  0.00    -0.000 A 
ENDBRANCH  12  13
ENDBRANCH   1  12
TORSDOF 5
