REMARK  5 active torsions:
REMARK  status: ('A' for Active; 'I' for Inactive)
REMARK    1  A    between atoms: C_7  and  C_8 
REMARK    2  A    between atoms: N_12  and  C_13 
REMARK    3  A    between atoms: C_13  and  C_14 
REMARK    4  A    between atoms: C_14  and  C_15 
REMARK    5  A    between atoms: C_15  and  C_16 
ROOT
ATOM      1  N   UNL d   1      10.328   1.783 -15.283  0.00  0.00    -0.191 NA
ATOM      2  C   UNL d   1       9.493   2.354 -14.724  0.00  0.00     0.101 C 
ATOM      3  C   UNL d   1       8.443   3.071 -14.017  0.00  0.00     0.068 A 
ATOM      4  C   UNL d   1       7.086   2.717 -14.168  0.00  0.00     0.010 A 
ATOM      5  C   UNL d   1       6.094   3.404 -13.437  0.00  0.00     0.000 A 
ATOM      6  C   UNL d   1       6.449   4.441 -12.557  0.00  0.00    -0.004 A 
ATOM      7  C   UNL d   1       7.804   4.791 -12.400  0.00  0.00    -0.020 A 
ATOM      8  C   UNL d   1       8.797   4.101 -13.123  0.00  0.00     0.006 A 
ENDROOT
BRANCH   7   9
ATOM      9  C   UNL d   1       8.195   5.914 -11.447  0.00  0.00     0.056 C 
ATOM     10  C   UNL d   1       8.976   5.368 -10.226  0.00  0.00     0.255 C 
ATOM     11  N   UNL d   1       9.380   6.439  -9.314  0.00  0.00     0.137 N 
ATOM     12  C   UNL d   1      10.237   7.394 -10.024  0.00  0.00     0.250 C 
ATOM     13  C   UNL d   1       9.491   8.060 -11.182  0.00  0.00     0.036 C 
ATOM     14  C   UNL d   1       8.991   7.014 -12.175  0.00  0.00     0.008 C 
BRANCH  11  15
ATOM     15  C   UNL d   1      10.035   5.849  -8.147  0.00  0.00     0.251 C 
BRANCH  15  16
ATOM     16  C   UNL d   1      10.145   6.866  -7.011  0.00  0.00     0.040 C 
BRANCH  16  17
ATOM     17  C   UNL d   1      11.267   6.555  -6.006  0.00  0.00     0.028 C 
BRANCH  17  18
ATOM     18  C   UNL d   1      11.461   7.626  -4.939  0.00  0.00    -0.022 A 
ATOM     19  C   UNL d   1      11.998   7.257  -3.686  0.00  0.00    -0.004 A 
ATOM     20  C   UNL d   1      12.209   8.233  -2.689  0.00  0.00    -0.000 A 
ATOM     21  C   UNL d   1      11.862   9.575  -2.946  0.00  0.00    -0.000 A 
ATOM     22  C   UNL d   1      11.330   9.946  -4.189  0.00  0.00    -0.000 A 
ATOM     23  C   UNL d   1      11.146   8.986  -5.190  0.00  0.00    -0.004 A 
ENDBRANCH  17  18
ENDBRANCH  16  17
ENDBRANCH  15  16
ENDBRANCH  11  15
ENDBRANCH   7   9
TORSDOF 5
