REMARK  10 active torsions:
REMARK  status: ('A' for Active; 'I' for Inactive)
REMARK    1  A    between atoms: O_2  and  C_3 
REMARK    2  A    between atoms: C_9  and  C_10 
REMARK    3  A    between atoms: C_12  and  C_13 
REMARK    4  A    between atoms: C_13  and  N_14 
REMARK    5  A    between atoms: N_14  and  C_15 
REMARK    6  A    between atoms: C_15  and  C_16 
REMARK    7  A    between atoms: C_16  and  C_17 
REMARK    8  A    between atoms: C_17  and  C_18 
REMARK    9  A    between atoms: C_18  and  O_19 
REMARK   10  A    between atoms: O_19  and  C_20 
ROOT
ATOM      1  C   UNL d   1       8.489   5.832 -12.234  0.00  0.00     0.290 C 
ENDROOT
BRANCH   1   2
ATOM      2  N   UNL d   1       8.292   5.995 -10.805  0.00  0.00     0.339 N 
BRANCH   2   3
ATOM      3  C   UNL d   1       9.577   6.022 -10.130  0.00  0.00     0.290 C 
BRANCH   3   4
ATOM      4  C   UNL d   1       9.391   6.662  -8.777  0.00  0.00     0.041 A 
ATOM      5  C   UNL d   1      10.364   6.334  -7.666  0.00  0.00     0.026 A 
ATOM      6  C   UNL d   1       8.925   5.854  -7.597  0.00  0.00     0.007 A 
BRANCH   5   7
ATOM      7  C   UNL d   1      10.896   7.377  -6.724  0.00  0.00     0.001 A 
ATOM      8  C   UNL d   1      11.154   8.713  -7.123  0.00  0.00     0.090 A 
ATOM      9  C   UNL d   1      11.550   9.659  -6.164  0.00  0.00     0.025 A 
ATOM     10  C   UNL d   1      11.761   9.278  -4.829  0.00  0.00     0.013 A 
ATOM     11  C   UNL d   1      11.578   7.945  -4.440  0.00  0.00     0.058 A 
ATOM     12 CL   UNL d   1      11.875   7.506  -2.799  0.00  0.00    -0.082 Cl
ATOM     13  C   UNL d   1      11.140   6.999  -5.381  0.00  0.00     0.009 A 
BRANCH   8  14
ATOM     14  O   UNL d   1      10.959   9.149  -8.410  0.00  0.00    -0.328 OA
ATOM     15  C   UNL d   1      11.821   8.601  -9.392  0.00  0.00     0.181 C 
ENDBRANCH   8  14
ENDBRANCH   5   7
ENDBRANCH   3   4
ENDBRANCH   2   3
ENDBRANCH   1   2
BRANCH   1  16
ATOM     16  C   UNL d   1       8.678   4.344 -12.557  0.00  0.00     0.041 C 
BRANCH  16  17
ATOM     17  C   UNL d   1       9.078   4.108 -14.024  0.00  0.00     0.035 C 
BRANCH  17  18
ATOM     18  C   UNL d   1       9.407   2.625 -14.291  0.00  0.00     0.149 C 
BRANCH  18  19
ATOM     19  O   UNL d   1       9.142   2.300 -15.657  0.00  0.00    -0.331 OA
BRANCH  19  20
ATOM     20  C   UNL d   1       8.024   1.574 -15.998  0.00  0.00     0.096 A 
ATOM     21  C   UNL d   1       7.061   1.211 -15.035  0.00  0.00     0.043 A 
ATOM     22  C   UNL d   1       6.014   0.376 -15.392  0.00  0.00     0.087 A 
ATOM     23  C   UNL d   1       5.832  -0.076 -16.719  0.00  0.00     0.018 A 
ATOM     24  N   UNL d   1       5.094  -0.028 -14.404  0.00  0.00    -0.208 NA
ATOM     25  C   UNL d   1       6.752   0.324 -17.712  0.00  0.00     0.004 A 
ATOM     26  C   UNL d   1       4.662  -0.925 -16.970  0.00  0.00     0.006 A 
ATOM     27  C   UNL d   1       7.848   1.142 -17.347  0.00  0.00     0.024 A 
ATOM     28  C   UNL d   1       3.814  -1.255 -15.967  0.00  0.00     0.063 A 
ATOM     29  C   UNL d   1       4.010  -0.784 -14.590  0.00  0.00     0.279 A 
ATOM     30  O   UNL d   1       3.249  -1.028 -13.643  0.00  0.00    -0.265 OA
ENDBRANCH  19  20
ENDBRANCH  18  19
ENDBRANCH  17  18
ENDBRANCH  16  17
ENDBRANCH   1  16
TORSDOF 10
