REMARK  9 active torsions:
REMARK  status: ('A' for Active; 'I' for Inactive)
REMARK    1  A    between atoms: O_2  and  C_3 
REMARK    2  A    between atoms: C_8  and  N_9 
REMARK    3  A    between atoms: N_12  and  C_13 
REMARK    4  A    between atoms: C_13  and  C_14 
REMARK    5  A    between atoms: C_14  and  C_15 
REMARK    6  A    between atoms: C_15  and  C_16 
REMARK    7  A    between atoms: C_16  and  N_17 
REMARK       I    between atoms: N_17  and  C_18 
REMARK    8  A    between atoms: C_18  and  C_20 
REMARK    9  A    between atoms: C_23  and  N_24 
ROOT
ATOM      1  C   UNL d   1       6.134   2.946 -13.781  0.00  0.00     0.037 C 
ENDROOT
BRANCH   1   2
ATOM      2  C   UNL d   1       6.085   1.407 -13.645  0.00  0.00     0.251 C 
BRANCH   2   3
ATOM      3  N   UNL d   1       5.466   0.777 -14.803  0.00  0.00     0.141 N 
ATOM      4  C   UNL d   1       5.082  -0.601 -14.480  0.00  0.00     0.274 C 
ATOM      5  C   UNL d   1       4.372  -1.258 -15.680  0.00  0.00     0.137 C 
ATOM      6  N   UNL d   1       5.235  -1.216 -16.857  0.00  0.00    -0.344 N 
ATOM      7  C   UNL d   1       5.751   0.116 -17.173  0.00  0.00     0.137 C 
ATOM      8  C   UNL d   1       6.408   0.744 -15.933  0.00  0.00     0.274 C 
BRANCH   6   9
ATOM      9  C   UNL d   1       5.567  -2.364 -17.614  0.00  0.00     0.060 A 
ATOM     10  C   UNL d   1       5.462  -3.666 -17.067  0.00  0.00     0.047 A 
ATOM     11  C   UNL d   1       5.809  -4.799 -17.822  0.00  0.00     0.143 A 
ATOM     12  C   UNL d   1       6.277  -4.659 -19.138  0.00  0.00     0.054 A 
ATOM     13  F   UNL d   1       5.710  -6.033 -17.271  0.00  0.00    -0.204 F 
ATOM     14  C   UNL d   1       6.398  -3.371 -19.711  0.00  0.00     0.098 A 
ATOM     15  C   UNL d   1       6.035  -2.243 -18.947  0.00  0.00     0.041 A 
BRANCH  14  16
ATOM     16  O   UNL d   1       6.851  -3.124 -20.984  0.00  0.00    -0.328 OA
ATOM     17  C   UNL d   1       7.239  -4.234 -21.774  0.00  0.00     0.181 C 
ENDBRANCH  14  16
ENDBRANCH   6   9
ENDBRANCH   2   3
ENDBRANCH   1   2
BRANCH   1  18
ATOM     18  C   UNL d   1       6.954   3.602 -12.669  0.00  0.00     0.029 C 
BRANCH  18  19
ATOM     19  C   UNL d   1       6.962   5.134 -12.726  0.00  0.00     0.129 C 
BRANCH  19  20
ATOM     20  N   UNL d   1       7.644   5.699 -11.570  0.00  0.00    -0.234 NA
ATOM     21  C   UNL d   1       8.970   5.858 -11.462  0.00  0.00     0.275 C 
ATOM     22  O   UNL d   1       9.764   5.588 -12.364  0.00  0.00    -0.266 OA
BRANCH  21  23
ATOM     23  C   UNL d   1       9.445   6.447 -10.168  0.00  0.00     0.058 A 
ATOM     24  C   UNL d   1      10.307   7.562 -10.180  0.00  0.00     0.006 A 
ATOM     25  C   UNL d   1      10.766   8.127  -8.975  0.00  0.00     0.018 A 
ATOM     26  C   UNL d   1      10.351   7.589  -7.735  0.00  0.00     0.066 A 
ATOM     27  C   UNL d   1       9.492   6.470  -7.722  0.00  0.00     0.018 A 
ATOM     28  C   UNL d   1       9.037   5.904  -8.930  0.00  0.00     0.006 A 
BRANCH  26  29
ATOM     29  N   UNL d   1      10.806   8.126  -6.504  0.00  0.00    -0.287 N 
ATOM     30  C   UNL d   1      11.057   9.436  -6.364  0.00  0.00     0.183 A 
ATOM     31  N   UNL d   1      11.457   9.764  -5.143  0.00  0.00    -0.222 NA
ATOM     32  C   UNL d   1      11.467   8.555  -4.447  0.00  0.00     0.120 A 
ATOM     33  C   UNL d   1      11.059   7.532  -5.274  0.00  0.00     0.102 A 
ENDBRANCH  26  29
ENDBRANCH  21  23
ENDBRANCH  19  20
ENDBRANCH  18  19
ENDBRANCH   1  18
TORSDOF 9
