REMARK  7 active torsions:
REMARK  status: ('A' for Active; 'I' for Inactive)
REMARK    1  A    between atoms: O_2  and  C_3 
REMARK    2  A    between atoms: C_8  and  N_9 
REMARK    3  A    between atoms: N_12  and  C_13 
REMARK    4  A    between atoms: C_13  and  C_14 
REMARK    5  A    between atoms: C_14  and  C_15 
REMARK    6  A    between atoms: C_15  and  N_16 
REMARK       I    between atoms: N_16  and  C_17 
REMARK    7  A    between atoms: C_17  and  C_19 
ROOT
ATOM      1  C   UNL d   1       8.561   4.984 -12.267  0.00  0.00     0.253 C 
ENDROOT
BRANCH   1   2
ATOM      2  N   UNL d   1       9.463   4.578 -13.349  0.00  0.00     0.141 N 
ATOM      3  C   UNL d   1       9.932   3.213 -13.081  0.00  0.00     0.274 C 
ATOM      4  C   UNL d   1      10.920   2.718 -14.168  0.00  0.00     0.137 C 
ATOM      5  N   UNL d   1      10.303   2.833 -15.475  0.00  0.00    -0.343 N 
ATOM      6  C   UNL d   1       9.667   4.101 -15.775  0.00  0.00     0.137 C 
ATOM      7  C   UNL d   1       8.738   4.541 -14.619  0.00  0.00     0.274 C 
BRANCH   5   8
ATOM      8  C   UNL d   1      10.168   1.725 -16.337  0.00  0.00     0.079 A 
ATOM      9  C   UNL d   1       8.917   1.087 -16.533  0.00  0.00     0.110 A 
ATOM     10  C   UNL d   1       8.840   0.000 -17.440  0.00  0.00     0.026 A 
ATOM     11  C   UNL d   1       9.978  -0.439 -18.144  0.00  0.00     0.002 A 
ATOM     12  C   UNL d   1      11.213   0.203 -17.937  0.00  0.00     0.002 A 
ATOM     13  C   UNL d   1      11.306   1.272 -17.030  0.00  0.00     0.019 A 
BRANCH   9  14
ATOM     14  O   UNL d   1       7.828   1.562 -15.826  0.00  0.00    -0.327 OA
ATOM     15  C   UNL d   1       6.603   0.851 -15.922  0.00  0.00     0.181 C 
ENDBRANCH   9  14
ENDBRANCH   5   8
ENDBRANCH   1   2
BRANCH   1  16
ATOM     16  C   UNL d   1       9.332   5.696 -11.141  0.00  0.00     0.062 C 
BRANCH  16  17
ATOM     17  C   UNL d   1       8.513   5.790  -9.850  0.00  0.00     0.131 C 
BRANCH  17  18
ATOM     18  N   UNL d   1       9.058   6.820  -8.965  0.00  0.00    -0.234 NA
ATOM     19  C   UNL d   1      10.064   6.646  -8.112  0.00  0.00     0.278 C 
ATOM     20  O   UNL d   1      10.659   5.587  -8.032  0.00  0.00    -0.265 OA
BRANCH  19  21
ATOM     21  C   UNL d   1      10.408   7.792  -7.241  0.00  0.00     0.096 A 
ATOM     22  C   UNL d   1      10.969   7.691  -5.992  0.00  0.00     0.089 A 
ATOM     23  N   UNL d   1      11.176   9.018  -5.574  0.00  0.00    -0.228 N 
ATOM     24  C   UNL d   1      11.354   6.661  -5.093  0.00  0.00     0.019 A 
ATOM     25  N   UNL d   1      10.802   9.918  -6.540  0.00  0.00    -0.163 NA
ATOM     26  C   UNL d   1      11.682   9.339  -4.354  0.00  0.00     0.101 A 
ATOM     27  C   UNL d   1      10.348   9.167  -7.519  0.00  0.00     0.127 A 
ATOM     28  C   UNL d   1      12.038   8.334  -3.483  0.00  0.00     0.021 A 
ATOM     29  C   UNL d   1      11.865   6.980  -3.857  0.00  0.00     0.003 A 
ENDBRANCH  19  21
ENDBRANCH  17  18
ENDBRANCH  16  17
ENDBRANCH   1  16
TORSDOF 7
