REMARK  3 active torsions:
REMARK  status: ('A' for Active; 'I' for Inactive)
REMARK    1  A    between atoms: C_5  and  N_6 
REMARK    2  A    between atoms: N_9  and  C_10 
REMARK    3  A    between atoms: C_10  and  C_11 
ROOT
ATOM      1  C   UNL d   1      11.448   7.033  -4.542  0.00  0.00     0.072 C 
ATOM      2  C   UNL d   1      11.325   8.003  -5.683  0.00  0.00     0.122 A 
ATOM      3  N   UNL d   1      11.606   9.287  -5.545  0.00  0.00    -0.228 NA
ATOM      4  C   UNL d   1      11.421   9.812  -6.815  0.00  0.00     0.142 A 
ATOM      5  C   UNL d   1      11.053   8.830  -7.720  0.00  0.00     0.210 A 
ATOM      6  N   UNL d   1      10.950   7.661  -6.943  0.00  0.00    -0.294 N 
ENDROOT
BRANCH   6   7
ATOM      7  C   UNL d   1      10.633   6.311  -7.373  0.00  0.00     0.142 C 
BRANCH   7   8
ATOM      8  C   UNL d   1       9.246   6.111  -7.998  0.00  0.00     0.175 C 
ATOM      9  C   UNL d   1       9.079   4.785  -8.734  0.00  0.00     0.038 C 
ATOM     10  O   UNL d   1       8.262   6.365  -7.046  0.00  0.00    -0.221 OA
ENDBRANCH   7   8
ENDBRANCH   6   7
BRANCH   5  11
ATOM     11  N   UNL d   1      10.882   9.001  -9.151  0.00  0.00    -0.095 N 
ATOM     12  O   UNL d   1      11.393   9.993  -9.646  0.00  0.00    -0.530 OA
ATOM     13  O   UNL d   1      10.280   8.183  -9.852  0.00  0.00    -0.530 OA
ENDBRANCH   5  11
TORSDOF 3
