REMARK  5 active torsions:
REMARK  status: ('A' for Active; 'I' for Inactive)
REMARK       I    between atoms: N_6  and  C_7 
REMARK    1  A    between atoms: C_7  and  C_9 
REMARK    2  A    between atoms: C_12  and  C_13 
REMARK    3  A    between atoms: N_21  and  C_22 
REMARK    4  A    between atoms: C_22  and  C_23 
REMARK    5  A    between atoms: C_23  and  N_24 
ROOT
ATOM      1  C   UNL d   1       9.027   5.221 -11.506  0.00  0.00    -0.000 A 
ATOM      2  C   UNL d   1       9.944   4.992 -12.548  0.00  0.00     0.000 A 
ATOM      3  C   UNL d   1       9.623   4.190 -13.637  0.00  0.00     0.004 A 
ATOM      4  C   UNL d   1       8.360   3.609 -13.722  0.00  0.00     0.052 A 
ATOM      5  C   UNL d   1       7.397   3.880 -12.731  0.00  0.00    -0.016 A 
ATOM      6  C   UNL d   1       7.729   4.681 -11.606  0.00  0.00    -0.004 A 
ATOM      7  C   UNL d   1       6.034   3.218 -12.811  0.00  0.00     0.051 C 
ATOM      8  C   UNL d   1       6.089   1.904 -13.647  0.00  0.00     0.109 C 
ATOM      9  N   UNL d   1       6.953   1.989 -14.840  0.00  0.00    -0.314 N 
ATOM     10  C   UNL d   1       8.054   2.764 -14.915  0.00  0.00     0.257 C 
ATOM     11  O   UNL d   1       8.778   2.826 -15.890  0.00  0.00    -0.267 OA
ENDROOT
BRANCH   1  12
ATOM     12  C   UNL d   1       9.442   5.986 -10.331  0.00  0.00    -0.000 A 
ATOM     13  C   UNL d   1      10.168   7.185 -10.461  0.00  0.00     0.000 A 
ATOM     14  C   UNL d   1      10.534   7.942  -9.341  0.00  0.00     0.005 A 
ATOM     15  C   UNL d   1      10.124   7.530  -8.059  0.00  0.00     0.056 A 
ATOM     16  C   UNL d   1       9.343   6.360  -7.927  0.00  0.00     0.005 A 
ATOM     17  C   UNL d   1       9.049   5.562  -9.046  0.00  0.00     0.000 A 
BRANCH  15  18
ATOM     18  C   UNL d   1      10.489   8.381  -6.890  0.00  0.00     0.257 C 
ATOM     19  N   UNL d   1      11.085   7.804  -5.821  0.00  0.00    -0.319 N 
ATOM     20  C   UNL d   1      11.520   8.528  -4.620  0.00  0.00     0.084 C 
ATOM     21  C   UNL d   1      11.483   6.399  -5.696  0.00  0.00     0.104 C 
ATOM     22  C   UNL d   1      12.298   9.804  -4.864  0.00  0.00     0.024 C 
ATOM     23  C   UNL d   1      12.358   7.564  -3.779  0.00  0.00     0.024 C 
ATOM     24  C   UNL d   1      11.893   6.218  -4.235  0.00  0.00     0.026 C 
ATOM     25  O   UNL d   1      10.299   9.583  -6.985  0.00  0.00    -0.267 OA
ENDBRANCH  15  18
ENDBRANCH   1  12
BRANCH   9  26
ATOM     26  C   UNL d   1       6.519   1.236 -16.026  0.00  0.00     0.140 C 
BRANCH  26  27
ATOM     27  C   UNL d   1       7.496   0.103 -16.342  0.00  0.00     0.274 C 
BRANCH  27  28
ATOM     28  N   UNL d   1       7.896   0.062 -17.758  0.00  0.00     0.139 N 
ATOM     29  C   UNL d   1       8.600  -1.188 -18.039  0.00  0.00     0.250 C 
ATOM     30  C   UNL d   1      10.017  -0.994 -17.465  0.00  0.00     0.037 C 
ATOM     31  C   UNL d   1      10.201   0.532 -17.485  0.00  0.00     0.037 C 
ATOM     32  C   UNL d   1       8.898   1.069 -18.118  0.00  0.00     0.250 C 
ENDBRANCH  27  28
ENDBRANCH  26  27
ENDBRANCH   9  26
TORSDOF 5
