REMARK  8 active torsions:
REMARK  status: ('A' for Active; 'I' for Inactive)
REMARK    1  A    between atoms: O_2  and  C_3 
REMARK    2  A    between atoms: C_6  and  O_7 
REMARK    3  A    between atoms: O_7  and  C_8 
REMARK    4  A    between atoms: C_8  and  C_9 
REMARK    5  A    between atoms: C_9  and  N_10 
REMARK    6  A    between atoms: N_13  and  C_14 
REMARK    7  A    between atoms: C_14  and  C_15 
REMARK    8  A    between atoms: C_15  and  C_17 
ROOT
ATOM      1  N   UNL d   1       8.223   5.494 -12.656  0.00  0.00     0.144 N 
ATOM      2  C   UNL d   1       8.054   4.550 -11.534  0.00  0.00     0.286 C 
ATOM      3  C   UNL d   1       8.093   5.258 -10.164  0.00  0.00     0.286 C 
ATOM      4  N   UNL d   1       9.343   6.015  -9.983  0.00  0.00     0.149 N 
ATOM      5  C   UNL d   1       9.462   6.958 -11.107  0.00  0.00     0.286 C 
ATOM      6  C   UNL d   1       9.453   6.237 -12.447  0.00  0.00     0.286 C 
ENDROOT
BRANCH   4   7
ATOM      7  C   UNL d   1       9.373   6.681  -8.669  0.00  0.00     0.320 C 
BRANCH   7   8
ATOM      8  C   UNL d   1      10.553   7.630  -8.362  0.00  0.00     0.224 C 
ATOM      9  O   UNL d   1      11.237   8.147  -9.233  0.00  0.00    -0.288 OA
BRANCH   8  10
ATOM     10  C   UNL d   1      10.820   7.921  -6.965  0.00  0.00     0.118 A 
ATOM     11  N   UNL d   1      11.134   6.888  -6.103  0.00  0.00    -0.243 NA
ATOM     12  C   UNL d   1      11.443   7.404  -4.866  0.00  0.00     0.082 A 
ATOM     13  C   UNL d   1      11.318   8.820  -4.990  0.00  0.00     0.019 A 
ATOM     14  C   UNL d   1      11.842   6.801  -3.674  0.00  0.00     0.019 A 
ATOM     15  C   UNL d   1      10.936   9.125  -6.330  0.00  0.00     0.024 A 
ATOM     16  C   UNL d   1      11.568   9.598  -3.834  0.00  0.00     0.002 A 
ATOM     17  C   UNL d   1      11.942   8.979  -2.626  0.00  0.00     0.000 A 
ATOM     18  C   UNL d   1      12.082   7.584  -2.543  0.00  0.00     0.002 A 
ENDBRANCH   8  10
ENDBRANCH   7   8
ENDBRANCH   4   7
BRANCH   1  19
ATOM     19  C   UNL d   1       8.200   4.890 -13.988  0.00  0.00     0.283 C 
BRANCH  19  20
ATOM     20  C   UNL d   1       9.380   3.900 -14.251  0.00  0.00     0.184 C 
BRANCH  20  21
ATOM     21  O   UNL d   1       9.075   2.980 -15.287  0.00  0.00    -0.329 OA
BRANCH  21  22
ATOM     22  C   UNL d   1       8.030   2.094 -15.111  0.00  0.00     0.094 A 
ATOM     23  C   UNL d   1       7.861   1.109 -16.095  0.00  0.00     0.026 A 
ATOM     24  C   UNL d   1       6.777   0.200 -16.015  0.00  0.00     0.026 A 
ATOM     25  C   UNL d   1       5.821   0.301 -14.971  0.00  0.00     0.094 A 
ATOM     26  C   UNL d   1       5.991   1.298 -14.000  0.00  0.00     0.026 A 
ATOM     27  C   UNL d   1       7.094   2.138 -14.052  0.00  0.00     0.026 A 
BRANCH  25  28
ATOM     28  O   UNL d   1       4.733  -0.529 -14.803  0.00  0.00    -0.328 OA
ATOM     29  C   UNL d   1       4.560  -1.552 -15.754  0.00  0.00     0.181 C 
ENDBRANCH  25  28
ENDBRANCH  21  22
ENDBRANCH  20  21
ENDBRANCH  19  20
ENDBRANCH   1  19
TORSDOF 8
