REMARK  9 active torsions:
REMARK  status: ('A' for Active; 'I' for Inactive)
REMARK    1  A    between atoms: N_12  and  C_13 
REMARK    2  A    between atoms: C_13  and  C_14 
REMARK    3  A    between atoms: C_14  and  C_15 
REMARK    4  A    between atoms: C_15  and  C_16 
REMARK    5  A    between atoms: C_16  and  C_17 
REMARK    6  A    between atoms: C_17  and  C_18 
REMARK    7  A    between atoms: C_18  and  N_19 
REMARK    8  A    between atoms: N_22  and  C_23 
REMARK    9  A    between atoms: C_27  and  C_28 
ROOT
ATOM      1  C   UNL d   1       6.055   1.803 -14.268  0.00  0.00     0.035 C 
ENDROOT
BRANCH   1   2
ATOM      2  C   UNL d   1       5.657   0.758 -15.308  0.00  0.00     0.002 C 
BRANCH   2   3
ATOM      3  C   UNL d   1       6.099  -0.658 -14.944  0.00  0.00     0.002 C 
BRANCH   3   4
ATOM      4  C   UNL d   1       5.525  -1.720 -15.888  0.00  0.00     0.025 C 
BRANCH   4   5
ATOM      5  C   UNL d   1       6.010  -1.560 -17.343  0.00  0.00     0.112 C 
BRANCH   5   6
ATOM      6  N   UNL d   1       5.555  -2.658 -18.195  0.00  0.00    -0.271 N 
ATOM      7  C   UNL d   1       6.333  -3.644 -18.649  0.00  0.00     0.239 A 
ATOM      8  O   UNL d   1       7.541  -3.782 -18.452  0.00  0.00    -0.272 OA
ATOM      9  C   UNL d   1       5.542  -4.613 -19.525  0.00  0.00     0.088 A 
ATOM     10  C   UNL d   1       4.123  -4.024 -19.487  0.00  0.00     0.088 A 
ATOM     11  C   UNL d   1       5.351  -6.028 -18.927  0.00  0.00     0.009 C 
ATOM     12  C   UNL d   1       3.300  -5.176 -18.864  0.00  0.00     0.009 C 
ATOM     13  C   UNL d   1       4.283  -2.788 -18.607  0.00  0.00     0.239 A 
ATOM     14  C   UNL d   1       3.172  -6.296 -19.912  0.00  0.00     0.001 C 
ATOM     15  C   UNL d   1       4.269  -5.822 -17.872  0.00  0.00     0.001 C 
ATOM     16  C   UNL d   1       4.595  -6.890 -19.955  0.00  0.00     0.001 C 
ATOM     17  O   UNL d   1       3.370  -2.003 -18.375  0.00  0.00    -0.272 OA
ENDBRANCH   5   6
ENDBRANCH   4   5
ENDBRANCH   3   4
ENDBRANCH   2   3
ENDBRANCH   1   2
BRANCH   1  18
ATOM     18  C   UNL d   1       7.559   2.136 -14.247  0.00  0.00     0.250 C 
BRANCH  18  19
ATOM     19  N   UNL d   1       7.827   3.494 -13.752  0.00  0.00     0.141 N 
ATOM     20  C   UNL d   1       6.948   3.928 -12.652  0.00  0.00     0.274 C 
ATOM     21  C   UNL d   1       7.277   5.356 -12.215  0.00  0.00     0.137 C 
ATOM     22  N   UNL d   1       8.678   5.469 -11.873  0.00  0.00    -0.344 N 
ATOM     23  C   UNL d   1       9.626   4.974 -12.861  0.00  0.00     0.137 C 
ATOM     24  C   UNL d   1       9.226   3.548 -13.307  0.00  0.00     0.274 C 
BRANCH  22  25
ATOM     25  C   UNL d   1       9.074   5.910 -10.604  0.00  0.00     0.056 A 
ATOM     26  C   UNL d   1       9.983   6.980 -10.470  0.00  0.00     0.021 A 
ATOM     27  C   UNL d   1      10.376   7.459  -9.202  0.00  0.00     0.073 A 
ATOM     28  C   UNL d   1       9.827   6.877  -8.045  0.00  0.00     0.004 A 
ATOM     29  C   UNL d   1       8.887   5.839  -8.164  0.00  0.00     0.001 A 
ATOM     30  C   UNL d   1       8.541   5.332  -9.433  0.00  0.00     0.017 A 
BRANCH  27  31
ATOM     31  C   UNL d   1      11.388   8.580  -9.092  0.00  0.00     0.419 C 
ATOM     32  F   UNL d   1      12.607   8.075  -9.269  0.00  0.00    -0.166 F 
ATOM     33  F   UNL d   1      11.151   9.485 -10.034  0.00  0.00    -0.166 F 
ATOM     34  F   UNL d   1      11.342   9.182  -7.902  0.00  0.00    -0.166 F 
ENDBRANCH  27  31
ENDBRANCH  22  25
ENDBRANCH  18  19
ENDBRANCH   1  18
TORSDOF 9
