REMARK  1 active torsions:
REMARK  status: ('A' for Active; 'I' for Inactive)
REMARK    1  A    between atoms: C_4  and  C_5 
ROOT
ATOM      1  C   UNL d   1      10.081   3.926 -15.862  0.00  0.00     0.079 C 
ATOM      2  N   UNL d   1      10.889   4.911 -15.763  0.00  0.00    -0.244 NA
ATOM      3  C   UNL d   1      12.077   5.106 -16.479  0.00  0.00     0.100 A 
ATOM      4  C   UNL d   1      12.444   6.446 -16.738  0.00  0.00     0.032 A 
ATOM      5  C   UNL d   1      13.677   6.752 -17.340  0.00  0.00     0.059 A 
ATOM      6 CL   UNL d   1      14.088   8.392 -17.667  0.00  0.00    -0.082 Cl
ATOM      7  C   UNL d   1      14.573   5.720 -17.665  0.00  0.00     0.013 A 
ATOM      8  C   UNL d   1      14.223   4.383 -17.405  0.00  0.00     0.021 A 
ATOM      9  C   UNL d   1      12.977   4.066 -16.830  0.00  0.00     0.099 A 
ATOM     10  N   UNL d   1      12.654   2.724 -16.640  0.00  0.00    -0.244 NA
ATOM     11  C   UNL d   1      11.466   2.195 -17.134  0.00  0.00     0.083 C 
ATOM     12  C   UNL d   1      11.560   1.039 -17.948  0.00  0.00     0.020 C 
ATOM     13  C   UNL d   1      10.404   0.528 -18.576  0.00  0.00     0.012 C 
ATOM     14  C   UNL d   1       9.183   1.206 -18.422  0.00  0.00     0.069 C 
ATOM     15  C   UNL d   1       7.976   0.717 -19.068  0.00  0.00     0.101 C 
ATOM     16  N   UNL d   1       7.010   0.331 -19.578  0.00  0.00    -0.191 NA
ATOM     17  C   UNL d   1       9.113   2.365 -17.632  0.00  0.00     0.013 C 
ATOM     18  C   UNL d   1      10.224   2.838 -16.895  0.00  0.00     0.036 C 
ENDROOT
BRANCH   1  19
ATOM     19  C   UNL d   1       8.958   3.880 -14.871  0.00  0.00    -0.005 C 
ATOM     20  C   UNL d   1       8.815   4.849 -13.930  0.00  0.00     0.004 C 
ATOM     21  C   UNL d   1       7.720   4.889 -12.879  0.00  0.00     0.241 C 
ATOM     22  C   UNL d   1       8.333   5.230 -11.510  0.00  0.00     0.040 C 
ATOM     23  N   UNL d   1       6.984   3.615 -12.798  0.00  0.00     0.141 N 
ATOM     24  C   UNL d   1       6.658   3.100 -14.120  0.00  0.00     0.255 C 
ATOM     25  C   UNL d   1       5.770   3.730 -12.014  0.00  0.00     0.286 C 
ATOM     26  C   UNL d   1       7.932   2.741 -14.871  0.00  0.00     0.063 C 
ENDBRANCH   1  19
TORSDOF 1
