REMARK  0 active torsions:
REMARK  status: ('A' for Active; 'I' for Inactive)
ROOT
ATOM      1 CL   UNL d   1      11.045  -1.010 -18.366  0.00  0.00    -0.081 Cl
ATOM      2  C   UNL d   1       9.926  -0.113 -17.414  0.00  0.00     0.070 A 
ATOM      3  C   UNL d   1      10.435   0.754 -16.432  0.00  0.00     0.039 A 
ATOM      4  C   UNL d   1       9.545   1.565 -15.708  0.00  0.00     0.124 A 
ATOM      5  C   UNL d   1       8.155   1.480 -15.954  0.00  0.00     0.124 A 
ATOM      6  C   UNL d   1       7.652   0.596 -16.931  0.00  0.00     0.039 A 
ATOM      7  C   UNL d   1       8.542  -0.214 -17.657  0.00  0.00     0.070 A 
ATOM      8 CL   UNL d   1       7.937  -1.321 -18.842  0.00  0.00    -0.081 Cl
ATOM      9  O   UNL d   1       7.277   2.240 -15.243  0.00  0.00    -0.303 OA
ATOM     10  C   UNL d   1       7.788   3.101 -14.316  0.00  0.00     0.124 A 
ATOM     11  C   UNL d   1       6.896   3.933 -13.627  0.00  0.00     0.039 A 
ATOM     12  C   UNL d   1       7.388   4.878 -12.721  0.00  0.00     0.070 A 
ATOM     13 CL   UNL d   1       6.246   6.003 -12.057  0.00  0.00    -0.081 Cl
ATOM     14  C   UNL d   1       8.769   4.943 -12.425  0.00  0.00     0.070 A 
ATOM     15 CL   UNL d   1       9.389   6.039 -11.236  0.00  0.00    -0.081 Cl
ATOM     16  C   UNL d   1       9.664   4.119 -13.132  0.00  0.00     0.039 A 
ATOM     17  C   UNL d   1       9.178   3.206 -14.085  0.00  0.00     0.124 A 
ATOM     18  O   UNL d   1      10.057   2.437 -14.781  0.00  0.00    -0.303 OA
ENDROOT
TORSDOF 0
