REMARK  3 active torsions:
REMARK  status: ('A' for Active; 'I' for Inactive)
REMARK    1  A    between atoms: C_6  and  N_7 
REMARK    2  A    between atoms: N_10  and  C_11 
REMARK    3  A    between atoms: C_11  and  C_12 
ROOT
ATOM      1  N   UNL d   1       6.744   0.922 -14.617  0.00  0.00    -0.344 N 
ATOM      2  C   UNL d   1       7.155   0.641 -15.976  0.00  0.00     0.137 C 
ATOM      3  C   UNL d   1       6.002   0.069 -16.768  0.00  0.00     0.275 C 
ATOM      4  N   UNL d   1       5.395  -1.113 -16.169  0.00  0.00     0.145 N 
ATOM      5  C   UNL d   1       4.907  -0.741 -14.827  0.00  0.00     0.275 C 
ATOM      6  C   UNL d   1       6.063  -0.180 -13.951  0.00  0.00     0.137 C 
ENDROOT
BRANCH   4   7
ATOM      7  C   UNL d   1       4.274  -1.604 -16.988  0.00  0.00     0.277 C 
BRANCH   7   8
ATOM      8  C   UNL d   1       4.611  -2.188 -18.365  0.00  0.00     0.011 A 
ATOM      9  C   UNL d   1       4.942  -1.382 -19.491  0.00  0.00    -0.002 A 
ATOM     10  C   UNL d   1       5.341  -2.009 -20.715  0.00  0.00    -0.000 A 
ATOM     11  C   UNL d   1       4.862   0.030 -19.470  0.00  0.00    -0.000 C 
ATOM     12  C   UNL d   1       5.313  -3.421 -20.830  0.00  0.00    -0.000 A 
ATOM     13  C   UNL d   1       5.766  -1.242 -21.832  0.00  0.00    -0.000 C 
ATOM     14  C   UNL d   1       4.923  -4.212 -19.733  0.00  0.00    -0.000 A 
ATOM     15  C   UNL d   1       4.584  -3.599 -18.511  0.00  0.00    -0.002 A 
ATOM     16  C   UNL d   1       5.815   0.163 -21.728  0.00  0.00    -0.000 C 
ATOM     17  C   UNL d   1       5.387   0.779 -20.536  0.00  0.00    -0.000 C 
ENDBRANCH   7   8
ENDBRANCH   4   7
BRANCH   1  18
ATOM     18  C   UNL d   1       6.937   2.182 -14.043  0.00  0.00     0.068 A 
ATOM     19  C   UNL d   1       5.871   2.789 -13.311  0.00  0.00     0.018 A 
ATOM     20  C   UNL d   1       6.055   4.041 -12.693  0.00  0.00     0.002 A 
ATOM     21  C   UNL d   1       7.292   4.697 -12.786  0.00  0.00     0.012 A 
ATOM     22  C   UNL d   1       8.354   4.111 -13.501  0.00  0.00     0.070 A 
ATOM     23 CL   UNL d   1       9.879   4.918 -13.568  0.00  0.00    -0.081 Cl
ATOM     24  C   UNL d   1       8.184   2.857 -14.117  0.00  0.00     0.084 A 
ATOM     25 CL   UNL d   1       9.567   2.149 -14.902  0.00  0.00    -0.080 Cl
ENDBRANCH   1  18
TORSDOF 3
