REMARK  7 active torsions:
REMARK  status: ('A' for Active; 'I' for Inactive)
REMARK    1  A    between atoms: C_2  and  C_5 
REMARK       I    between atoms: C_5  and  N_7 
REMARK    2  A    between atoms: N_7  and  C_8 
REMARK    3  A    between atoms: C_8  and  C_9 
REMARK    4  A    between atoms: C_9  and  C_10 
REMARK    5  A    between atoms: C_10  and  C_11 
REMARK    6  A    between atoms: C_11  and  N_12 
REMARK    7  A    between atoms: N_15  and  C_16 
ROOT
ATOM      1  N   UNL d   1       9.905   6.381 -10.059  0.00  0.00     0.141 N 
ATOM      2  C   UNL d   1      10.333   7.771  -9.846  0.00  0.00     0.274 C 
ATOM      3  C   UNL d   1      11.534   7.827  -8.884  0.00  0.00     0.137 C 
ATOM      4  N   UNL d   1      11.164   7.175  -7.631  0.00  0.00    -0.344 N 
ATOM      5  C   UNL d   1      10.560   5.864  -7.737  0.00  0.00     0.137 C 
ATOM      6  C   UNL d   1       9.440   5.847  -8.781  0.00  0.00     0.274 C 
ENDROOT
BRANCH   1   7
ATOM      7  C   UNL d   1       8.803   6.363 -11.008  0.00  0.00     0.251 C 
BRANCH   7   8
ATOM      8  C   UNL d   1       8.577   4.983 -11.625  0.00  0.00     0.037 C 
BRANCH   8   9
ATOM      9  C   UNL d   1       7.607   5.078 -12.811  0.00  0.00     0.029 C 
BRANCH   9  10
ATOM     10  C   UNL d   1       7.512   3.775 -13.614  0.00  0.00     0.129 C 
BRANCH  10  11
ATOM     11  N   UNL d   1       8.814   3.312 -14.107  0.00  0.00    -0.238 NA
ATOM     12  C   UNL d   1       9.576   3.850 -15.067  0.00  0.00     0.250 C 
ATOM     13  O   UNL d   1       9.289   4.895 -15.653  0.00  0.00    -0.271 OA
BRANCH  12  14
ATOM     14  C   UNL d   1      10.885   3.132 -15.449  0.00  0.00     0.073 C 
ATOM     15  C   UNL d   1      10.985   1.739 -14.794  0.00  0.00     0.009 C 
ATOM     16  C   UNL d   1      12.076   4.012 -15.015  0.00  0.00     0.009 C 
ATOM     17  C   UNL d   1      10.940   2.949 -16.985  0.00  0.00     0.009 C 
ENDBRANCH  12  14
ENDBRANCH  10  11
ENDBRANCH   9  10
ENDBRANCH   8   9
ENDBRANCH   7   8
ENDBRANCH   1   7
BRANCH   4  18
ATOM     18  C   UNL d   1      11.339   7.732  -6.362  0.00  0.00     0.056 A 
ATOM     19  C   UNL d   1      11.582   6.896  -5.238  0.00  0.00     0.018 A 
ATOM     20  C   UNL d   1      11.824   7.469  -3.980  0.00  0.00     0.013 A 
ATOM     21  C   UNL d   1      11.745   8.855  -3.846  0.00  0.00     0.058 A 
ATOM     22  C   UNL d   1      11.462   9.690  -4.936  0.00  0.00     0.013 A 
ATOM     23 CL   UNL d   1      11.938   9.529  -2.304  0.00  0.00    -0.082 Cl
ATOM     24  C   UNL d   1      11.277   9.129  -6.208  0.00  0.00     0.018 A 
ENDBRANCH   4  18
TORSDOF 7
