REMARK  9 active torsions:
REMARK  status: ('A' for Active; 'I' for Inactive)
REMARK    1  A    between atoms: C_2  and  C_3 
REMARK    2  A    between atoms: C_7  and  O_8 
REMARK    3  A    between atoms: C_10  and  N_11 
REMARK    4  A    between atoms: N_14  and  C_15 
REMARK    5  A    between atoms: C_15  and  C_16 
REMARK    6  A    between atoms: C_16  and  C_17 
REMARK    7  A    between atoms: C_17  and  C_18 
REMARK    8  A    between atoms: C_18  and  O_19 
REMARK    9  A    between atoms: O_19  and  C_20 
ROOT
ATOM      1  N   UNL d   1      10.518   5.133 -15.500  0.00  0.00    -0.343 N 
ATOM      2  C   UNL d   1       9.076   5.199 -15.234  0.00  0.00     0.137 C 
ATOM      3  C   UNL d   1       8.525   3.805 -14.819  0.00  0.00     0.274 C 
ATOM      4  N   UNL d   1       9.286   3.303 -13.673  0.00  0.00     0.141 N 
ATOM      5  C   UNL d   1      10.682   3.133 -14.117  0.00  0.00     0.274 C 
ATOM      6  C   UNL d   1      11.340   4.482 -14.496  0.00  0.00     0.137 C 
ENDROOT
BRANCH   4   7
ATOM      7  C   UNL d   1       9.200   4.127 -12.457  0.00  0.00     0.251 C 
BRANCH   7   8
ATOM      8  C   UNL d   1       7.771   4.309 -11.930  0.00  0.00     0.038 C 
BRANCH   8   9
ATOM      9  C   UNL d   1       7.825   5.168 -10.660  0.00  0.00     0.035 C 
BRANCH   9  10
ATOM     10  C   UNL d   1       8.388   4.409  -9.421  0.00  0.00     0.149 C 
BRANCH  10  11
ATOM     11  O   UNL d   1       8.407   5.185  -8.269  0.00  0.00    -0.331 OA
BRANCH  11  12
ATOM     12  C   UNL d   1       9.319   6.199  -8.238  0.00  0.00     0.096 A 
ATOM     13  C   UNL d   1       9.232   7.042  -7.134  0.00  0.00     0.043 A 
ATOM     14  C   UNL d   1      10.105   8.130  -7.064  0.00  0.00     0.082 A 
ATOM     15  C   UNL d   1      11.009   8.352  -8.108  0.00  0.00    -0.004 A 
ATOM     16  N   UNL d   1      10.061   9.004  -5.971  0.00  0.00    -0.212 NA
ATOM     17  C   UNL d   1      11.102   7.519  -9.215  0.00  0.00    -0.001 A 
ATOM     18  C   UNL d   1      11.884   9.524  -8.048  0.00  0.00     0.038 C 
ATOM     19  C   UNL d   1      10.268   6.407  -9.277  0.00  0.00     0.024 A 
ATOM     20  C   UNL d   1      12.221   9.957  -6.601  0.00  0.00     0.095 C 
ATOM     21  C   UNL d   1      10.989   9.923  -5.713  0.00  0.00     0.256 C 
ATOM     22  O   UNL d   1      10.826  10.759  -4.831  0.00  0.00    -0.270 OA
ENDBRANCH  11  12
ENDBRANCH  10  11
ENDBRANCH   9  10
ENDBRANCH   8   9
ENDBRANCH   7   8
ENDBRANCH   4   7
BRANCH   1  23
ATOM     23  C   UNL d   1      11.066   5.672 -16.682  0.00  0.00     0.079 A 
ATOM     24  C   UNL d   1      12.315   6.356 -16.700  0.00  0.00     0.120 A 
ATOM     25  C   UNL d   1      12.848   6.833 -17.914  0.00  0.00     0.081 A 
ATOM     26  C   UNL d   1      12.126   6.686 -19.110  0.00  0.00     0.009 A 
ATOM     27 CL   UNL d   1      14.400   7.581 -17.969  0.00  0.00    -0.080 Cl
ATOM     28  C   UNL d   1      10.872   6.046 -19.106  0.00  0.00    -0.020 A 
ATOM     29  C   UNL d   1      10.349   5.544 -17.901  0.00  0.00     0.015 A 
BRANCH  24  30
ATOM     30  O   UNL d   1      13.028   6.583 -15.550  0.00  0.00    -0.326 OA
ATOM     31  C   UNL d   1      12.904   7.915 -15.075  0.00  0.00     0.181 C 
ENDBRANCH  24  30
BRANCH  28  32
ATOM     32  C   UNL d   1      10.108   5.878 -20.404  0.00  0.00     0.026 C 
ATOM     33  C   UNL d   1      10.404   4.533 -21.075  0.00  0.00     0.005 C 
ENDBRANCH  28  32
ENDBRANCH   1  23
TORSDOF 9
