REMARK  7 active torsions:
REMARK  status: ('A' for Active; 'I' for Inactive)
REMARK    1  A    between atoms: C_2  and  C_3 
REMARK       I    between atoms: C_2  and  N_11 
REMARK    2  A    between atoms: C_14  and  C_16 
REMARK    3  A    between atoms: C_16  and  N_17 
REMARK    4  A    between atoms: N_17  and  C_18 
REMARK    5  A    between atoms: C_18  and  C_19 
REMARK    6  A    between atoms: C_19  and  O_20 
REMARK    7  A    between atoms: O_20  and  C_21 
ROOT
ATOM      1  O   UNL d   1       8.988   0.922 -14.786  0.00  0.00    -0.267 OA
ATOM      2  C   UNL d   1       7.916   1.494 -14.515  0.00  0.00     0.257 C 
ATOM      3  N   UNL d   1       7.846   2.768 -14.085  0.00  0.00    -0.317 N 
ATOM      4  C   UNL d   1       9.060   3.617 -13.987  0.00  0.00     0.107 C 
ATOM      5  C   UNL d   1       9.217   4.192 -12.573  0.00  0.00     0.059 C 
ATOM      6  C   UNL d   1       7.944   4.937 -12.122  0.00  0.00     0.172 C 
ATOM      7  F   UNL d   1       7.781   6.039 -12.888  0.00  0.00    -0.238 F 
ATOM      8  C   UNL d   1       6.697   4.062 -12.302  0.00  0.00     0.059 C 
ATOM      9  C   UNL d   1       6.596   3.508 -13.734  0.00  0.00     0.107 C 
ENDROOT
BRANCH   6  10
ATOM     10  C   UNL d   1       8.068   5.389 -10.664  0.00  0.00     0.323 C 
BRANCH  10  11
ATOM     11  N   UNL d   1       9.076   6.426 -10.527  0.00  0.00     0.345 N 
BRANCH  11  12
ATOM     12  C   UNL d   1       9.820   6.260  -9.291  0.00  0.00     0.323 C 
BRANCH  12  13
ATOM     13  C   UNL d   1       8.930   6.618  -8.086  0.00  0.00     0.187 C 
BRANCH  13  14
ATOM     14  O   UNL d   1       9.663   6.421  -6.885  0.00  0.00    -0.329 OA
BRANCH  14  15
ATOM     15  C   UNL d   1      10.357   7.471  -6.328  0.00  0.00     0.097 A 
ATOM     16  C   UNL d   1      10.373   8.795  -6.831  0.00  0.00     0.045 A 
ATOM     17  C   UNL d   1      11.086   9.775  -6.120  0.00  0.00     0.101 A 
ATOM     18  N   UNL d   1      11.771   9.530  -4.981  0.00  0.00    -0.242 NA
ATOM     19  C   UNL d   1      11.775   8.262  -4.520  0.00  0.00     0.101 A 
ATOM     20  C   UNL d   1      11.088   7.207  -5.153  0.00  0.00     0.045 A 
ENDBRANCH  14  15
ENDBRANCH  13  14
ENDBRANCH  12  13
ENDBRANCH  11  12
ENDBRANCH  10  11
ENDBRANCH   6  10
BRANCH   2  21
ATOM     21  C   UNL d   1       6.648   0.726 -14.757  0.00  0.00     0.057 A 
ATOM     22  C   UNL d   1       6.426   0.081 -15.993  0.00  0.00     0.018 A 
ATOM     23  C   UNL d   1       5.233  -0.622 -16.245  0.00  0.00     0.085 A 
ATOM     24  C   UNL d   1       4.239  -0.687 -15.252  0.00  0.00     0.151 A 
ATOM     25 CL   UNL d   1       4.964  -1.369 -17.778  0.00  0.00    -0.080 Cl
ATOM     26  C   UNL d   1       4.477  -0.055 -13.997  0.00  0.00     0.031 A 
ATOM     27  F   UNL d   1       3.059  -1.293 -15.493  0.00  0.00    -0.203 F 
ATOM     28  C   UNL d   1       5.651   0.601 -13.745  0.00  0.00     0.007 A 
ENDBRANCH   2  21
TORSDOF 7
