REMARK  7 active torsions:
REMARK  status: ('A' for Active; 'I' for Inactive)
REMARK    1  A    between atoms: O_2  and  C_3 
REMARK    2  A    between atoms: C_9  and  C_10 
REMARK    3  A    between atoms: C_12  and  C_13 
REMARK    4  A    between atoms: C_13  and  N_14 
REMARK    5  A    between atoms: N_14  and  C_15 
REMARK    6  A    between atoms: N_18  and  C_19 
REMARK    7  A    between atoms: C_19  and  C_20 
ROOT
ATOM      1  C   UNL d   1       7.536   5.031 -11.705  0.00  0.00     0.166 C 
ENDROOT
BRANCH   1   2
ATOM      2  C   UNL d   1       8.087   4.173 -12.815  0.00  0.00     0.090 A 
ATOM      3  N   UNL d   1       7.223   3.432 -13.633  0.00  0.00    -0.241 NA
ATOM      4  C   UNL d   1       7.883   2.648 -14.488  0.00  0.00     0.112 A 
ATOM      5  S   UNL d   1       9.629   2.808 -14.392  0.00  0.00    -0.066 SA
ATOM      6  C   UNL d   1       9.412   3.981 -13.137  0.00  0.00     0.054 A 
BRANCH   4   7
ATOM      7  C   UNL d   1       7.276   1.721 -15.422  0.00  0.00     0.047 A 
ATOM      8  C   UNL d   1       7.668   1.704 -16.782  0.00  0.00     0.096 A 
ATOM      9  C   UNL d   1       7.037   0.800 -17.661  0.00  0.00     0.025 A 
ATOM     10  C   UNL d   1       6.025  -0.065 -17.190  0.00  0.00     0.009 A 
ATOM     11  C   UNL d   1       5.640  -0.038 -15.841  0.00  0.00     0.035 A 
ATOM     12 BR   UNL d   1       4.258  -1.193 -15.226  0.00  0.00    -0.049 Br
ATOM     13  C   UNL d   1       6.266   0.848 -14.950  0.00  0.00     0.011 A 
BRANCH   8  14
ATOM     14  O   UNL d   1       8.629   2.614 -17.196  0.00  0.00    -0.328 OA
ATOM     15  C   UNL d   1       9.104   2.550 -18.527  0.00  0.00     0.181 C 
ENDBRANCH   8  14
ENDBRANCH   4   7
ENDBRANCH   1   2
BRANCH   1  16
ATOM     16  N   UNL d   1       8.074   6.378 -11.532  0.00  0.00    -0.291 NA
BRANCH  16  17
ATOM     17  C   UNL d   1       9.290   6.463 -10.752  0.00  0.00     0.102 C 
ATOM     18  C   UNL d   1       9.916   7.846 -11.012  0.00  0.00     0.059 C 
ATOM     19  C   UNL d   1      11.184   7.989 -10.156  0.00  0.00     0.253 C 
ATOM     20  N   UNL d   1      10.842   7.858  -8.743  0.00  0.00     0.141 N 
ATOM     21  C   UNL d   1      10.312   6.519  -8.468  0.00  0.00     0.253 C 
ATOM     22  C   UNL d   1       9.029   6.284  -9.238  0.00  0.00     0.059 C 
BRANCH  20  23
ATOM     23  C   UNL d   1      12.013   8.096  -7.920  0.00  0.00     0.277 C 
BRANCH  23  24
ATOM     24  C   UNL d   1      11.628   8.446  -6.501  0.00  0.00     0.011 C 
ATOM     25  C   UNL d   1      11.600   7.463  -5.480  0.00  0.00    -0.002 C 
ATOM     26  C   UNL d   1      11.479   7.855  -4.141  0.00  0.00    -0.000 C 
ATOM     27  C   UNL d   1      11.219   9.209  -3.832  0.00  0.00    -0.000 C 
ATOM     28  C   UNL d   1      11.108  10.161  -4.859  0.00  0.00    -0.000 C 
ATOM     29  C   UNL d   1      11.365   9.790  -6.189  0.00  0.00    -0.002 C 
ENDBRANCH  23  24
ENDBRANCH  20  23
ENDBRANCH  16  17
ENDBRANCH   1  16
TORSDOF 7
