REMARK  4 active torsions:
REMARK  status: ('A' for Active; 'I' for Inactive)
REMARK    1  A    between atoms: O_2  and  C_3 
REMARK    2  A    between atoms: C_8  and  O_9 
REMARK    3  A    between atoms: N_12  and  C_13 
REMARK    4  A    between atoms: N_14  and  C_15 
ROOT
ATOM      1  C   UNL d   1       8.567   6.661 -11.661  0.00  0.00     0.175 C 
ATOM      2  N   UNL d   1       9.626   6.349 -10.980  0.00  0.00    -0.226 NA
ENDROOT
BRANCH   1   3
ATOM      3  N   UNL d   1       7.969   5.868 -12.602  0.00  0.00    -0.327 N 
ATOM      4  C   UNL d   1       8.786   5.308 -13.685  0.00  0.00     0.130 C 
ATOM      5  C   UNL d   1       8.386   3.899 -14.005  0.00  0.00    -0.002 A 
ATOM      6  C   UNL d   1       7.188   3.339 -13.517  0.00  0.00    -0.020 A 
ATOM      7  C   UNL d   1       9.267   3.119 -14.757  0.00  0.00     0.024 A 
ATOM      8  C   UNL d   1       6.845   2.028 -13.864  0.00  0.00     0.022 A 
ATOM      9  C   UNL d   1       6.338   4.071 -12.480  0.00  0.00     0.050 C 
ATOM     10  C   UNL d   1       7.722   1.218 -14.620  0.00  0.00     0.116 A 
ATOM     11  C   UNL d   1       8.942   1.789 -15.053  0.00  0.00     0.116 A 
ATOM     12  C   UNL d   1       6.526   5.562 -12.570  0.00  0.00     0.108 C 
BRANCH  10  13
ATOM     13  O   UNL d   1       7.512  -0.128 -14.798  0.00  0.00    -0.326 OA
ATOM     14  C   UNL d   1       6.327  -0.707 -14.251  0.00  0.00     0.181 C 
ENDBRANCH  10  13
BRANCH  11  15
ATOM     15  O   UNL d   1       9.876   1.109 -15.777  0.00  0.00    -0.326 OA
ATOM     16  C   UNL d   1      10.456  -0.078 -15.280  0.00  0.00     0.181 C 
ENDBRANCH  11  15
ENDBRANCH   1   3
BRANCH   2  17
ATOM     17  C   UNL d   1      10.092   7.309 -10.058  0.00  0.00     0.083 C 
ATOM     18  C   UNL d   1      10.234   6.928  -8.700  0.00  0.00     0.015 C 
ATOM     19  C   UNL d   1      10.664   7.894  -7.749  0.00  0.00    -0.014 C 
ATOM     20  C   UNL d   1      11.001   9.185  -8.126  0.00  0.00    -0.024 C 
ATOM     21  C   UNL d   1      10.754   7.813  -6.255  0.00  0.00     0.080 C 
ATOM     22  C   UNL d   1      10.942   9.564  -9.472  0.00  0.00    -0.003 C 
ATOM     23  C   UNL d   1      11.331  10.096  -6.896  0.00  0.00     0.038 C 
ATOM     24  C   UNL d   1      10.404   8.660 -10.431  0.00  0.00     0.019 C 
ATOM     25  C   UNL d   1      11.616   9.007  -5.899  0.00  0.00     0.066 C 
ATOM     26  S   UNL d   1      11.597   9.463  -4.147  0.00  0.00    -0.139 SA
ATOM     27  C   UNL d   1      12.422   7.935  -3.564  0.00  0.00     0.069 C 
ATOM     28  C   UNL d   1      11.682   6.659  -3.998  0.00  0.00     0.070 C 
ATOM     29  S   UNL d   1      11.665   6.374  -5.772  0.00  0.00    -0.135 SA
ENDBRANCH   2  17
TORSDOF 4
