REMARK  1 active torsions:
REMARK  status: ('A' for Active; 'I' for Inactive)
REMARK    1  A    between atoms: N_5  and  C_6 
ROOT
ATOM      1  C   UNL d   1       7.984   1.492 -15.037  0.00  0.00     0.058 C 
ATOM      2  C   UNL d   1       7.515   0.401 -15.685  0.00  0.00     0.019 C 
ATOM      3  C   UNL d   1       6.162  -0.152 -15.672  0.00  0.00     0.025 A 
ATOM      4  C   UNL d   1       5.715  -0.808 -16.834  0.00  0.00     0.013 A 
ATOM      5  C   UNL d   1       4.415  -1.336 -16.894  0.00  0.00     0.058 A 
ATOM      6 CL   UNL d   1       3.861  -2.077 -18.347  0.00  0.00    -0.082 Cl
ATOM      7  C   UNL d   1       3.557  -1.214 -15.785  0.00  0.00     0.013 A 
ATOM      8  C   UNL d   1       3.996  -0.559 -14.616  0.00  0.00     0.026 A 
ATOM      9  C   UNL d   1       5.294  -0.023 -14.564  0.00  0.00     0.100 A 
ATOM     10  O   UNL d   1       5.706   0.561 -13.405  0.00  0.00    -0.307 OA
ATOM     11  C   UNL d   1       6.022   1.890 -13.448  0.00  0.00     0.101 A 
ATOM     12  C   UNL d   1       5.288   2.763 -12.620  0.00  0.00     0.025 A 
ATOM     13  C   UNL d   1       5.636   4.118 -12.501  0.00  0.00     0.002 A 
ATOM     14  C   UNL d   1       6.739   4.606 -13.214  0.00  0.00     0.000 A 
ATOM     15  C   UNL d   1       7.473   3.739 -14.037  0.00  0.00     0.003 A 
ATOM     16  C   UNL d   1       7.151   2.369 -14.165  0.00  0.00     0.038 A 
ENDROOT
BRANCH   1  17
ATOM     17  N   UNL d   1       9.338   1.821 -15.154  0.00  0.00    -0.344 N 
ATOM     18  C   UNL d   1      10.223   2.232 -14.054  0.00  0.00     0.137 C 
ATOM     19  C   UNL d   1      11.001   3.524 -14.397  0.00  0.00     0.274 C 
ATOM     20  N   UNL d   1      11.751   3.329 -15.636  0.00  0.00     0.143 N 
ATOM     21  C   UNL d   1      12.485   4.543 -15.955  0.00  0.00     0.286 C 
ATOM     22  C   UNL d   1      10.812   3.022 -16.720  0.00  0.00     0.274 C 
ATOM     23  C   UNL d   1      10.076   1.711 -16.405  0.00  0.00     0.137 C 
ENDBRANCH   1  17
TORSDOF 1
