REMARK  2 active torsions:
REMARK  status: ('A' for Active; 'I' for Inactive)
REMARK    1  A    between atoms: C_8  and  N_9 
REMARK    2  A    between atoms: N_12  and  C_13 
ROOT
ATOM      1  C   UNL d   1       4.816   3.389 -12.846  0.00  0.00     0.031 C 
ATOM      2  C   UNL d   1       6.211   3.210 -13.356  0.00  0.00    -0.022 A 
ATOM      3  C   UNL d   1       6.612   1.990 -13.946  0.00  0.00    -0.003 A 
ATOM      4  C   UNL d   1       7.963   1.779 -14.284  0.00  0.00     0.019 A 
ATOM      5  C   UNL d   1       8.900   2.816 -14.061  0.00  0.00     0.086 A 
ATOM      6  C   UNL d   1       8.495   4.037 -13.445  0.00  0.00     0.051 A 
ATOM      7  C   UNL d   1       7.139   4.229 -13.116  0.00  0.00     0.000 A 
ATOM      8  C   UNL d   1       9.451   5.129 -13.074  0.00  0.00     0.142 C 
ATOM      9  N   UNL d   1      10.392   5.509 -13.838  0.00  0.00    -0.226 NA
ATOM     10  C   UNL d   1      10.856   4.896 -15.008  0.00  0.00     0.119 A 
ATOM     11  C   UNL d   1      11.511   5.725 -15.931  0.00  0.00     0.024 A 
ATOM     12  C   UNL d   1      12.092   5.160 -17.072  0.00  0.00     0.022 A 
ATOM     13  C   UNL d   1      12.031   3.765 -17.233  0.00  0.00     0.101 A 
ATOM     14  N   UNL d   1      11.444   2.956 -16.326  0.00  0.00    -0.224 NA
ATOM     15  C   UNL d   1      10.855   3.513 -15.262  0.00  0.00     0.180 A 
ATOM     16  N   UNL d   1      10.214   2.599 -14.436  0.00  0.00    -0.225 NA
ENDROOT
BRANCH   8  17
ATOM     17  N   UNL d   1       9.256   5.761 -11.827  0.00  0.00    -0.330 N 
ATOM     18  C   UNL d   1       9.164   7.206 -11.731  0.00  0.00     0.138 C 
ATOM     19  C   UNL d   1      10.029   7.749 -10.573  0.00  0.00     0.274 C 
ATOM     20  N   UNL d   1       9.733   7.124  -9.264  0.00  0.00     0.139 N 
ATOM     21  C   UNL d   1       9.917   5.687  -9.435  0.00  0.00     0.274 C 
ATOM     22  C   UNL d   1       9.030   5.096 -10.555  0.00  0.00     0.138 C 
BRANCH  20  23
ATOM     23  C   UNL d   1      10.658   7.576  -8.203  0.00  0.00     0.220 C 
ATOM     24  C   UNL d   1      10.809   9.112  -8.137  0.00  0.00     0.033 C 
ATOM     25  C   UNL d   1      11.684   9.575  -6.957  0.00  0.00     0.002 C 
ATOM     26  C   UNL d   1      11.192   9.040  -5.619  0.00  0.00     0.000 C 
ATOM     27  C   UNL d   1      11.041   7.507  -5.654  0.00  0.00     0.002 C 
ATOM     28  C   UNL d   1      10.150   7.059  -6.824  0.00  0.00     0.033 C 
ENDBRANCH  20  23
ENDBRANCH   8  17
TORSDOF 2
