REMARK  4 active torsions:
REMARK  status: ('A' for Active; 'I' for Inactive)
REMARK    1  A    between atoms: N_5  and  C_6 
REMARK    2  A    between atoms: C_13  and  C_14 
REMARK    3  A    between atoms: N_18  and  C_19 
REMARK    4  A    between atoms: C_19  and  C_20 
ROOT
ATOM      1  C   UNL d   1       7.794   3.698 -13.064  0.00  0.00     0.113 A 
ATOM      2  C   UNL d   1       6.453   3.636 -12.605  0.00  0.00     0.158 A 
ATOM      3  F   UNL d   1       5.899   4.566 -11.780  0.00  0.00    -0.203 F 
ATOM      4  C   UNL d   1       5.659   2.533 -13.031  0.00  0.00     0.036 A 
ATOM      5  C   UNL d   1       6.149   1.590 -13.963  0.00  0.00     0.060 A 
ATOM      6  C   UNL d   1       5.288   0.452 -14.355  0.00  0.00     0.204 C 
ATOM      7  O   UNL d   1       4.268   0.182 -13.712  0.00  0.00    -0.286 OA
ATOM      8  C   UNL d   1       5.724  -0.306 -15.582  0.00  0.00     0.120 C 
ATOM      9  C   UNL d   1       6.982  -0.139 -16.000  0.00  0.00     0.085 C 
ATOM     10  N   UNL d   1       7.905   0.717 -15.389  0.00  0.00    -0.321 N 
ATOM     11  C   UNL d   1       7.468   1.705 -14.464  0.00  0.00     0.092 A 
ATOM     12  C   UNL d   1       8.291   2.783 -14.023  0.00  0.00     0.173 A 
ATOM     13  F   UNL d   1       9.564   2.881 -14.439  0.00  0.00    -0.201 F 
ENDROOT
BRANCH   1  14
ATOM     14  N   UNL d   1       8.660   4.686 -12.512  0.00  0.00    -0.341 N 
ATOM     15  C   UNL d   1       8.857   4.882 -11.079  0.00  0.00     0.137 C 
ATOM     16  C   UNL d   1       8.485   6.325 -10.688  0.00  0.00     0.274 C 
ATOM     17  N   UNL d   1       9.301   7.277 -11.458  0.00  0.00     0.143 N 
ATOM     18  C   UNL d   1       9.016   8.683 -11.256  0.00  0.00     0.286 C 
ATOM     19  C   UNL d   1       8.989   7.070 -12.836  0.00  0.00     0.274 C 
ATOM     20  C   UNL d   1       9.299   5.650 -13.356  0.00  0.00     0.137 C 
ENDBRANCH   1  14
BRANCH  10  21
ATOM     21  C   UNL d   1       9.335   0.382 -15.379  0.00  0.00     0.144 C 
BRANCH  21  22
ATOM     22  C   UNL d   1      10.143   1.090 -16.471  0.00  0.00     0.218 C 
ATOM     23  F   UNL d   1       9.783   0.655 -17.680  0.00  0.00    -0.232 F 
ENDBRANCH  21  22
ENDBRANCH  10  21
BRANCH   8  24
ATOM     24  C   UNL d   1       4.796  -1.174 -16.349  0.00  0.00     0.215 C 
ATOM     25  O   UNL d   1       3.593  -1.211 -16.207  0.00  0.00    -0.644 OA
ATOM     26  O   UNL d   1       5.429  -1.915 -17.332  0.00  0.00    -0.644 OA
ENDBRANCH   8  24
TORSDOF 4
