REMARK  7 active torsions:
REMARK  status: ('A' for Active; 'I' for Inactive)
REMARK    1  A    between atoms: C_2  and  C_3 
REMARK    2  A    between atoms: C_2  and  C_23 
REMARK    3  A    between atoms: C_3  and  C_4 
REMARK    4  A    between atoms: C_4  and  C_5 
REMARK    5  A    between atoms: C_5  and  N_6 
REMARK    6  A    between atoms: C_9  and  C_11 
REMARK    7  A    between atoms: C_14  and  C_15 
ROOT
ATOM      1  N   UNL d   1       9.833   6.386  -9.949  0.00  0.00     0.137 N 
ATOM      2  C   UNL d   1       9.541   7.269 -11.074  0.00  0.00     0.253 C 
ATOM      3  C   UNL d   1       9.392   6.467 -12.358  0.00  0.00     0.070 C 
ATOM      4  C   UNL d   1       8.303   5.393 -12.322  0.00  0.00     0.149 C 
ATOM      5  O   UNL d   1       7.045   6.029 -12.190  0.00  0.00    -0.221 OA
ATOM      6  C   UNL d   1       8.509   4.603 -11.019  0.00  0.00     0.070 C 
ATOM      7  C   UNL d   1       8.727   5.456  -9.761  0.00  0.00     0.253 C 
ENDROOT
BRANCH   1   8
ATOM      8  C   UNL d   1       9.956   7.168  -8.728  0.00  0.00     0.251 C 
BRANCH   8   9
ATOM      9  C   UNL d   1      11.273   7.963  -8.740  0.00  0.00     0.043 C 
BRANCH   9  10
ATOM     10  C   UNL d   1      11.963   7.931  -7.379  0.00  0.00     0.071 C 
BRANCH  10  11
ATOM     11  C   UNL d   1      11.214   8.719  -6.294  0.00  0.00     0.173 C 
ATOM     12  O   UNL d   1      10.437   9.591  -6.621  0.00  0.00    -0.291 OA
BRANCH  11  13
ATOM     13  C   UNL d   1      11.586   8.471  -4.876  0.00  0.00     0.035 A 
ATOM     14  C   UNL d   1      11.862   7.168  -4.393  0.00  0.00     0.005 A 
ATOM     15  C   UNL d   1      12.279   7.013  -3.058  0.00  0.00     0.030 A 
ATOM     16  C   UNL d   1      12.402   8.136  -2.210  0.00  0.00     0.140 A 
ATOM     17  C   UNL d   1      12.023   9.405  -2.676  0.00  0.00     0.030 A 
ATOM     18  F   UNL d   1      12.975   8.009  -0.997  0.00  0.00    -0.204 F 
ATOM     19  C   UNL d   1      11.597   9.576  -4.004  0.00  0.00     0.005 A 
ENDBRANCH  11  13
ENDBRANCH  10  11
ENDBRANCH   9  10
ENDBRANCH   8   9
ENDBRANCH   1   8
BRANCH   4  20
ATOM     20  C   UNL d   1       8.370   4.431 -13.541  0.00  0.00     0.005 A 
ATOM     21  C   UNL d   1       7.427   3.379 -13.661  0.00  0.00    -0.002 A 
ATOM     22  C   UNL d   1       7.446   2.481 -14.762  0.00  0.00     0.004 A 
ATOM     23  C   UNL d   1       8.411   2.647 -15.778  0.00  0.00     0.071 A 
ATOM     24  C   UNL d   1       9.363   3.673 -15.662  0.00  0.00     0.004 A 
ATOM     25  C   UNL d   1       9.335   4.558 -14.576  0.00  0.00    -0.002 A 
BRANCH  23  26
ATOM     26  C   UNL d   1       8.335   1.815 -17.058  0.00  0.00     0.419 C 
ATOM     27  F   UNL d   1       8.918   2.459 -18.081  0.00  0.00    -0.166 F 
ATOM     28  F   UNL d   1       8.956   0.645 -16.876  0.00  0.00    -0.166 F 
ATOM     29  F   UNL d   1       7.056   1.598 -17.394  0.00  0.00    -0.166 F 
ENDBRANCH  23  26
ENDBRANCH   4  20
TORSDOF 7
