REMARK  6 active torsions:
REMARK  status: ('A' for Active; 'I' for Inactive)
REMARK       I    between atoms: C_2  and  N_3 
REMARK       I    between atoms: C_2  and  N_24 
REMARK    1  A    between atoms: N_3  and  C_4 
REMARK    2  A    between atoms: C_7  and  C_8 
REMARK    3  A    between atoms: C_8  and  C_9 
REMARK    4  A    between atoms: C_9  and  N_10 
REMARK    5  A    between atoms: N_13  and  C_14 
REMARK    6  A    between atoms: N_24  and  C_25 
ROOT
ATOM      1  C   UNL d   1       9.868   7.159  -9.417  0.00  0.00     0.086 A 
ATOM      2  C   UNL d   1       9.604   5.772  -9.337  0.00  0.00     0.019 A 
ATOM      3  C   UNL d   1       9.290   5.048 -10.493  0.00  0.00    -0.003 A 
ATOM      4  C   UNL d   1       9.209   5.684 -11.745  0.00  0.00    -0.020 A 
ATOM      5  C   UNL d   1       9.448   7.073 -11.825  0.00  0.00    -0.003 A 
ATOM      6  C   UNL d   1       9.789   7.802 -10.667  0.00  0.00     0.019 A 
ENDROOT
BRANCH   4   7
ATOM      7  C   UNL d   1       8.900   4.882 -12.997  0.00  0.00     0.062 C 
BRANCH   7   8
ATOM      8  C   UNL d   1       9.949   3.782 -13.254  0.00  0.00     0.255 C 
BRANCH   8   9
ATOM      9  N   UNL d   1       9.766   3.182 -14.569  0.00  0.00     0.141 N 
ATOM     10  C   UNL d   1      10.450   4.002 -15.582  0.00  0.00     0.274 C 
ATOM     11  C   UNL d   1      10.281   3.398 -16.986  0.00  0.00     0.137 C 
ATOM     12  N   UNL d   1      10.757   2.018 -16.998  0.00  0.00    -0.344 N 
ATOM     13  C   UNL d   1      10.181   1.176 -15.956  0.00  0.00     0.137 C 
ATOM     14  C   UNL d   1      10.363   1.841 -14.584  0.00  0.00     0.274 C 
BRANCH  12  15
ATOM     15  C   UNL d   1      11.688   1.523 -17.934  0.00  0.00     0.056 A 
ATOM     16  C   UNL d   1      11.687   0.152 -18.294  0.00  0.00     0.017 A 
ATOM     17  C   UNL d   1      12.627  -0.355 -19.209  0.00  0.00     0.002 A 
ATOM     18  C   UNL d   1      13.571   0.498 -19.799  0.00  0.00     0.000 A 
ATOM     19  C   UNL d   1      13.578   1.863 -19.466  0.00  0.00     0.002 A 
ATOM     20  C   UNL d   1      12.649   2.373 -18.536  0.00  0.00     0.017 A 
ENDBRANCH  12  15
ENDBRANCH   8   9
ENDBRANCH   7   8
ENDBRANCH   4   7
BRANCH   1  21
ATOM     21  N   UNL d   1      10.144   7.931  -8.262  0.00  0.00    -0.191 NA
ATOM     22  C   UNL d   1      10.839   7.524  -7.186  0.00  0.00     0.369 C 
ATOM     23  O   UNL d   1      11.425   6.445  -7.111  0.00  0.00    -0.242 OA
ATOM     24  N   UNL d   1      10.834   8.444  -6.208  0.00  0.00    -0.189 NA
BRANCH  24  25
ATOM     25  C   UNL d   1      11.384   8.350  -4.894  0.00  0.00     0.105 A 
ATOM     26  C   UNL d   1      11.452   9.537  -4.141  0.00  0.00     0.118 A 
ATOM     27  N   UNL d   1      11.868   9.587  -2.860  0.00  0.00    -0.241 NA
ATOM     28  C   UNL d   1      12.274   8.441  -2.282  0.00  0.00     0.099 A 
ATOM     29  C   UNL d   1      12.263   7.197  -2.939  0.00  0.00     0.022 A 
ATOM     30  C   UNL d   1      11.806   7.147  -4.270  0.00  0.00     0.022 A 
ENDBRANCH  24  25
ENDBRANCH   1  21
TORSDOF 6
