REMARK  5 active torsions:
REMARK  status: ('A' for Active; 'I' for Inactive)
REMARK    1  A    between atoms: N_2  and  C_4 
REMARK    2  A    between atoms: C_4  and  C_5 
REMARK    3  A    between atoms: C_5  and  C_6 
REMARK    4  A    between atoms: C_6  and  C_7 
REMARK    5  A    between atoms: C_15  and  C_16 
ROOT
ATOM      1  C   UNL d   1       9.307   5.421 -12.280  0.00  0.00     0.174 A 
ATOM      2  O   UNL d   1       9.458   6.798 -12.631  0.00  0.00    -0.322 OA
ATOM      3  C   UNL d   1       9.578   7.540 -11.479  0.00  0.00     0.120 A 
ATOM      4  C   UNL d   1       9.574   6.854 -10.328  0.00  0.00     0.062 A 
ATOM      5  C   UNL d   1       9.457   5.465 -10.751  0.00  0.00     0.203 A 
ATOM      6  O   UNL d   1       9.458   4.465 -10.030  0.00  0.00    -0.288 OA
ENDROOT
BRANCH   1   7
ATOM      7  C   UNL d   1      10.430   4.623 -12.999  0.00  0.00     0.075 C 
BRANCH   7   8
ATOM      8  C   UNL d   1      10.256   4.363 -14.529  0.00  0.00     0.254 C 
BRANCH   8   9
ATOM      9  N   UNL d   1      11.251   3.390 -14.989  0.00  0.00     0.141 N 
ATOM     10  C   UNL d   1      11.323   3.464 -16.438  0.00  0.00     0.285 C 
ATOM     11  C   UNL d   1      10.834   2.025 -14.657  0.00  0.00     0.285 C 
ENDBRANCH   8   9
ENDBRANCH   7   8
ENDBRANCH   1   7
BRANCH   1  12
ATOM     12  C   UNL d   1       7.923   4.906 -12.630  0.00  0.00     0.009 A 
ATOM     13  C   UNL d   1       7.725   3.584 -13.112  0.00  0.00    -0.002 A 
ATOM     14  C   UNL d   1       6.450   3.120 -13.471  0.00  0.00    -0.000 A 
ATOM     15  C   UNL d   1       5.338   3.949 -13.297  0.00  0.00    -0.000 A 
ATOM     16  C   UNL d   1       5.546   5.268 -12.868  0.00  0.00    -0.000 A 
ATOM     17  C   UNL d   1       6.808   5.744 -12.479  0.00  0.00    -0.002 A 
ENDBRANCH   1  12
BRANCH   4  18
ATOM     18  C   UNL d   1       9.864   7.377  -8.979  0.00  0.00     0.005 A 
ATOM     19  C   UNL d   1      10.576   8.587  -8.802  0.00  0.00     0.000 A 
ATOM     20  C   UNL d   1      10.808   9.088  -7.504  0.00  0.00     0.000 A 
ATOM     21  C   UNL d   1      10.322   8.396  -6.379  0.00  0.00     0.000 A 
ATOM     22  C   UNL d   1       9.616   7.192  -6.553  0.00  0.00     0.000 A 
ATOM     23  C   UNL d   1       9.386   6.688  -7.844  0.00  0.00     0.000 A 
ENDBRANCH   4  18
TORSDOF 5
