REMARK  6 active torsions:
REMARK  status: ('A' for Active; 'I' for Inactive)
REMARK    1  A    between atoms: N_5  and  C_6 
REMARK    2  A    between atoms: N_15  and  C_16 
REMARK    3  A    between atoms: C_16  and  C_17 
REMARK    4  A    between atoms: C_17  and  C_18 
REMARK    5  A    between atoms: C_18  and  O_19 
REMARK    6  A    between atoms: O_19  and  C_20 
ROOT
ATOM      1  O   UNL d   1       7.850   1.691 -19.520  0.00  0.00    -0.269 OA
ATOM      2  C   UNL d   1       7.453   0.964 -18.609  0.00  0.00     0.271 C 
ATOM      3  N   UNL d   1       6.434   0.129 -18.679  0.00  0.00    -0.211 NA
ATOM      4  C   UNL d   1       6.108  -0.520 -17.423  0.00  0.00     0.234 C 
ATOM      5  N   UNL d   1       6.962   0.128 -16.467  0.00  0.00    -0.323 N 
ATOM      6  C   UNL d   1       7.949   0.989 -17.180  0.00  0.00     0.142 C 
ATOM      7  C   UNL d   1       7.901   2.426 -16.775  0.00  0.00     0.065 C 
ATOM      8  C   UNL d   1       8.553   2.660 -15.418  0.00  0.00     0.253 C 
ATOM      9  N   UNL d   1       9.969   2.311 -15.431  0.00  0.00     0.137 N 
ATOM     10  C   UNL d   1      10.022   0.855 -15.669  0.00  0.00     0.253 C 
ATOM     11  C   UNL d   1       9.413   0.529 -17.053  0.00  0.00     0.065 C 
ENDROOT
BRANCH   5  12
ATOM     12  C   UNL d   1       6.510   0.289 -15.119  0.00  0.00     0.058 C 
ATOM     13  C   UNL d   1       6.802  -0.658 -14.131  0.00  0.00     0.017 C 
ATOM     14  C   UNL d   1       6.489  -0.459 -12.806  0.00  0.00     0.002 C 
ATOM     15  C   UNL d   1       5.737   0.635 -12.360  0.00  0.00     0.000 C 
ATOM     16  C   UNL d   1       5.505   1.647 -13.279  0.00  0.00     0.002 C 
ATOM     17  C   UNL d   1       5.906   1.466 -14.593  0.00  0.00     0.017 C 
ENDBRANCH   5  12
BRANCH   9  18
ATOM     18  C   UNL d   1      10.505   2.590 -14.092  0.00  0.00     0.253 C 
BRANCH  18  19
ATOM     19  C   UNL d   1      10.620   4.106 -13.788  0.00  0.00     0.068 C 
BRANCH  19  20
ATOM     20  C   UNL d   1       9.288   4.858 -13.586  0.00  0.00     0.151 C 
BRANCH  20  21
ATOM     21  O   UNL d   1       9.417   6.050 -12.864  0.00  0.00    -0.331 OA
BRANCH  21  22
ATOM     22  C   UNL d   1       9.368   5.990 -11.509  0.00  0.00     0.094 A 
ATOM     23  C   UNL d   1       8.905   4.885 -10.762  0.00  0.00     0.026 A 
ATOM     24  C   UNL d   1       8.931   4.930  -9.366  0.00  0.00     0.032 A 
ATOM     25  C   UNL d   1       9.409   6.084  -8.728  0.00  0.00     0.140 A 
ATOM     26  C   UNL d   1       9.864   7.182  -9.477  0.00  0.00     0.032 A 
ATOM     27  F   UNL d   1       9.432   6.141  -7.385  0.00  0.00    -0.204 F 
ATOM     28  C   UNL d   1       9.837   7.137 -10.870  0.00  0.00     0.026 A 
ENDBRANCH  21  22
ENDBRANCH  20  21
ENDBRANCH  19  20
ENDBRANCH  18  19
ENDBRANCH   9  18
TORSDOF 6
