REMARK  9 active torsions:
REMARK  status: ('A' for Active; 'I' for Inactive)
REMARK    1  A    between atoms: S_2  and  N_5 
REMARK    2  A    between atoms: N_5  and  C_6 
REMARK    3  A    between atoms: C_10  and  N_11 
REMARK    4  A    between atoms: N_14  and  C_15 
REMARK    5  A    between atoms: C_15  and  C_16 
REMARK    6  A    between atoms: C_16  and  C_17 
REMARK    7  A    between atoms: C_17  and  C_18 
REMARK    8  A    between atoms: C_18  and  N_19 
REMARK       I    between atoms: N_19  and  C_20 
REMARK    9  A    between atoms: C_20  and  C_22 
ROOT
ATOM      1  N   UNL d   1       9.058   6.684 -11.004  0.00  0.00    -0.344 N 
ATOM      2  C   UNL d   1       9.082   6.801 -12.472  0.00  0.00     0.137 C 
ATOM      3  C   UNL d   1       9.059   5.395 -13.069  0.00  0.00     0.274 C 
ATOM      4  N   UNL d   1       7.832   4.691 -12.652  0.00  0.00     0.141 N 
ATOM      5  C   UNL d   1       7.872   4.548 -11.186  0.00  0.00     0.274 C 
ATOM      6  C   UNL d   1       7.852   5.947 -10.597  0.00  0.00     0.137 C 
ENDROOT
BRANCH   4   7
ATOM      7  C   UNL d   1       7.757   3.330 -13.153  0.00  0.00     0.251 C 
BRANCH   7   8
ATOM      8  C   UNL d   1       7.563   3.248 -14.664  0.00  0.00     0.037 C 
BRANCH   8   9
ATOM      9  C   UNL d   1       7.673   1.832 -15.177  0.00  0.00     0.029 C 
BRANCH   9  10
ATOM     10  C   UNL d   1       7.566   1.820 -16.711  0.00  0.00     0.129 C 
BRANCH  10  11
ATOM     11  N   UNL d   1       8.854   1.520 -17.318  0.00  0.00    -0.234 NA
ATOM     12  C   UNL d   1       9.110   1.585 -18.631  0.00  0.00     0.275 C 
ATOM     13  O   UNL d   1       8.302   2.006 -19.458  0.00  0.00    -0.266 OA
BRANCH  12  14
ATOM     14  C   UNL d   1      10.486   1.132 -19.029  0.00  0.00     0.058 A 
ATOM     15  C   UNL d   1      11.184   1.802 -20.058  0.00  0.00     0.005 A 
ATOM     16  C   UNL d   1      12.472   1.374 -20.449  0.00  0.00     0.000 A 
ATOM     17  C   UNL d   1      13.062   0.248 -19.825  0.00  0.00     0.000 A 
ATOM     18  C   UNL d   1      13.175   2.059 -21.462  0.00  0.00     0.000 A 
ATOM     19  C   UNL d   1      12.362  -0.429 -18.810  0.00  0.00     0.000 A 
ATOM     20  C   UNL d   1      14.345  -0.188 -20.220  0.00  0.00     0.000 A 
ATOM     21  C   UNL d   1      11.078   0.001 -18.419  0.00  0.00     0.005 A 
ATOM     22  C   UNL d   1      15.045   0.502 -21.228  0.00  0.00     0.000 A 
ATOM     23  C   UNL d   1      14.459   1.624 -21.847  0.00  0.00     0.000 A 
ENDBRANCH  12  14
ENDBRANCH  10  11
ENDBRANCH   9  10
ENDBRANCH   8   9
ENDBRANCH   7   8
ENDBRANCH   4   7
BRANCH   1  24
ATOM     24  C   UNL d   1       9.763   7.487 -10.080  0.00  0.00     0.058 C 
ATOM     25  C   UNL d   1      10.721   8.361 -10.598  0.00  0.00     0.017 C 
ATOM     26  C   UNL d   1      11.694   8.979  -9.839  0.00  0.00     0.003 C 
ATOM     27  C   UNL d   1      11.702   8.878  -8.448  0.00  0.00     0.020 C 
ATOM     28  C   UNL d   1      10.630   8.134  -7.861  0.00  0.00     0.095 C 
ATOM     29  C   UNL d   1       9.679   7.420  -8.668  0.00  0.00     0.037 C 
BRANCH  28  30
ATOM     30  N   UNL d   1      10.464   8.085  -6.478  0.00  0.00    -0.162 NA
BRANCH  30  31
ATOM     31  S   UNL d   1      11.491   8.625  -5.186  0.00  0.00     0.266 S 
ATOM     32  C   UNL d   1      11.970   7.024  -4.430  0.00  0.00     0.165 C 
ATOM     33  O   UNL d   1      10.671   9.401  -4.230  0.00  0.00    -0.203 OA
ATOM     34  O   UNL d   1      12.661   9.293  -5.797  0.00  0.00    -0.203 OA
ENDBRANCH  30  31
ENDBRANCH  28  30
ENDBRANCH   1  24
TORSDOF 9
