REMARK  1 active torsions:
REMARK  status: ('A' for Active; 'I' for Inactive)
REMARK    1  A    between atoms: C_9  and  N_10 
ROOT
ATOM      1 CL   UNL d   1       6.802   5.581 -12.328  0.00  0.00    -0.082 Cl
ATOM      2  C   UNL d   1       6.579   3.996 -12.971  0.00  0.00     0.059 A 
ATOM      3  C   UNL d   1       5.617   3.136 -12.419  0.00  0.00     0.013 A 
ATOM      4  C   UNL d   1       5.459   1.838 -12.941  0.00  0.00     0.021 A 
ATOM      5  C   UNL d   1       6.245   1.402 -14.027  0.00  0.00     0.099 A 
ATOM      6  C   UNL d   1       7.221   2.268 -14.591  0.00  0.00     0.101 A 
ATOM      7  C   UNL d   1       7.382   3.556 -14.039  0.00  0.00     0.032 A 
ATOM      8  N   UNL d   1       8.152   1.907 -15.573  0.00  0.00    -0.227 NA
ATOM      9  C   UNL d   1       7.936   1.105 -16.570  0.00  0.00     0.142 C 
ATOM     10  C   UNL d   1       6.603   0.451 -16.870  0.00  0.00     0.051 A 
ATOM     11  C   UNL d   1       6.194   0.319 -18.220  0.00  0.00     0.004 A 
ATOM     12  C   UNL d   1       5.037  -0.404 -18.565  0.00  0.00     0.000 A 
ATOM     13  C   UNL d   1       4.255  -0.993 -17.559  0.00  0.00     0.002 A 
ATOM     14  C   UNL d   1       4.618  -0.835 -16.210  0.00  0.00     0.019 A 
ATOM     15  C   UNL d   1       5.772  -0.101 -15.861  0.00  0.00     0.084 A 
ATOM     16  N   UNL d   1       6.020   0.114 -14.511  0.00  0.00    -0.244 NA
ENDROOT
BRANCH   9  17
ATOM     17  N   UNL d   1       8.976   0.765 -17.444  0.00  0.00    -0.330 N 
ATOM     18  C   UNL d   1      10.059   1.682 -17.792  0.00  0.00     0.141 C 
ATOM     19  C   UNL d   1      11.437   1.024 -17.590  0.00  0.00     0.314 C 
ATOM     20  N   UNL d   1      11.528  -0.195 -18.386  0.00  0.00     0.343 N 
ATOM     21  C   UNL d   1      10.513  -1.116 -17.891  0.00  0.00     0.314 C 
ATOM     22  C   UNL d   1       9.116  -0.531 -18.107  0.00  0.00     0.141 C 
ENDBRANCH   9  17
TORSDOF 1
