REMARK  9 active torsions:
REMARK  status: ('A' for Active; 'I' for Inactive)
REMARK    1  A    between atoms: O_2  and  C_3 
REMARK    2  A    between atoms: C_8  and  C_9 
REMARK       I    between atoms: C_9  and  N_11 
REMARK    3  A    between atoms: N_11  and  C_12 
REMARK    4  A    between atoms: C_12  and  C_13 
REMARK    5  A    between atoms: C_13  and  C_14 
REMARK    6  A    between atoms: C_14  and  C_16 
REMARK    7  A    between atoms: C_16  and  N_17 
REMARK    8  A    between atoms: N_20  and  C_21 
REMARK    9  A    between atoms: C_26  and  O_27 
ROOT
ATOM      1  C   UNL d   1       6.270   2.958 -13.652  0.00  0.00     0.196 C 
ATOM      2  F   UNL d   1       5.032   3.176 -13.217  0.00  0.00    -0.235 F 
ENDROOT
BRANCH   1   3
ATOM      3  C   UNL d   1       7.174   3.685 -12.654  0.00  0.00     0.064 C 
BRANCH   3   4
ATOM      4  C   UNL d   1       7.059   5.212 -12.703  0.00  0.00     0.132 C 
BRANCH   4   5
ATOM      5  N   UNL d   1       7.724   5.821 -11.562  0.00  0.00    -0.233 NA
ATOM      6  C   UNL d   1       9.050   5.903 -11.402  0.00  0.00     0.298 C 
ATOM      7  O   UNL d   1       9.858   5.582 -12.272  0.00  0.00    -0.263 OA
BRANCH   6   8
ATOM      8  C   UNL d   1       9.493   6.440 -10.107  0.00  0.00     0.157 A 
ATOM      9  O   UNL d   1      10.562   7.287 -10.120  0.00  0.00    -0.302 OA
ATOM     10  C   UNL d   1      10.793   7.673  -8.827  0.00  0.00     0.100 A 
ATOM     11  C   UNL d   1      11.775   8.565  -8.399  0.00  0.00     0.027 A 
ATOM     12  C   UNL d   1       9.888   7.029  -7.954  0.00  0.00     0.027 A 
ATOM     13  C   UNL d   1      11.870   8.850  -7.028  0.00  0.00     0.026 A 
ATOM     14  C   UNL d   1      11.008   8.213  -6.091  0.00  0.00     0.094 A 
ATOM     15  C   UNL d   1      10.022   7.310  -6.569  0.00  0.00     0.026 A 
ATOM     16  C   UNL d   1       9.060   6.221  -8.812  0.00  0.00     0.032 A 
BRANCH  14  17
ATOM     17  O   UNL d   1      11.084   8.424  -4.731  0.00  0.00    -0.328 OA
ATOM     18  C   UNL d   1      12.025   9.375  -4.256  0.00  0.00     0.181 C 
ENDBRANCH  14  17
ENDBRANCH   6   8
ENDBRANCH   4   5
ENDBRANCH   3   4
ENDBRANCH   1   3
BRANCH   1  19
ATOM     19  C   UNL d   1       6.533   1.433 -13.732  0.00  0.00     0.285 C 
BRANCH  19  20
ATOM     20  N   UNL d   1       5.800   0.785 -14.828  0.00  0.00     0.144 N 
ATOM     21  C   UNL d   1       5.743  -0.668 -14.618  0.00  0.00     0.274 C 
ATOM     22  C   UNL d   1       4.917  -1.349 -15.736  0.00  0.00     0.137 C 
ATOM     23  N   UNL d   1       5.444  -0.995 -17.051  0.00  0.00    -0.343 N 
ATOM     24  C   UNL d   1       5.634   0.435 -17.267  0.00  0.00     0.137 C 
ATOM     25  C   UNL d   1       6.458   1.047 -16.114  0.00  0.00     0.274 C 
BRANCH  23  26
ATOM     26  C   UNL d   1       5.865  -1.970 -17.964  0.00  0.00     0.079 A 
ATOM     27  C   UNL d   1       7.096  -1.864 -18.668  0.00  0.00     0.110 A 
ATOM     28  C   UNL d   1       7.441  -2.860 -19.612  0.00  0.00     0.026 A 
ATOM     29  C   UNL d   1       6.607  -3.975 -19.831  0.00  0.00     0.002 A 
ATOM     30  C   UNL d   1       5.403  -4.088 -19.112  0.00  0.00     0.002 A 
ATOM     31  C   UNL d   1       5.039  -3.090 -18.191  0.00  0.00     0.019 A 
BRANCH  27  32
ATOM     32  O   UNL d   1       7.924  -0.790 -18.375  0.00  0.00    -0.327 OA
ATOM     33  C   UNL d   1       9.154  -0.660 -19.072  0.00  0.00     0.181 C 
ENDBRANCH  27  32
ENDBRANCH  23  26
ENDBRANCH  19  20
ENDBRANCH   1  19
TORSDOF 9
