REMARK  8 active torsions:
REMARK  status: ('A' for Active; 'I' for Inactive)
REMARK    1  A    between atoms: N_12  and  C_13 
REMARK    2  A    between atoms: C_13  and  C_14 
REMARK    3  A    between atoms: C_14  and  C_15 
REMARK    4  A    between atoms: C_15  and  C_16 
REMARK    5  A    between atoms: C_16  and  C_17 
REMARK    6  A    between atoms: C_17  and  C_18 
REMARK    7  A    between atoms: C_18  and  N_19 
REMARK    8  A    between atoms: N_22  and  C_23 
ROOT
ATOM      1  C   UNL d   1       6.655   3.264 -13.831  0.00  0.00     0.035 C 
ENDROOT
BRANCH   1   2
ATOM      2  C   UNL d   1       7.814   2.255 -14.062  0.00  0.00     0.002 C 
BRANCH   2   3
ATOM      3  C   UNL d   1       8.463   2.521 -15.414  0.00  0.00     0.002 C 
BRANCH   3   4
ATOM      4  C   UNL d   1       9.726   1.647 -15.633  0.00  0.00     0.025 C 
BRANCH   4   5
ATOM      5  C   UNL d   1      10.495   2.000 -16.926  0.00  0.00     0.122 C 
BRANCH   5   6
ATOM      6  N   UNL d   1      11.418   3.149 -16.763  0.00  0.00    -0.221 N 
ATOM      7  C   UNL d   1      12.592   3.295 -17.532  0.00  0.00     0.271 A 
ATOM      8  O   UNL d   1      13.073   2.444 -18.281  0.00  0.00    -0.266 OA
ATOM      9  C   UNL d   1      13.154   4.670 -17.301  0.00  0.00     0.069 A 
ATOM     10  C   UNL d   1      12.371   5.473 -16.473  0.00  0.00     0.108 A 
ATOM     11  C   UNL d   1      14.332   5.199 -17.852  0.00  0.00     0.005 A 
ATOM     12  C   UNL d   1      12.672   6.798 -16.144  0.00  0.00     0.013 A 
ATOM     13  S   UNL d   1      10.953   4.620 -15.978  0.00  0.00     0.270 S 
ATOM     14  C   UNL d   1      13.848   7.338 -16.694  0.00  0.00     0.001 A 
ATOM     15  C   UNL d   1      14.674   6.541 -17.534  0.00  0.00     0.000 A 
ATOM     16  O   UNL d   1      11.003   4.462 -14.509  0.00  0.00    -0.200 OA
ATOM     17  O   UNL d   1       9.797   5.203 -16.669  0.00  0.00    -0.200 OA
ENDBRANCH   5   6
ENDBRANCH   4   5
ENDBRANCH   3   4
ENDBRANCH   2   3
ENDBRANCH   1   2
BRANCH   1  18
ATOM     18  C   UNL d   1       7.084   4.727 -13.548  0.00  0.00     0.250 C 
BRANCH  18  19
ATOM     19  N   UNL d   1       8.148   4.843 -12.575  0.00  0.00     0.141 N 
ATOM     20  C   UNL d   1       8.558   6.240 -12.478  0.00  0.00     0.274 C 
ATOM     21  C   UNL d   1       9.754   6.337 -11.532  0.00  0.00     0.137 C 
ATOM     22  N   UNL d   1       9.442   5.746 -10.235  0.00  0.00    -0.343 N 
ATOM     23  C   UNL d   1       8.883   4.414 -10.294  0.00  0.00     0.137 C 
ATOM     24  C   UNL d   1       7.678   4.424 -11.260  0.00  0.00     0.274 C 
BRANCH  22  25
ATOM     25  C   UNL d   1       9.621   6.423  -9.021  0.00  0.00     0.074 A 
ATOM     26  C   UNL d   1      10.711   7.292  -8.766  0.00  0.00     0.097 A 
ATOM     27  C   UNL d   1      10.808   7.934  -7.502  0.00  0.00     0.019 A 
ATOM     28  N   UNL d   1      11.657   7.472  -9.704  0.00  0.00    -0.243 NA
ATOM     29  C   UNL d   1       9.819   7.775  -6.517  0.00  0.00     0.002 A 
ATOM     30  C   UNL d   1      11.930   8.743  -7.207  0.00  0.00     0.003 A 
ATOM     31  C   UNL d   1       8.731   6.945  -6.817  0.00  0.00     0.002 A 
ATOM     32  C   UNL d   1       8.663   6.255  -8.024  0.00  0.00     0.018 A 
ATOM     33  C   UNL d   1      12.944   8.795  -8.174  0.00  0.00     0.021 A 
ATOM     34  C   UNL d   1      12.753   8.167  -9.401  0.00  0.00     0.099 A 
ENDBRANCH  22  25
ENDBRANCH  18  19
ENDBRANCH   1  18
TORSDOF 8
