REMARK  6 active torsions:
REMARK  status: ('A' for Active; 'I' for Inactive)
REMARK    1  A    between atoms: S_2  and  N_4 
REMARK    2  A    between atoms: S_2  and  C_22 
REMARK    3  A    between atoms: N_4  and  C_5 
REMARK    4  A    between atoms: N_13  and  C_14 
REMARK    5  A    between atoms: C_14  and  C_15 
REMARK    6  A    between atoms: C_25  and  C_26 
ROOT
ATOM      1  C   UNL d   1       8.828   5.982 -10.469  0.00  0.00     0.093 A 
ATOM      2  C   UNL d   1       9.378   7.051 -11.233  0.00  0.00     0.020 A 
ATOM      3  C   UNL d   1      10.253   7.945 -10.602  0.00  0.00    -0.003 A 
ATOM      4  C   UNL d   1      10.649   7.774  -9.287  0.00  0.00    -0.024 A 
ATOM      5  C   UNL d   1      10.132   6.688  -8.570  0.00  0.00    -0.022 A 
ATOM      6  C   UNL d   1       9.194   5.823  -9.134  0.00  0.00     0.015 A 
ATOM      7  C   UNL d   1      10.516   6.406  -7.138  0.00  0.00     0.061 C 
ATOM      8  C   UNL d   1      10.251   7.578  -6.180  0.00  0.00     0.255 C 
ATOM      9  N   UNL d   1      11.377   8.515  -6.229  0.00  0.00     0.144 N 
ATOM     10  C   UNL d   1      11.237   9.411  -7.372  0.00  0.00     0.255 C 
ATOM     11  C   UNL d   1      11.651   8.737  -8.694  0.00  0.00     0.061 C 
ENDROOT
BRANCH   1  12
ATOM     12  N   UNL d   1       7.877   5.094 -10.987  0.00  0.00    -0.158 NA
BRANCH  12  13
ATOM     13  S   UNL d   1       6.876   5.197 -12.380  0.00  0.00     0.285 S 
ATOM     14  O   UNL d   1       5.611   4.519 -12.053  0.00  0.00    -0.198 OA
ATOM     15  O   UNL d   1       6.927   6.585 -12.831  0.00  0.00    -0.198 OA
BRANCH  13  16
ATOM     16  C   UNL d   1       7.813   4.168 -13.487  0.00  0.00     0.105 A 
ATOM     17  C   UNL d   1       7.176   3.055 -14.055  0.00  0.00     0.013 A 
ATOM     18  C   UNL d   1       7.892   2.214 -14.918  0.00  0.00     0.001 A 
ATOM     19  C   UNL d   1       9.258   2.451 -15.214  0.00  0.00     0.000 A 
ATOM     20  C   UNL d   1       9.886   3.566 -14.601  0.00  0.00     0.001 A 
ATOM     21  C   UNL d   1       9.174   4.423 -13.742  0.00  0.00     0.013 A 
BRANCH  19  22
ATOM     22  C   UNL d   1       9.997   1.563 -16.142  0.00  0.00     0.000 A 
ATOM     23  C   UNL d   1      11.147   2.017 -16.835  0.00  0.00     0.000 A 
ATOM     24  C   UNL d   1      11.848   1.176 -17.721  0.00  0.00     0.000 A 
ATOM     25  C   UNL d   1      11.402  -0.136 -17.950  0.00  0.00     0.000 A 
ATOM     26  C   UNL d   1      10.259  -0.606 -17.277  0.00  0.00     0.000 A 
ATOM     27  C   UNL d   1       9.573   0.231 -16.379  0.00  0.00     0.000 A 
ENDBRANCH  19  22
ENDBRANCH  13  16
ENDBRANCH  12  13
ENDBRANCH   1  12
BRANCH   9  28
ATOM     28  C   UNL d   1      11.385   9.307  -5.003  0.00  0.00     0.297 C 
BRANCH  28  29
ATOM     29  C   UNL d   1      11.839   8.539  -3.797  0.00  0.00     0.116 A 
ATOM     30  N   UNL d   1      12.261   9.186  -2.658  0.00  0.00    -0.150 NA
ATOM     31  N   UNL d   1      12.620   8.351  -1.665  0.00  0.00    -0.147 NA
ATOM     32  C   UNL d   1      12.376   7.153  -2.174  0.00  0.00     0.123 A 
ATOM     33  C   UNL d   1      11.931   7.196  -3.518  0.00  0.00     0.041 A 
ENDBRANCH  28  29
ENDBRANCH   9  28
TORSDOF 6
