REMARK  2 active torsions:
REMARK  status: ('A' for Active; 'I' for Inactive)
REMARK    1  A    between atoms: N_5  and  C_6 
REMARK    2  A    between atoms: C_18  and  C_19 
ROOT
ATOM      1  C   UNL d   1       9.516   4.064 -15.668  0.00  0.00     0.019 C 
ATOM      2  C   UNL d   1      10.763   4.934 -16.039  0.00  0.00     0.065 C 
ATOM      3  C   UNL d   1      11.373   4.691 -17.386  0.00  0.00    -0.011 A 
ATOM      4  C   UNL d   1      11.286   5.656 -18.408  0.00  0.00    -0.003 A 
ATOM      5  C   UNL d   1      11.951   5.418 -19.626  0.00  0.00    -0.000 A 
ATOM      6  C   UNL d   1      12.701   4.237 -19.810  0.00  0.00     0.001 A 
ATOM      7  C   UNL d   1      12.795   3.284 -18.781  0.00  0.00     0.006 A 
ATOM      8  C   UNL d   1      12.120   3.527 -17.582  0.00  0.00     0.026 A 
ATOM      9  S   UNL d   1      12.192   2.387 -16.282  0.00  0.00    -0.087 SA
ATOM     10  C   UNL d   1      10.547   1.784 -16.355  0.00  0.00     0.030 A 
ATOM     11  C   UNL d   1      10.381   0.419 -16.653  0.00  0.00     0.006 A 
ATOM     12  C   UNL d   1       9.104  -0.136 -16.741  0.00  0.00     0.002 A 
ATOM     13  C   UNL d   1       7.964   0.659 -16.505  0.00  0.00     0.017 A 
ATOM     14  C   UNL d   1       8.136   2.023 -16.193  0.00  0.00     0.003 A 
ATOM     15  C   UNL d   1       9.428   2.607 -16.114  0.00  0.00     0.013 A 
ENDROOT
BRANCH   1  16
ATOM     16  N   UNL d   1       9.077   4.161 -14.259  0.00  0.00    -0.252 NA
ATOM     17  C   UNL d   1       8.949   5.551 -13.843  0.00  0.00     0.112 C 
ATOM     18  C   UNL d   1       8.489   5.764 -12.395  0.00  0.00     0.268 C 
ATOM     19  N   UNL d   1       9.443   5.122 -11.505  0.00  0.00     0.142 N 
ATOM     20  C   UNL d   1       9.004   5.241 -10.120  0.00  0.00     0.285 C 
ATOM     21  C   UNL d   1       9.559   3.725 -11.903  0.00  0.00     0.268 C 
ATOM     22  C   UNL d   1      10.020   3.527 -13.330  0.00  0.00     0.112 C 
ENDBRANCH   1  16
BRANCH  13  23
ATOM     23  C   UNL d   1       6.635   0.084 -16.617  0.00  0.00     0.080 A 
ATOM     24  N   UNL d   1       5.908  -0.354 -15.518  0.00  0.00    -0.249 N 
ATOM     25  N   UNL d   1       4.699  -0.815 -15.888  0.00  0.00    -0.168 NA
ATOM     26  C   UNL d   1       6.279  -0.380 -14.122  0.00  0.00     0.154 C 
ATOM     27  C   UNL d   1       4.676  -0.715 -17.206  0.00  0.00     0.122 A 
ATOM     28  C   UNL d   1       5.866  -0.127 -17.725  0.00  0.00     0.041 A 
ENDBRANCH  13  23
TORSDOF 2
