REMARK  2 active torsions:
REMARK  status: ('A' for Active; 'I' for Inactive)
REMARK    1  A    between atoms: N_5  and  C_6 
REMARK    2  A    between atoms: C_6  and  C_7 
ROOT
ATOM      1  C   UNL d   1      11.017   7.895  -6.273  0.00  0.00     0.032 A 
ATOM      2  C   UNL d   1      10.746   9.201  -6.585  0.00  0.00     0.097 A 
ATOM      3  N   UNL d   1      11.061  10.005  -5.505  0.00  0.00    -0.244 NA
ATOM      4  C   UNL d   1      11.476   9.238  -4.442  0.00  0.00     0.081 A 
ATOM      5  C   UNL d   1      11.862   9.583  -3.138  0.00  0.00     0.019 A 
ATOM      6  C   UNL d   1      12.260   8.575  -2.247  0.00  0.00     0.002 A 
ATOM      7  C   UNL d   1      12.252   7.229  -2.662  0.00  0.00     0.000 A 
ATOM      8  C   UNL d   1      11.857   6.894  -3.976  0.00  0.00     0.001 A 
ATOM      9  C   UNL d   1      11.460   7.888  -4.902  0.00  0.00     0.017 A 
ENDROOT
BRANCH   1  10
ATOM     10  C   UNL d   1      10.844   6.697  -7.153  0.00  0.00     0.278 C 
BRANCH  10  11
ATOM     11  N   UNL d   1      10.051   6.786  -8.377  0.00  0.00     0.141 N 
ATOM     12  C   UNL d   1       9.655   5.451  -8.835  0.00  0.00     0.251 C 
ATOM     13  C   UNL d   1       8.729   5.538 -10.062  0.00  0.00     0.035 C 
ATOM     14  C   UNL d   1       9.384   6.327 -11.210  0.00  0.00     0.004 C 
ATOM     15  C   UNL d   1       8.434   6.515 -12.401  0.00  0.00     0.000 C 
ATOM     16  C   UNL d   1       9.886   7.677 -10.666  0.00  0.00     0.035 C 
ATOM     17  C   UNL d   1      10.787   7.473  -9.441  0.00  0.00     0.251 C 
ENDBRANCH  10  11
ENDBRANCH   1  10
TORSDOF 2
