REMARK  7 active torsions:
REMARK  status: ('A' for Active; 'I' for Inactive)
REMARK    1  A    between atoms: C_2  and  C_3 
REMARK    2  A    between atoms: C_3  and  N_4 
REMARK    3  A    between atoms: N_4  and  C_5 
REMARK    4  A    between atoms: N_4  and  C_21 
REMARK    5  A    between atoms: C_5  and  C_6 
REMARK    6  A    between atoms: C_6  and  N_7 
REMARK    7  A    between atoms: N_10  and  C_11 
ROOT
ATOM      1  C   UNL d   1       9.915   6.415  -9.909  0.00  0.00     0.285 C 
ENDROOT
BRANCH   1   2
ATOM      2  N   UNL d   1       9.632   7.487  -8.941  0.00  0.00     0.137 N 
BRANCH   2   3
ATOM      3  C   UNL d   1       9.687   8.819  -9.589  0.00  0.00     0.250 C 
BRANCH   3   4
ATOM      4  C   UNL d   1      11.053   9.289 -10.128  0.00  0.00     0.035 C 
ATOM      5  C   UNL d   1      12.283   8.591  -9.563  0.00  0.00     0.002 C 
ENDBRANCH   3   4
ENDBRANCH   2   3
BRANCH   2   6
ATOM      6  C   UNL d   1      10.414   7.409  -7.684  0.00  0.00     0.224 C 
ATOM      7  C   UNL d   1      10.199   8.597  -6.727  0.00  0.00     0.059 C 
ATOM      8  C   UNL d   1      11.006   8.532  -5.456  0.00  0.00    -0.022 A 
ATOM      9  C   UNL d   1      11.601   7.333  -5.019  0.00  0.00    -0.026 A 
ATOM     10  C   UNL d   1      11.103   9.680  -4.668  0.00  0.00     0.023 A 
ATOM     11  C   UNL d   1      11.560   6.103  -5.882  0.00  0.00     0.028 C 
ATOM     12  C   UNL d   1      12.282   7.285  -3.788  0.00  0.00    -0.003 A 
ATOM     13  C   UNL d   1      10.446   6.100  -6.945  0.00  0.00     0.038 C 
ATOM     14  C   UNL d   1      12.393   8.425  -2.999  0.00  0.00     0.027 A 
ATOM     15  C   UNL d   1      11.790   9.585  -3.460  0.00  0.00     0.131 A 
ATOM     16  O   UNL d   1      11.876  10.655  -2.694  0.00  0.00    -0.190 OA
ENDBRANCH   2   6
ENDBRANCH   1   2
BRANCH   1  17
ATOM     17  C   UNL d   1       8.921   6.301 -11.049  0.00  0.00     0.286 C 
BRANCH  17  18
ATOM     18  N   UNL d   1       9.434   5.622 -12.220  0.00  0.00     0.143 N 
ATOM     19  C   UNL d   1       9.589   4.195 -11.961  0.00  0.00     0.274 C 
ATOM     20  C   UNL d   1      10.132   3.446 -13.184  0.00  0.00     0.137 C 
ATOM     21  N   UNL d   1       9.277   3.716 -14.330  0.00  0.00    -0.344 N 
ATOM     22  C   UNL d   1       9.020   5.118 -14.614  0.00  0.00     0.137 C 
ATOM     23  C   UNL d   1       8.511   5.802 -13.339  0.00  0.00     0.274 C 
BRANCH  21  24
ATOM     24  C   UNL d   1       8.745   2.691 -15.127  0.00  0.00     0.068 A 
ATOM     25  C   UNL d   1       9.301   2.397 -16.396  0.00  0.00     0.084 A 
ATOM     26  C   UNL d   1       8.742   1.367 -17.189  0.00  0.00     0.070 A 
ATOM     27 CL   UNL d   1      10.672   3.284 -16.974  0.00  0.00    -0.080 Cl
ATOM     28  C   UNL d   1       7.630   0.641 -16.723  0.00  0.00     0.012 A 
ATOM     29 CL   UNL d   1       9.408   0.982 -18.736  0.00  0.00    -0.081 Cl
ATOM     30  C   UNL d   1       7.070   0.935 -15.466  0.00  0.00     0.002 A 
ATOM     31  C   UNL d   1       7.627   1.957 -14.671  0.00  0.00     0.018 A 
ENDBRANCH  21  24
ENDBRANCH  17  18
ENDBRANCH   1  17
TORSDOF 7
