REMARK  6 active torsions:
REMARK  status: ('A' for Active; 'I' for Inactive)
REMARK    1  A    between atoms: C_2  and  O_4 
REMARK    2  A    between atoms: O_4  and  C_5 
REMARK    3  A    between atoms: C_10  and  N_11 
REMARK    4  A    between atoms: N_14  and  C_15 
REMARK    5  A    between atoms: C_18  and  N_19 
REMARK       I    between atoms: N_19  and  C_20 
REMARK       I    between atoms: C_20  and  N_22 
REMARK    6  A    between atoms: N_22  and  C_23 
ROOT
ATOM      1  C   UNL d   1       9.499   5.757 -10.958  0.00  0.00     0.220 C 
ATOM      2  C   UNL d   1       8.861   5.070  -9.715  0.00  0.00     0.035 C 
ATOM      3  C   UNL d   1       9.421   5.574  -8.418  0.00  0.00     0.026 C 
ATOM      4  C   UNL d   1       9.253   7.098  -8.408  0.00  0.00     0.108 C 
ATOM      5  C   UNL d   1       9.850   7.855  -9.619  0.00  0.00     0.026 C 
ATOM      6  C   UNL d   1       9.389   7.280 -10.983  0.00  0.00     0.035 C 
ENDROOT
BRANCH   1   7
ATOM      7  N   UNL d   1       9.065   5.209 -12.252  0.00  0.00     0.139 N 
ATOM      8  C   UNL d   1       9.688   3.893 -12.490  0.00  0.00     0.274 C 
ATOM      9  C   UNL d   1       9.270   3.274 -13.840  0.00  0.00     0.137 C 
ATOM     10  N   UNL d   1       7.827   3.250 -13.913  0.00  0.00    -0.343 N 
ATOM     11  C   UNL d   1       7.179   4.525 -13.660  0.00  0.00     0.137 C 
ATOM     12  C   UNL d   1       7.598   5.058 -12.300  0.00  0.00     0.274 C 
BRANCH  10  13
ATOM     13  C   UNL d   1       7.070   2.156 -14.360  0.00  0.00     0.079 A 
ATOM     14  C   UNL d   1       7.460   1.406 -15.505  0.00  0.00     0.109 A 
ATOM     15  C   UNL d   1       6.668   0.305 -15.885  0.00  0.00     0.026 A 
ATOM     16  C   UNL d   1       5.528  -0.055 -15.142  0.00  0.00     0.002 A 
ATOM     17  C   UNL d   1       5.146   0.702 -14.005  0.00  0.00     0.002 A 
ATOM     18  C   UNL d   1       5.913   1.815 -13.655  0.00  0.00     0.019 A 
BRANCH  14  19
ATOM     19  O   UNL d   1       8.593   1.839 -16.180  0.00  0.00    -0.332 OA
BRANCH  19  20
ATOM     20  C   UNL d   1       9.121   1.095 -17.260  0.00  0.00     0.122 C 
ATOM     21  C   UNL d   1      10.638   1.320 -17.249  0.00  0.00     0.033 C 
ATOM     22  C   UNL d   1       8.475   1.616 -18.550  0.00  0.00     0.033 C 
ENDBRANCH  19  20
ENDBRANCH  14  19
ENDBRANCH  10  13
ENDBRANCH   1   7
BRANCH   4  23
ATOM     23  N   UNL d   1       9.598   7.751  -7.162  0.00  0.00    -0.219 NA
ATOM     24  C   UNL d   1      10.799   7.648  -6.588  0.00  0.00     0.364 C 
ATOM     25  O   UNL d   1      11.652   6.839  -6.906  0.00  0.00    -0.243 OA
ATOM     26  N   UNL d   1      10.936   8.546  -5.603  0.00  0.00    -0.189 NA
BRANCH  26  27
ATOM     27  C   UNL d   1      11.553   8.239  -4.386  0.00  0.00     0.116 A 
ATOM     28  C   UNL d   1      11.612   9.327  -3.524  0.00  0.00     0.158 A 
ATOM     29  C   UNL d   1      12.184   9.196  -2.246  0.00  0.00     0.034 A 
ATOM     30  F   UNL d   1      11.014  10.464  -3.939  0.00  0.00    -0.203 F 
ATOM     31  C   UNL d   1      12.645   7.942  -1.826  0.00  0.00     0.032 A 
ATOM     32  C   UNL d   1      12.555   6.828  -2.678  0.00  0.00     0.142 A 
ATOM     33  C   UNL d   1      11.999   6.959  -3.967  0.00  0.00     0.051 A 
ATOM     34  F   UNL d   1      13.056   5.657  -2.252  0.00  0.00    -0.204 F 
ENDBRANCH  26  27
ENDBRANCH   4  23
TORSDOF 6
