REMARK  8 active torsions:
REMARK  status: ('A' for Active; 'I' for Inactive)
REMARK    1  A    between atoms: O_2  and  C_3 
REMARK    2  A    between atoms: C_4  and  C_5 
REMARK       I    between atoms: C_5  and  N_7 
REMARK    3  A    between atoms: N_7  and  C_8 
REMARK    4  A    between atoms: C_8  and  C_9 
REMARK    5  A    between atoms: C_9  and  C_10 
REMARK    6  A    between atoms: C_10  and  C_11 
REMARK    7  A    between atoms: C_11  and  N_12 
REMARK    8  A    between atoms: N_15  and  C_16 
ROOT
ATOM      1  C   UNL d   1       8.835   4.934 -12.460  0.00  0.00     0.129 C 
ENDROOT
BRANCH   1   2
ATOM      2  N   UNL d   1       9.046   6.048 -11.537  0.00  0.00    -0.234 NA
ATOM      3  C   UNL d   1       8.966   5.902 -10.200  0.00  0.00     0.277 C 
ATOM      4  O   UNL d   1       8.427   4.924  -9.691  0.00  0.00    -0.266 OA
BRANCH   3   5
ATOM      5  C   UNL d   1       9.775   6.891  -9.423  0.00  0.00     0.080 A 
ATOM      6  C   UNL d   1       9.476   7.411  -8.137  0.00  0.00     0.099 A 
ATOM      7  C   UNL d   1      10.410   8.174  -7.444  0.00  0.00     0.023 A 
ATOM      8  C   UNL d   1      11.684   8.407  -7.991  0.00  0.00     0.008 A 
ATOM      9  C   UNL d   1      10.060   8.775  -6.218  0.00  0.00     0.002 C 
ATOM     10  C   UNL d   1      11.998   7.916  -9.267  0.00  0.00     0.035 A 
ATOM     11  C   UNL d   1      12.608   9.111  -7.231  0.00  0.00     0.001 C 
ATOM     12  C   UNL d   1      11.040   7.179  -9.950  0.00  0.00     0.013 A 
ATOM     13 BR   UNL d   1      13.738   7.989 -10.044  0.00  0.00    -0.049 Br
ATOM     14  C   UNL d   1      12.253   9.738  -6.034  0.00  0.00     0.000 C 
ATOM     15  C   UNL d   1      10.962   9.579  -5.513  0.00  0.00     0.000 C 
BRANCH   6  16
ATOM     16  O   UNL d   1       8.296   7.242  -7.506  0.00  0.00    -0.328 OA
ATOM     17  C   UNL d   1       8.193   6.085  -6.771  0.00  0.00     0.181 C 
ENDBRANCH   6  16
ENDBRANCH   3   5
ENDBRANCH   1   2
BRANCH   1  18
ATOM     18  C   UNL d   1       7.385   4.384 -12.401  0.00  0.00     0.029 C 
BRANCH  18  19
ATOM     19  C   UNL d   1       6.932   3.829 -13.743  0.00  0.00     0.037 C 
BRANCH  19  20
ATOM     20  C   UNL d   1       7.447   2.419 -14.059  0.00  0.00     0.251 C 
BRANCH  20  21
ATOM     21  N   UNL d   1       7.062   1.994 -15.393  0.00  0.00     0.141 N 
ATOM     22  C   UNL d   1       8.179   1.306 -16.045  0.00  0.00     0.274 C 
ATOM     23  C   UNL d   1       7.794   0.862 -17.452  0.00  0.00     0.137 C 
ATOM     24  N   UNL d   1       6.603   0.025 -17.427  0.00  0.00    -0.344 N 
ATOM     25  C   UNL d   1       5.473   0.569 -16.712  0.00  0.00     0.137 C 
ATOM     26  C   UNL d   1       5.937   1.036 -15.311  0.00  0.00     0.274 C 
BRANCH  24  27
ATOM     27  C   UNL d   1       6.522  -1.239 -18.081  0.00  0.00     0.068 A 
ATOM     28  C   UNL d   1       7.085  -1.518 -19.372  0.00  0.00     0.084 A 
ATOM     29  C   UNL d   1       7.029  -2.819 -19.886  0.00  0.00     0.070 A 
ATOM     30 CL   UNL d   1       7.799  -0.293 -20.381  0.00  0.00    -0.080 Cl
ATOM     31  C   UNL d   1       6.377  -3.843 -19.186  0.00  0.00     0.012 A 
ATOM     32 CL   UNL d   1       7.726  -3.172 -21.422  0.00  0.00    -0.081 Cl
ATOM     33  C   UNL d   1       5.771  -3.577 -17.950  0.00  0.00     0.002 A 
ATOM     34  C   UNL d   1       5.827  -2.287 -17.414  0.00  0.00     0.018 A 
ENDBRANCH  24  27
ENDBRANCH  20  21
ENDBRANCH  19  20
ENDBRANCH  18  19
ENDBRANCH   1  18
TORSDOF 8
