REMARK  9 active torsions:
REMARK  status: ('A' for Active; 'I' for Inactive)
REMARK    1  A    between atoms: C_2  and  C_5 
REMARK    2  A    between atoms: C_7  and  N_8 
REMARK    3  A    between atoms: N_11  and  C_12 
REMARK    4  A    between atoms: C_12  and  C_13 
REMARK    5  A    between atoms: C_13  and  C_14 
REMARK    6  A    between atoms: C_14  and  C_15 
REMARK    7  A    between atoms: C_15  and  N_16 
REMARK       I    between atoms: N_16  and  C_17 
REMARK    8  A    between atoms: C_17  and  C_19 
REMARK    9  A    between atoms: C_31  and  C_32 
ROOT
ATOM      1  N   UNL d   1       8.531   2.732 -15.752  0.00  0.00    -0.330 N 
ATOM      2  C   UNL d   1       7.609   2.869 -14.636  0.00  0.00     0.138 C 
ATOM      3  C   UNL d   1       8.394   3.236 -13.388  0.00  0.00     0.274 C 
ATOM      4  N   UNL d   1       9.181   4.457 -13.584  0.00  0.00     0.141 N 
ATOM      5  C   UNL d   1      10.167   4.192 -14.645  0.00  0.00     0.274 C 
ATOM      6  C   UNL d   1       9.448   3.854 -15.957  0.00  0.00     0.138 C 
ENDROOT
BRANCH   4   7
ATOM      7  C   UNL d   1       9.896   4.751 -12.346  0.00  0.00     0.251 C 
BRANCH   7   8
ATOM      8  C   UNL d   1       8.995   5.204 -11.178  0.00  0.00     0.037 C 
BRANCH   8   9
ATOM      9  C   UNL d   1       9.783   5.470  -9.885  0.00  0.00     0.029 C 
BRANCH   9  10
ATOM     10  C   UNL d   1       8.867   5.966  -8.761  0.00  0.00     0.129 C 
BRANCH  10  11
ATOM     11  N   UNL d   1       9.628   6.396  -7.599  0.00  0.00    -0.233 NA
ATOM     12  C   UNL d   1      10.054   7.646  -7.377  0.00  0.00     0.294 C 
ATOM     13  O   UNL d   1       9.905   8.581  -8.165  0.00  0.00    -0.264 OA
BRANCH  12  14
ATOM     14  C   UNL d   1      10.691   7.833  -6.052  0.00  0.00     0.158 A 
ATOM     15  N   UNL d   1      11.178   6.784  -5.276  0.00  0.00    -0.220 NA
ATOM     16  C   UNL d   1      11.653   7.343  -4.168  0.00  0.00     0.168 A 
ATOM     17  N   UNL d   1      11.470   8.748  -4.210  0.00  0.00    -0.285 N 
ATOM     18  C   UNL d   1      12.257   6.808  -2.993  0.00  0.00     0.136 A 
ATOM     19  C   UNL d   1      10.873   9.030  -5.425  0.00  0.00     0.106 A 
ATOM     20  C   UNL d   1      11.855   9.543  -3.181  0.00  0.00     0.102 A 
ATOM     21  C   UNL d   1      12.421   8.918  -2.103  0.00  0.00     0.118 A 
ATOM     22  N   UNL d   1      12.622   7.567  -2.006  0.00  0.00    -0.238 NA
ENDBRANCH  12  14
ENDBRANCH  10  11
ENDBRANCH   9  10
ENDBRANCH   8   9
ENDBRANCH   7   8
ENDBRANCH   4   7
BRANCH   1  23
ATOM     23  C   UNL d   1       8.468   1.610 -16.592  0.00  0.00     0.143 A 
ATOM     24  N   UNL d   1       7.302   0.930 -16.648  0.00  0.00    -0.214 NA
ATOM     25  C   UNL d   1       7.243  -0.169 -17.404  0.00  0.00     0.140 A 
ATOM     26  N   UNL d   1       8.236  -0.604 -18.181  0.00  0.00    -0.227 NA
ATOM     27  C   UNL d   1       9.400   0.075 -18.162  0.00  0.00     0.157 A 
ATOM     28  C   UNL d   1       9.579   1.207 -17.348  0.00  0.00     0.060 A 
BRANCH  25  29
ATOM     29  C   UNL d   1       5.872  -0.847 -17.560  0.00  0.00     0.052 C 
ATOM     30  C   UNL d   1       5.176  -0.991 -16.189  0.00  0.00     0.008 C 
ATOM     31  C   UNL d   1       6.003  -2.276 -18.138  0.00  0.00     0.008 C 
ATOM     32  C   UNL d   1       4.999  -0.007 -18.507  0.00  0.00     0.008 C 
ENDBRANCH  25  29
BRANCH  27  33
ATOM     33  C   UNL d   1      10.537  -0.478 -18.996  0.00  0.00     0.435 C 
ATOM     34  F   UNL d   1      11.545   0.391 -19.104  0.00  0.00    -0.165 F 
ATOM     35  F   UNL d   1      10.979  -1.568 -18.379  0.00  0.00    -0.165 F 
ATOM     36  F   UNL d   1      10.115  -0.796 -20.218  0.00  0.00    -0.165 F 
ENDBRANCH  27  33
ENDBRANCH   1  23
TORSDOF 9
