REMARK  5 active torsions:
REMARK  status: ('A' for Active; 'I' for Inactive)
REMARK    1  A    between atoms: C_2  and  C_3 
REMARK    2  A    between atoms: C_2  and  N_12 
REMARK    3  A    between atoms: C_3  and  C_5 
REMARK    4  A    between atoms: C_15  and  C_16 
REMARK    5  A    between atoms: C_16  and  C_17 
ROOT
ATOM      1  N   UNL d   1       8.697   5.997 -10.027  0.00  0.00     0.138 N 
ATOM      2  C   UNL d   1       9.733   6.882 -10.607  0.00  0.00     0.250 C 
ATOM      3  C   UNL d   1       9.978   8.150  -9.778  0.00  0.00     0.036 C 
ATOM      4  C   UNL d   1      10.301   7.766  -8.324  0.00  0.00     0.008 C 
ATOM      5  C   UNL d   1       9.178   6.862  -7.768  0.00  0.00     0.036 C 
ATOM      6  C   UNL d   1       9.011   5.624  -8.651  0.00  0.00     0.250 C 
ENDROOT
BRANCH   1   7
ATOM      7  C   UNL d   1       8.370   4.836 -10.875  0.00  0.00     0.254 C 
ATOM      8  C   UNL d   1       9.633   4.051 -11.299  0.00  0.00     0.038 C 
BRANCH   7   9
ATOM      9  C   UNL d   1       7.493   5.239 -12.095  0.00  0.00     0.206 C 
ATOM     10  O   UNL d   1       6.388   5.997 -11.639  0.00  0.00    -0.216 OA
BRANCH   9  11
ATOM     11  C   UNL d   1       7.030   4.026 -12.893  0.00  0.00     0.010 A 
ATOM     12  C   UNL d   1       5.852   3.332 -12.536  0.00  0.00     0.000 A 
ATOM     13  C   UNL d   1       5.472   2.171 -13.230  0.00  0.00     0.027 A 
ATOM     14  C   UNL d   1       6.263   1.691 -14.296  0.00  0.00     0.131 A 
ATOM     15  C   UNL d   1       7.438   2.387 -14.660  0.00  0.00     0.027 A 
ATOM     16  O   UNL d   1       5.889   0.566 -14.967  0.00  0.00    -0.190 OA
ATOM     17  C   UNL d   1       7.812   3.549 -13.967  0.00  0.00     0.000 A 
ENDBRANCH   9  11
ENDBRANCH   7   9
ENDBRANCH   1   7
BRANCH   4  18
ATOM     18  C   UNL d   1      10.539   9.012  -7.450  0.00  0.00     0.026 C 
BRANCH  18  19
ATOM     19  C   UNL d   1      11.048   8.741  -6.029  0.00  0.00    -0.022 A 
ATOM     20  C   UNL d   1      11.452   7.448  -5.623  0.00  0.00    -0.004 A 
ATOM     21  C   UNL d   1      11.846   7.223  -4.282  0.00  0.00    -0.000 A 
ATOM     22  C   UNL d   1      11.883   8.287  -3.359  0.00  0.00    -0.000 A 
ATOM     23  C   UNL d   1      11.510   9.583  -3.766  0.00  0.00    -0.000 A 
ATOM     24  C   UNL d   1      11.084   9.808  -5.103  0.00  0.00    -0.004 A 
ENDBRANCH  18  19
ENDBRANCH   4  18
TORSDOF 5
