REMARK  6 active torsions:
REMARK  status: ('A' for Active; 'I' for Inactive)
REMARK    1  A    between atoms: N_12  and  C_13 
REMARK    2  A    between atoms: C_13  and  C_14 
REMARK    3  A    between atoms: C_14  and  C_15 
REMARK    4  A    between atoms: C_15  and  C_16 
REMARK    5  A    between atoms: C_16  and  N_17 
REMARK    6  A    between atoms: N_20  and  C_21 
ROOT
ATOM      1  C   UNL d   1       9.894   2.981 -15.502  0.00  0.00     0.251 C 
ENDROOT
BRANCH   1   2
ATOM      2  C   UNL d   1       8.939   2.136 -16.353  0.00  0.00     0.037 C 
BRANCH   2   3
ATOM      3  C   UNL d   1       9.676   1.221 -17.342  0.00  0.00     0.027 C 
BRANCH   3   4
ATOM      4  C   UNL d   1       8.855   0.857 -18.595  0.00  0.00     0.112 C 
BRANCH   4   5
ATOM      5  N   UNL d   1       7.716  -0.017 -18.297  0.00  0.00    -0.271 N 
ATOM      6  C   UNL d   1       6.526   0.421 -17.864  0.00  0.00     0.239 A 
ATOM      7  O   UNL d   1       6.220   1.585 -17.683  0.00  0.00    -0.272 OA
ATOM      8  C   UNL d   1       5.560  -0.733 -17.626  0.00  0.00     0.088 A 
ATOM      9  C   UNL d   1       6.378  -1.960 -18.058  0.00  0.00     0.088 A 
ATOM     10  C   UNL d   1       4.355  -0.762 -18.597  0.00  0.00     0.009 C 
ATOM     11  C   UNL d   1       5.534  -2.541 -19.218  0.00  0.00     0.009 C 
ATOM     12  C   UNL d   1       7.717  -1.349 -18.468  0.00  0.00     0.239 A 
ATOM     13  C   UNL d   1       4.259  -3.165 -18.614  0.00  0.00     0.001 C 
ATOM     14  C   UNL d   1       4.952  -1.300 -19.898  0.00  0.00     0.001 C 
ATOM     15  C   UNL d   1       3.447  -1.929 -18.183  0.00  0.00     0.001 C 
ATOM     16  O   UNL d   1       8.656  -2.013 -18.889  0.00  0.00    -0.272 OA
ENDBRANCH   4   5
ENDBRANCH   3   4
ENDBRANCH   2   3
ENDBRANCH   1   2
BRANCH   1  17
ATOM     17  N   UNL d   1       9.135   3.882 -14.647  0.00  0.00     0.141 N 
ATOM     18  C   UNL d   1       8.732   3.197 -13.414  0.00  0.00     0.274 C 
ATOM     19  C   UNL d   1       7.933   4.143 -12.495  0.00  0.00     0.137 C 
ATOM     20  N   UNL d   1       8.752   5.310 -12.165  0.00  0.00    -0.344 N 
ATOM     21  C   UNL d   1       9.187   5.981 -13.371  0.00  0.00     0.137 C 
ATOM     22  C   UNL d   1       9.976   5.021 -14.276  0.00  0.00     0.274 C 
BRANCH  20  23
ATOM     23  C   UNL d   1       8.995   5.790 -10.865  0.00  0.00     0.057 A 
ATOM     24  C   UNL d   1       9.804   6.933 -10.613  0.00  0.00     0.023 A 
ATOM     25  C   UNL d   1      10.057   7.376  -9.303  0.00  0.00     0.031 A 
ATOM     26  C   UNL d   1       9.491   6.720  -8.167  0.00  0.00     0.007 A 
ATOM     27  S   UNL d   1      11.037   8.753  -8.812  0.00  0.00    -0.086 SA
ATOM     28  C   UNL d   1       8.678   5.602  -8.430  0.00  0.00     0.002 A 
ATOM     29  C   UNL d   1       9.877   7.347  -6.919  0.00  0.00     0.007 A 
ATOM     30  C   UNL d   1       8.432   5.152  -9.730  0.00  0.00     0.017 A 
ATOM     31  C   UNL d   1      10.694   8.432  -7.137  0.00  0.00     0.035 A 
ENDBRANCH  20  23
ENDBRANCH   1  17
TORSDOF 6
