REMARK  1 active torsions:
REMARK  status: ('A' for Active; 'I' for Inactive)
REMARK    1  A    between atoms: C_11  and  N_12 
ROOT
ATOM      1  C   UNL d   1      11.785   2.578 -14.446  0.00  0.00     0.031 C 
ATOM      2  C   UNL d   1      10.733   3.438 -13.805  0.00  0.00    -0.026 C 
ATOM      3  C   UNL d   1       9.490   3.630 -14.268  0.00  0.00    -0.004 C 
ATOM      4  C   UNL d   1       8.612   4.556 -13.560  0.00  0.00    -0.000 A 
ATOM      5  C   UNL d   1       9.097   5.813 -13.162  0.00  0.00    -0.000 A 
ATOM      6  C   UNL d   1       8.261   6.727 -12.489  0.00  0.00    -0.000 A 
ATOM      7  C   UNL d   1       6.934   6.366 -12.188  0.00  0.00     0.000 A 
ATOM      8  C   UNL d   1       6.462   5.093 -12.535  0.00  0.00     0.000 A 
ATOM      9  C   UNL d   1       7.286   4.191 -13.237  0.00  0.00     0.001 A 
ATOM     10  C   UNL d   1       6.724   2.873 -13.562  0.00  0.00     0.017 C 
ATOM     11  C   UNL d   1       6.977   2.049 -14.592  0.00  0.00     0.056 C 
ATOM     12  C   UNL d   1       7.882   2.383 -15.737  0.00  0.00     0.015 A 
ATOM     13  C   UNL d   1       7.483   2.034 -17.047  0.00  0.00     0.001 A 
ATOM     14  C   UNL d   1       8.278   2.341 -18.166  0.00  0.00     0.000 A 
ATOM     15  C   UNL d   1       9.462   3.077 -18.008  0.00  0.00     0.000 A 
ATOM     16  C   UNL d   1       9.848   3.484 -16.717  0.00  0.00     0.000 A 
ATOM     17  C   UNL d   1       9.078   3.143 -15.585  0.00  0.00     0.001 A 
ENDROOT
BRANCH  11  18
ATOM     18  N   UNL d   1       6.424   0.748 -14.606  0.00  0.00    -0.344 N 
ATOM     19  C   UNL d   1       5.243   0.333 -13.853  0.00  0.00     0.137 C 
ATOM     20  C   UNL d   1       4.228  -0.332 -14.781  0.00  0.00     0.274 C 
ATOM     21  N   UNL d   1       4.829  -1.473 -15.448  0.00  0.00     0.143 N 
ATOM     22  C   UNL d   1       5.960  -1.030 -16.248  0.00  0.00     0.274 C 
ATOM     23  C   UNL d   1       3.839  -2.010 -16.359  0.00  0.00     0.286 C 
ATOM     24  C   UNL d   1       7.000  -0.412 -15.283  0.00  0.00     0.137 C 
ENDBRANCH  11  18
TORSDOF 1
