REMARK  8 active torsions:
REMARK  status: ('A' for Active; 'I' for Inactive)
REMARK    1  A    between atoms: N_6  and  C_7 
REMARK    2  A    between atoms: C_7  and  C_8 
REMARK    3  A    between atoms: C_8  and  C_9 
REMARK    4  A    between atoms: C_9  and  C_10 
REMARK    5  A    between atoms: C_10  and  N_11 
REMARK    6  A    between atoms: N_14  and  C_15 
REMARK    7  A    between atoms: C_17  and  C_18 
REMARK    8  A    between atoms: C_23  and  C_24 
ROOT
ATOM      1  N   UNL d   1       8.183   3.595 -13.494  0.00  0.00     0.141 N 
ATOM      2  C   UNL d   1       6.899   3.040 -13.934  0.00  0.00     0.274 C 
ATOM      3  C   UNL d   1       7.125   1.762 -14.759  0.00  0.00     0.138 C 
ATOM      4  N   UNL d   1       8.030   2.026 -15.879  0.00  0.00    -0.330 N 
ATOM      5  C   UNL d   1       9.287   2.672 -15.493  0.00  0.00     0.138 C 
ATOM      6  C   UNL d   1       9.014   3.933 -14.655  0.00  0.00     0.274 C 
ENDROOT
BRANCH   4   7
ATOM      7  C   UNL d   1       7.709   1.752 -17.220  0.00  0.00     0.143 A 
ATOM      8  N   UNL d   1       8.511   2.273 -18.174  0.00  0.00    -0.214 NA
ATOM      9  C   UNL d   1       8.258   1.993 -19.460  0.00  0.00     0.140 A 
ATOM     10  N   UNL d   1       7.190   1.323 -19.894  0.00  0.00    -0.227 NA
ATOM     11  C   UNL d   1       6.364   0.789 -18.969  0.00  0.00     0.157 A 
ATOM     12  C   UNL d   1       6.589   0.974 -17.590  0.00  0.00     0.060 A 
BRANCH   9  13
ATOM     13  C   UNL d   1       9.113   2.710 -20.522  0.00  0.00     0.052 C 
ATOM     14  C   UNL d   1       8.461   4.050 -20.914  0.00  0.00     0.008 C 
ATOM     15  C   UNL d   1       9.257   1.817 -21.775  0.00  0.00     0.008 C 
ATOM     16  C   UNL d   1      10.538   3.007 -19.999  0.00  0.00     0.008 C 
ENDBRANCH   9  13
BRANCH  11  17
ATOM     17  C   UNL d   1       5.175  -0.017 -19.478  0.00  0.00     0.435 C 
ATOM     18  F   UNL d   1       4.409  -0.447 -18.474  0.00  0.00    -0.165 F 
ATOM     19  F   UNL d   1       4.435   0.753 -20.275  0.00  0.00    -0.165 F 
ATOM     20  F   UNL d   1       5.606  -1.076 -20.164  0.00  0.00    -0.165 F 
ENDBRANCH  11  17
ENDBRANCH   4   7
BRANCH   1  21
ATOM     21  C   UNL d   1       7.936   4.758 -12.654  0.00  0.00     0.251 C 
BRANCH  21  22
ATOM     22  C   UNL d   1       9.256   5.333 -12.111  0.00  0.00     0.037 C 
BRANCH  22  23
ATOM     23  C   UNL d   1       9.052   5.964 -10.732  0.00  0.00     0.027 C 
BRANCH  23  24
ATOM     24  C   UNL d   1      10.057   7.066 -10.365  0.00  0.00     0.109 C 
BRANCH  24  25
ATOM     25  N   UNL d   1      10.098   7.394  -8.931  0.00  0.00    -0.295 N 
ATOM     26  C   UNL d   1       9.378   6.597  -8.021  0.00  0.00     0.078 A 
ATOM     27  C   UNL d   1       9.435   6.821  -6.699  0.00  0.00     0.019 A 
ATOM     28  C   UNL d   1      10.252   7.899  -6.198  0.00  0.00     0.002 A 
ATOM     29  C   UNL d   1      10.930   8.698  -7.053  0.00  0.00     0.034 A 
ATOM     30  C   UNL d   1      11.769   9.846  -6.521  0.00  0.00     0.036 C 
ATOM     31  C   UNL d   1      10.859   8.458  -8.513  0.00  0.00     0.257 A 
ATOM     32  O   UNL d   1      11.452   9.168  -9.331  0.00  0.00    -0.267 OA
ENDBRANCH  24  25
ENDBRANCH  23  24
ENDBRANCH  22  23
ENDBRANCH  21  22
ENDBRANCH   1  21
TORSDOF 8
