REMARK  5 active torsions:
REMARK  status: ('A' for Active; 'I' for Inactive)
REMARK    1  A    between atoms: O_2  and  C_3 
REMARK    2  A    between atoms: C_8  and  N_9 
REMARK    3  A    between atoms: N_12  and  C_13 
REMARK    4  A    between atoms: C_13  and  C_14 
REMARK    5  A    between atoms: C_25  and  S_26 
ROOT
ATOM      1  C   UNL d   1       7.075   0.547 -15.764  0.00  0.00     0.146 C 
ATOM      2  C   UNL d   1       5.864   0.437 -14.792  0.00  0.00     0.152 C 
ATOM      3  N   UNL d   1       5.900   1.595 -13.942  0.00  0.00    -0.252 NA
ATOM      4  C   UNL d   1       6.997   2.181 -14.258  0.00  0.00     0.142 A 
ATOM      5  C   UNL d   1       7.493   3.434 -13.646  0.00  0.00     0.052 A 
ATOM      6  C   UNL d   1       6.714   4.160 -12.728  0.00  0.00     0.004 A 
ATOM      7  C   UNL d   1       7.241   5.330 -12.150  0.00  0.00     0.000 A 
ATOM      8  C   UNL d   1       8.534   5.760 -12.508  0.00  0.00     0.002 A 
ATOM      9  C   UNL d   1       9.306   5.030 -13.431  0.00  0.00     0.019 A 
ATOM     10  C   UNL d   1       8.805   3.852 -14.012  0.00  0.00     0.086 A 
ATOM     11  N   UNL d   1       9.624   3.132 -14.916  0.00  0.00    -0.223 NA
ATOM     12  C   UNL d   1       9.144   2.056 -15.471  0.00  0.00     0.172 A 
ATOM     13  N   UNL d   1       7.842   1.641 -15.191  0.00  0.00    -0.291 N 
ENDROOT
BRANCH   1  14
ATOM     14  C   UNL d   1       6.668   0.855 -17.238  0.00  0.00     0.275 C 
BRANCH  14  15
ATOM     15  N   UNL d   1       6.310  -0.327 -18.046  0.00  0.00     0.143 N 
ATOM     16  C   UNL d   1       5.280  -1.149 -17.398  0.00  0.00     0.274 C 
ATOM     17  C   UNL d   1       4.857  -2.344 -18.239  0.00  0.00     0.137 C 
ATOM     18  N   UNL d   1       6.039  -3.118 -18.600  0.00  0.00    -0.343 N 
ATOM     19  C   UNL d   1       7.129  -2.341 -19.219  0.00  0.00     0.137 C 
ATOM     20  C   UNL d   1       7.494  -1.129 -18.354  0.00  0.00     0.274 C 
BRANCH  18  21
ATOM     21  C   UNL d   1       6.170  -4.458 -18.249  0.00  0.00     0.079 A 
ATOM     22  C   UNL d   1       6.724  -5.404 -19.165  0.00  0.00     0.110 A 
ATOM     23  C   UNL d   1       6.758  -6.783 -18.810  0.00  0.00     0.026 A 
ATOM     24  C   UNL d   1       6.275  -7.219 -17.568  0.00  0.00     0.002 A 
ATOM     25  C   UNL d   1       5.749  -6.306 -16.655  0.00  0.00     0.002 A 
ATOM     26  C   UNL d   1       5.696  -4.932 -16.991  0.00  0.00     0.019 A 
BRANCH  22  27
ATOM     27  O   UNL d   1       7.164  -4.946 -20.396  0.00  0.00    -0.327 OA
ATOM     28  C   UNL d   1       7.665  -5.874 -21.345  0.00  0.00     0.181 C 
ENDBRANCH  22  27
ENDBRANCH  18  21
ENDBRANCH  14  15
ENDBRANCH   1  14
BRANCH  12  29
ATOM     29  S   UNL d   1      10.047   0.949 -16.605  0.00  0.00    -0.076 SA
ATOM     30  C   UNL d   1      11.663   1.766 -16.712  0.00  0.00     0.077 C 
ENDBRANCH  12  29
TORSDOF 5
