REMARK  5 active torsions:
REMARK  status: ('A' for Active; 'I' for Inactive)
REMARK    1  A    between atoms: C_2  and  C_3 
REMARK       I    between atoms: C_2  and  N_18 
REMARK    2  A    between atoms: C_3  and  N_4 
REMARK    3  A    between atoms: N_7  and  C_8 
REMARK    4  A    between atoms: C_8  and  C_9 
REMARK    5  A    between atoms: C_23  and  N_24 
ROOT
ATOM      1  C   UNL d   1       8.974   5.177 -12.727  0.00  0.00     0.337 C 
ENDROOT
BRANCH   1   2
ATOM      2  C   UNL d   1       9.314   6.314 -11.783  0.00  0.00     0.272 C 
ATOM      3  O   UNL d   1       9.456   7.437 -12.279  0.00  0.00    -0.270 OA
ATOM      4  N   UNL d   1       9.392   6.039 -10.460  0.00  0.00    -0.298 N 
ATOM      5  C   UNL d   1       9.984   6.888  -9.501  0.00  0.00     0.059 A 
ATOM      6  C   UNL d   1       8.554   5.037  -9.781  0.00  0.00     0.114 A 
ATOM      7  C   UNL d   1       9.511   6.601  -8.232  0.00  0.00    -0.003 A 
ATOM      8  C   UNL d   1      10.905   7.929  -9.700  0.00  0.00     0.019 A 
ATOM      9  C   UNL d   1       8.598   5.405  -8.276  0.00  0.00     0.052 A 
ATOM     10  C   UNL d   1       9.848   7.389  -7.118  0.00  0.00     0.021 A 
ATOM     11  C   UNL d   1      10.711   8.506  -7.298  0.00  0.00     0.126 A 
ATOM     12  C   UNL d   1      11.233   8.740  -8.600  0.00  0.00     0.025 A 
BRANCH  11  13
ATOM     13  N   UNL d   1      11.061   9.394  -6.161  0.00  0.00    -0.114 N 
ATOM     14  O   UNL d   1      11.477  10.524  -6.409  0.00  0.00    -0.532 OA
ATOM     15  O   UNL d   1      10.948   8.961  -5.022  0.00  0.00    -0.532 OA
ENDBRANCH  11  13
ENDBRANCH   1   2
BRANCH   1  16
ATOM     16  N   UNL d   1       9.867   5.147 -13.906  0.00  0.00     0.151 N 
ATOM     17  C   UNL d   1      11.048   4.285 -13.773  0.00  0.00     0.286 C 
ATOM     18  C   UNL d   1      10.662   2.791 -13.744  0.00  0.00     0.286 C 
ATOM     19  N   UNL d   1       9.915   2.401 -14.935  0.00  0.00     0.146 N 
ATOM     20  C   UNL d   1       8.756   3.284 -15.084  0.00  0.00     0.286 C 
ATOM     21  C   UNL d   1       9.161   4.771 -15.123  0.00  0.00     0.286 C 
BRANCH  19  22
ATOM     22  C   UNL d   1       9.508   1.002 -14.867  0.00  0.00     0.277 C 
BRANCH  22  23
ATOM     23  C   UNL d   1       9.198   0.419 -16.233  0.00  0.00     0.011 A 
ATOM     24  C   UNL d   1      10.250  -0.064 -17.042  0.00  0.00    -0.002 A 
ATOM     25  C   UNL d   1       9.970  -0.629 -18.302  0.00  0.00     0.011 A 
ATOM     26  C   UNL d   1       8.642  -0.695 -18.764  0.00  0.00     0.058 A 
ATOM     27  C   UNL d   1       7.593  -0.200 -17.965  0.00  0.00     0.011 A 
ATOM     28 CL   UNL d   1       8.297  -1.370 -20.313  0.00  0.00    -0.082 Cl
ATOM     29  C   UNL d   1       7.870   0.356 -16.701  0.00  0.00    -0.002 A 
ENDBRANCH  22  23
ENDBRANCH  19  22
ENDBRANCH   1  16
TORSDOF 5
