REMARK  7 active torsions:
REMARK  status: ('A' for Active; 'I' for Inactive)
REMARK    1  A    between atoms: O_2  and  C_3 
REMARK    2  A    between atoms: N_13  and  C_14 
REMARK    3  A    between atoms: C_14  and  C_15 
REMARK    4  A    between atoms: C_15  and  C_16 
REMARK    5  A    between atoms: C_16  and  C_17 
REMARK    6  A    between atoms: C_17  and  N_18 
REMARK       I    between atoms: N_18  and  C_19 
REMARK    7  A    between atoms: C_19  and  C_21 
ROOT
ATOM      1  C   UNL d   1       5.565  -0.712 -15.555  0.00  0.00     0.094 A 
ATOM      2  C   UNL d   1       4.339  -0.668 -14.844  0.00  0.00     0.026 A 
ATOM      3  C   UNL d   1       4.121   0.325 -13.876  0.00  0.00     0.026 A 
ATOM      4  C   UNL d   1       5.111   1.277 -13.590  0.00  0.00     0.092 A 
ATOM      5  C   UNL d   1       6.325   1.244 -14.293  0.00  0.00     0.031 A 
ATOM      6  C   UNL d   1       6.556   0.240 -15.259  0.00  0.00     0.024 A 
ATOM      7  C   UNL d   1       7.367   2.327 -14.075  0.00  0.00     0.173 C 
ATOM      8  O   UNL d   1       8.042   2.740 -15.261  0.00  0.00    -0.348 OA
ATOM      9  C   UNL d   1       9.140   3.587 -14.937  0.00  0.00     0.178 C 
ATOM     10  C   UNL d   1       8.625   4.821 -14.185  0.00  0.00     0.282 C 
ATOM     11  N   UNL d   1       7.870   4.498 -12.964  0.00  0.00     0.143 N 
ATOM     12  C   UNL d   1       6.781   3.577 -13.336  0.00  0.00     0.280 C 
ATOM     13  C   UNL d   1       5.778   3.142 -12.220  0.00  0.00     0.185 C 
ATOM     14  O   UNL d   1       4.753   2.304 -12.750  0.00  0.00    -0.329 OA
ENDROOT
BRANCH  11  15
ATOM     15  C   UNL d   1       7.409   5.728 -12.296  0.00  0.00     0.251 C 
BRANCH  15  16
ATOM     16  C   UNL d   1       8.524   6.684 -11.821  0.00  0.00     0.037 C 
BRANCH  16  17
ATOM     17  C   UNL d   1       9.048   6.323 -10.423  0.00  0.00     0.029 C 
BRANCH  17  18
ATOM     18  C   UNL d   1      10.357   7.056 -10.119  0.00  0.00     0.129 C 
BRANCH  18  19
ATOM     19  N   UNL d   1      10.561   7.211  -8.693  0.00  0.00    -0.233 NA
ATOM     20  C   UNL d   1      10.167   8.288  -7.998  0.00  0.00     0.293 C 
ATOM     21  O   UNL d   1       9.489   9.187  -8.477  0.00  0.00    -0.264 OA
BRANCH  20  22
ATOM     22  C   UNL d   1      10.685   8.381  -6.623  0.00  0.00     0.139 A 
ATOM     23  N   UNL d   1      11.009   7.218  -5.944  0.00  0.00    -0.241 NA
ATOM     24  C   UNL d   1      11.463   7.508  -4.684  0.00  0.00     0.082 A 
ATOM     25  C   UNL d   1      11.437   8.928  -4.564  0.00  0.00     0.019 A 
ATOM     26  C   UNL d   1      11.883   6.683  -3.634  0.00  0.00     0.019 A 
ATOM     27  C   UNL d   1      10.934   9.455  -5.803  0.00  0.00     0.025 A 
ATOM     28  C   UNL d   1      11.860   9.477  -3.334  0.00  0.00     0.002 A 
ATOM     29  C   UNL d   1      12.290   8.652  -2.276  0.00  0.00     0.000 A 
ATOM     30  C   UNL d   1      12.299   7.254  -2.426  0.00  0.00     0.002 A 
ENDBRANCH  20  22
ENDBRANCH  18  19
ENDBRANCH  17  18
ENDBRANCH  16  17
ENDBRANCH  15  16
ENDBRANCH  11  15
BRANCH   1  31
ATOM     31  O   UNL d   1       5.851  -1.613 -16.560  0.00  0.00    -0.328 OA
ATOM     32  C   UNL d   1       4.981  -2.728 -16.683  0.00  0.00     0.181 C 
ENDBRANCH   1  31
TORSDOF 7
