REMARK  9 active torsions:
REMARK  status: ('A' for Active; 'I' for Inactive)
REMARK    1  A    between atoms: O_2  and  C_3 
REMARK    2  A    between atoms: C_8  and  N_9 
REMARK    3  A    between atoms: N_12  and  C_13 
REMARK    4  A    between atoms: C_13  and  C_14 
REMARK    5  A    between atoms: C_14  and  C_15 
REMARK    6  A    between atoms: C_15  and  C_16 
REMARK    7  A    between atoms: C_16  and  N_17 
REMARK       I    between atoms: N_17  and  C_18 
REMARK    8  A    between atoms: C_18  and  C_20 
REMARK    9  A    between atoms: C_21  and  C_22 
ROOT
ATOM      1  C   UNL d   1      10.186   3.227 -13.957  0.00  0.00     0.251 C 
ENDROOT
BRANCH   1   2
ATOM      2  N   UNL d   1       9.832   2.453 -15.158  0.00  0.00     0.141 N 
ATOM      3  C   UNL d   1       8.769   3.108 -15.936  0.00  0.00     0.274 C 
ATOM      4  C   UNL d   1       8.433   2.340 -17.226  0.00  0.00     0.137 C 
ATOM      5  N   UNL d   1       8.102   0.967 -16.886  0.00  0.00    -0.343 N 
ATOM      6  C   UNL d   1       9.087   0.284 -16.058  0.00  0.00     0.137 C 
ATOM      7  C   UNL d   1       9.405   1.098 -14.786  0.00  0.00     0.274 C 
BRANCH   5   8
ATOM      8  C   UNL d   1       6.868   0.387 -17.240  0.00  0.00     0.079 A 
ATOM      9  C   UNL d   1       6.070  -0.305 -16.297  0.00  0.00     0.110 A 
ATOM     10  C   UNL d   1       4.863  -0.928 -16.737  0.00  0.00     0.026 A 
ATOM     11  C   UNL d   1       4.452  -0.824 -18.077  0.00  0.00     0.002 A 
ATOM     12  C   UNL d   1       5.231  -0.110 -18.996  0.00  0.00     0.002 A 
ATOM     13  C   UNL d   1       6.437   0.494 -18.577  0.00  0.00     0.019 A 
BRANCH   9  14
ATOM     14  O   UNL d   1       6.483  -0.324 -14.980  0.00  0.00    -0.327 OA
ATOM     15  C   UNL d   1       5.814  -1.179 -14.070  0.00  0.00     0.181 C 
ENDBRANCH   9  14
ENDBRANCH   5   8
ENDBRANCH   1   2
BRANCH   1  16
ATOM     16  C   UNL d   1       8.987   3.926 -13.277  0.00  0.00     0.037 C 
BRANCH  16  17
ATOM     17  C   UNL d   1       9.364   4.617 -11.972  0.00  0.00     0.029 C 
BRANCH  17  18
ATOM     18  C   UNL d   1       8.117   5.160 -11.255  0.00  0.00     0.129 C 
BRANCH  18  19
ATOM     19  N   UNL d   1       8.470   5.990 -10.108  0.00  0.00    -0.234 NA
ATOM     20  C   UNL d   1       9.197   5.598  -9.059  0.00  0.00     0.275 C 
ATOM     21  O   UNL d   1       9.559   4.427  -8.884  0.00  0.00    -0.266 OA
BRANCH  20  22
ATOM     22  C   UNL d   1       9.495   6.709  -8.178  0.00  0.00     0.062 C 
ATOM     23  C   UNL d   1      10.384   6.554  -7.180  0.00  0.00     0.005 C 
BRANCH  23  24
ATOM     24  C   UNL d   1      10.791   7.574  -6.205  0.00  0.00     0.000 A 
ATOM     25  C   UNL d   1      11.460   7.175  -5.030  0.00  0.00     0.000 A 
ATOM     26  C   UNL d   1      11.860   8.122  -4.067  0.00  0.00     0.000 A 
ATOM     27  C   UNL d   1      11.573   9.484  -4.263  0.00  0.00     0.000 A 
ATOM     28  C   UNL d   1      10.906   9.896  -5.432  0.00  0.00     0.000 A 
ATOM     29  C   UNL d   1      10.510   8.946  -6.396  0.00  0.00     0.000 A 
ENDBRANCH  23  24
ENDBRANCH  20  22
ENDBRANCH  18  19
ENDBRANCH  17  18
ENDBRANCH  16  17
ENDBRANCH   1  16
TORSDOF 9
