REMARK  7 active torsions:
REMARK  status: ('A' for Active; 'I' for Inactive)
REMARK    1  A    between atoms: S_2  and  N_4 
REMARK    2  A    between atoms: S_2  and  C_22 
REMARK    3  A    between atoms: N_4  and  C_5 
REMARK    4  A    between atoms: C_5  and  C_6 
REMARK    5  A    between atoms: C_6  and  C_7 
REMARK    6  A    between atoms: C_7  and  N_8 
REMARK    7  A    between atoms: N_11  and  C_12 
ROOT
ATOM      1  C   UNL d   1       9.599   6.153 -11.091  0.00  0.00     0.062 C 
ENDROOT
BRANCH   1   2
ATOM      2  C   UNL d   1      10.694   6.494 -10.045  0.00  0.00     0.141 C 
BRANCH   2   3
ATOM      3  N   UNL d   1      10.498   7.791  -9.414  0.00  0.00    -0.185 NA
BRANCH   3   4
ATOM      4  S   UNL d   1       9.414   7.819  -8.105  0.00  0.00     0.281 S 
ATOM      5  O   UNL d   1       8.770   9.153  -8.070  0.00  0.00    -0.199 OA
ATOM      6  O   UNL d   1       8.669   6.558  -8.099  0.00  0.00    -0.199 OA
BRANCH   4   7
ATOM      7  C   UNL d   1      10.450   7.730  -6.720  0.00  0.00     0.106 A 
ATOM      8  C   UNL d   1      10.483   8.814  -5.840  0.00  0.00     0.032 A 
ATOM      9  C   UNL d   1      11.223   8.699  -4.657  0.00  0.00     0.082 A 
ATOM     10  C   UNL d   1      11.877   7.475  -4.374  0.00  0.00     0.018 A 
ATOM     11  N   UNL d   1      11.263   9.750  -3.822  0.00  0.00    -0.244 NA
ATOM     12  C   UNL d   1      11.817   6.393  -5.269  0.00  0.00     0.002 A 
ATOM     13  C   UNL d   1      12.603   7.326  -3.183  0.00  0.00     0.003 A 
ATOM     14  C   UNL d   1      11.083   6.519  -6.455  0.00  0.00     0.013 A 
ATOM     15  C   UNL d   1      12.652   8.431  -2.326  0.00  0.00     0.021 A 
ATOM     16  C   UNL d   1      11.961   9.604  -2.683  0.00  0.00     0.099 A 
ENDBRANCH   4   7
ENDBRANCH   3   4
ENDBRANCH   2   3
ENDBRANCH   1   2
BRANCH   1  17
ATOM     17  C   UNL d   1       9.598   4.660 -11.494  0.00  0.00     0.253 C 
BRANCH  17  18
ATOM     18  N   UNL d   1       8.772   4.421 -12.664  0.00  0.00     0.141 N 
ATOM     19  C   UNL d   1       7.393   4.145 -12.260  0.00  0.00     0.274 C 
ATOM     20  C   UNL d   1       6.551   3.834 -13.507  0.00  0.00     0.137 C 
ATOM     21  N   UNL d   1       7.179   2.799 -14.350  0.00  0.00    -0.344 N 
ATOM     22  C   UNL d   1       8.576   3.029 -14.679  0.00  0.00     0.137 C 
ATOM     23  C   UNL d   1       9.376   3.312 -13.410  0.00  0.00     0.274 C 
BRANCH  21  24
ATOM     24  C   UNL d   1       6.501   1.635 -14.786  0.00  0.00     0.068 A 
ATOM     25  C   UNL d   1       6.641   1.131 -16.100  0.00  0.00     0.084 A 
ATOM     26  C   UNL d   1       5.886  -0.016 -16.505  0.00  0.00     0.070 A 
ATOM     27 CL   UNL d   1       7.587   1.931 -17.316  0.00  0.00    -0.080 Cl
ATOM     28  C   UNL d   1       5.005  -0.623 -15.609  0.00  0.00     0.012 A 
ATOM     29 CL   UNL d   1       5.997  -0.621 -18.120  0.00  0.00    -0.081 Cl
ATOM     30  C   UNL d   1       4.849  -0.120 -14.322  0.00  0.00     0.002 A 
ATOM     31  C   UNL d   1       5.613   1.007 -13.900  0.00  0.00     0.018 A 
ENDBRANCH  21  24
ENDBRANCH  17  18
ENDBRANCH   1  17
TORSDOF 7
