REMARK  5 active torsions:
REMARK  status: ('A' for Active; 'I' for Inactive)
REMARK    1  A    between atoms: C_7  and  C_8 
REMARK    2  A    between atoms: C_8  and  C_9 
REMARK    3  A    between atoms: C_9  and  C_10 
REMARK    4  A    between atoms: C_10  and  N_11 
REMARK    5  A    between atoms: N_14  and  C_15 
ROOT
ATOM      1  N   UNL d   1       7.141   4.059 -12.646  0.00  0.00     0.141 N 
ATOM      2  C   UNL d   1       5.880   3.531 -13.188  0.00  0.00     0.274 C 
ATOM      3  C   UNL d   1       6.046   2.051 -13.638  0.00  0.00     0.137 C 
ATOM      4  N   UNL d   1       7.176   1.936 -14.560  0.00  0.00    -0.344 N 
ATOM      5  C   UNL d   1       8.422   2.541 -14.103  0.00  0.00     0.137 C 
ATOM      6  C   UNL d   1       8.180   3.991 -13.681  0.00  0.00     0.274 C 
ENDROOT
BRANCH   1   7
ATOM      7  C   UNL d   1       6.926   5.427 -12.189  0.00  0.00     0.251 C 
BRANCH   7   8
ATOM      8  C   UNL d   1       8.195   6.105 -11.655  0.00  0.00     0.040 C 
BRANCH   8   9
ATOM      9  C   UNL d   1       8.645   5.539 -10.291  0.00  0.00     0.029 C 
BRANCH   9  10
ATOM     10  C   UNL d   1       9.508   6.490  -9.486  0.00  0.00    -0.021 A 
ATOM     11  C   UNL d   1      10.301   7.474 -10.143  0.00  0.00    -0.003 A 
ATOM     12  C   UNL d   1      11.079   8.404  -9.424  0.00  0.00     0.020 A 
ATOM     13  C   UNL d   1      11.027   8.311  -8.029  0.00  0.00     0.102 A 
ATOM     14  N   UNL d   1      11.660   9.060  -7.042  0.00  0.00    -0.216 NA
ATOM     15  C   UNL d   1      10.262   7.364  -7.382  0.00  0.00     0.101 A 
ATOM     16  C   UNL d   1      11.316   8.605  -5.807  0.00  0.00     0.221 A 
ATOM     17  S   UNL d   1      11.858   9.186  -4.349  0.00  0.00    -0.037 SA
ATOM     18  N   UNL d   1      10.460   7.574  -6.018  0.00  0.00    -0.216 NA
ATOM     19  C   UNL d   1       9.481   6.426  -8.071  0.00  0.00     0.017 A 
ENDBRANCH   9  10
ENDBRANCH   8   9
ENDBRANCH   7   8
ENDBRANCH   1   7
BRANCH   4  20
ATOM     20  C   UNL d   1       7.064   1.356 -15.838  0.00  0.00     0.056 A 
ATOM     21  C   UNL d   1       7.875   1.806 -16.909  0.00  0.00     0.018 A 
ATOM     22  C   UNL d   1       7.795   1.201 -18.178  0.00  0.00     0.013 A 
ATOM     23  C   UNL d   1       6.886   0.155 -18.399  0.00  0.00     0.058 A 
ATOM     24  C   UNL d   1       6.063  -0.295 -17.351  0.00  0.00     0.013 A 
ATOM     25 CL   UNL d   1       6.780  -0.567 -19.963  0.00  0.00    -0.082 Cl
ATOM     26  C   UNL d   1       6.154   0.301 -16.074  0.00  0.00     0.018 A 
ENDBRANCH   4  20
TORSDOF 5
