REMARK  10 active torsions:
REMARK  status: ('A' for Active; 'I' for Inactive)
REMARK    1  A    between atoms: O_2  and  C_3 
REMARK    2  A    between atoms: C_8  and  O_9 
REMARK    3  A    between atoms: O_9  and  C_10 
REMARK    4  A    between atoms: C_10  and  C_11 
REMARK    5  A    between atoms: C_11  and  N_12 
REMARK    6  A    between atoms: N_12  and  C_13 
REMARK    7  A    between atoms: C_13  and  C_14 
REMARK    8  A    between atoms: C_14  and  C_16 
REMARK    9  A    between atoms: C_16  and  O_17 
REMARK   10  A    between atoms: O_17  and  C_18 
ROOT
ATOM      1  C   UNL d   1       7.889   6.305 -11.799  0.00  0.00     0.206 C 
ATOM      2  O   UNL d   1       7.095   7.209 -12.520  0.00  0.00    -0.219 OA
ENDROOT
BRANCH   1   3
ATOM      3  C   UNL d   1       9.373   6.716 -11.895  0.00  0.00     0.155 C 
BRANCH   3   4
ATOM      4  N   UNL d   1      10.149   6.077 -10.826  0.00  0.00    -0.290 NA
BRANCH   4   5
ATOM      5  C   UNL d   1      10.657   6.978  -9.807  0.00  0.00     0.152 C 
BRANCH   5   6
ATOM      6  C   UNL d   1       9.480   7.439  -8.967  0.00  0.00     0.175 C 
BRANCH   6   7
ATOM      7  O   UNL d   1       9.857   8.421  -8.030  0.00  0.00    -0.327 OA
BRANCH   7   8
ATOM      8  C   UNL d   1      10.484   8.079  -6.868  0.00  0.00     0.116 A 
ATOM      9  C   UNL d   1      11.230   9.093  -6.227  0.00  0.00     0.116 A 
ATOM     10  C   UNL d   1      11.864   8.871  -4.986  0.00  0.00     0.026 A 
ATOM     11  C   UNL d   1      11.778   7.603  -4.383  0.00  0.00     0.002 A 
ATOM     12  C   UNL d   1      11.053   6.583  -5.039  0.00  0.00     0.002 A 
ATOM     13  C   UNL d   1      10.405   6.817  -6.260  0.00  0.00     0.026 A 
BRANCH   9  14
ATOM     14  O   UNL d   1      11.276  10.273  -6.921  0.00  0.00    -0.326 OA
ATOM     15  C   UNL d   1      11.958  11.305  -6.296  0.00  0.00     0.181 C 
ENDBRANCH   9  14
ENDBRANCH   7   8
ENDBRANCH   6   7
ENDBRANCH   5   6
ENDBRANCH   4   5
ENDBRANCH   3   4
ENDBRANCH   1   3
BRANCH   1  16
ATOM     16  C   UNL d   1       7.615   4.947 -12.449  0.00  0.00     0.184 C 
BRANCH  16  17
ATOM     17  O   UNL d   1       8.077   4.985 -13.811  0.00  0.00    -0.328 OA
BRANCH  17  18
ATOM     18  C   UNL d   1       8.976   4.023 -14.194  0.00  0.00     0.096 A 
ATOM     19  C   UNL d   1       8.590   2.656 -14.319  0.00  0.00     0.041 A 
ATOM     20  C   UNL d   1       9.576   1.708 -14.736  0.00  0.00     0.083 A 
ATOM     21  C   UNL d   1       7.352   1.909 -14.106  0.00  0.00     0.021 A 
ATOM     22  C   UNL d   1      10.909   2.112 -14.993  0.00  0.00     0.019 A 
ATOM     23  N   UNL d   1       8.992   0.449 -14.801  0.00  0.00    -0.245 NA
ATOM     24  C   UNL d   1      11.254   3.471 -14.891  0.00  0.00     0.004 A 
ATOM     25  C   UNL d   1      10.280   4.425 -14.545  0.00  0.00     0.024 A 
ATOM     26  C   UNL d   1       7.672   0.535 -14.387  0.00  0.00     0.081 A 
ATOM     27  C   UNL d   1       6.698  -0.476 -14.223  0.00  0.00     0.019 A 
ATOM     28  C   UNL d   1       5.400  -0.150 -13.817  0.00  0.00     0.002 A 
ATOM     29  C   UNL d   1       5.081   1.184 -13.515  0.00  0.00     0.000 A 
ATOM     30  C   UNL d   1       6.038   2.204 -13.678  0.00  0.00     0.002 A 
ENDBRANCH  17  18
ENDBRANCH  16  17
ENDBRANCH   1  16
TORSDOF 10
