REMARK  7 active torsions:
REMARK  status: ('A' for Active; 'I' for Inactive)
REMARK       I    between atoms: C_2  and  N_3 
REMARK    1  A    between atoms: C_2  and  C_23 
REMARK    2  A    between atoms: N_3  and  C_4 
REMARK    3  A    between atoms: C_4  and  C_5 
REMARK    4  A    between atoms: C_5  and  C_6 
REMARK    5  A    between atoms: C_6  and  C_8 
REMARK    6  A    between atoms: C_8  and  N_9 
REMARK    7  A    between atoms: N_12  and  C_13 
ROOT
ATOM      1  C   UNL d   1       8.508   7.292 -11.965  0.00  0.00     0.196 C 
ATOM      2  F   UNL d   1       8.518   8.536 -12.425  0.00  0.00    -0.235 F 
ENDROOT
BRANCH   1   3
ATOM      3  C   UNL d   1       9.448   7.133 -10.755  0.00  0.00     0.064 C 
BRANCH   3   4
ATOM      4  C   UNL d   1      10.017   8.468 -10.250  0.00  0.00     0.132 C 
BRANCH   4   5
ATOM      5  N   UNL d   1      10.662   8.403  -8.956  0.00  0.00    -0.234 NA
ATOM      6  C   UNL d   1      10.112   7.828  -7.876  0.00  0.00     0.275 C 
ATOM      7  O   UNL d   1       9.178   7.050  -7.902  0.00  0.00    -0.266 OA
BRANCH   6   8
ATOM      8  C   UNL d   1      10.709   8.254  -6.574  0.00  0.00     0.058 A 
ATOM      9  C   UNL d   1      11.185   7.269  -5.677  0.00  0.00     0.005 A 
ATOM     10  C   UNL d   1      11.666   7.649  -4.418  0.00  0.00     0.000 A 
ATOM     11  C   UNL d   1      11.645   9.005  -4.014  0.00  0.00     0.000 A 
ATOM     12  C   UNL d   1      12.156   6.657  -3.540  0.00  0.00     0.000 A 
ATOM     13  C   UNL d   1      11.141   9.994  -4.903  0.00  0.00     0.000 A 
ATOM     14  C   UNL d   1      12.124   9.364  -2.753  0.00  0.00     0.000 A 
ATOM     15  C   UNL d   1      10.711   9.608  -6.191  0.00  0.00     0.005 A 
ATOM     16  C   UNL d   1      12.648   8.378  -1.888  0.00  0.00     0.000 A 
ATOM     17  C   UNL d   1      12.643   7.027  -2.278  0.00  0.00     0.000 A 
ENDBRANCH   6   8
ENDBRANCH   4   5
ENDBRANCH   3   4
ENDBRANCH   1   3
BRANCH   1  18
ATOM     18  C   UNL d   1       8.835   6.357 -13.125  0.00  0.00     0.285 C 
BRANCH  18  19
ATOM     19  N   UNL d   1       8.515   4.962 -12.863  0.00  0.00     0.144 N 
ATOM     20  C   UNL d   1       7.082   4.847 -13.171  0.00  0.00     0.274 C 
ATOM     21  C   UNL d   1       6.586   3.417 -13.090  0.00  0.00     0.137 C 
ATOM     22  N   UNL d   1       7.394   2.602 -13.992  0.00  0.00    -0.344 N 
ATOM     23  C   UNL d   1       8.831   2.714 -13.768  0.00  0.00     0.137 C 
ATOM     24  C   UNL d   1       9.261   4.178 -13.868  0.00  0.00     0.274 C 
BRANCH  22  25
ATOM     25  C   UNL d   1       6.860   1.577 -14.817  0.00  0.00     0.068 A 
ATOM     26  C   UNL d   1       5.799   0.732 -14.412  0.00  0.00     0.084 A 
ATOM     27  C   UNL d   1       5.271  -0.227 -15.327  0.00  0.00     0.070 A 
ATOM     28 CL   UNL d   1       5.100   0.787 -12.842  0.00  0.00    -0.080 Cl
ATOM     29  C   UNL d   1       5.827  -0.359 -16.605  0.00  0.00     0.012 A 
ATOM     30 CL   UNL d   1       3.920  -1.205 -14.883  0.00  0.00    -0.081 Cl
ATOM     31  C   UNL d   1       6.913   0.446 -16.982  0.00  0.00     0.002 A 
ATOM     32  C   UNL d   1       7.438   1.418 -16.086  0.00  0.00     0.018 A 
ENDBRANCH  22  25
ENDBRANCH  18  19
ENDBRANCH   1  18
TORSDOF 7
