REMARK  0 active torsions:
REMARK  status: ('A' for Active; 'I' for Inactive)
ROOT
ATOM      1  C   UNL d   1      10.193   0.164 -17.897  0.00  0.00     0.285 C 
ATOM      2  N   UNL d   1      10.461   0.579 -16.519  0.00  0.00     0.138 N 
ATOM      3  C   UNL d   1       9.369   0.230 -15.613  0.00  0.00     0.255 C 
ATOM      4  C   UNL d   1       8.072   1.033 -15.793  0.00  0.00     0.061 C 
ATOM      5  C   UNL d   1       8.140   2.389 -15.114  0.00  0.00    -0.023 A 
ATOM      6  C   UNL d   1       7.249   2.671 -14.053  0.00  0.00     0.009 A 
ATOM      7  C   UNL d   1       7.324   3.892 -13.354  0.00  0.00     0.083 A 
ATOM      8 CL   UNL d   1       6.206   4.224 -12.075  0.00  0.00    -0.080 Cl
ATOM      9  C   UNL d   1       8.320   4.823 -13.704  0.00  0.00     0.141 A 
ATOM     10  O   UNL d   1       8.431   5.999 -13.019  0.00  0.00    -0.189 OA
ATOM     11  C   UNL d   1       9.195   4.561 -14.774  0.00  0.00     0.024 A 
ATOM     12  C   UNL d   1       9.095   3.357 -15.513  0.00  0.00    -0.018 A 
ATOM     13  C   UNL d   1      10.019   3.083 -16.711  0.00  0.00     0.075 C 
ATOM     14  C   UNL d   1      10.681   4.345 -17.299  0.00  0.00    -0.020 A 
ATOM     15  C   UNL d   1       9.853   5.312 -17.908  0.00  0.00    -0.004 A 
ATOM     16  C   UNL d   1      10.403   6.489 -18.441  0.00  0.00     0.000 A 
ATOM     17  C   UNL d   1      11.784   6.728 -18.345  0.00  0.00     0.010 A 
ATOM     18  C   UNL d   1      12.635   5.769 -17.761  0.00  0.00     0.064 A 
ATOM     19  C   UNL d   1      14.063   6.061 -17.687  0.00  0.00     0.101 C 
ATOM     20  N   UNL d   1      15.195   6.292 -17.627  0.00  0.00    -0.191 NA
ATOM     21  C   UNL d   1      12.086   4.558 -17.258  0.00  0.00    -0.016 A 
ATOM     22  C   UNL d   1      12.972   3.454 -16.706  0.00  0.00     0.029 C 
ATOM     23  C   UNL d   1      12.374   2.083 -17.018  0.00  0.00     0.039 C 
ATOM     24  C   UNL d   1      11.003   1.936 -16.350  0.00  0.00     0.228 C 
ENDROOT
TORSDOF 0
