REMARK  8 active torsions:
REMARK  status: ('A' for Active; 'I' for Inactive)
REMARK    1  A    between atoms: C_2  and  C_3 
REMARK    2  A    between atoms: C_3  and  N_4 
REMARK    3  A    between atoms: N_4  and  C_5 
REMARK    4  A    between atoms: N_4  and  C_8 
REMARK    5  A    between atoms: C_5  and  C_6 
REMARK    6  A    between atoms: C_8  and  C_9 
REMARK    7  A    between atoms: C_9  and  C_10 
REMARK    8  A    between atoms: C_16  and  O_17 
ROOT
ATOM      1  C   UNL d   1      11.384   9.057  -6.281  0.00  0.00     0.001 C 
ATOM      2  C   UNL d   1      11.035  10.359  -6.119  0.00  0.00     0.095 C 
ATOM      3  N   UNL d   1      10.995  10.657  -4.807  0.00  0.00    -0.244 NA
ATOM      4  C   UNL d   1      11.499   9.622  -4.050  0.00  0.00     0.081 A 
ATOM      5  C   UNL d   1      11.872   9.527  -2.714  0.00  0.00     0.021 A 
ATOM      6  C   UNL d   1      12.329   8.320  -2.225  0.00  0.00     0.026 A 
ATOM      7  C   UNL d   1      12.484   7.225  -3.109  0.00  0.00     0.094 A 
ATOM      8  C   UNL d   1      12.140   7.370  -4.444  0.00  0.00     0.025 A 
ATOM      9  C   UNL d   1      11.692   8.586  -4.967  0.00  0.00     0.017 A 
ENDROOT
BRANCH   1  10
ATOM     10  C   UNL d   1      11.416   8.326  -7.560  0.00  0.00     0.063 C 
BRANCH  10  11
ATOM     11  C   UNL d   1      10.054   7.681  -7.871  0.00  0.00     0.256 C 
BRANCH  11  12
ATOM     12  N   UNL d   1      10.166   6.808  -9.042  0.00  0.00     0.146 N 
BRANCH  12  13
ATOM     13  C   UNL d   1       8.952   6.021  -9.290  0.00  0.00     0.277 C 
BRANCH  13  14
ATOM     14  C   UNL d   1       8.392   5.247  -8.092  0.00  0.00     0.009 C 
ATOM     15  C   UNL d   1       8.173   3.929  -8.140  0.00  0.00    -0.003 C 
ENDBRANCH  13  14
ENDBRANCH  12  13
BRANCH  12  16
ATOM     16  C   UNL d   1      10.512   7.543 -10.270  0.00  0.00     0.277 C 
BRANCH  16  17
ATOM     17  C   UNL d   1       9.531   8.637 -10.676  0.00  0.00     0.009 C 
ATOM     18  C   UNL d   1       9.053   8.768 -11.917  0.00  0.00    -0.003 C 
ENDBRANCH  16  17
ENDBRANCH  12  16
ENDBRANCH  11  12
ENDBRANCH  10  11
ENDBRANCH   1  10
BRANCH   7  19
ATOM     19  O   UNL d   1      13.004   6.003  -2.815  0.00  0.00    -0.328 OA
ATOM     20  C   UNL d   1      12.985   5.658  -1.484  0.00  0.00     0.181 C 
ENDBRANCH   7  19
TORSDOF 8
