REMARK  11 active torsions:
REMARK  status: ('A' for Active; 'I' for Inactive)
REMARK    1  A    between atoms: O_2  and  C_3 
REMARK    2  A    between atoms: C_7  and  C_8 
REMARK    3  A    between atoms: C_8  and  C_9 
REMARK    4  A    between atoms: C_9  and  C_10 
REMARK    5  A    between atoms: C_15  and  O_16 
REMARK    6  A    between atoms: O_16  and  C_17 
REMARK    7  A    between atoms: C_17  and  C_18 
REMARK    8  A    between atoms: C_18  and  C_19 
REMARK    9  A    between atoms: C_19  and  C_20 
REMARK   10  A    between atoms: C_20  and  N_21 
REMARK   11  A    between atoms: N_24  and  C_25 
ROOT
ATOM      1  O   UNL d   1       7.513   2.239 -14.559  0.00  0.00    -0.331 OA
ENDROOT
BRANCH   1   2
ATOM      2  C   UNL d   1       6.592   1.215 -14.700  0.00  0.00     0.090 A 
ATOM      3  C   UNL d   1       6.765   0.328 -15.796  0.00  0.00     0.001 A 
ATOM      4  C   UNL d   1       5.850  -0.731 -16.011  0.00  0.00    -0.002 A 
ATOM      5  C   UNL d   1       4.766  -0.923 -15.139  0.00  0.00    -0.000 A 
ATOM      6  C   UNL d   1       4.596  -0.055 -14.046  0.00  0.00     0.002 A 
ATOM      7  C   UNL d   1       5.507   0.986 -13.812  0.00  0.00     0.024 A 
BRANCH   3   8
ATOM      8  C   UNL d   1       7.930   0.496 -16.764  0.00  0.00     0.033 C 
BRANCH   8   9
ATOM      9  C   UNL d   1       9.284   0.186 -16.115  0.00  0.00     0.031 C 
BRANCH   9  10
ATOM     10  C   UNL d   1      10.430   0.357 -17.079  0.00  0.00    -0.020 A 
ATOM     11  C   UNL d   1      10.740  -0.619 -18.047  0.00  0.00    -0.004 A 
ATOM     12  C   UNL d   1      11.824  -0.401 -18.923  0.00  0.00     0.002 A 
ATOM     13  C   UNL d   1      12.586   0.787 -18.831  0.00  0.00     0.024 A 
ATOM     14  C   UNL d   1      12.274   1.770 -17.859  0.00  0.00     0.094 A 
ATOM     15  C   UNL d   1      11.188   1.530 -16.991  0.00  0.00     0.020 A 
BRANCH  14  16
ATOM     16  O   UNL d   1      13.059   2.905 -17.811  0.00  0.00    -0.328 OA
ATOM     17  C   UNL d   1      12.753   3.855 -16.776  0.00  0.00     0.181 C 
ENDBRANCH  14  16
ENDBRANCH   9  10
ENDBRANCH   8   9
ENDBRANCH   3   8
ENDBRANCH   1   2
BRANCH   1  18
ATOM     18  C   UNL d   1       7.245   3.362 -13.724  0.00  0.00     0.149 C 
BRANCH  18  19
ATOM     19  C   UNL d   1       8.538   3.791 -13.019  0.00  0.00     0.035 C 
BRANCH  19  20
ATOM     20  C   UNL d   1       8.226   4.703 -11.816  0.00  0.00     0.038 C 
BRANCH  20  21
ATOM     21  C   UNL d   1       9.489   5.038 -11.028  0.00  0.00     0.251 C 
BRANCH  21  22
ATOM     22  N   UNL d   1       9.226   6.032  -9.998  0.00  0.00     0.141 N 
ATOM     23  C   UNL d   1      10.241   7.088 -10.058  0.00  0.00     0.274 C 
ATOM     24  C   UNL d   1       9.977   8.180  -9.011  0.00  0.00     0.137 C 
ATOM     25  N   UNL d   1       9.906   7.579  -7.686  0.00  0.00    -0.344 N 
ATOM     26  C   UNL d   1       8.964   6.478  -7.565  0.00  0.00     0.137 C 
ATOM     27  C   UNL d   1       9.248   5.427  -8.661  0.00  0.00     0.274 C 
BRANCH  25  28
ATOM     28  C   UNL d   1      10.687   8.068  -6.587  0.00  0.00     0.057 A 
ATOM     29  C   UNL d   1      10.944   7.273  -5.448  0.00  0.00     0.028 A 
ATOM     30  C   UNL d   1      11.722   7.772  -4.380  0.00  0.00     0.059 A 
ATOM     31  C   UNL d   1      12.258   9.069  -4.444  0.00  0.00     0.011 A 
ATOM     32 CL   UNL d   1      12.022   6.793  -2.988  0.00  0.00    -0.082 Cl
ATOM     33  C   UNL d   1      12.018   9.851  -5.588  0.00  0.00     0.002 A 
ATOM     34  C   UNL d   1      11.227   9.366  -6.636  0.00  0.00     0.017 A 
ENDBRANCH  25  28
ENDBRANCH  21  22
ENDBRANCH  20  21
ENDBRANCH  19  20
ENDBRANCH  18  19
ENDBRANCH   1  18
TORSDOF 11
