REMARK  6 active torsions:
REMARK  status: ('A' for Active; 'I' for Inactive)
REMARK    1  A    between atoms: C_5  and  C_6 
REMARK    2  A    between atoms: C_6  and  C_7 
REMARK    3  A    between atoms: C_6  and  N_14 
REMARK    4  A    between atoms: N_17  and  C_18 
REMARK    5  A    between atoms: C_18  and  C_19 
REMARK    6  A    between atoms: C_20  and  C_21 
ROOT
ATOM      1  N   UNL d   1       7.326   1.047 -15.729  0.00  0.00     0.147 N 
ATOM      2  C   UNL d   1       6.510   0.469 -14.645  0.00  0.00     0.286 C 
ATOM      3  C   UNL d   1       5.170  -0.060 -15.189  0.00  0.00     0.286 C 
ATOM      4  N   UNL d   1       5.362  -1.105 -16.187  0.00  0.00     0.146 N 
ATOM      5  C   UNL d   1       6.210  -0.582 -17.259  0.00  0.00     0.286 C 
ATOM      6  C   UNL d   1       7.539  -0.017 -16.721  0.00  0.00     0.286 C 
ENDROOT
BRANCH   1   7
ATOM      7  C   UNL d   1       8.598   1.624 -15.235  0.00  0.00     0.264 C 
BRANCH   7   8
ATOM      8  C   UNL d   1       8.424   2.773 -14.234  0.00  0.00     0.013 A 
ATOM      9  C   UNL d   1       9.541   3.209 -13.486  0.00  0.00     0.000 A 
ATOM     10  C   UNL d   1       9.408   4.257 -12.553  0.00  0.00     0.029 A 
ATOM     11  C   UNL d   1       8.162   4.870 -12.344  0.00  0.00     0.140 A 
ATOM     12  F   UNL d   1       8.040   5.866 -11.436  0.00  0.00    -0.204 F 
ATOM     13  C   UNL d   1       7.042   4.445 -13.083  0.00  0.00     0.029 A 
ATOM     14  C   UNL d   1       7.181   3.419 -14.040  0.00  0.00     0.000 A 
ENDBRANCH   7   8
BRANCH   7  15
ATOM     15  C   UNL d   1       9.549   2.084 -16.346  0.00  0.00     0.013 A 
ATOM     16  C   UNL d   1      10.939   1.842 -16.232  0.00  0.00     0.000 A 
ATOM     17  C   UNL d   1      11.829   2.289 -17.230  0.00  0.00     0.029 A 
ATOM     18  C   UNL d   1      11.335   2.972 -18.357  0.00  0.00     0.140 A 
ATOM     19  C   UNL d   1       9.954   3.216 -18.482  0.00  0.00     0.029 A 
ATOM     20  F   UNL d   1      12.187   3.394 -19.321  0.00  0.00    -0.204 F 
ATOM     21  C   UNL d   1       9.067   2.782 -17.477  0.00  0.00     0.000 A 
ENDBRANCH   7  15
ENDBRANCH   1   7
BRANCH   4  22
ATOM     22  C   UNL d   1       4.082  -1.609 -16.683  0.00  0.00     0.277 C 
BRANCH  22  23
ATOM     23  C   UNL d   1       4.262  -2.759 -17.647  0.00  0.00     0.009 C 
ATOM     24  C   UNL d   1       3.862  -2.749 -18.927  0.00  0.00    -0.003 C 
BRANCH  24  25
ATOM     25  C   UNL d   1       3.970  -3.878 -19.867  0.00  0.00    -0.000 A 
ATOM     26  C   UNL d   1       4.116  -5.206 -19.397  0.00  0.00    -0.000 A 
ATOM     27  C   UNL d   1       4.234  -6.277 -20.306  0.00  0.00    -0.000 A 
ATOM     28  C   UNL d   1       4.214  -6.031 -21.691  0.00  0.00    -0.000 A 
ATOM     29  C   UNL d   1       4.076  -4.713 -22.166  0.00  0.00    -0.000 A 
ATOM     30  C   UNL d   1       3.958  -3.644 -21.257  0.00  0.00    -0.000 A 
ENDBRANCH  24  25
ENDBRANCH  22  23
ENDBRANCH   4  22
TORSDOF 6
