REMARK  4 active torsions:
REMARK  status: ('A' for Active; 'I' for Inactive)
REMARK       I    between atoms: C_2  and  N_4 
REMARK    1  A    between atoms: N_4  and  C_5 
REMARK    2  A    between atoms: C_8  and  C_9 
REMARK    3  A    between atoms: C_9  and  C_10 
REMARK    4  A    between atoms: C_10  and  N_11 
ROOT
ATOM      1  C   UNL d   1      11.232   7.820  -8.861  0.00  0.00     0.035 C 
ENDROOT
BRANCH   1   2
ATOM      2  C   UNL d   1       9.921   7.216  -9.464  0.00  0.00     0.002 C 
ATOM      3  C   UNL d   1      10.038   7.133 -10.986  0.00  0.00     0.002 C 
ATOM      4  C   UNL d   1       8.801   6.565 -11.677  0.00  0.00     0.024 C 
ATOM      5  C   UNL d   1       8.462   5.186 -11.050  0.00  0.00     0.106 C 
ATOM      6  C   UNL d   1       8.288   5.290  -9.545  0.00  0.00     0.024 C 
ATOM      7  C   UNL d   1       9.544   5.800  -8.916  0.00  0.00     0.002 C 
BRANCH   5   8
ATOM      8  N   UNL d   1       7.236   4.670 -11.642  0.00  0.00    -0.240 NA
ATOM      9  C   UNL d   1       7.132   4.117 -12.857  0.00  0.00     0.252 C 
ATOM     10  C   UNL d   1       8.426   3.942 -13.697  0.00  0.00     0.100 C 
ATOM     11  O   UNL d   1       6.030   3.747 -13.282  0.00  0.00    -0.271 OA
ENDBRANCH   5   8
ENDBRANCH   1   2
BRANCH   1  12
ATOM     12  C   UNL d   1      11.510   7.462  -7.413  0.00  0.00     0.251 C 
BRANCH  12  13
ATOM     13  N   UNL d   1      10.247   7.313  -6.699  0.00  0.00     0.142 N 
ATOM     14  C   UNL d   1      10.454   6.580  -5.494  0.00  0.00     0.276 C 
ATOM     15  C   UNL d   1      11.229   7.362  -4.478  0.00  0.00     0.007 A 
ATOM     16  C   UNL d   1      11.202   8.788  -4.524  0.00  0.00    -0.022 A 
ATOM     17  C   UNL d   1      11.866   6.715  -3.404  0.00  0.00    -0.003 A 
ATOM     18  C   UNL d   1      10.420   9.497  -5.604  0.00  0.00     0.061 C 
ATOM     19  C   UNL d   1      11.844   9.517  -3.504  0.00  0.00    -0.004 A 
ATOM     20  C   UNL d   1       9.520   8.516  -6.407  0.00  0.00     0.255 C 
ATOM     21  C   UNL d   1      12.534   8.857  -2.465  0.00  0.00    -0.000 A 
ATOM     22  C   UNL d   1      12.539   7.437  -2.398  0.00  0.00    -0.000 A 
ENDBRANCH  12  13
ENDBRANCH   1  12
TORSDOF 4
