REMARK  8 active torsions:
REMARK  status: ('A' for Active; 'I' for Inactive)
REMARK    1  A    between atoms: C_2  and  C_3 
REMARK    2  A    between atoms: C_3  and  C_4 
REMARK    3  A    between atoms: C_4  and  C_5 
REMARK    4  A    between atoms: C_5  and  N_6 
REMARK       I    between atoms: N_6  and  C_7 
REMARK       I    between atoms: C_7  and  N_9 
REMARK       I    between atoms: C_10  and  N_12 
REMARK    5  A    between atoms: N_12  and  C_13 
REMARK    6  A    between atoms: C_13  and  C_14 
REMARK    7  A    between atoms: C_14  and  C_15 
REMARK    8  A    between atoms: C_15  and  C_16 
ROOT
ATOM      1  N   UNL d   1       9.714   3.231 -13.391  0.00  0.00    -0.217 NA
ATOM      2  C   UNL d   1       9.056   4.365 -13.186  0.00  0.00     0.380 C 
ATOM      3  O   UNL d   1       8.355   4.890 -14.068  0.00  0.00    -0.242 OA
ATOM      4  N   UNL d   1       9.265   4.838 -11.902  0.00  0.00     0.001 NA
ATOM      5  C   UNL d   1       8.565   5.815 -11.427  0.00  0.00     0.768 C 
ATOM      6  N   UNL d   1       7.575   6.532 -12.059  0.00  0.00     0.062 N 
ATOM      7  N   UNL d   1       8.755   6.295 -10.146  0.00  0.00    -0.084 NA
ENDROOT
BRANCH   7   8
ATOM      8  C   UNL d   1       9.822   5.898  -9.242  0.00  0.00     0.145 C 
BRANCH   8   9
ATOM      9  C   UNL d   1       9.875   6.849  -8.021  0.00  0.00     0.032 C 
BRANCH   9  10
ATOM     10  C   UNL d   1      11.080   6.564  -7.082  0.00  0.00     0.036 C 
BRANCH  10  11
ATOM     11  C   UNL d   1      11.297   7.594  -6.016  0.00  0.00     0.023 A 
ATOM     12  C   UNL d   1      11.445   8.957  -6.145  0.00  0.00     0.063 A 
ATOM     13  N   UNL d   1      11.657   9.613  -4.937  0.00  0.00    -0.230 NA
ATOM     14  C   UNL d   1      11.413   9.762  -7.391  0.00  0.00     0.052 C 
ATOM     15  C   UNL d   1      11.714   8.778  -3.909  0.00  0.00     0.180 A 
ATOM     16  S   UNL d   1      11.518   7.092  -4.357  0.00  0.00    -0.057 SA
ATOM     17  N   UNL d   1      11.899   9.187  -2.605  0.00  0.00    -0.072 NA
ENDBRANCH  10  11
ENDBRANCH   9  10
ENDBRANCH   8   9
ENDBRANCH   7   8
BRANCH   1  18
ATOM     18  C   UNL d   1       9.670   2.458 -14.615  0.00  0.00     0.131 C 
BRANCH  18  19
ATOM     19  C   UNL d   1      11.052   1.901 -14.989  0.00  0.00     0.026 C 
BRANCH  19  20
ATOM     20  C   UNL d   1      11.067   1.142 -16.329  0.00  0.00     0.002 C 
BRANCH  20  21
ATOM     21  C   UNL d   1      10.254  -0.164 -16.314  0.00  0.00     0.000 C 
ATOM     22  C   UNL d   1      10.307  -0.919 -17.649  0.00  0.00     0.000 C 
ENDBRANCH  20  21
ENDBRANCH  19  20
ENDBRANCH  18  19
ENDBRANCH   1  18
TORSDOF 8
