REMARK  5 active torsions:
REMARK  status: ('A' for Active; 'I' for Inactive)
REMARK    1  A    between atoms: C_2  and  O_3 
REMARK    2  A    between atoms: O_3  and  C_4 
REMARK       I    between atoms: C_4  and  N_6 
REMARK    3  A    between atoms: C_9  and  N_10 
REMARK    4  A    between atoms: C_14  and  N_15 
REMARK       I    between atoms: N_15  and  C_16 
REMARK    5  A    between atoms: C_16  and  C_18 
ROOT
ATOM      1  N   UNL d   1       9.436   6.513 -11.934  0.00  0.00     0.137 N 
ATOM      2  C   UNL d   1       8.372   7.503 -12.019  0.00  0.00     0.250 C 
ATOM      3  C   UNL d   1       8.822   8.922 -11.600  0.00  0.00     0.037 C 
ATOM      4  C   UNL d   1       9.510   8.988 -10.193  0.00  0.00     0.029 C 
ATOM      5  C   UNL d   1      10.504   7.825 -10.095  0.00  0.00     0.140 C 
ATOM      6  C   UNL d   1       9.866   6.465 -10.527  0.00  0.00     0.274 C 
ENDROOT
BRANCH   1   7
ATOM      7  C   UNL d   1       8.973   5.155 -12.315  0.00  0.00     0.223 C 
ATOM      8  C   UNL d   1      10.099   4.470 -13.105  0.00  0.00     0.058 C 
ATOM      9  C   UNL d   1       9.678   3.069 -13.529  0.00  0.00     0.108 C 
ATOM     10  N   UNL d   1       8.433   3.068 -14.292  0.00  0.00    -0.297 N 
ATOM     11  C   UNL d   1       8.363   2.432 -15.525  0.00  0.00     0.365 C 
ATOM     12  C   UNL d   1       7.297   3.708 -13.588  0.00  0.00     0.108 C 
ATOM     13  O   UNL d   1       9.318   2.097 -16.235  0.00  0.00    -0.238 OA
ATOM     14  C   UNL d   1       7.684   5.110 -13.173  0.00  0.00     0.058 C 
BRANCH  11  15
ATOM     15  O   UNL d   1       7.076   2.182 -15.828  0.00  0.00    -0.285 OA
BRANCH  15  16
ATOM     16  C   UNL d   1       6.689   1.427 -16.959  0.00  0.00     0.154 C 
ATOM     17  C   UNL d   1       6.163   0.088 -16.448  0.00  0.00     0.035 C 
ENDBRANCH  15  16
ENDBRANCH  11  15
ENDBRANCH   1   7
BRANCH   5  18
ATOM     18  N   UNL d   1      11.085   7.768  -8.758  0.00  0.00    -0.234 NA
ATOM     19  C   UNL d   1      10.404   7.525  -7.623  0.00  0.00     0.275 C 
ATOM     20  O   UNL d   1       9.337   6.932  -7.538  0.00  0.00    -0.266 OA
BRANCH  19  21
ATOM     21  C   UNL d   1      10.938   8.287  -6.454  0.00  0.00     0.054 C 
ATOM     22  C   UNL d   1      11.113   7.713  -5.188  0.00  0.00    -0.017 C 
ATOM     23  C   UNL d   1      11.527   8.470  -4.082  0.00  0.00    -0.004 C 
ATOM     24  C   UNL d   1      10.912   6.267  -4.958  0.00  0.00     0.031 C 
ATOM     25  C   UNL d   1      11.601   9.847  -4.210  0.00  0.00    -0.000 C 
ATOM     26  C   UNL d   1      11.462  10.434  -5.488  0.00  0.00     0.000 C 
ATOM     27  C   UNL d   1      11.144   9.658  -6.607  0.00  0.00     0.004 C 
ENDBRANCH  19  21
ENDBRANCH   5  18
TORSDOF 5
