REMARK  7 active torsions:
REMARK  status: ('A' for Active; 'I' for Inactive)
REMARK       I    between atoms: C_2  and  N_3 
REMARK    1  A    between atoms: C_2  and  C_23 
REMARK    2  A    between atoms: N_3  and  C_4 
REMARK    3  A    between atoms: C_4  and  C_5 
REMARK    4  A    between atoms: C_5  and  C_6 
REMARK    5  A    between atoms: C_6  and  C_8 
REMARK    6  A    between atoms: C_8  and  N_9 
REMARK    7  A    between atoms: N_12  and  C_13 
ROOT
ATOM      1  C   UNL d   1       9.343   5.806 -11.679  0.00  0.00     0.196 C 
ATOM      2  F   UNL d   1       9.611   4.593 -11.193  0.00  0.00    -0.235 F 
ENDROOT
BRANCH   1   3
ATOM      3  C   UNL d   1       8.319   5.626 -12.809  0.00  0.00     0.064 C 
BRANCH   3   4
ATOM      4  C   UNL d   1       8.683   4.506 -13.803  0.00  0.00     0.132 C 
BRANCH   4   5
ATOM      5  N   UNL d   1       9.813   4.872 -14.647  0.00  0.00    -0.233 NA
ATOM      6  C   UNL d   1      10.931   4.165 -14.862  0.00  0.00     0.298 C 
ATOM      7  O   UNL d   1      11.127   3.038 -14.414  0.00  0.00    -0.263 OA
BRANCH   6   8
ATOM      8  C   UNL d   1      11.946   4.827 -15.711  0.00  0.00     0.157 A 
ATOM      9  O   UNL d   1      11.839   6.181 -15.942  0.00  0.00    -0.302 OA
ATOM     10  C   UNL d   1      12.907   6.545 -16.735  0.00  0.00     0.100 A 
ATOM     11  C   UNL d   1      13.698   5.403 -17.010  0.00  0.00     0.025 A 
ATOM     12  C   UNL d   1      13.213   7.826 -17.221  0.00  0.00     0.025 A 
ATOM     13  C   UNL d   1      13.056   4.314 -16.338  0.00  0.00     0.032 A 
ATOM     14  C   UNL d   1      14.844   5.592 -17.817  0.00  0.00     0.002 A 
ATOM     15  C   UNL d   1      15.165   6.872 -18.326  0.00  0.00     0.000 A 
ATOM     16  C   UNL d   1      14.351   7.986 -18.032  0.00  0.00     0.002 A 
ENDBRANCH   6   8
ENDBRANCH   4   5
ENDBRANCH   3   4
ENDBRANCH   1   3
BRANCH   1  17
ATOM     17  C   UNL d   1       8.811   6.673 -10.535  0.00  0.00     0.285 C 
BRANCH  17  18
ATOM     18  N   UNL d   1       9.590   6.562  -9.303  0.00  0.00     0.144 N 
ATOM     19  C   UNL d   1      10.659   7.561  -9.307  0.00  0.00     0.274 C 
ATOM     20  C   UNL d   1      11.472   7.439  -7.996  0.00  0.00     0.137 C 
ATOM     21  N   UNL d   1      10.593   7.558  -6.866  0.00  0.00    -0.344 N 
ATOM     22  C   UNL d   1       9.478   6.638  -6.838  0.00  0.00     0.137 C 
ATOM     23  C   UNL d   1       8.701   6.795  -8.151  0.00  0.00     0.274 C 
BRANCH  21  24
ATOM     24  C   UNL d   1      10.931   8.369  -5.796  0.00  0.00     0.068 A 
ATOM     25  C   UNL d   1      11.488   7.905  -4.589  0.00  0.00     0.084 A 
ATOM     26  C   UNL d   1      11.775   8.739  -3.509  0.00  0.00     0.070 A 
ATOM     27 CL   UNL d   1      11.854   6.291  -4.373  0.00  0.00    -0.080 Cl
ATOM     28  C   UNL d   1      11.449  10.069  -3.633  0.00  0.00     0.012 A 
ATOM     29 CL   UNL d   1      12.429   8.168  -2.011  0.00  0.00    -0.081 Cl
ATOM     30  C   UNL d   1      10.893  10.539  -4.842  0.00  0.00     0.002 A 
ATOM     31  C   UNL d   1      10.675   9.720  -5.942  0.00  0.00     0.018 A 
ENDBRANCH  21  24
ENDBRANCH  17  18
ENDBRANCH   1  17
TORSDOF 7
