REMARK  8 active torsions:
REMARK  status: ('A' for Active; 'I' for Inactive)
REMARK    1  A    between atoms: O_2  and  C_3 
REMARK    2  A    between atoms: C_6  and  C_7 
REMARK    3  A    between atoms: N_11  and  C_12 
REMARK    4  A    between atoms: C_12  and  C_13 
REMARK    5  A    between atoms: C_13  and  C_14 
REMARK    6  A    between atoms: C_14  and  S_15 
REMARK    7  A    between atoms: S_15  and  C_16 
REMARK    8  A    between atoms: C_19  and  C_20 
ROOT
ATOM      1  C   UNL d   1       6.926   2.998 -14.177  0.00  0.00     0.251 C 
ENDROOT
BRANCH   1   2
ATOM      2  N   UNL d   1       7.086   3.950 -13.086  0.00  0.00     0.137 N 
ATOM      3  C   UNL d   1       5.782   4.501 -12.664  0.00  0.00     0.251 C 
ATOM      4  C   UNL d   1       6.129   5.798 -11.964  0.00  0.00     0.039 A 
ATOM      5  C   UNL d   1       7.476   6.199 -12.479  0.00  0.00     0.052 A 
ATOM      6  C   UNL d   1       6.261   7.141 -12.645  0.00  0.00     0.008 A 
ATOM      7  C   UNL d   1       7.926   5.099 -13.431  0.00  0.00     0.254 C 
BRANCH   5   8
ATOM      8  C   UNL d   1       8.578   6.495 -11.535  0.00  0.00    -0.021 A 
ATOM      9  C   UNL d   1       8.888   5.617 -10.452  0.00  0.00    -0.002 A 
ATOM     10  C   UNL d   1       9.854   5.993  -9.500  0.00  0.00     0.024 A 
ATOM     11  C   UNL d   1      10.527   7.227  -9.591  0.00  0.00     0.094 A 
ATOM     12  C   UNL d   1      10.223   8.091 -10.676  0.00  0.00     0.024 A 
ATOM     13  C   UNL d   1       9.273   7.704 -11.644  0.00  0.00    -0.002 A 
BRANCH  11  14
ATOM     14  O   UNL d   1      11.417   7.556  -8.593  0.00  0.00    -0.328 OA
ATOM     15  C   UNL d   1      12.216   8.713  -8.775  0.00  0.00     0.181 C 
ENDBRANCH  11  14
ENDBRANCH   5   8
ENDBRANCH   1   2
BRANCH   1  16
ATOM     16  C   UNL d   1       8.232   2.645 -14.947  0.00  0.00     0.047 C 
BRANCH  16  17
ATOM     17  C   UNL d   1       9.181   1.829 -14.070  0.00  0.00     0.067 C 
BRANCH  17  18
ATOM     18  S   UNL d   1      10.655   1.282 -14.975  0.00  0.00    -0.075 SA
BRANCH  18  19
ATOM     19  C   UNL d   1      11.455   2.840 -15.190  0.00  0.00     0.193 A 
ATOM     20  N   UNL d   1      12.204   3.118 -16.291  0.00  0.00    -0.287 N 
ATOM     21  C   UNL d   1      12.610   4.381 -16.036  0.00  0.00     0.191 A 
ATOM     22  C   UNL d   1      12.461   2.266 -17.438  0.00  0.00     0.134 C 
ATOM     23  N   UNL d   1      12.167   4.849 -14.866  0.00  0.00    -0.126 NA
ATOM     24  N   UNL d   1      11.421   3.838 -14.313  0.00  0.00    -0.122 NA
BRANCH  21  25
ATOM     25  C   UNL d   1      13.442   5.209 -16.920  0.00  0.00     0.151 A 
ATOM     26  C   UNL d   1      13.712   6.555 -16.943  0.00  0.00     0.087 A 
ATOM     27  N   UNL d   1      14.573   6.809 -18.003  0.00  0.00    -0.221 NA
ATOM     28  C   UNL d   1      13.204   7.662 -16.067  0.00  0.00     0.054 C 
ATOM     29  C   UNL d   1      14.752   5.625 -18.579  0.00  0.00     0.225 A 
ATOM     30  O   UNL d   1      14.088   4.611 -17.969  0.00  0.00    -0.282 OA
ENDBRANCH  21  25
ENDBRANCH  18  19
ENDBRANCH  17  18
ENDBRANCH  16  17
ENDBRANCH   1  16
TORSDOF 8
