REMARK  5 active torsions:
REMARK  status: ('A' for Active; 'I' for Inactive)
REMARK    1  A    between atoms: C_2  and  C_3 
REMARK       I    between atoms: C_2  and  N_12 
REMARK    2  A    between atoms: N_15  and  C_16 
REMARK    3  A    between atoms: C_16  and  C_17 
REMARK    4  A    between atoms: C_17  and  O_18 
REMARK    5  A    between atoms: O_18  and  C_19 
ROOT
ATOM      1  O   UNL d   1       6.716   7.504 -12.850  0.00  0.00    -0.266 OA
ATOM      2  C   UNL d   1       7.469   6.595 -12.451  0.00  0.00     0.275 C 
ATOM      3  N   UNL d   1       8.652   6.807 -11.866  0.00  0.00    -0.311 N 
ATOM      4  C   UNL d   1       9.356   8.097 -11.894  0.00  0.00     0.140 C 
ATOM      5  C   UNL d   1       9.735   8.531 -10.461  0.00  0.00     0.274 C 
ATOM      6  N   UNL d   1      10.513   7.500  -9.771  0.00  0.00     0.144 N 
ATOM      7  C   UNL d   1       9.760   6.249  -9.726  0.00  0.00     0.274 C 
ATOM      8  C   UNL d   1       9.402   5.764 -11.145  0.00  0.00     0.140 C 
ENDROOT
BRANCH   2   9
ATOM      9  C   UNL d   1       7.088   5.213 -12.782  0.00  0.00     0.137 A 
ATOM     10  N   UNL d   1       7.945   4.491 -13.616  0.00  0.00    -0.241 NA
ATOM     11  C   UNL d   1       7.422   3.242 -13.867  0.00  0.00     0.085 A 
ATOM     12  C   UNL d   1       6.188   3.191 -13.162  0.00  0.00     0.038 A 
ATOM     13  C   UNL d   1       7.882   2.148 -14.609  0.00  0.00     0.040 A 
ATOM     14  C   UNL d   1       5.990   4.451 -12.505  0.00  0.00     0.027 A 
ATOM     15  C   UNL d   1       5.460   1.981 -13.238  0.00  0.00     0.101 A 
ATOM     16  N   UNL d   1       5.912   0.914 -13.939  0.00  0.00    -0.242 NA
ATOM     17  C   UNL d   1       7.084   0.988 -14.604  0.00  0.00     0.101 A 
ENDBRANCH   2   9
BRANCH   6  18
ATOM     18  C   UNL d   1      10.910   7.949  -8.441  0.00  0.00     0.283 C 
BRANCH  18  19
ATOM     19  C   UNL d   1       9.770   8.661  -7.623  0.00  0.00     0.184 C 
BRANCH  19  20
ATOM     20  O   UNL d   1      10.332   9.404  -6.548  0.00  0.00    -0.327 OA
BRANCH  20  21
ATOM     21  C   UNL d   1      10.924   8.750  -5.499  0.00  0.00     0.113 A 
ATOM     22  C   UNL d   1      11.010   7.339  -5.393  0.00  0.00     0.123 A 
ATOM     23  N   UNL d   1      11.645   6.747  -4.361  0.00  0.00    -0.240 NA
ATOM     24  C   UNL d   1      12.198   7.512  -3.389  0.00  0.00     0.099 A 
ATOM     25  C   UNL d   1      12.119   8.928  -3.380  0.00  0.00     0.023 A 
ATOM     26  C   UNL d   1      11.472   9.561  -4.469  0.00  0.00     0.027 A 
ENDBRANCH  20  21
ENDBRANCH  19  20
ENDBRANCH  18  19
ENDBRANCH   6  18
TORSDOF 5
