REMARK  5 active torsions:
REMARK  status: ('A' for Active; 'I' for Inactive)
REMARK    1  A    between atoms: O_2  and  C_3 
REMARK    2  A    between atoms: C_7  and  N_8 
REMARK    3  A    between atoms: N_8  and  S_9 
REMARK    4  A    between atoms: S_9  and  C_12 
REMARK    5  A    between atoms: C_19  and  O_20 
ROOT
ATOM      1  N   UNL d   1       9.547   7.896  -9.254  0.00  0.00    -0.137 NA
ENDROOT
BRANCH   1   2
ATOM      2  C   UNL d   1       9.189   6.767  -9.943  0.00  0.00     0.202 A 
ATOM      3  N   UNL d   1       8.834   5.758  -9.144  0.00  0.00    -0.202 NA
ATOM      4  C   UNL d   1       8.354   4.693  -9.760  0.00  0.00     0.202 A 
ATOM      5  N   UNL d   1       8.249   4.484 -11.069  0.00  0.00    -0.198 NA
ATOM      6  C   UNL d   1       8.656   5.474 -11.882  0.00  0.00     0.206 A 
ATOM      7  C   UNL d   1       9.104   6.701 -11.354  0.00  0.00     0.172 A 
BRANCH   6   8
ATOM      8  O   UNL d   1       8.611   5.273 -13.245  0.00  0.00    -0.310 OA
ATOM      9  C   UNL d   1       8.270   3.965 -13.711  0.00  0.00     0.183 C 
ENDBRANCH   6   8
BRANCH   7  10
ATOM     10  O   UNL d   1       9.464   7.716 -12.206  0.00  0.00    -0.322 OA
ATOM     11  C   UNL d   1       8.558   8.814 -12.218  0.00  0.00     0.182 C 
ENDBRANCH   7  10
ENDBRANCH   1   2
BRANCH   1  12
ATOM     12  S   UNL d   1      11.113   8.531  -9.061  0.00  0.00     0.287 S 
ATOM     13  O   UNL d   1      12.058   7.596  -9.680  0.00  0.00    -0.198 OA
ATOM     14  O   UNL d   1      11.054   9.909  -9.545  0.00  0.00    -0.198 OA
BRANCH  12  15
ATOM     15  C   UNL d   1      11.323   8.430  -7.292  0.00  0.00     0.105 A 
ATOM     16  C   UNL d   1      11.504   9.597  -6.527  0.00  0.00     0.014 A 
ATOM     17  C   UNL d   1      11.690   9.490  -5.138  0.00  0.00     0.015 A 
ATOM     18  C   UNL d   1      11.688   8.226  -4.513  0.00  0.00     0.070 A 
ATOM     19  C   UNL d   1      11.456   7.062  -5.277  0.00  0.00     0.015 A 
ATOM     20  N   UNL d   1      11.926   8.128  -3.143  0.00  0.00    -0.101 NA
ATOM     21  C   UNL d   1      11.275   7.165  -6.673  0.00  0.00     0.014 A 
ENDBRANCH  12  15
ENDBRANCH   1  12
TORSDOF 5
