REMARK  6 active torsions:
REMARK  status: ('A' for Active; 'I' for Inactive)
REMARK    1  A    between atoms: C_5  and  C_6 
REMARK       I    between atoms: C_6  and  N_8 
REMARK    2  A    between atoms: N_8  and  C_9 
REMARK    3  A    between atoms: C_12  and  C_13 
REMARK    4  A    between atoms: C_13  and  C_14 
REMARK    5  A    between atoms: C_14  and  N_15 
REMARK    6  A    between atoms: C_18  and  C_19 
ROOT
ATOM      1  C   UNL d   1       6.269   2.914 -13.794  0.00  0.00     0.035 C 
ENDROOT
BRANCH   1   2
ATOM      2  C   UNL d   1       7.019   3.683 -12.706  0.00  0.00     0.002 C 
ATOM      3  C   UNL d   1       8.546   3.698 -12.995  0.00  0.00     0.002 C 
ATOM      4  C   UNL d   1       9.306   4.504 -11.957  0.00  0.00     0.024 C 
ATOM      5  C   UNL d   1       8.781   5.940 -11.850  0.00  0.00     0.107 C 
ATOM      6  C   UNL d   1       7.258   5.971 -11.631  0.00  0.00     0.024 C 
ATOM      7  C   UNL d   1       6.504   5.125 -12.651  0.00  0.00     0.002 C 
BRANCH   5   8
ATOM      8  N   UNL d   1       9.479   6.679 -10.801  0.00  0.00    -0.236 NA
ATOM      9  C   UNL d   1       9.486   6.398  -9.482  0.00  0.00     0.276 C 
ATOM     10  O   UNL d   1       8.954   5.413  -8.968  0.00  0.00    -0.266 OA
BRANCH   9  11
ATOM     11  C   UNL d   1      10.157   7.410  -8.623  0.00  0.00     0.077 A 
ATOM     12  C   UNL d   1      11.439   7.896  -8.946  0.00  0.00     0.008 A 
ATOM     13  C   UNL d   1      12.057   8.783  -8.051  0.00  0.00     0.015 A 
ATOM     14  C   UNL d   1      11.351   9.178  -6.893  0.00  0.00     0.059 A 
ATOM     15  C   UNL d   1      11.955  10.162  -5.918  0.00  0.00     0.052 C 
ATOM     16  N   UNL d   1      10.123   8.722  -6.579  0.00  0.00    -0.248 NA
ATOM     17  C   UNL d   1       9.543   7.846  -7.432  0.00  0.00     0.103 A 
ENDBRANCH   9  11
ENDBRANCH   5   8
ENDBRANCH   1   2
BRANCH   1  18
ATOM     18  C   UNL d   1       6.554   1.407 -13.771  0.00  0.00     0.250 C 
BRANCH  18  19
ATOM     19  N   UNL d   1       6.019   0.733 -14.937  0.00  0.00     0.137 N 
ATOM     20  C   UNL d   1       6.785   1.062 -16.144  0.00  0.00     0.251 C 
ATOM     21  C   UNL d   1       6.150   0.406 -17.370  0.00  0.00     0.040 C 
ATOM     22  C   UNL d   1       6.079  -1.123 -17.222  0.00  0.00     0.028 C 
ATOM     23  C   UNL d   1       5.451  -1.452 -15.847  0.00  0.00     0.040 C 
ATOM     24  C   UNL d   1       6.112  -0.703 -14.694  0.00  0.00     0.251 C 
BRANCH  22  25
ATOM     25  C   UNL d   1       5.342  -1.769 -18.392  0.00  0.00     0.002 A 
ATOM     26  C   UNL d   1       5.747  -1.554 -19.722  0.00  0.00     0.115 A 
ATOM     27  C   UNL d   1       5.065  -2.109 -20.787  0.00  0.00     0.119 A 
ATOM     28  O   UNL d   1       6.788  -0.816 -20.189  0.00  0.00    -0.300 OA
ATOM     29  C   UNL d   1       3.941  -2.927 -20.604  0.00  0.00     0.026 A 
ATOM     30  O   UNL d   1       5.655  -1.723 -21.948  0.00  0.00    -0.300 OA
ATOM     31  C   UNL d   1       3.514  -3.170 -19.278  0.00  0.00     0.002 A 
ATOM     32  C   UNL d   1       4.206  -2.600 -18.195  0.00  0.00    -0.002 A 
ATOM     33  C   UNL d   1       6.733  -0.902 -21.585  0.00  0.00     0.304 A 
ENDBRANCH  22  25
ENDBRANCH  18  19
ENDBRANCH   1  18
TORSDOF 6
