REMARK  10 active torsions:
REMARK  status: ('A' for Active; 'I' for Inactive)
REMARK    1  A    between atoms: O_2  and  C_3 
REMARK    2  A    between atoms: C_8  and  O_9 
REMARK    3  A    between atoms: O_9  and  C_10 
REMARK    4  A    between atoms: C_10  and  C_11 
REMARK    5  A    between atoms: C_11  and  N_12 
REMARK    6  A    between atoms: N_12  and  C_13 
REMARK    7  A    between atoms: C_18  and  N_19 
REMARK    8  A    between atoms: N_19  and  C_20 
REMARK    9  A    between atoms: C_20  and  C_21 
REMARK   10  A    between atoms: C_21  and  C_22 
ROOT
ATOM      1  C   UNL d   1       8.451   5.351 -11.604  0.00  0.00     0.776 A 
ATOM      2  N   UNL d   1       8.248   4.471 -10.631  0.00  0.00     0.136 NA
ATOM      3  C   UNL d   1       8.781   4.868  -9.475  0.00  0.00     0.799 A 
ATOM      4  N   UNL d   1       8.738   3.973  -8.446  0.00  0.00     0.063 N 
ATOM      5  N   UNL d   1       9.410   5.988  -9.215  0.00  0.00     0.136 NA
ATOM      6  C   UNL d   1       9.529   6.759 -10.304  0.00  0.00     0.776 A 
ATOM      7  N   UNL d   1       9.112   6.513 -11.537  0.00  0.00     0.134 NA
ENDROOT
BRANCH   1   8
ATOM      8  N   UNL d   1       7.891   4.956 -12.792  0.00  0.00    -0.082 NA
BRANCH   8   9
ATOM      9  C   UNL d   1       8.327   5.490 -14.066  0.00  0.00     0.178 C 
BRANCH   9  10
ATOM     10  C   UNL d   1       9.725   5.035 -14.501  0.00  0.00     0.176 C 
BRANCH  10  11
ATOM     11  O   UNL d   1       9.680   3.636 -14.777  0.00  0.00    -0.327 OA
BRANCH  11  12
ATOM     12  C   UNL d   1      10.555   3.132 -15.719  0.00  0.00     0.116 A 
ATOM     13  C   UNL d   1      10.298   1.820 -16.174  0.00  0.00     0.116 A 
ATOM     14  C   UNL d   1      11.140   1.242 -17.158  0.00  0.00     0.026 A 
ATOM     15  C   UNL d   1      12.223   1.968 -17.686  0.00  0.00     0.002 A 
ATOM     16  C   UNL d   1      12.483   3.272 -17.232  0.00  0.00     0.002 A 
ATOM     17  C   UNL d   1      11.663   3.850 -16.246  0.00  0.00     0.026 A 
BRANCH  13  18
ATOM     18  O   UNL d   1       9.217   1.166 -15.617  0.00  0.00    -0.326 OA
ATOM     19  C   UNL d   1       8.743  -0.013 -16.247  0.00  0.00     0.181 C 
ENDBRANCH  13  18
ENDBRANCH  11  12
ENDBRANCH  10  11
ENDBRANCH   9  10
ENDBRANCH   8   9
ENDBRANCH   1   8
BRANCH   6  20
ATOM     20  N   UNL d   1      10.201   7.952 -10.132  0.00  0.00    -0.085 NA
BRANCH  20  21
ATOM     21  C   UNL d   1      10.240   8.649  -8.859  0.00  0.00     0.150 C 
BRANCH  21  22
ATOM     22  C   UNL d   1      11.188   7.985  -7.823  0.00  0.00     0.055 C 
BRANCH  22  23
ATOM     23  C   UNL d   1      11.300   8.732  -6.547  0.00  0.00     0.000 A 
ATOM     24  C   UNL d   1      11.473   8.160  -5.241  0.00  0.00     0.015 A 
ATOM     25  C   UNL d   1      11.589   9.231  -4.308  0.00  0.00     0.081 A 
ATOM     26  C   UNL d   1      11.590   6.843  -4.736  0.00  0.00     0.001 A 
ATOM     27  N   UNL d   1      11.388  10.379  -5.045  0.00  0.00    -0.244 NA
ATOM     28  C   UNL d   1      11.863   9.015  -2.948  0.00  0.00     0.019 A 
ATOM     29  C   UNL d   1      11.280  10.086  -6.386  0.00  0.00     0.095 A 
ATOM     30  C   UNL d   1      11.986   7.699  -2.477  0.00  0.00     0.002 A 
ATOM     31  C   UNL d   1      11.852   6.622  -3.368  0.00  0.00     0.000 A 
ENDBRANCH  22  23
ENDBRANCH  21  22
ENDBRANCH  20  21
ENDBRANCH   6  20
TORSDOF 10
