REMARK  4 active torsions:
REMARK  status: ('A' for Active; 'I' for Inactive)
REMARK    1  A    between atoms: C_2  and  N_3 
REMARK    2  A    between atoms: C_6  and  N_7 
REMARK    3  A    between atoms: N_10  and  C_11 
REMARK    4  A    between atoms: C_11  and  C_12 
ROOT
ATOM      1  N   UNL d   1       9.776   2.704 -18.363  0.00  0.00    -0.298 N 
ATOM      2  C   UNL d   1      10.164   1.884 -17.321  0.00  0.00     0.269 C 
ATOM      3  O   UNL d   1       9.867   0.689 -17.237  0.00  0.00    -0.270 OA
ATOM      4  C   UNL d   1      11.041   2.455 -16.170  0.00  0.00     0.297 C 
ATOM      5  C   UNL d   1      12.498   2.728 -16.653  0.00  0.00     0.048 C 
ATOM      6  C   UNL d   1      12.661   3.397 -18.015  0.00  0.00     0.030 C 
ATOM      7  C   UNL d   1      11.596   4.446 -18.335  0.00  0.00    -0.006 A 
ATOM      8  C   UNL d   1      11.989   5.788 -18.500  0.00  0.00    -0.003 A 
ATOM      9  C   UNL d   1      11.066   6.787 -18.860  0.00  0.00    -0.000 A 
ATOM     10  C   UNL d   1       9.720   6.434 -19.042  0.00  0.00     0.002 A 
ATOM     11  C   UNL d   1       9.301   5.115 -18.837  0.00  0.00     0.017 A 
ATOM     12  C   UNL d   1      10.226   4.081 -18.501  0.00  0.00     0.058 A 
ENDROOT
BRANCH   4  13
ATOM     13  N   UNL d   1      10.373   3.537 -15.409  0.00  0.00     0.148 N 
ATOM     14  C   UNL d   1      11.013   3.815 -14.125  0.00  0.00     0.286 C 
ATOM     15  C   UNL d   1      10.335   4.964 -13.388  0.00  0.00     0.286 C 
ATOM     16  N   UNL d   1       8.948   4.687 -13.081  0.00  0.00     0.146 N 
ATOM     17  C   UNL d   1       8.271   4.438 -14.334  0.00  0.00     0.286 C 
ATOM     18  C   UNL d   1       8.931   3.286 -15.112  0.00  0.00     0.286 C 
BRANCH  16  19
ATOM     19  C   UNL d   1       8.323   5.781 -12.346  0.00  0.00     0.277 C 
BRANCH  19  20
ATOM     20  C   UNL d   1       8.964   6.032 -10.994  0.00  0.00     0.011 A 
ATOM     21  C   UNL d   1       8.663   5.195  -9.904  0.00  0.00    -0.003 A 
ATOM     22  C   UNL d   1       9.244   5.441  -8.646  0.00  0.00    -0.004 A 
ATOM     23  C   UNL d   1      10.133   6.519  -8.465  0.00  0.00    -0.022 A 
ATOM     24  C   UNL d   1      10.443   7.354  -9.557  0.00  0.00    -0.004 A 
ATOM     25  C   UNL d   1      10.750   6.775  -7.106  0.00  0.00     0.031 C 
ATOM     26  C   UNL d   1       9.855   7.113 -10.814  0.00  0.00    -0.003 A 
ENDBRANCH  19  20
ENDBRANCH  16  19
ENDBRANCH   4  13
BRANCH   1  27
ATOM     27  C   UNL d   1       8.754   2.177 -19.313  0.00  0.00     0.109 C 
ATOM     28  C   UNL d   1       9.356   1.187 -20.303  0.00  0.00     0.027 C 
ENDBRANCH   1  27
TORSDOF 4
