REMARK  4 active torsions:
REMARK  status: ('A' for Active; 'I' for Inactive)
REMARK    1  A    between atoms: C_5  and  C_6 
REMARK    2  A    between atoms: N_9  and  C_10 
REMARK    3  A    between atoms: C_10  and  C_11 
REMARK       I    between atoms: C_11  and  N_13 
REMARK    4  A    between atoms: N_13  and  C_14 
ROOT
ATOM      1  C   UNL d   1       9.163   4.542 -14.486  0.00  0.00     0.044 C 
ATOM      2  C   UNL d   1      10.167   5.196 -13.533  0.00  0.00     0.041 C 
ATOM      3  C   UNL d   1       9.473   5.793 -12.304  0.00  0.00     0.251 C 
ATOM      4  N   UNL d   1       8.699   4.750 -11.619  0.00  0.00     0.147 N 
ATOM      5  C   UNL d   1       7.648   4.231 -12.496  0.00  0.00     0.251 C 
ATOM      6  C   UNL d   1       8.277   3.550 -13.724  0.00  0.00     0.041 C 
ENDROOT
BRANCH   4   7
ATOM      7  C   UNL d   1       8.072   5.254 -10.383  0.00  0.00     0.339 C 
BRANCH   7   8
ATOM      8  C   UNL d   1       9.066   5.681  -9.297  0.00  0.00     0.290 C 
ATOM      9  O   UNL d   1       9.841   4.841  -8.843  0.00  0.00    -0.268 OA
ATOM     10  N   UNL d   1       9.055   6.978  -8.923  0.00  0.00    -0.210 NA
BRANCH  10  11
ATOM     11  C   UNL d   1       9.877   7.585  -7.935  0.00  0.00     0.084 A 
ATOM     12  C   UNL d   1      10.224   6.917  -6.740  0.00  0.00     0.015 A 
ATOM     13  C   UNL d   1      11.018   7.539  -5.758  0.00  0.00    -0.020 A 
ATOM     14  C   UNL d   1      11.449   8.864  -5.943  0.00  0.00    -0.004 A 
ATOM     15  C   UNL d   1      11.391   6.784  -4.507  0.00  0.00     0.031 C 
ATOM     16  C   UNL d   1      11.097   9.550  -7.122  0.00  0.00     0.001 A 
ATOM     17  C   UNL d   1      10.304   8.920  -8.110  0.00  0.00     0.019 A 
ENDBRANCH  10  11
ENDBRANCH   7   8
ENDBRANCH   4   7
BRANCH   1  18
ATOM     18  C   UNL d   1       9.868   3.888 -15.669  0.00  0.00     0.059 A 
ATOM     19  C   UNL d   1      10.812   2.859 -15.462  0.00  0.00     0.014 A 
ATOM     20  C   UNL d   1      11.444   2.287 -16.577  0.00  0.00    -0.002 A 
ATOM     21  C   UNL d   1      11.103   2.760 -17.860  0.00  0.00    -0.003 A 
ATOM     22  C   UNL d   1      11.751   2.169 -19.092  0.00  0.00     0.033 C 
ATOM     23  C   UNL d   1      10.154   3.795 -17.964  0.00  0.00     0.094 A 
ATOM     24  N   UNL d   1       9.547   4.353 -16.894  0.00  0.00    -0.249 NA
ENDBRANCH   1  18
TORSDOF 4
