REMARK  5 active torsions:
REMARK  status: ('A' for Active; 'I' for Inactive)
REMARK    1  A    between atoms: C_2  and  O_3 
REMARK    2  A    between atoms: O_3  and  N_4 
REMARK    3  A    between atoms: C_14  and  C_15 
REMARK    4  A    between atoms: C_15  and  N_16 
REMARK    5  A    between atoms: N_19  and  C_20 
ROOT
ATOM      1  N   UNL d   1       7.483   4.503 -10.986  0.00  0.00    -0.136 NA
ATOM      2  C   UNL d   1       8.252   5.526 -10.979  0.00  0.00     0.087 C 
ATOM      3  C   UNL d   1       8.831   6.108  -9.710  0.00  0.00     0.012 C 
ATOM      4  C   UNL d   1       8.519   5.516  -8.473  0.00  0.00     0.001 C 
ATOM      5  C   UNL d   1       8.858   6.164  -7.274  0.00  0.00     0.000 C 
ATOM      6  C   UNL d   1       9.643   7.316  -7.262  0.00  0.00    -0.000 C 
ATOM      7  C   UNL d   1       9.992   7.906  -8.478  0.00  0.00    -0.004 C 
ATOM      8  C   UNL d   1       9.574   7.321  -9.685  0.00  0.00    -0.021 C 
ATOM      9  C   UNL d   1       9.832   8.100 -10.932  0.00  0.00     0.027 C 
ATOM     10  C   UNL d   1       8.883   7.748 -12.086  0.00  0.00     0.013 C 
ATOM     11  C   UNL d   1       8.624   6.264 -12.300  0.00  0.00     0.076 C 
ENDROOT
BRANCH  11  12
ATOM     12  C   UNL d   1       9.883   5.602 -12.876  0.00  0.00     0.256 C 
BRANCH  12  13
ATOM     13  N   UNL d   1       9.733   4.265 -13.461  0.00  0.00     0.141 N 
ATOM     14  C   UNL d   1      11.028   3.789 -13.988  0.00  0.00     0.274 C 
ATOM     15  C   UNL d   1      10.903   2.335 -14.480  0.00  0.00     0.138 C 
ATOM     16  N   UNL d   1       9.803   2.233 -15.442  0.00  0.00    -0.330 N 
ATOM     17  C   UNL d   1       8.552   2.814 -14.980  0.00  0.00     0.138 C 
ATOM     18  C   UNL d   1       8.769   4.281 -14.573  0.00  0.00     0.274 C 
BRANCH  16  19
ATOM     19  C   UNL d   1       9.915   1.690 -16.712  0.00  0.00     0.140 A 
ATOM     20  N   UNL d   1       9.059   2.124 -17.673  0.00  0.00    -0.227 NA
ATOM     21  C   UNL d   1       9.167   1.622 -18.911  0.00  0.00     0.101 A 
ATOM     22  C   UNL d   1      10.128   0.654 -19.269  0.00  0.00     0.021 A 
ATOM     23  C   UNL d   1      11.002   0.191 -18.269  0.00  0.00     0.005 A 
ATOM     24  C   UNL d   1      10.893   0.705 -16.977  0.00  0.00     0.037 A 
ENDBRANCH  16  19
ENDBRANCH  12  13
ENDBRANCH  11  12
BRANCH   1  25
ATOM     25  O   UNL d   1       7.045   4.075 -12.255  0.00  0.00    -0.237 OA
BRANCH  25  26
ATOM     26  C   UNL d   1       5.853   3.324 -12.102  0.00  0.00     0.176 C 
ATOM     27  C   UNL d   1       5.563   2.424 -13.305  0.00  0.00     0.038 C 
ENDBRANCH  25  26
ENDBRANCH   1  25
TORSDOF 5
