REMARK  8 active torsions:
REMARK  status: ('A' for Active; 'I' for Inactive)
REMARK    1  A    between atoms: C_2  and  C_3 
REMARK    2  A    between atoms: C_3  and  N_4 
REMARK    3  A    between atoms: N_4  and  C_5 
REMARK    4  A    between atoms: N_4  and  C_8 
REMARK    5  A    between atoms: C_5  and  C_6 
REMARK    6  A    between atoms: C_16  and  C_17 
REMARK    7  A    between atoms: C_17  and  C_19 
REMARK    8  A    between atoms: C_22  and  C_23 
ROOT
ATOM      1  C   UNL d   1       9.243   6.241 -10.889  0.00  0.00     0.112 C 
ATOM      2  C   UNL d   1       9.324   6.824 -12.321  0.00  0.00     0.171 C 
ATOM      3  O   UNL d   1       9.512   5.751 -13.235  0.00  0.00    -0.329 OA
ATOM      4  C   UNL d   1       8.483   4.808 -13.242  0.00  0.00     0.093 A 
ATOM      5  C   UNL d   1       7.600   4.681 -12.133  0.00  0.00     0.002 A 
ATOM      6  C   UNL d   1       6.554   3.731 -12.160  0.00  0.00    -0.002 A 
ATOM      7  C   UNL d   1       6.418   2.905 -13.292  0.00  0.00    -0.000 A 
ATOM      8  C   UNL d   1       7.300   3.023 -14.376  0.00  0.00     0.005 A 
ATOM      9  C   UNL d   1       8.357   3.968 -14.375  0.00  0.00     0.061 A 
ATOM     10  C   UNL d   1       7.863   5.469 -10.852  0.00  0.00     0.053 C 
ENDROOT
BRANCH   9  11
ATOM     11  C   UNL d   1       9.317   4.105 -15.529  0.00  0.00     0.197 C 
ATOM     12  O   UNL d   1       9.663   5.204 -15.968  0.00  0.00    -0.286 OA
BRANCH  11  13
ATOM     13  C   UNL d   1       9.794   2.932 -16.254  0.00  0.00     0.039 A 
ATOM     14  C   UNL d   1      10.191   3.101 -17.600  0.00  0.00     0.003 A 
ATOM     15  C   UNL d   1      10.670   2.025 -18.344  0.00  0.00     0.003 A 
ATOM     16  C   UNL d   1      10.731   0.769 -17.709  0.00  0.00     0.035 A 
ATOM     17  C   UNL d   1      10.297   0.575 -16.374  0.00  0.00     0.003 A 
ATOM     18  C   UNL d   1       9.856   1.664 -15.621  0.00  0.00     0.003 A 
BRANCH  16  19
ATOM     19  C   UNL d   1      11.192  -0.407 -18.431  0.00  0.00     0.173 C 
ATOM     20  C   UNL d   1      12.182  -0.167 -19.570  0.00  0.00     0.077 C 
ATOM     21  O   UNL d   1      10.835  -1.532 -18.106  0.00  0.00    -0.291 OA
ENDBRANCH  16  19
ENDBRANCH  11  13
ENDBRANCH   9  11
BRANCH   1  22
ATOM     22  N   UNL d   1       9.383   7.266  -9.829  0.00  0.00    -0.368 N 
BRANCH  22  23
ATOM     23  C   UNL d   1       9.008   6.827  -8.467  0.00  0.00     0.097 C 
BRANCH  23  24
ATOM     24  C   UNL d   1       8.894   7.968  -7.407  0.00  0.00     0.024 C 
ATOM     25  C   UNL d   1       9.847   7.717  -6.229  0.00  0.00     0.002 C 
ENDBRANCH  23  24
ENDBRANCH  22  23
BRANCH  22  26
ATOM     26  C   UNL d   1      10.475   8.231  -9.940  0.00  0.00     0.097 C 
BRANCH  26  27
ATOM     27  C   UNL d   1      11.739   7.473  -9.527  0.00  0.00     0.024 C 
ATOM     28  C   UNL d   1      12.967   8.348  -9.529  0.00  0.00     0.002 C 
ENDBRANCH  26  27
ENDBRANCH  22  26
ENDBRANCH   1  22
TORSDOF 8
