REMARK  7 active torsions:
REMARK  status: ('A' for Active; 'I' for Inactive)
REMARK    1  A    between atoms: C_3  and  S_4 
REMARK    2  A    between atoms: S_4  and  C_5 
REMARK    3  A    between atoms: C_5  and  C_6 
REMARK    4  A    between atoms: C_6  and  C_7 
REMARK    5  A    between atoms: C_7  and  N_8 
REMARK    6  A    between atoms: N_13  and  C_14 
REMARK    7  A    between atoms: C_26  and  C_27 
ROOT
ATOM      1  C   UNL d   1       8.119   2.662 -14.382  0.00  0.00     0.046 A 
ATOM      2  C   UNL d   1       7.056   1.731 -14.481  0.00  0.00     0.012 A 
ATOM      3  C   UNL d   1       5.864   1.919 -13.754  0.00  0.00     0.001 A 
ATOM      4  C   UNL d   1       5.704   3.055 -12.942  0.00  0.00     0.001 A 
ATOM      5  C   UNL d   1       6.748   3.990 -12.838  0.00  0.00     0.011 A 
ATOM      6  C   UNL d   1       7.955   3.800 -13.546  0.00  0.00     0.079 A 
ATOM      7  C   UNL d   1       9.015   4.778 -13.366  0.00  0.00     0.102 C 
ATOM      8  N   UNL d   1       9.855   5.554 -13.223  0.00  0.00    -0.191 NA
ENDROOT
BRANCH   1   9
ATOM      9  N   UNL d   1       9.314   2.455 -15.102  0.00  0.00    -0.251 NA
ATOM     10  C   UNL d   1       9.986   1.175 -14.920  0.00  0.00     0.077 C 
ATOM     11  C   UNL d   1      11.014   1.115 -16.045  0.00  0.00     0.021 C 
ATOM     12  C   UNL d   1      10.297   1.819 -17.200  0.00  0.00     0.052 C 
ATOM     13  C   UNL d   1      11.130   2.812 -18.020  0.00  0.00     0.252 C 
ATOM     14  C   UNL d   1       9.222   2.675 -16.539  0.00  0.00     0.097 C 
ATOM     15  N   UNL d   1      10.187   3.896 -18.262  0.00  0.00     0.138 N 
ATOM     16  C   UNL d   1       9.560   4.105 -16.968  0.00  0.00     0.266 C 
BRANCH  15  17
ATOM     17  C   UNL d   1      10.806   5.124 -18.738  0.00  0.00     0.251 C 
BRANCH  17  18
ATOM     18  C   UNL d   1      11.365   4.961 -20.160  0.00  0.00     0.047 C 
BRANCH  18  19
ATOM     19  C   UNL d   1      11.457   6.288 -20.926  0.00  0.00     0.067 C 
BRANCH  19  20
ATOM     20  S   UNL d   1      12.327   7.591 -19.993  0.00  0.00    -0.075 SA
BRANCH  20  21
ATOM     21  C   UNL d   1      13.995   7.069 -20.194  0.00  0.00     0.193 A 
ATOM     22  N   UNL d   1      14.978   7.383 -19.325  0.00  0.00    -0.287 N 
ATOM     23  C   UNL d   1      14.870   8.110 -18.063  0.00  0.00     0.134 C 
ATOM     24  C   UNL d   1      16.074   6.867 -19.944  0.00  0.00     0.186 A 
ATOM     25  N   UNL d   1      15.762   6.230 -21.081  0.00  0.00    -0.127 NA
ATOM     26  N   UNL d   1      14.409   6.364 -21.243  0.00  0.00    -0.122 NA
BRANCH  24  27
ATOM     27  C   UNL d   1      17.478   6.962 -19.510  0.00  0.00     0.136 A 
ATOM     28  N   UNL d   1      17.782   7.608 -18.357  0.00  0.00    -0.238 NA
ATOM     29  C   UNL d   1      19.087   7.698 -18.022  0.00  0.00     0.120 A 
ATOM     30  C   UNL d   1      20.099   7.144 -18.835  0.00  0.00     0.120 A 
ATOM     31  N   UNL d   1      19.817   6.492 -19.982  0.00  0.00    -0.239 NA
ATOM     32  C   UNL d   1      18.510   6.410 -20.314  0.00  0.00     0.121 A 
ENDBRANCH  24  27
ENDBRANCH  20  21
ENDBRANCH  19  20
ENDBRANCH  18  19
ENDBRANCH  17  18
ENDBRANCH  15  17
ENDBRANCH   1   9
TORSDOF 7
