REMARK  7 active torsions:
REMARK  status: ('A' for Active; 'I' for Inactive)
REMARK    1  A    between atoms: C_2  and  C_3 
REMARK       I    between atoms: C_2  and  N_6 
REMARK    2  A    between atoms: C_3  and  C_4 
REMARK    3  A    between atoms: N_6  and  C_7 
REMARK    4  A    between atoms: C_10  and  C_11 
REMARK    5  A    between atoms: C_11  and  C_12 
REMARK    6  A    between atoms: C_12  and  N_13 
REMARK    7  A    between atoms: C_16  and  C_17 
ROOT
ATOM      1  N   UNL d   1       8.175   4.796 -11.824  0.00  0.00     0.137 N 
ATOM      2  C   UNL d   1       9.472   4.603 -12.462  0.00  0.00     0.251 C 
ATOM      3  C   UNL d   1       9.445   3.400 -13.400  0.00  0.00     0.040 C 
ATOM      4  C   UNL d   1       8.361   3.557 -14.478  0.00  0.00     0.026 C 
ATOM      5  C   UNL d   1       7.034   3.939 -13.770  0.00  0.00     0.040 C 
ATOM      6  C   UNL d   1       7.190   5.137 -12.842  0.00  0.00     0.251 C 
ENDROOT
BRANCH   1   7
ATOM      7  C   UNL d   1       8.248   5.897 -10.878  0.00  0.00     0.250 C 
BRANCH   7   8
ATOM      8  C   UNL d   1       8.938   5.466  -9.576  0.00  0.00     0.035 C 
BRANCH   8   9
ATOM      9  C   UNL d   1       9.160   6.656  -8.636  0.00  0.00     0.002 C 
ATOM     10  C   UNL d   1       9.326   6.162  -7.218  0.00  0.00     0.002 C 
ATOM     11  C   UNL d   1       9.576   7.302  -6.237  0.00  0.00     0.024 C 
ATOM     12  C   UNL d   1      10.858   8.080  -6.645  0.00  0.00     0.106 C 
ATOM     13  C   UNL d   1      10.702   8.624  -8.075  0.00  0.00     0.024 C 
ATOM     14  C   UNL d   1      10.390   7.492  -9.063  0.00  0.00     0.002 C 
BRANCH  12  15
ATOM     15  N   UNL d   1      11.114   9.169  -5.720  0.00  0.00    -0.240 NA
ATOM     16  C   UNL d   1      11.465   9.024  -4.435  0.00  0.00     0.254 C 
ATOM     17  O   UNL d   1      11.429   9.985  -3.669  0.00  0.00    -0.270 OA
BRANCH  16  18
ATOM     18  C   UNL d   1      11.930   7.653  -3.920  0.00  0.00     0.125 C 
BRANCH  18  19
ATOM     19  C   UNL d   1      12.032   7.595  -2.393  0.00  0.00     0.192 C 
ATOM     20  O   UNL d   1      12.650   6.388  -2.050  0.00  0.00    -0.220 OA
ENDBRANCH  18  19
ENDBRANCH  16  18
ENDBRANCH  12  15
ENDBRANCH   8   9
ENDBRANCH   7   8
ENDBRANCH   1   7
BRANCH   4  21
ATOM     21  C   UNL d   1       8.241   2.306 -15.353  0.00  0.00    -0.024 A 
ATOM     22  C   UNL d   1       9.312   1.844 -16.151  0.00  0.00    -0.001 A 
ATOM     23  C   UNL d   1       9.201   0.702 -16.937  0.00  0.00     0.090 A 
ATOM     24  C   UNL d   1      10.687   2.412 -16.336  0.00  0.00     0.061 A 
ATOM     25  C   UNL d   1       8.010  -0.035 -16.980  0.00  0.00     0.024 A 
ATOM     26  O   UNL d   1      10.345   0.406 -17.627  0.00  0.00    -0.331 OA
ATOM     27  C   UNL d   1       6.920   0.399 -16.195  0.00  0.00     0.002 A 
ATOM     28  C   UNL d   1       7.032   1.552 -15.399  0.00  0.00    -0.004 A 
ATOM     29  C   UNL d   1      11.320   1.417 -17.330  0.00  0.00     0.154 A 
ENDBRANCH   4  21
TORSDOF 7
