REMARK  5 active torsions:
REMARK  status: ('A' for Active; 'I' for Inactive)
REMARK    1  A    between atoms: O_2  and  C_3 
REMARK    2  A    between atoms: C_8  and  N_9 
REMARK    3  A    between atoms: N_12  and  C_13 
REMARK    4  A    between atoms: C_13  and  N_14 
REMARK       I    between atoms: N_14  and  C_15 
REMARK    5  A    between atoms: C_15  and  C_17 
ROOT
ATOM      1  N   UNL d   1      11.376   7.241  -6.645  0.00  0.00    -0.344 N 
ATOM      2  C   UNL d   1      10.402   6.237  -7.031  0.00  0.00     0.119 C 
ATOM      3  C   UNL d   1       9.565   6.764  -8.207  0.00  0.00     0.102 C 
ATOM      4  N   UNL d   1      10.474   7.119  -9.317  0.00  0.00    -0.232 NA
ATOM      5  C   UNL d   1      11.344   8.225  -8.887  0.00  0.00     0.102 C 
ATOM      6  C   UNL d   1      12.200   7.834  -7.686  0.00  0.00     0.119 C 
ENDROOT
BRANCH   4   7
ATOM      7  C   UNL d   1       9.718   7.549 -10.489  0.00  0.00     0.152 C 
BRANCH   7   8
ATOM      8  N   UNL d   1       8.824   6.585 -11.108  0.00  0.00    -0.194 NA
ATOM      9  C   UNL d   1       9.100   5.668 -12.057  0.00  0.00     0.280 C 
ATOM     10  O   UNL d   1      10.203   5.500 -12.572  0.00  0.00    -0.265 OA
BRANCH   9  11
ATOM     11  C   UNL d   1       7.966   4.830 -12.555  0.00  0.00     0.058 A 
ATOM     12  C   UNL d   1       8.238   3.869 -13.560  0.00  0.00     0.001 A 
ATOM     13  C   UNL d   1       7.220   3.025 -14.036  0.00  0.00    -0.022 A 
ATOM     14  C   UNL d   1       5.926   3.139 -13.495  0.00  0.00    -0.004 A 
ATOM     15  C   UNL d   1       7.529   1.983 -15.083  0.00  0.00     0.031 C 
ATOM     16  C   UNL d   1       5.641   4.106 -12.517  0.00  0.00    -0.000 A 
ATOM     17  C   UNL d   1       6.651   4.960 -12.046  0.00  0.00     0.005 A 
ENDBRANCH   9  11
ENDBRANCH   7   8
ENDBRANCH   4   7
BRANCH   1  18
ATOM     18  C   UNL d   1      11.460   7.705  -5.324  0.00  0.00     0.079 A 
ATOM     19  C   UNL d   1      11.396   9.075  -5.043  0.00  0.00     0.110 A 
ATOM     20  C   UNL d   1      11.613   9.543  -3.728  0.00  0.00     0.026 A 
ATOM     21  C   UNL d   1      11.898   8.634  -2.694  0.00  0.00     0.002 A 
ATOM     22  C   UNL d   1      11.871   7.261  -2.956  0.00  0.00     0.002 A 
ATOM     23  C   UNL d   1      11.684   6.790  -4.269  0.00  0.00     0.019 A 
BRANCH  19  24
ATOM     24  O   UNL d   1      11.080   9.903  -6.092  0.00  0.00    -0.327 OA
ATOM     25  C   UNL d   1      11.810  11.115  -6.097  0.00  0.00     0.181 C 
ENDBRANCH  19  24
ENDBRANCH   1  18
TORSDOF 5
