REMARK  9 active torsions:
REMARK  status: ('A' for Active; 'I' for Inactive)
REMARK    1  A    between atoms: C_2  and  O_3 
REMARK    2  A    between atoms: O_3  and  C_4 
REMARK    3  A    between atoms: C_9  and  N_10 
REMARK    4  A    between atoms: N_16  and  C_17 
REMARK    5  A    between atoms: C_17  and  C_18 
REMARK    6  A    between atoms: C_18  and  C_19 
REMARK    7  A    between atoms: C_19  and  S_20 
REMARK    8  A    between atoms: S_20  and  C_21 
REMARK    9  A    between atoms: C_24  and  C_25 
ROOT
ATOM      1  N   UNL d   1       8.847   6.215 -10.210  0.00  0.00    -0.347 N 
ATOM      2  C   UNL d   1       8.508   4.804 -10.284  0.00  0.00     0.102 C 
ATOM      3  C   UNL d   1       9.210   4.213 -11.522  0.00  0.00     0.024 C 
ATOM      4  C   UNL d   1       8.864   4.977 -12.804  0.00  0.00     0.008 C 
ATOM      5  C   UNL d   1       7.368   4.820 -13.150  0.00  0.00     0.035 C 
ATOM      6  C   UNL d   1       6.951   3.428 -13.650  0.00  0.00     0.250 C 
ATOM      7  N   UNL d   1       7.811   3.000 -14.757  0.00  0.00     0.137 N 
ATOM      8  C   UNL d   1       9.240   3.017 -14.397  0.00  0.00     0.250 C 
ATOM      9  C   UNL d   1       9.671   4.442 -14.003  0.00  0.00     0.035 C 
ATOM     10  C   UNL d   1       9.186   6.460 -12.594  0.00  0.00     0.024 C 
ATOM     11  C   UNL d   1       8.547   7.035 -11.378  0.00  0.00     0.102 C 
ENDROOT
BRANCH   7  12
ATOM     12  C   UNL d   1       7.381   1.663 -15.146  0.00  0.00     0.251 C 
BRANCH  12  13
ATOM     13  C   UNL d   1       7.820   1.383 -16.585  0.00  0.00     0.047 C 
BRANCH  13  14
ATOM     14  C   UNL d   1       7.384  -0.020 -17.044  0.00  0.00     0.067 C 
BRANCH  14  15
ATOM     15  S   UNL d   1       7.767  -0.336 -18.790  0.00  0.00    -0.075 SA
BRANCH  15  16
ATOM     16  C   UNL d   1       9.535  -0.356 -18.747  0.00  0.00     0.193 A 
ATOM     17  N   UNL d   1      10.263  -0.265 -19.879  0.00  0.00    -0.289 N 
ATOM     18  C   UNL d   1      11.536  -0.291 -19.406  0.00  0.00     0.167 A 
ATOM     19  C   UNL d   1       9.761  -0.189 -21.249  0.00  0.00     0.134 C 
ATOM     20  N   UNL d   1      11.572  -0.366 -18.068  0.00  0.00    -0.128 NA
ATOM     21  N   UNL d   1      10.273  -0.452 -17.640  0.00  0.00    -0.122 NA
BRANCH  18  22
ATOM     22  C   UNL d   1      12.774  -0.270 -20.200  0.00  0.00     0.036 A 
ATOM     23  C   UNL d   1      12.836  -0.865 -21.484  0.00  0.00     0.003 A 
ATOM     24  C   UNL d   1      14.016  -0.808 -22.243  0.00  0.00     0.000 A 
ATOM     25  C   UNL d   1      15.175  -0.211 -21.709  0.00  0.00     0.000 A 
ATOM     26  C   UNL d   1      15.141   0.338 -20.411  0.00  0.00     0.000 A 
ATOM     27  C   UNL d   1      13.945   0.323 -19.664  0.00  0.00     0.003 A 
ENDBRANCH  18  22
ENDBRANCH  15  16
ENDBRANCH  14  15
ENDBRANCH  13  14
ENDBRANCH  12  13
ENDBRANCH   7  12
BRANCH   1  28
ATOM     28  C   UNL d   1       9.366   6.776  -9.034  0.00  0.00     0.079 A 
ATOM     29  C   UNL d   1      10.458   7.674  -9.082  0.00  0.00     0.109 A 
ATOM     30  C   UNL d   1      10.945   8.232  -7.878  0.00  0.00     0.026 A 
ATOM     31  C   UNL d   1      10.377   7.888  -6.642  0.00  0.00     0.002 A 
ATOM     32  C   UNL d   1       9.292   7.000  -6.606  0.00  0.00     0.002 A 
ATOM     33  C   UNL d   1       8.780   6.449  -7.793  0.00  0.00     0.019 A 
BRANCH  29  34
ATOM     34  O   UNL d   1      10.991   7.975 -10.320  0.00  0.00    -0.329 OA
BRANCH  34  35
ATOM     35  C   UNL d   1      12.185   8.746 -10.363  0.00  0.00     0.149 C 
ATOM     36  C   UNL d   1      13.403   7.875  -9.905  0.00  0.00     0.035 C 
ENDBRANCH  34  35
ENDBRANCH  29  34
ENDBRANCH   1  28
TORSDOF 9
