REMARK  1 active torsions:
REMARK  status: ('A' for Active; 'I' for Inactive)
REMARK    1  A    between atoms: C_4  and  C_5 
ROOT
ATOM      1  O   UNL d   1       8.986   4.091 -13.762  0.00  0.00    -0.289 OA
ATOM      2  C   UNL d   1       8.530   3.122 -14.380  0.00  0.00     0.202 C 
ATOM      3  C   UNL d   1       7.225   2.549 -14.211  0.00  0.00     0.064 C 
ATOM      4  C   UNL d   1       7.186   1.421 -14.937  0.00  0.00     0.097 C 
ATOM      5  O   UNL d   1       8.377   1.167 -15.566  0.00  0.00    -0.326 OA
ATOM      6  C   UNL d   1       9.267   2.281 -15.418  0.00  0.00     0.184 C 
ATOM      7  C   UNL d   1      10.687   1.848 -14.920  0.00  0.00     0.285 C 
ATOM      8  N   UNL d   1      11.751   2.394 -15.783  0.00  0.00     0.140 N 
ATOM      9  C   UNL d   1      11.634   1.769 -17.106  0.00  0.00     0.251 C 
ATOM     10  C   UNL d   1      10.244   2.067 -17.728  0.00  0.00     0.038 C 
ATOM     11  C   UNL d   1       9.437   2.996 -16.796  0.00  0.00     0.039 C 
ATOM     12  C   UNL d   1      10.298   4.264 -16.606  0.00  0.00     0.038 C 
ATOM     13  C   UNL d   1      11.635   3.857 -15.925  0.00  0.00     0.251 C 
ENDROOT
BRANCH   4  14
ATOM     14  C   UNL d   1       6.089   0.478 -15.014  0.00  0.00     0.022 A 
ATOM     15  C   UNL d   1       5.972  -0.374 -16.139  0.00  0.00     0.002 A 
ATOM     16  C   UNL d   1       4.880  -1.254 -16.243  0.00  0.00     0.000 A 
ATOM     17  C   UNL d   1       3.884  -1.268 -15.249  0.00  0.00     0.000 A 
ATOM     18  C   UNL d   1       3.980  -0.410 -14.133  0.00  0.00     0.000 A 
ATOM     19  C   UNL d   1       5.088   0.457 -14.022  0.00  0.00     0.002 A 
ENDBRANCH   4  14
TORSDOF 1
