REMARK  8 active torsions:
REMARK  status: ('A' for Active; 'I' for Inactive)
REMARK       I    between atoms: C_2  and  N_3 
REMARK    1  A    between atoms: C_2  and  C_22 
REMARK    2  A    between atoms: N_3  and  C_4 
REMARK    3  A    between atoms: C_4  and  C_5 
REMARK    4  A    between atoms: C_5  and  C_6 
REMARK    5  A    between atoms: C_6  and  C_7 
REMARK    6  A    between atoms: C_7  and  N_8 
REMARK    7  A    between atoms: N_11  and  C_12 
REMARK    8  A    between atoms: C_25  and  C_26 
ROOT
ATOM      1  C   UNL d   1       9.265   4.334 -12.497  0.00  0.00     0.029 C 
ENDROOT
BRANCH   1   2
ATOM      2  C   UNL d   1       8.852   5.753 -12.072  0.00  0.00     0.129 C 
BRANCH   2   3
ATOM      3  N   UNL d   1       9.458   6.112 -10.796  0.00  0.00    -0.234 NA
ATOM      4  C   UNL d   1       9.846   7.346 -10.435  0.00  0.00     0.275 C 
ATOM      5  O   UNL d   1       9.830   8.312 -11.201  0.00  0.00    -0.266 OA
BRANCH   4   6
ATOM      6  C   UNL d   1      10.290   7.513  -9.008  0.00  0.00     0.058 A 
ATOM      7  C   UNL d   1      11.057   8.636  -8.638  0.00  0.00     0.005 A 
ATOM      8  C   UNL d   1      11.446   8.832  -7.299  0.00  0.00     0.000 A 
ATOM      9  C   UNL d   1      11.057   7.907  -6.305  0.00  0.00     0.001 A 
ATOM     10  C   UNL d   1      10.282   6.792  -6.669  0.00  0.00     0.000 A 
ATOM     11  C   UNL d   1       9.885   6.599  -8.004  0.00  0.00     0.005 A 
BRANCH   9  12
ATOM     12  C   UNL d   1      11.470   8.073  -4.911  0.00  0.00     0.007 A 
ATOM     13  C   UNL d   1      11.767   7.076  -4.009  0.00  0.00     0.035 A 
ATOM     14  S   UNL d   1      12.256   7.701  -2.458  0.00  0.00    -0.086 SA
ATOM     15  C   UNL d   1      12.056   9.330  -3.031  0.00  0.00     0.035 A 
ATOM     16  C   UNL d   1      11.637   9.367  -4.334  0.00  0.00     0.007 A 
ENDBRANCH   9  12
ENDBRANCH   4   6
ENDBRANCH   2   3
ENDBRANCH   1   2
BRANCH   1  17
ATOM     17  C   UNL d   1       8.786   3.977 -13.909  0.00  0.00     0.037 C 
BRANCH  17  18
ATOM     18  C   UNL d   1       9.156   2.530 -14.300  0.00  0.00     0.251 C 
BRANCH  18  19
ATOM     19  N   UNL d   1       8.793   2.228 -15.681  0.00  0.00     0.141 N 
ATOM     20  C   UNL d   1       7.344   2.022 -15.808  0.00  0.00     0.274 C 
ATOM     21  C   UNL d   1       7.009   1.790 -17.294  0.00  0.00     0.137 C 
ATOM     22  N   UNL d   1       7.716   0.620 -17.790  0.00  0.00    -0.344 N 
ATOM     23  C   UNL d   1       9.153   0.656 -17.566  0.00  0.00     0.137 C 
ATOM     24  C   UNL d   1       9.456   0.981 -16.086  0.00  0.00     0.274 C 
BRANCH  22  25
ATOM     25  C   UNL d   1       7.066  -0.468 -18.395  0.00  0.00     0.058 A 
ATOM     26  C   UNL d   1       5.741  -0.804 -18.036  0.00  0.00     0.028 A 
ATOM     27  C   UNL d   1       5.088  -1.873 -18.672  0.00  0.00     0.060 A 
ATOM     28  C   UNL d   1       5.741  -2.644 -19.645  0.00  0.00     0.023 A 
ATOM     29 CL   UNL d   1       3.464  -2.224 -18.279  0.00  0.00    -0.082 Cl
ATOM     30  C   UNL d   1       7.051  -2.312 -20.021  0.00  0.00     0.060 A 
ATOM     31  C   UNL d   1       7.709  -1.234 -19.397  0.00  0.00     0.028 A 
ATOM     32 CL   UNL d   1       7.830  -3.206 -21.275  0.00  0.00    -0.082 Cl
ENDBRANCH  22  25
ENDBRANCH  18  19
ENDBRANCH  17  18
ENDBRANCH   1  17
TORSDOF 8
