REMARK  7 active torsions:
REMARK  status: ('A' for Active; 'I' for Inactive)
REMARK    1  A    between atoms: C_6  and  N_7 
REMARK    2  A    between atoms: N_10  and  C_11 
REMARK    3  A    between atoms: C_11  and  C_12 
REMARK    4  A    between atoms: C_12  and  C_13 
REMARK    5  A    between atoms: C_13  and  C_14 
REMARK    6  A    between atoms: C_14  and  N_15 
REMARK    7  A    between atoms: N_15  and  C_16 
ROOT
ATOM      1  C   UNL d   1       9.479   6.207 -11.421  0.00  0.00     0.251 C 
ENDROOT
BRANCH   1   2
ATOM      2  N   UNL d   1       9.324   5.485 -12.681  0.00  0.00     0.141 N 
ATOM      3  C   UNL d   1       7.893   5.288 -12.902  0.00  0.00     0.274 C 
ATOM      4  C   UNL d   1       7.712   4.618 -14.254  0.00  0.00     0.137 C 
ATOM      5  N   UNL d   1       8.416   3.355 -14.333  0.00  0.00    -0.344 N 
ATOM      6  C   UNL d   1       9.828   3.446 -14.005  0.00  0.00     0.137 C 
ATOM      7  C   UNL d   1       9.969   4.165 -12.648  0.00  0.00     0.274 C 
BRANCH   5   8
ATOM      8  C   UNL d   1       7.772   2.140 -14.632  0.00  0.00     0.068 A 
ATOM      9  C   UNL d   1       8.376   1.280 -15.575  0.00  0.00     0.018 A 
ATOM     10  C   UNL d   1       7.764   0.066 -15.936  0.00  0.00     0.002 A 
ATOM     11  C   UNL d   1       6.549  -0.313 -15.341  0.00  0.00     0.012 A 
ATOM     12  C   UNL d   1       5.943   0.514 -14.393  0.00  0.00     0.070 A 
ATOM     13 CL   UNL d   1       4.476  -0.021 -13.652  0.00  0.00    -0.081 Cl
ATOM     14  C   UNL d   1       6.526   1.748 -14.036  0.00  0.00     0.084 A 
ATOM     15 CL   UNL d   1       5.693   2.669 -12.828  0.00  0.00    -0.080 Cl
ENDBRANCH   5   8
ENDBRANCH   1   2
BRANCH   1  16
ATOM     16  C   UNL d   1       9.287   7.727 -11.709  0.00  0.00     0.037 C 
BRANCH  16  17
ATOM     17  C   UNL d   1       9.550   8.599 -10.489  0.00  0.00     0.028 C 
BRANCH  17  18
ATOM     18  C   UNL d   1      11.050   8.732 -10.152  0.00  0.00     0.127 C 
BRANCH  18  19
ATOM     19  N   UNL d   1      11.348   9.077  -8.769  0.00  0.00    -0.253 NA
BRANCH  19  20
ATOM     20  C   UNL d   1      10.993   8.258  -7.685  0.00  0.00     0.158 C 
ATOM     21  C   UNL d   1      11.451   8.533  -6.375  0.00  0.00     0.035 C 
ATOM     22  C   UNL d   1      10.958   7.716  -5.316  0.00  0.00     0.004 C 
ATOM     23  C   UNL d   1      12.412   9.517  -6.081  0.00  0.00     0.003 C 
ATOM     24  C   UNL d   1       9.984   6.784  -5.588  0.00  0.00     0.021 C 
ATOM     25  C   UNL d   1      11.474   7.864  -4.006  0.00  0.00     0.000 C 
ATOM     26  C   UNL d   1       9.548   6.632  -6.903  0.00  0.00     0.101 C 
ATOM     27  N   UNL d   1      10.144   7.255  -7.924  0.00  0.00    -0.226 NA
ATOM     28  C   UNL d   1      12.482   8.816  -3.745  0.00  0.00     0.000 C 
ATOM     29  C   UNL d   1      12.982   9.583  -4.799  0.00  0.00     0.000 C 
ENDBRANCH  19  20
ENDBRANCH  18  19
ENDBRANCH  17  18
ENDBRANCH  16  17
ENDBRANCH   1  16
TORSDOF 7
