REMARK  5 active torsions:
REMARK  status: ('A' for Active; 'I' for Inactive)
REMARK    1  A    between atoms: C_13  and  C_14 
REMARK    2  A    between atoms: C_17  and  C_18 
REMARK    3  A    between atoms: C_18  and  N_19 
REMARK    4  A    between atoms: N_19  and  S_21 
REMARK    5  A    between atoms: S_21  and  C_24 
ROOT
ATOM      1  C   UNL d   1       9.442   4.812 -13.236  0.00  0.00    -0.017 A 
ATOM      2  C   UNL d   1       9.810   3.992 -12.157  0.00  0.00    -0.004 A 
ATOM      3  C   UNL d   1       9.549   4.394 -10.834  0.00  0.00    -0.003 A 
ATOM      4  C   UNL d   1       9.031   5.652 -10.533  0.00  0.00     0.001 A 
ATOM      5  C   UNL d   1       8.671   6.486 -11.589  0.00  0.00    -0.003 A 
ATOM      6  C   UNL d   1       8.830   6.067 -12.919  0.00  0.00    -0.004 A 
ENDROOT
BRANCH   1   7
ATOM      7  C   UNL d   1       9.677   4.340 -14.694  0.00  0.00     0.078 C 
ATOM      8  C   UNL d   1       8.758   3.189 -15.162  0.00  0.00    -0.018 A 
ATOM      9  C   UNL d   1       8.700   2.786 -16.512  0.00  0.00    -0.023 A 
ATOM     10  C   UNL d   1       7.878   2.556 -14.248  0.00  0.00     0.024 A 
ATOM     11  C   UNL d   1       9.535   3.482 -17.566  0.00  0.00     0.061 C 
ATOM     12  C   UNL d   1       7.814   1.759 -16.929  0.00  0.00     0.009 A 
ATOM     13  C   UNL d   1      11.037   3.300 -17.338  0.00  0.00     0.255 C 
ATOM     14  N   UNL d   1      11.585   4.251 -16.370  0.00  0.00     0.140 N 
ATOM     15  C   UNL d   1      13.037   4.163 -16.445  0.00  0.00     0.285 C 
ATOM     16  C   UNL d   1      11.177   4.036 -14.973  0.00  0.00     0.259 C 
ATOM     17  C   UNL d   1       6.982   1.107 -15.991  0.00  0.00     0.083 A 
ATOM     18 CL   UNL d   1       5.838  -0.080 -16.519  0.00  0.00    -0.080 Cl
ATOM     19  C   UNL d   1       7.025   1.513 -14.646  0.00  0.00     0.141 A 
ATOM     20  O   UNL d   1       6.209   0.933 -13.701  0.00  0.00    -0.189 OA
ENDBRANCH   1   7
BRANCH   4  21
ATOM     21  C   UNL d   1       8.880   6.034  -9.079  0.00  0.00     0.140 C 
BRANCH  21  22
ATOM     22  N   UNL d   1       9.727   7.170  -8.701  0.00  0.00    -0.268 N 
ATOM     23  C   UNL d   1      11.147   6.930  -8.746  0.00  0.00     0.138 C 
BRANCH  22  24
ATOM     24  S   UNL d   1       9.139   8.132  -7.437  0.00  0.00     0.264 S 
ATOM     25  O   UNL d   1       8.742   9.418  -8.031  0.00  0.00    -0.200 OA
ATOM     26  O   UNL d   1       8.254   7.287  -6.667  0.00  0.00    -0.200 OA
BRANCH  24  27
ATOM     27  C   UNL d   1      10.457   8.426  -6.326  0.00  0.00     0.103 A 
ATOM     28  C   UNL d   1      11.191   9.608  -6.428  0.00  0.00     0.013 A 
ATOM     29  C   UNL d   1      12.257   9.796  -5.545  0.00  0.00     0.001 A 
ATOM     30  C   UNL d   1      12.524   8.851  -4.529  0.00  0.00     0.000 A 
ATOM     31  C   UNL d   1      11.758   7.672  -4.423  0.00  0.00     0.001 A 
ATOM     32  C   UNL d   1      10.704   7.461  -5.327  0.00  0.00     0.013 A 
ENDBRANCH  24  27
ENDBRANCH  22  24
ENDBRANCH  21  22
ENDBRANCH   4  21
TORSDOF 5
