REMARK  5 active torsions:
REMARK  status: ('A' for Active; 'I' for Inactive)
REMARK    1  A    between atoms: O_2  and  C_3 
REMARK    2  A    between atoms: C_9  and  C_10 
REMARK    3  A    between atoms: C_10  and  N_11 
REMARK    4  A    between atoms: N_14  and  C_15 
REMARK    5  A    between atoms: C_15  and  C_16 
REMARK       I    between atoms: C_16  and  N_18 
ROOT
ATOM      1  N   UNL d   1      10.529   2.749 -15.671  0.00  0.00     0.146 N 
ATOM      2  C   UNL d   1      11.163   3.514 -14.600  0.00  0.00     0.286 C 
ATOM      3  C   UNL d   1      10.329   3.416 -13.305  0.00  0.00     0.286 C 
ATOM      4  N   UNL d   1       8.915   3.809 -13.414  0.00  0.00     0.151 N 
ATOM      5  C   UNL d   1       8.331   3.011 -14.492  0.00  0.00     0.286 C 
ATOM      6  C   UNL d   1       9.126   3.102 -15.828  0.00  0.00     0.286 C 
ENDROOT
BRANCH   4   7
ATOM      7  C   UNL d   1       8.769   5.234 -13.682  0.00  0.00     0.337 C 
BRANCH   7   8
ATOM      8  C   UNL d   1       9.022   6.207 -12.515  0.00  0.00     0.271 C 
ATOM      9  O   UNL d   1       8.921   7.405 -12.772  0.00  0.00    -0.270 OA
ATOM     10  N   UNL d   1       9.319   5.804 -11.249  0.00  0.00    -0.299 N 
ATOM     11  C   UNL d   1       8.792   4.553 -10.662  0.00  0.00     0.093 A 
ATOM     12  C   UNL d   1       9.779   6.635 -10.214  0.00  0.00     0.058 A 
ATOM     13  C   UNL d   1       9.030   4.653  -9.144  0.00  0.00     0.051 A 
ATOM     14  C   UNL d   1       7.271   4.345 -11.044  0.00  0.00     0.025 C 
ATOM     15  C   UNL d   1       9.614   6.039  -8.977  0.00  0.00    -0.004 A 
ATOM     16  C   UNL d   1       9.882   6.706  -7.759  0.00  0.00    -0.003 A 
ATOM     17  C   UNL d   1      10.359   8.043  -7.813  0.00  0.00    -0.000 A 
ATOM     18  C   UNL d   1      10.596   8.638  -9.075  0.00  0.00     0.002 A 
ATOM     19  C   UNL d   1      10.327   7.948 -10.287  0.00  0.00     0.017 A 
ENDBRANCH   7   8
ENDBRANCH   4   7
BRANCH   1  20
ATOM     20  C   UNL d   1      11.301   2.839 -16.908  0.00  0.00     0.279 C 
BRANCH  20  21
ATOM     21  C   UNL d   1      11.285   4.233 -17.563  0.00  0.00     0.034 A 
ATOM     22  C   UNL d   1      12.328   5.173 -17.340  0.00  0.00     0.092 A 
ATOM     23  C   UNL d   1      12.234   6.462 -17.938  0.00  0.00     0.025 A 
ATOM     24  C   UNL d   1      11.117   6.799 -18.721  0.00  0.00     0.013 A 
ATOM     25  C   UNL d   1      10.075   5.879 -18.916  0.00  0.00     0.058 A 
ATOM     26 CL   UNL d   1       8.664   6.331 -19.809  0.00  0.00    -0.082 Cl
ATOM     27  C   UNL d   1      10.169   4.599 -18.348  0.00  0.00     0.011 A 
BRANCH  22  28
ATOM     28  O   UNL d   1      13.372   4.795 -16.522  0.00  0.00    -0.328 OA
ATOM     29  C   UNL d   1      14.504   5.651 -16.449  0.00  0.00     0.181 C 
ENDBRANCH  22  28
ENDBRANCH  20  21
ENDBRANCH   1  20
TORSDOF 5
