REMARK  7 active torsions:
REMARK  status: ('A' for Active; 'I' for Inactive)
REMARK    1  A    between atoms: C_6  and  S_7 
REMARK    2  A    between atoms: S_7  and  C_10 
REMARK    3  A    between atoms: C_10  and  C_11 
REMARK    4  A    between atoms: N_14  and  C_15 
REMARK    5  A    between atoms: C_15  and  C_16 
REMARK    6  A    between atoms: C_16  and  C_17 
REMARK    7  A    between atoms: C_17  and  C_18 
ROOT
ATOM      1  C   UNL d   1       7.851   4.559 -11.467  0.00  0.00     0.052 C 
ATOM      2  C   UNL d   1       6.823   4.920 -12.529  0.00  0.00     0.038 C 
ATOM      3  C   UNL d   1       7.491   4.531 -13.834  0.00  0.00     0.250 C 
ATOM      4  N   UNL d   1       8.436   3.482 -13.476  0.00  0.00     0.137 N 
ATOM      5  C   UNL d   1       9.046   3.991 -12.254  0.00  0.00     0.251 C 
ENDROOT
BRANCH   4   6
ATOM      6  C   UNL d   1       9.431   3.217 -14.504  0.00  0.00     0.251 C 
BRANCH   6   7
ATOM      7  C   UNL d   1       8.840   2.386 -15.665  0.00  0.00     0.042 C 
BRANCH   7   8
ATOM      8  C   UNL d   1       9.764   2.302 -16.888  0.00  0.00     0.050 C 
BRANCH   8   9
ATOM      9  C   UNL d   1      10.120   3.656 -17.447  0.00  0.00     0.088 A 
ATOM     10  C   UNL d   1      11.281   4.442 -17.276  0.00  0.00     0.041 A 
ATOM     11  C   UNL d   1      11.133   5.637 -17.987  0.00  0.00     0.129 A 
ATOM     12  C   UNL d   1      12.464   4.209 -16.544  0.00  0.00     0.006 A 
ATOM     13  O   UNL d   1       9.881   5.556 -18.572  0.00  0.00    -0.211 OA
ATOM     14  C   UNL d   1      12.121   6.633 -18.017  0.00  0.00     0.057 A 
ATOM     15  N   UNL d   1       9.270   4.315 -18.233  0.00  0.00    -0.131 NA
ATOM     16  C   UNL d   1      13.307   6.400 -17.289  0.00  0.00     0.142 A 
ATOM     17  F   UNL d   1      14.296   7.326 -17.290  0.00  0.00    -0.204 F 
ATOM     18  C   UNL d   1      13.475   5.197 -16.560  0.00  0.00     0.030 A 
ENDBRANCH   8   9
ENDBRANCH   7   8
ENDBRANCH   6   7
ENDBRANCH   4   6
BRANCH   1  19
ATOM     19  C   UNL d   1       8.244   5.775 -10.635  0.00  0.00     0.129 C 
BRANCH  19  20
ATOM     20  S   UNL d   1       9.035   5.290  -9.038  0.00  0.00     0.190 S 
ATOM     21  O   UNL d   1       9.861   4.100  -9.243  0.00  0.00    -0.222 OA
ATOM     22  O   UNL d   1       7.977   5.202  -8.026  0.00  0.00    -0.222 OA
BRANCH  20  23
ATOM     23  C   UNL d   1      10.077   6.664  -8.581  0.00  0.00     0.084 A 
ATOM     24  C   UNL d   1      10.831   7.322  -9.572  0.00  0.00     0.011 A 
ATOM     25  C   UNL d   1      11.662   8.396  -9.218  0.00  0.00     0.000 A 
ATOM     26  C   UNL d   1      11.767   8.785  -7.870  0.00  0.00    -0.004 A 
ATOM     27  C   UNL d   1      11.033   8.112  -6.873  0.00  0.00    -0.021 A 
ATOM     28  C   UNL d   1      11.185   8.531  -5.428  0.00  0.00     0.031 C 
ATOM     29  C   UNL d   1      10.175   7.047  -7.225  0.00  0.00     0.007 A 
ENDBRANCH  20  23
ENDBRANCH  19  20
ENDBRANCH   1  19
TORSDOF 7
