REMARK  4 active torsions:
REMARK  status: ('A' for Active; 'I' for Inactive)
REMARK    1  A    between atoms: C_4  and  N_5 
REMARK    2  A    between atoms: N_8  and  C_9 
REMARK    3  A    between atoms: C_9  and  C_10 
REMARK    4  A    between atoms: N_12  and  C_13 
ROOT
ATOM      1  N   UNL d   1      10.523   8.241  -6.213  0.00  0.00    -0.344 N 
ATOM      2  C   UNL d   1      10.833   9.331  -7.122  0.00  0.00     0.137 C 
ATOM      3  C   UNL d   1      11.228   8.770  -8.493  0.00  0.00     0.275 C 
ATOM      4  N   UNL d   1      10.148   7.918  -9.007  0.00  0.00     0.147 N 
ATOM      5  C   UNL d   1       9.953   6.779  -8.100  0.00  0.00     0.275 C 
ATOM      6  C   UNL d   1       9.543   7.277  -6.705  0.00  0.00     0.137 C 
ENDROOT
BRANCH   4   7
ATOM      7  C   UNL d   1      10.489   7.442 -10.338  0.00  0.00     0.299 C 
BRANCH   7   8
ATOM      8  C   UNL d   1       9.463   6.756 -11.200  0.00  0.00     0.135 A 
ATOM      9  N   UNL d   1       8.657   7.483 -12.071  0.00  0.00    -0.131 NA
ATOM     10  N   UNL d   1       7.844   6.680 -12.675  0.00  0.00    -0.060 NA
ATOM     11  N   UNL d   1       8.145   5.428 -12.268  0.00  0.00    -0.209 N 
ATOM     12  C   UNL d   1       9.168   5.427 -11.342  0.00  0.00     0.121 A 
BRANCH  11  13
ATOM     13  C   UNL d   1       7.449   4.335 -12.802  0.00  0.00     0.085 A 
ATOM     14  C   UNL d   1       6.158   4.033 -12.328  0.00  0.00     0.019 A 
ATOM     15  C   UNL d   1       5.466   2.916 -12.839  0.00  0.00     0.002 A 
ATOM     16  C   UNL d   1       6.066   2.117 -13.831  0.00  0.00     0.000 A 
ATOM     17  C   UNL d   1       7.349   2.432 -14.325  0.00  0.00     0.002 A 
ATOM     18  C   UNL d   1       8.045   3.541 -13.802  0.00  0.00     0.019 A 
ENDBRANCH  11  13
ENDBRANCH   7   8
ENDBRANCH   4   7
BRANCH   1  19
ATOM     19  C   UNL d   1      11.159   8.141  -4.964  0.00  0.00     0.056 A 
ATOM     20  C   UNL d   1      11.467   6.881  -4.405  0.00  0.00     0.017 A 
ATOM     21  C   UNL d   1      12.079   6.791  -3.137  0.00  0.00     0.002 A 
ATOM     22  C   UNL d   1      12.370   7.960  -2.409  0.00  0.00     0.000 A 
ATOM     23  C   UNL d   1      12.058   9.211  -2.954  0.00  0.00     0.002 A 
ATOM     24  C   UNL d   1      11.460   9.305  -4.223  0.00  0.00     0.017 A 
ENDBRANCH   1  19
TORSDOF 4
