REMARK  0 active torsions:
REMARK  status: ('A' for Active; 'I' for Inactive)
ROOT
ATOM      1  C   UNL d   1       3.636  -1.404 -16.595  0.00  0.00     0.285 C 
ATOM      2  N   UNL d   1       4.782  -0.556 -16.288  0.00  0.00     0.140 N 
ATOM      3  C   UNL d   1       5.658  -0.488 -17.454  0.00  0.00     0.252 C 
ATOM      4  C   UNL d   1       6.769   0.531 -17.176  0.00  0.00     0.058 C 
ATOM      5  C   UNL d   1       7.638   0.147 -15.948  0.00  0.00     0.093 C 
ATOM      6  C   UNL d   1       6.747  -0.277 -14.783  0.00  0.00     0.078 C 
ATOM      7  C   UNL d   1       5.522  -1.133 -15.171  0.00  0.00     0.257 C 
ATOM      8  C   UNL d   1       6.478   1.034 -14.106  0.00  0.00    -0.002 A 
ATOM      9  C   UNL d   1       5.464   1.459 -13.232  0.00  0.00    -0.003 A 
ATOM     10  C   UNL d   1       5.484   2.795 -12.780  0.00  0.00     0.000 A 
ATOM     11  C   UNL d   1       6.522   3.674 -13.171  0.00  0.00     0.008 A 
ATOM     12  C   UNL d   1       7.571   3.269 -14.036  0.00  0.00     0.041 A 
ATOM     13  C   UNL d   1       7.491   1.929 -14.479  0.00  0.00     0.062 A 
ATOM     14  N   UNL d   1       8.363   1.320 -15.443  0.00  0.00    -0.329 N 
ATOM     15  C   UNL d   1       9.655   1.639 -15.963  0.00  0.00     0.057 A 
ATOM     16  C   UNL d   1      10.095   1.006 -17.159  0.00  0.00     0.017 A 
ATOM     17  C   UNL d   1      11.358   1.255 -17.724  0.00  0.00     0.002 A 
ATOM     18  C   UNL d   1      12.236   2.151 -17.103  0.00  0.00    -0.000 A 
ATOM     19  C   UNL d   1      11.842   2.785 -15.915  0.00  0.00    -0.002 A 
ATOM     20  C   UNL d   1      10.576   2.534 -15.340  0.00  0.00     0.005 A 
ATOM     21  C   UNL d   1      10.260   3.272 -14.064  0.00  0.00     0.090 C 
ATOM     22  S   UNL d   1       8.888   4.367 -14.391  0.00  0.00    -0.107 SA
ENDROOT
TORSDOF 0
