REMARK  9 active torsions:
REMARK  status: ('A' for Active; 'I' for Inactive)
REMARK       I    between atoms: C_2  and  N_4 
REMARK    1  A    between atoms: N_4  and  C_5 
REMARK    2  A    between atoms: C_10  and  N_11 
REMARK    3  A    between atoms: N_14  and  C_15 
REMARK    4  A    between atoms: C_15  and  C_16 
REMARK    5  A    between atoms: C_16  and  C_17 
REMARK    6  A    between atoms: C_17  and  C_18 
REMARK    7  A    between atoms: C_18  and  C_19 
REMARK    8  A    between atoms: C_19  and  C_20 
REMARK       I    between atoms: C_20  and  N_22 
REMARK    9  A    between atoms: N_22  and  C_23 
ROOT
ATOM      1  C   UNL d   1       8.432   4.896 -11.799  0.00  0.00     0.250 C 
ENDROOT
BRANCH   1   2
ATOM      2  N   UNL d   1       8.631   4.817 -10.353  0.00  0.00     0.141 N 
ATOM      3  C   UNL d   1       9.990   5.122 -10.022  0.00  0.00     0.274 C 
ATOM      4  C   UNL d   1      10.284   5.095  -8.545  0.00  0.00     0.137 C 
ATOM      5  N   UNL d   1       9.508   6.040  -7.819  0.00  0.00    -0.343 N 
ATOM      6  C   UNL d   1       8.111   5.954  -8.154  0.00  0.00     0.137 C 
ATOM      7  C   UNL d   1       7.896   5.938  -9.718  0.00  0.00     0.274 C 
BRANCH   5   8
ATOM      8  C   UNL d   1      10.068   7.043  -7.016  0.00  0.00     0.074 A 
ATOM      9  C   UNL d   1      10.057   8.415  -7.390  0.00  0.00     0.100 A 
ATOM     10  C   UNL d   1      10.620   9.356  -6.525  0.00  0.00     0.021 A 
ATOM     11  C   UNL d   1      11.166   8.973  -5.285  0.00  0.00     0.002 A 
ATOM     12  C   UNL d   1      11.190   7.619  -4.918  0.00  0.00     0.002 A 
ATOM     13  C   UNL d   1      10.667   6.675  -5.789  0.00  0.00     0.018 A 
BRANCH   9  14
ATOM     14  N   UNL d   1       9.512   8.828  -8.632  0.00  0.00    -0.210 NA
ATOM     15  C   UNL d   1      10.105   8.656  -9.827  0.00  0.00     0.256 C 
ATOM     16  C   UNL d   1      11.556   8.148  -9.880  0.00  0.00     0.100 C 
ATOM     17  O   UNL d   1       9.484   8.816 -10.881  0.00  0.00    -0.270 OA
ENDBRANCH   9  14
ENDBRANCH   5   8
ENDBRANCH   1   2
BRANCH   1  18
ATOM     18  C   UNL d   1       9.618   4.366 -12.656  0.00  0.00     0.035 C 
BRANCH  18  19
ATOM     19  C   UNL d   1       9.229   3.216 -13.558  0.00  0.00     0.003 C 
BRANCH  19  20
ATOM     20  C   UNL d   1      10.412   2.705 -14.409  0.00  0.00     0.010 C 
BRANCH  20  21
ATOM     21  C   UNL d   1      10.050   1.492 -15.277  0.00  0.00     0.090 C 
BRANCH  21  22
ATOM     22  C   UNL d   1       8.873   1.780 -16.224  0.00  0.00     0.252 C 
ATOM     23  O   UNL d   1       8.623   2.910 -16.631  0.00  0.00    -0.271 OA
ATOM     24  N   UNL d   1       8.103   0.740 -16.541  0.00  0.00    -0.235 NA
BRANCH  24  25
ATOM     25  C   UNL d   1       6.807   0.814 -17.208  0.00  0.00     0.128 C 
ATOM     26  C   UNL d   1       5.771   0.050 -16.381  0.00  0.00    -0.004 A 
ATOM     27  C   UNL d   1       5.233  -1.174 -16.808  0.00  0.00    -0.024 A 
ATOM     28  C   UNL d   1       5.357   0.597 -15.144  0.00  0.00    -0.003 A 
ATOM     29  C   UNL d   1       5.662  -1.839 -18.112  0.00  0.00     0.026 C 
ATOM     30  C   UNL d   1       4.256  -1.823 -16.021  0.00  0.00    -0.004 A 
ATOM     31  C   UNL d   1       6.957  -1.249 -18.683  0.00  0.00     0.007 C 
ATOM     32  C   UNL d   1       6.933   0.282 -18.646  0.00  0.00     0.029 C 
ATOM     33  C   UNL d   1       3.800  -1.236 -14.830  0.00  0.00    -0.000 A 
ATOM     34  C   UNL d   1       4.353  -0.065 -14.378  0.00  0.00    -0.000 A 
ENDBRANCH  24  25
ENDBRANCH  21  22
ENDBRANCH  20  21
ENDBRANCH  19  20
ENDBRANCH  18  19
ENDBRANCH   1  18
TORSDOF 9
