REMARK  7 active torsions:
REMARK  status: ('A' for Active; 'I' for Inactive)
REMARK    1  A    between atoms: C_3  and  S_4 
REMARK    2  A    between atoms: S_4  and  C_5 
REMARK    3  A    between atoms: C_5  and  C_6 
REMARK    4  A    between atoms: C_6  and  C_7 
REMARK    5  A    between atoms: C_7  and  N_8 
REMARK    6  A    between atoms: N_13  and  C_14 
REMARK    7  A    between atoms: C_24  and  C_25 
ROOT
ATOM      1  C   UNL d   1       8.551   4.927 -11.128  0.00  0.00     0.047 C 
ENDROOT
BRANCH   1   2
ATOM      2  C   UNL d   1       7.214   4.804 -11.918  0.00  0.00     0.067 C 
BRANCH   2   3
ATOM      3  S   UNL d   1       7.237   3.678 -13.375  0.00  0.00    -0.075 SA
BRANCH   3   4
ATOM      4  C   UNL d   1       8.711   4.160 -14.190  0.00  0.00     0.193 A 
ATOM      5  N   UNL d   1       9.181   3.573 -15.330  0.00  0.00    -0.292 N 
ATOM      6  C   UNL d   1       8.569   2.538 -16.174  0.00  0.00     0.134 C 
ATOM      7  C   UNL d   1      10.320   4.243 -15.529  0.00  0.00     0.143 A 
ATOM      8  N   UNL d   1      10.572   5.154 -14.571  0.00  0.00    -0.133 NA
ATOM      9  N   UNL d   1       9.486   5.147 -13.797  0.00  0.00    -0.122 NA
BRANCH   7  10
ATOM     10  C   UNL d   1      11.236   4.082 -16.739  0.00  0.00     0.064 C 
ATOM     11  C   UNL d   1      11.230   5.366 -17.609  0.00  0.00     0.040 C 
ATOM     12  C   UNL d   1      12.008   6.542 -16.964  0.00  0.00     0.143 C 
ATOM     13  O   UNL d   1      13.331   6.123 -16.655  0.00  0.00    -0.354 OA
ATOM     14  C   UNL d   1      13.402   5.056 -15.712  0.00  0.00     0.143 C 
ATOM     15  C   UNL d   1      12.691   3.781 -16.291  0.00  0.00     0.040 C 
ENDBRANCH   7  10
ENDBRANCH   3   4
ENDBRANCH   2   3
ENDBRANCH   1   2
BRANCH   1  16
ATOM     16  C   UNL d   1       8.461   5.520  -9.712  0.00  0.00     0.251 C 
BRANCH  16  17
ATOM     17  N   UNL d   1       9.787   6.025  -9.332  0.00  0.00     0.139 N 
ATOM     18  C   UNL d   1       9.730   6.539  -7.984  0.00  0.00     0.272 C 
ATOM     19  C   UNL d   1      11.071   7.247  -7.851  0.00  0.00     0.117 C 
ATOM     20  C   UNL d   1      11.322   7.835  -9.233  0.00  0.00     0.058 C 
ATOM     21  N   UNL d   1      11.023   8.346  -6.898  0.00  0.00    -0.348 N 
ATOM     22  C   UNL d   1      10.241   7.195 -10.104  0.00  0.00     0.252 C 
ATOM     23  C   UNL d   1      11.197   9.338  -9.051  0.00  0.00     0.028 C 
ATOM     24  C   UNL d   1      11.547   9.517  -7.571  0.00  0.00     0.102 C 
BRANCH  21  25
ATOM     25  C   UNL d   1      11.348   8.140  -5.540  0.00  0.00     0.056 A 
ATOM     26  C   UNL d   1      11.573   9.234  -4.670  0.00  0.00     0.017 A 
ATOM     27  C   UNL d   1      11.873   9.032  -3.306  0.00  0.00     0.002 A 
ATOM     28  C   UNL d   1      11.961   7.728  -2.789  0.00  0.00     0.000 A 
ATOM     29  C   UNL d   1      11.762   6.637  -3.646  0.00  0.00     0.002 A 
ATOM     30  C   UNL d   1      11.451   6.837  -5.002  0.00  0.00     0.017 A 
ENDBRANCH  21  25
ENDBRANCH  16  17
ENDBRANCH   1  16
TORSDOF 7
