REMARK  6 active torsions:
REMARK  status: ('A' for Active; 'I' for Inactive)
REMARK    1  A    between atoms: C_2  and  C_3 
REMARK    2  A    between atoms: C_3  and  N_4 
REMARK    3  A    between atoms: N_4  and  C_5 
REMARK    4  A    between atoms: N_4  and  C_8 
REMARK    5  A    between atoms: C_5  and  C_6 
REMARK    6  A    between atoms: C_17  and  C_18 
ROOT
ATOM      1  C   UNL d   1       7.594   1.892 -14.324  0.00  0.00     0.224 C 
ATOM      2  C   UNL d   1       6.325   2.386 -13.625  0.00  0.00     0.038 C 
ATOM      3  C   UNL d   1       5.344   1.262 -13.375  0.00  0.00     0.028 C 
ATOM      4  C   UNL d   1       5.155   0.321 -14.582  0.00  0.00    -0.026 A 
ATOM      5  C   UNL d   1       4.009  -0.480 -14.522  0.00  0.00    -0.003 A 
ATOM      6  C   UNL d   1       3.768  -1.363 -15.575  0.00  0.00     0.019 A 
ATOM      7  C   UNL d   1       4.631  -1.462 -16.646  0.00  0.00     0.081 A 
ATOM      8  N   UNL d   1       4.497  -2.290 -17.723  0.00  0.00    -0.244 NA
ATOM      9  C   UNL d   1       5.514  -2.116 -18.608  0.00  0.00     0.102 A 
ATOM     10  C   UNL d   1       6.370  -1.129 -18.133  0.00  0.00     0.055 A 
ATOM     11  C   UNL d   1       5.817  -0.677 -16.824  0.00  0.00     0.018 A 
ATOM     12  C   UNL d   1       6.029   0.268 -15.706  0.00  0.00    -0.023 A 
ATOM     13  C   UNL d   1       7.166   1.284 -15.713  0.00  0.00     0.059 C 
ENDROOT
BRANCH   1  14
ATOM     14  N   UNL d   1       8.627   2.942 -14.502  0.00  0.00     0.135 N 
BRANCH  14  15
ATOM     15  C   UNL d   1       8.464   4.056 -13.559  0.00  0.00     0.250 C 
BRANCH  15  16
ATOM     16  C   UNL d   1       9.385   5.234 -13.832  0.00  0.00     0.035 C 
ATOM     17  C   UNL d   1       9.168   6.364 -12.833  0.00  0.00     0.002 C 
ENDBRANCH  15  16
ENDBRANCH  14  15
BRANCH  14  18
ATOM     18  C   UNL d   1      10.001   2.401 -14.451  0.00  0.00     0.250 C 
BRANCH  18  19
ATOM     19  C   UNL d   1      10.258   1.358 -15.541  0.00  0.00     0.035 C 
ATOM     20  C   UNL d   1       9.852  -0.077 -15.109  0.00  0.00     0.002 C 
ENDBRANCH  18  19
ENDBRANCH  14  18
ENDBRANCH   1  14
BRANCH  10  21
ATOM     21  C   UNL d   1       7.508  -0.815 -19.020  0.00  0.00     0.175 C 
ATOM     22  C   UNL d   1       8.441   0.279 -18.561  0.00  0.00     0.077 C 
ATOM     23  O   UNL d   1       7.759  -1.346 -20.096  0.00  0.00    -0.291 OA
ENDBRANCH  10  21
TORSDOF 6
