REMARK  5 active torsions:
REMARK  status: ('A' for Active; 'I' for Inactive)
REMARK    1  A    between atoms: C_2  and  C_3 
REMARK    2  A    between atoms: C_3  and  O_4 
REMARK    3  A    between atoms: C_3  and  C_13 
REMARK    4  A    between atoms: O_4  and  C_5 
REMARK    5  A    between atoms: C_18  and  N_19 
ROOT
ATOM      1  C   UNL d   1       9.174   4.424 -13.518  0.00  0.00     0.203 A 
ATOM      2  N   UNL d   1       8.757   3.184 -13.304  0.00  0.00    -0.039 NA
ATOM      3  C   UNL d   1       8.988   2.376 -14.326  0.00  0.00     0.785 A 
ATOM      4  N   UNL d   1       8.482   1.101 -14.241  0.00  0.00     0.063 N 
ATOM      5  N   UNL d   1       9.585   2.662 -15.466  0.00  0.00     0.134 NA
ATOM      6  C   UNL d   1       9.981   3.925 -15.534  0.00  0.00     0.744 A 
ATOM      7  N   UNL d   1       9.805   4.860 -14.606  0.00  0.00    -0.043 NA
ENDROOT
BRANCH   1   8
ATOM      8  C   UNL d   1       8.853   5.463 -12.436  0.00  0.00     0.180 C 
BRANCH   8   9
ATOM      9  C   UNL d   1       7.385   5.959 -12.442  0.00  0.00     0.038 C 
ATOM     10  C   UNL d   1       6.306   4.875 -12.608  0.00  0.00     0.003 C 
ENDBRANCH   8   9
BRANCH   8  11
ATOM     11  O   UNL d   1       9.192   4.993 -11.130  0.00  0.00    -0.325 OA
BRANCH  11  12
ATOM     12  C   UNL d   1       9.486   5.913 -10.131  0.00  0.00     0.106 A 
ATOM     13  C   UNL d   1       9.301   5.517  -8.790  0.00  0.00     0.080 A 
ATOM     14  C   UNL d   1       9.654   6.352  -7.709  0.00  0.00     0.014 A 
ATOM     15 CL   UNL d   1       8.658   3.977  -8.445  0.00  0.00    -0.080 Cl
ATOM     16  C   UNL d   1      10.200   7.618  -7.955  0.00  0.00     0.012 A 
ATOM     17  C   UNL d   1      10.377   8.027  -9.286  0.00  0.00     0.060 A 
ATOM     18  C   UNL d   1      10.025   7.200 -10.361  0.00  0.00     0.036 A 
ATOM     19 CL   UNL d   1      11.064   9.541  -9.633  0.00  0.00    -0.082 Cl
ENDBRANCH  11  12
ENDBRANCH   8  11
ENDBRANCH   1   8
BRANCH   6  20
ATOM     20  N   UNL d   1      10.646   4.316 -16.712  0.00  0.00    -0.178 N 
ATOM     21  C   UNL d   1      11.237   3.362 -17.641  0.00  0.00     0.155 C 
ATOM     22  C   UNL d   1      10.713   3.621 -19.060  0.00  0.00     0.275 C 
ATOM     23  N   UNL d   1      11.007   4.998 -19.464  0.00  0.00     0.143 N 
ATOM     24  C   UNL d   1      10.316   5.914 -18.549  0.00  0.00     0.275 C 
ATOM     25  C   UNL d   1      10.542   5.215 -20.818  0.00  0.00     0.286 C 
ATOM     26  C   UNL d   1      10.825   5.705 -17.112  0.00  0.00     0.155 C 
ENDBRANCH   6  20
TORSDOF 5
