REMARK  7 active torsions:
REMARK  status: ('A' for Active; 'I' for Inactive)
REMARK    1  A    between atoms: S_2  and  N_4 
REMARK    2  A    between atoms: S_2  and  C_27 
REMARK    3  A    between atoms: N_4  and  C_5 
REMARK    4  A    between atoms: C_8  and  N_9 
REMARK    5  A    between atoms: C_12  and  C_13 
REMARK    6  A    between atoms: C_18  and  O_19 
REMARK    7  A    between atoms: O_19  and  C_20 
ROOT
ATOM      1  C   UNL d   1       9.306   6.680 -10.018  0.00  0.00     0.116 C 
ATOM      2  C   UNL d   1       9.187   7.398 -11.397  0.00  0.00     0.027 C 
ATOM      3  C   UNL d   1       8.030   6.880 -12.287  0.00  0.00     0.035 C 
ATOM      4  C   UNL d   1       8.076   5.363 -12.427  0.00  0.00     0.219 C 
ATOM      5  C   UNL d   1       8.043   4.761 -11.031  0.00  0.00     0.035 C 
ATOM      6  C   UNL d   1       9.256   5.165 -10.165  0.00  0.00     0.027 C 
ENDROOT
BRANCH   4   7
ATOM      7  N   UNL d   1       9.194   4.942 -13.290  0.00  0.00     0.135 N 
ATOM      8  C   UNL d   1       9.661   3.551 -13.076  0.00  0.00     0.251 C 
ATOM      9  C   UNL d   1      10.797   3.209 -14.028  0.00  0.00     0.040 C 
ATOM     10  C   UNL d   1      10.302   3.297 -15.462  0.00  0.00     0.028 C 
ATOM     11  C   UNL d   1       9.807   4.718 -15.703  0.00  0.00     0.040 C 
ATOM     12  C   UNL d   1       8.704   5.007 -14.667  0.00  0.00     0.251 C 
BRANCH  10  13
ATOM     13  C   UNL d   1      11.335   2.841 -16.469  0.00  0.00    -0.000 A 
ATOM     14  C   UNL d   1      11.224   1.561 -17.070  0.00  0.00     0.090 A 
ATOM     15  C   UNL d   1      12.237   1.126 -17.959  0.00  0.00     0.024 A 
ATOM     16  C   UNL d   1      13.305   1.975 -18.287  0.00  0.00     0.002 A 
ATOM     17  C   UNL d   1      13.430   3.235 -17.676  0.00  0.00    -0.000 A 
ATOM     18  C   UNL d   1      12.450   3.653 -16.755  0.00  0.00    -0.002 A 
BRANCH  14  19
ATOM     19  O   UNL d   1      10.140   0.773 -16.736  0.00  0.00    -0.334 OA
BRANCH  19  20
ATOM     20  C   UNL d   1       9.972  -0.469 -17.395  0.00  0.00     0.121 A 
ATOM     21  C   UNL d   1       8.576  -0.679 -17.917  0.00  0.00     0.033 A 
ATOM     22  C   UNL d   1       9.700  -0.380 -18.874  0.00  0.00     0.033 A 
ENDBRANCH  19  20
ENDBRANCH  14  19
ENDBRANCH  10  13
ENDBRANCH   4   7
BRANCH   1  23
ATOM     23  N   UNL d   1      10.488   7.158  -9.332  0.00  0.00    -0.187 NA
BRANCH  23  24
ATOM     24  S   UNL d   1      10.464   8.704  -8.548  0.00  0.00     0.281 S 
ATOM     25  O   UNL d   1      11.449   9.531  -9.220  0.00  0.00    -0.199 OA
ATOM     26  O   UNL d   1       9.084   9.167  -8.383  0.00  0.00    -0.199 OA
BRANCH  24  27
ATOM     27  C   UNL d   1      11.015   8.298  -6.897  0.00  0.00     0.107 A 
ATOM     28  C   UNL d   1      11.299   9.357  -5.997  0.00  0.00     0.039 A 
ATOM     29  C   UNL d   1      11.672   9.002  -4.688  0.00  0.00     0.120 A 
ATOM     30  C   UNL d   1      11.782   7.675  -4.298  0.00  0.00     0.119 A 
ATOM     31  O   UNL d   1      11.972   9.790  -3.630  0.00  0.00    -0.299 OA
ATOM     32  C   UNL d   1      11.463   6.628  -5.163  0.00  0.00     0.027 A 
ATOM     33  O   UNL d   1      12.175   7.603  -3.006  0.00  0.00    -0.300 OA
ATOM     34  C   UNL d   1      11.069   6.949  -6.478  0.00  0.00     0.015 A 
ATOM     35  C   UNL d   1      12.329   8.925  -2.581  0.00  0.00     0.304 A 
ENDBRANCH  24  27
ENDBRANCH  23  24
ENDBRANCH   1  23
TORSDOF 7
