REMARK  8 active torsions:
REMARK  status: ('A' for Active; 'I' for Inactive)
REMARK    1  A    between atoms: C_6  and  C_7 
REMARK    2  A    between atoms: C_10  and  S_11 
REMARK    3  A    between atoms: S_11  and  C_12 
REMARK    4  A    between atoms: C_12  and  C_13 
REMARK    5  A    between atoms: C_13  and  C_14 
REMARK    6  A    between atoms: C_14  and  N_15 
REMARK    7  A    between atoms: C_20  and  C_21 
REMARK    8  A    between atoms: C_24  and  C_25 
ROOT
ATOM      1  N   UNL d   1       8.607   5.948 -10.518  0.00  0.00     0.137 N 
ATOM      2  C   UNL d   1       8.583   5.235  -9.252  0.00  0.00     0.250 C 
ATOM      3  C   UNL d   1       8.872   6.338  -8.233  0.00  0.00     0.038 C 
ATOM      4  C   UNL d   1       9.688   7.368  -8.990  0.00  0.00     0.038 A 
ATOM      5  C   UNL d   1       9.508   8.852  -8.750  0.00  0.00     0.007 A 
ATOM      6  C   UNL d   1      10.805   8.187  -8.371  0.00  0.00     0.026 A 
ATOM      7  C   UNL d   1       9.760   6.827 -10.406  0.00  0.00     0.251 C 
ENDROOT
BRANCH   1   8
ATOM      8  C   UNL d   1       8.642   5.089 -11.682  0.00  0.00     0.251 C 
BRANCH   8   9
ATOM      9  C   UNL d   1       7.285   4.391 -11.909  0.00  0.00     0.047 C 
BRANCH   9  10
ATOM     10  C   UNL d   1       7.272   3.563 -13.198  0.00  0.00     0.067 C 
BRANCH  10  11
ATOM     11  S   UNL d   1       5.803   2.464 -13.273  0.00  0.00    -0.075 SA
BRANCH  11  12
ATOM     12  C   UNL d   1       6.278   1.456 -14.665  0.00  0.00     0.193 A 
ATOM     13  N   UNL d   1       7.323   1.696 -15.449  0.00  0.00    -0.122 NA
ATOM     14  N   UNL d   1       7.279   0.744 -16.439  0.00  0.00    -0.126 NA
ATOM     15  C   UNL d   1       6.216  -0.016 -16.178  0.00  0.00     0.191 A 
ATOM     16  N   UNL d   1       5.546   0.384 -15.065  0.00  0.00    -0.287 N 
ATOM     17  C   UNL d   1       4.336  -0.157 -14.484  0.00  0.00     0.134 C 
BRANCH  15  18
ATOM     18  C   UNL d   1       5.841  -1.142 -17.044  0.00  0.00     0.151 A 
ATOM     19  C   UNL d   1       6.430  -1.692 -18.160  0.00  0.00     0.087 A 
ATOM     20  C   UNL d   1       7.682  -1.306 -18.883  0.00  0.00     0.054 C 
ATOM     21  N   UNL d   1       5.661  -2.769 -18.579  0.00  0.00    -0.221 NA
ATOM     22  C   UNL d   1       4.662  -2.821 -17.707  0.00  0.00     0.225 A 
ATOM     23  O   UNL d   1       4.708  -1.855 -16.755  0.00  0.00    -0.282 OA
ENDBRANCH  15  18
ENDBRANCH  11  12
ENDBRANCH  10  11
ENDBRANCH   9  10
ENDBRANCH   8   9
ENDBRANCH   1   8
BRANCH   6  24
ATOM     24  C   UNL d   1      11.175   8.032  -6.935  0.00  0.00     0.005 A 
ATOM     25  C   UNL d   1      11.217   9.149  -6.056  0.00  0.00     0.136 A 
ATOM     26  C   UNL d   1      11.515   8.988  -4.706  0.00  0.00     0.033 A 
ATOM     27  F   UNL d   1      10.953  10.388  -6.524  0.00  0.00    -0.205 F 
ATOM     28  C   UNL d   1      11.814   7.710  -4.180  0.00  0.00     0.074 A 
ATOM     29  C   UNL d   1      11.773   6.596  -5.053  0.00  0.00     0.004 A 
ATOM     30  C   UNL d   1      11.471   6.755  -6.403  0.00  0.00    -0.002 A 
BRANCH  28  31
ATOM     31  C   UNL d   1      12.157   7.520  -2.718  0.00  0.00     0.419 C 
ATOM     32  F   UNL d   1      11.064   7.174  -2.040  0.00  0.00    -0.166 F 
ATOM     33  F   UNL d   1      13.045   6.548  -2.584  0.00  0.00    -0.166 F 
ATOM     34  F   UNL d   1      12.652   8.640  -2.194  0.00  0.00    -0.166 F 
ENDBRANCH  28  31
ENDBRANCH   6  24
TORSDOF 8
