REMARK  8 active torsions:
REMARK  status: ('A' for Active; 'I' for Inactive)
REMARK    1  A    between atoms: O_2  and  C_3 
REMARK    2  A    between atoms: C_9  and  C_10 
REMARK    3  A    between atoms: N_13  and  C_14 
REMARK    4  A    between atoms: C_14  and  C_15 
REMARK    5  A    between atoms: C_15  and  C_16 
REMARK    6  A    between atoms: C_16  and  C_17 
REMARK    7  A    between atoms: C_17  and  N_18 
REMARK    8  A    between atoms: C_22  and  C_23 
ROOT
ATOM      1  C   UNL d   1       7.549   4.982 -12.784  0.00  0.00     0.037 C 
ENDROOT
BRANCH   1   2
ATOM      2  C   UNL d   1       8.012   4.406 -11.427  0.00  0.00     0.250 C 
BRANCH   2   3
ATOM      3  N   UNL d   1       8.364   5.452 -10.475  0.00  0.00     0.137 N 
ATOM      4  C   UNL d   1       9.532   6.149 -10.971  0.00  0.00     0.251 C 
ATOM      5  C   UNL d   1      10.000   7.250 -10.024  0.00  0.00     0.040 C 
ATOM      6  C   UNL d   1      10.228   6.738  -8.589  0.00  0.00     0.028 C 
ATOM      7  C   UNL d   1       9.019   5.935  -8.164  0.00  0.00     0.040 C 
ATOM      8  C   UNL d   1       8.691   4.832  -9.188  0.00  0.00     0.251 C 
BRANCH   6   9
ATOM      9  C   UNL d   1      10.534   7.859  -7.624  0.00  0.00    -0.002 A 
ATOM     10  C   UNL d   1      10.339   9.179  -7.903  0.00  0.00     0.095 A 
ATOM     11  N   UNL d   1      10.726   9.954  -6.843  0.00  0.00    -0.244 NA
ATOM     12  C   UNL d   1      11.105   9.155  -5.802  0.00  0.00     0.081 A 
ATOM     13  C   UNL d   1      11.489   9.510  -4.512  0.00  0.00     0.021 A 
ATOM     14  C   UNL d   1      11.039   7.810  -6.269  0.00  0.00     0.017 A 
ATOM     15  C   UNL d   1      11.895   8.518  -3.640  0.00  0.00     0.026 A 
ATOM     16  C   UNL d   1      11.861   7.150  -4.048  0.00  0.00     0.094 A 
ATOM     17  C   UNL d   1      11.441   6.820  -5.356  0.00  0.00     0.025 A 
BRANCH  16  18
ATOM     18  O   UNL d   1      12.267   6.117  -3.246  0.00  0.00    -0.328 OA
ATOM     19  C   UNL d   1      12.227   6.387  -1.865  0.00  0.00     0.181 C 
ENDBRANCH  16  18
ENDBRANCH   6   9
ENDBRANCH   2   3
ENDBRANCH   1   2
BRANCH   1  20
ATOM     20  C   UNL d   1       8.533   4.671 -13.930  0.00  0.00     0.027 C 
BRANCH  20  21
ATOM     21  C   UNL d   1       8.733   3.159 -14.180  0.00  0.00     0.112 C 
BRANCH  21  22
ATOM     22  N   UNL d   1       9.656   2.909 -15.283  0.00  0.00    -0.270 N 
ATOM     23  C   UNL d   1      10.983   3.145 -15.220  0.00  0.00     0.243 A 
ATOM     24  C   UNL d   1      11.648   2.868 -16.576  0.00  0.00     0.113 A 
ATOM     25  O   UNL d   1      11.589   3.578 -14.249  0.00  0.00    -0.272 OA
ATOM     26  C   UNL d   1      10.482   2.335 -17.418  0.00  0.00     0.102 A 
ATOM     27  C   UNL d   1       9.286   2.417 -16.473  0.00  0.00     0.240 A 
ATOM     28  O   UNL d   1       8.154   2.091 -16.814  0.00  0.00    -0.272 OA
BRANCH  24  29
ATOM     29  C   UNL d   1      12.277   4.118 -17.161  0.00  0.00     0.007 A 
ATOM     30  C   UNL d   1      13.268   4.159 -18.200  0.00  0.00     0.016 A 
ATOM     31  C   UNL d   1      13.575   5.528 -18.462  0.00  0.00     0.081 A 
ATOM     32  C   UNL d   1      13.953   3.189 -18.972  0.00  0.00     0.001 A 
ATOM     33  N   UNL d   1      12.783   6.262 -17.606  0.00  0.00    -0.244 NA
ATOM     34  C   UNL d   1      14.519   5.914 -19.432  0.00  0.00     0.019 A 
ATOM     35  C   UNL d   1      11.999   5.423 -16.836  0.00  0.00     0.095 A 
ATOM     36  C   UNL d   1      15.182   4.926 -20.181  0.00  0.00     0.002 A 
ATOM     37  C   UNL d   1      14.897   3.565 -19.953  0.00  0.00     0.000 A 
ENDBRANCH  24  29
ENDBRANCH  21  22
ENDBRANCH  20  21
ENDBRANCH   1  20
TORSDOF 8
