REMARK  10 active torsions:
REMARK  status: ('A' for Active; 'I' for Inactive)
REMARK    1  A    between atoms: C_2  and  N_3 
REMARK    2  A    between atoms: N_3  and  C_4 
REMARK    3  A    between atoms: N_3  and  C_19 
REMARK    4  A    between atoms: C_4  and  C_5 
REMARK    5  A    between atoms: C_5  and  C_6 
REMARK    6  A    between atoms: C_6  and  O_7 
REMARK    7  A    between atoms: O_7  and  C_8 
REMARK    8  A    between atoms: C_19  and  C_20 
REMARK    9  A    between atoms: C_22  and  C_23 
REMARK   10  A    between atoms: C_29  and  O_30 
ROOT
ATOM      1  N   UNL d   1      10.696   2.375 -14.435  0.00  0.00     0.137 N 
ENDROOT
BRANCH   1   2
ATOM      2  C   UNL d   1       9.596   1.432 -14.721  0.00  0.00     0.250 C 
ATOM      3  C   UNL d   1      10.035   0.160 -15.455  0.00  0.00     0.037 C 
ENDBRANCH   1   2
BRANCH   1   4
ATOM      4  C   UNL d   1      10.271   3.400 -13.481  0.00  0.00     0.253 C 
BRANCH   4   5
ATOM      5  C   UNL d   1       8.845   3.918 -13.772  0.00  0.00     0.068 C 
BRANCH   5   6
ATOM      6  C   UNL d   1       8.559   5.178 -13.021  0.00  0.00     0.151 C 
BRANCH   6   7
ATOM      7  O   UNL d   1       8.735   4.900 -11.626  0.00  0.00    -0.331 OA
BRANCH   7   8
ATOM      8  C   UNL d   1       9.195   5.922 -10.827  0.00  0.00     0.096 A 
ATOM      9  C   UNL d   1       9.410   5.633  -9.464  0.00  0.00     0.043 A 
ATOM     10  C   UNL d   1       9.885   6.659  -8.607  0.00  0.00     0.082 A 
ATOM     11  C   UNL d   1      10.136   7.937  -9.119  0.00  0.00    -0.004 A 
ATOM     12  N   UNL d   1      10.093   6.379  -7.245  0.00  0.00    -0.212 NA
ATOM     13  C   UNL d   1       9.924   8.207 -10.483  0.00  0.00    -0.001 A 
ATOM     14  C   UNL d   1      10.594   9.041  -8.176  0.00  0.00     0.038 C 
ATOM     15  C   UNL d   1       9.414   7.213 -11.327  0.00  0.00     0.024 A 
ATOM     16  C   UNL d   1      11.407   8.463  -7.013  0.00  0.00     0.095 C 
ATOM     17  C   UNL d   1      10.757   7.207  -6.412  0.00  0.00     0.256 C 
ATOM     18  O   UNL d   1      10.891   6.964  -5.221  0.00  0.00    -0.270 OA
ENDBRANCH   7   8
ENDBRANCH   6   7
ENDBRANCH   5   6
ENDBRANCH   4   5
ENDBRANCH   1   4
BRANCH   1  19
ATOM     19  C   UNL d   1      11.255   2.975 -15.658  0.00  0.00     0.251 C 
BRANCH  19  20
ATOM     20  C   UNL d   1      10.227   3.799 -16.460  0.00  0.00     0.038 A 
ATOM     21  C   UNL d   1       9.337   3.198 -17.552  0.00  0.00     0.026 A 
ATOM     22  C   UNL d   1      10.410   4.184 -17.900  0.00  0.00     0.007 A 
BRANCH  21  23
ATOM     23  C   UNL d   1       9.490   1.766 -17.999  0.00  0.00     0.002 C 
ATOM     24  C   UNL d   1       8.357   0.905 -18.132  0.00  0.00     0.090 C 
ATOM     25  C   UNL d   1       8.570  -0.462 -18.435  0.00  0.00     0.026 C 
ATOM     26  C   UNL d   1       9.864  -0.969 -18.626  0.00  0.00     0.032 C 
ATOM     27  C   UNL d   1      10.979  -0.126 -18.514  0.00  0.00     0.140 C 
ATOM     28  C   UNL d   1      10.777   1.240 -18.298  0.00  0.00     0.027 C 
ATOM     29  F   UNL d   1      12.234  -0.611 -18.577  0.00  0.00    -0.204 F 
BRANCH  24  30
ATOM     30  O   UNL d   1       7.115   1.448 -17.863  0.00  0.00    -0.328 OA
ATOM     31  C   UNL d   1       5.978   0.606 -17.977  0.00  0.00     0.181 C 
ENDBRANCH  24  30
ENDBRANCH  21  23
ENDBRANCH  19  20
ENDBRANCH   1  19
TORSDOF 10
