REMARK  5 active torsions:
REMARK  status: ('A' for Active; 'I' for Inactive)
REMARK    1  A    between atoms: C_2  and  C_3 
REMARK    2  A    between atoms: C_3  and  C_4 
REMARK    3  A    between atoms: C_4  and  N_5 
REMARK    4  A    between atoms: N_13  and  C_14 
REMARK    5  A    between atoms: C_19  and  O_20 
ROOT
ATOM      1  N   UNL d   1       9.457   4.444 -13.042  0.00  0.00     0.137 N 
ATOM      2  C   UNL d   1       8.302   3.726 -13.586  0.00  0.00     0.250 C 
ATOM      3  C   UNL d   1       8.716   2.343 -14.086  0.00  0.00     0.035 C 
ATOM      4  C   UNL d   1       9.807   2.404 -15.178  0.00  0.00     0.008 C 
ATOM      5  C   UNL d   1      10.959   3.268 -14.616  0.00  0.00     0.035 C 
ATOM      6  C   UNL d   1      10.461   4.630 -14.094  0.00  0.00     0.250 C 
ATOM      7  C   UNL d   1      10.342   0.980 -15.488  0.00  0.00     0.024 C 
ATOM      8  C   UNL d   1       9.274   0.105 -16.164  0.00  0.00     0.102 C 
ATOM      9  N   UNL d   1       8.681   0.795 -17.312  0.00  0.00    -0.347 N 
ATOM     10  C   UNL d   1       8.171   2.146 -17.149  0.00  0.00     0.102 C 
ATOM     11  C   UNL d   1       9.255   3.016 -16.499  0.00  0.00     0.024 C 
ENDROOT
BRANCH   1  12
ATOM     12  C   UNL d   1       9.007   5.743 -12.548  0.00  0.00     0.250 C 
BRANCH  12  13
ATOM     13  C   UNL d   1       8.268   5.621 -11.198  0.00  0.00     0.035 C 
BRANCH  13  14
ATOM     14  C   UNL d   1       9.160   5.860  -9.965  0.00  0.00     0.002 C 
ATOM     15  C   UNL d   1       9.407   4.580  -9.156  0.00  0.00     0.000 C 
ENDBRANCH  13  14
ENDBRANCH  12  13
ENDBRANCH   1  12
BRANCH   9  16
ATOM     16  C   UNL d   1       8.703   0.196 -18.580  0.00  0.00     0.079 A 
ATOM     17  C   UNL d   1       9.916  -0.229 -19.171  0.00  0.00     0.110 A 
ATOM     18  C   UNL d   1       9.868  -0.835 -20.461  0.00  0.00     0.026 A 
ATOM     19  C   UNL d   1       8.640  -1.021 -21.117  0.00  0.00     0.002 A 
ATOM     20  C   UNL d   1       7.445  -0.583 -20.530  0.00  0.00     0.002 A 
ATOM     21  C   UNL d   1       7.482   0.039 -19.259  0.00  0.00     0.019 A 
BRANCH  17  22
ATOM     22  O   UNL d   1      11.095  -0.030 -18.482  0.00  0.00    -0.327 OA
ATOM     23  C   UNL d   1      12.316  -0.422 -19.082  0.00  0.00     0.181 C 
ENDBRANCH  17  22
ENDBRANCH   9  16
TORSDOF 5
