REMARK  8 active torsions:
REMARK  status: ('A' for Active; 'I' for Inactive)
REMARK    1  A    between atoms: N_12  and  C_13 
REMARK    2  A    between atoms: C_13  and  C_14 
REMARK    3  A    between atoms: C_14  and  C_15 
REMARK    4  A    between atoms: C_15  and  C_16 
REMARK    5  A    between atoms: C_16  and  C_17 
REMARK    6  A    between atoms: C_17  and  C_18 
REMARK    7  A    between atoms: C_18  and  N_19 
REMARK    8  A    between atoms: N_22  and  C_23 
ROOT
ATOM      1  C   UNL d   1       9.482   4.475 -11.943  0.00  0.00     0.002 C 
ENDROOT
BRANCH   1   2
ATOM      2  C   UNL d   1       9.729   4.778 -13.423  0.00  0.00     0.002 C 
BRANCH   2   3
ATOM      3  C   UNL d   1       9.594   3.529 -14.319  0.00  0.00     0.025 C 
BRANCH   3   4
ATOM      4  C   UNL d   1       9.598   3.855 -15.823  0.00  0.00     0.122 C 
BRANCH   4   5
ATOM      5  N   UNL d   1      10.966   3.882 -16.376  0.00  0.00    -0.221 N 
ATOM      6  C   UNL d   1      11.285   3.346 -17.636  0.00  0.00     0.271 A 
ATOM      7  O   UNL d   1      10.553   2.637 -18.328  0.00  0.00    -0.266 OA
ATOM      8  C   UNL d   1      12.660   3.795 -18.019  0.00  0.00     0.069 A 
ATOM      9  C   UNL d   1      13.253   4.668 -17.107  0.00  0.00     0.108 A 
ATOM     10  C   UNL d   1      13.370   3.406 -19.169  0.00  0.00     0.005 A 
ATOM     11  C   UNL d   1      14.541   5.192 -17.262  0.00  0.00     0.013 A 
ATOM     12  S   UNL d   1      12.177   4.956 -15.760  0.00  0.00     0.270 S 
ATOM     13  C   UNL d   1      15.254   4.811 -18.415  0.00  0.00     0.001 A 
ATOM     14  C   UNL d   1      14.673   3.925 -19.360  0.00  0.00     0.000 A 
ATOM     15  O   UNL d   1      12.756   4.390 -14.532  0.00  0.00    -0.200 OA
ATOM     16  O   UNL d   1      11.696   6.341 -15.825  0.00  0.00    -0.200 OA
ENDBRANCH   4   5
ENDBRANCH   3   4
ENDBRANCH   2   3
ENDBRANCH   1   2
BRANCH   1  17
ATOM     17  C   UNL d   1       9.623   5.742 -11.085  0.00  0.00     0.035 C 
BRANCH  17  18
ATOM     18  C   UNL d   1       9.365   5.466  -9.597  0.00  0.00     0.250 C 
BRANCH  18  19
ATOM     19  N   UNL d   1       9.619   6.652  -8.779  0.00  0.00     0.141 N 
ATOM     20  C   UNL d   1       8.933   6.503  -7.494  0.00  0.00     0.274 C 
ATOM     21  C   UNL d   1       9.156   7.742  -6.610  0.00  0.00     0.137 C 
ATOM     22  N   UNL d   1      10.579   7.981  -6.438  0.00  0.00    -0.343 N 
ATOM     23  C   UNL d   1      11.352   8.048  -7.664  0.00  0.00     0.137 C 
ATOM     24  C   UNL d   1      11.055   6.802  -8.518  0.00  0.00     0.274 C 
BRANCH  22  25
ATOM     25  C   UNL d   1      11.165   8.145  -5.182  0.00  0.00     0.084 A 
ATOM     26  C   UNL d   1      11.263   9.427  -4.600  0.00  0.00     0.155 A 
ATOM     27  C   UNL d   1      11.856   9.588  -3.329  0.00  0.00     0.031 A 
ATOM     28  F   UNL d   1      10.774  10.512  -5.248  0.00  0.00    -0.203 F 
ATOM     29  C   UNL d   1      12.356   8.470  -2.639  0.00  0.00     0.002 A 
ATOM     30  C   UNL d   1      12.255   7.190  -3.206  0.00  0.00     0.002 A 
ATOM     31  C   UNL d   1      11.653   7.022  -4.473  0.00  0.00     0.019 A 
ENDBRANCH  22  25
ENDBRANCH  18  19
ENDBRANCH  17  18
ENDBRANCH   1  17
TORSDOF 8
