REMARK  6 active torsions:
REMARK  status: ('A' for Active; 'I' for Inactive)
REMARK    1  A    between atoms: C_12  and  C_13 
REMARK    2  A    between atoms: C_13  and  N_14 
REMARK    3  A    between atoms: N_14  and  C_15 
REMARK    4  A    between atoms: C_15  and  C_16 
REMARK    5  A    between atoms: C_16  and  C_17 
REMARK    6  A    between atoms: C_17  and  C_18 
ROOT
ATOM      1  C   UNL d   1       8.938   5.682 -12.900  0.00  0.00     0.290 C 
ENDROOT
BRANCH   1   2
ATOM      2  N   UNL d   1       7.918   4.965 -13.641  0.00  0.00     0.342 N 
BRANCH   2   3
ATOM      3  C   UNL d   1       7.791   3.580 -13.239  0.00  0.00     0.323 C 
BRANCH   3   4
ATOM      4  C   UNL d   1       7.052   2.769 -14.348  0.00  0.00     0.188 C 
ATOM      5  C   UNL d   1       8.000   2.145 -15.402  0.00  0.00     0.181 C 
ATOM      6  O   UNL d   1       7.278   1.446 -16.442  0.00  0.00    -0.326 OA
ATOM      7  C   UNL d   1       6.265   0.629 -15.950  0.00  0.00     0.114 A 
ATOM      8  C   UNL d   1       5.574  -0.344 -16.732  0.00  0.00     0.029 A 
ATOM      9  C   UNL d   1       5.853   0.750 -14.599  0.00  0.00     0.116 A 
ATOM     10  C   UNL d   1       5.740  -0.715 -18.168  0.00  0.00     0.120 A 
ATOM     11  C   UNL d   1       4.577  -1.134 -16.147  0.00  0.00     0.083 A 
ATOM     12  C   UNL d   1       4.695  -1.820 -18.253  0.00  0.00     0.260 A 
ATOM     13  O   UNL d   1       4.481  -2.438 -19.287  0.00  0.00    -0.270 OA
ATOM     14  N   UNL d   1       4.075  -2.009 -17.089  0.00  0.00    -0.212 NA
ATOM     15  C   UNL d   1       4.168  -1.032 -14.822  0.00  0.00     0.021 A 
ATOM     16  C   UNL d   1       4.840  -0.066 -14.057  0.00  0.00     0.028 A 
ATOM     17  O   UNL d   1       6.382   1.675 -13.758  0.00  0.00    -0.327 OA
ENDBRANCH   3   4
ENDBRANCH   2   3
ENDBRANCH   1   2
BRANCH   1  18
ATOM     18  C   UNL d   1       8.498   6.000 -11.472  0.00  0.00     0.038 C 
BRANCH  18  19
ATOM     19  C   UNL d   1       9.291   7.185 -10.890  0.00  0.00     0.003 C 
BRANCH  19  20
ATOM     20  C   UNL d   1       9.371   7.166  -9.349  0.00  0.00     0.006 C 
ATOM     21  C   UNL d   1       9.662   8.575  -8.733  0.00  0.00     0.045 C 
ATOM     22  C   UNL d   1      10.255   8.505  -7.358  0.00  0.00     0.055 A 
ATOM     23  C   UNL d   1      10.702   7.365  -6.779  0.00  0.00    -0.007 A 
ATOM     24  N   UNL d   1      10.511   9.547  -6.477  0.00  0.00    -0.250 NA
ATOM     25  C   UNL d   1      10.652   6.056  -7.434  0.00  0.00     0.028 C 
ATOM     26  C   UNL d   1      11.166   7.673  -5.485  0.00  0.00     0.017 A 
ATOM     27  C   UNL d   1      10.418   6.126  -8.930  0.00  0.00     0.005 C 
ATOM     28  C   UNL d   1      11.048   9.077  -5.300  0.00  0.00     0.081 A 
ATOM     29  C   UNL d   1      11.703   6.912  -4.449  0.00  0.00     0.031 A 
ATOM     30  C   UNL d   1      11.422   9.699  -4.113  0.00  0.00     0.021 A 
ATOM     31  C   UNL d   1      11.968   8.918  -3.096  0.00  0.00     0.031 A 
ATOM     32  C   UNL d   1      12.115   7.525  -3.266  0.00  0.00     0.140 A 
ATOM     33  F   UNL d   1      12.652   6.785  -2.281  0.00  0.00    -0.204 F 
ENDBRANCH  19  20
ENDBRANCH  18  19
ENDBRANCH   1  18
TORSDOF 6
