REMARK  8 active torsions:
REMARK  status: ('A' for Active; 'I' for Inactive)
REMARK    1  A    between atoms: O_2  and  C_3 
REMARK    2  A    between atoms: C_8  and  N_9 
REMARK    3  A    between atoms: N_12  and  C_13 
REMARK    4  A    between atoms: C_13  and  C_14 
REMARK    5  A    between atoms: C_14  and  C_15 
REMARK    6  A    between atoms: C_15  and  C_16 
REMARK    7  A    between atoms: C_16  and  N_17 
REMARK       I    between atoms: N_17  and  C_18 
REMARK    8  A    between atoms: C_18  and  C_20 
ROOT
ATOM      1  C   UNL d   1      10.746   7.957 -10.318  0.00  0.00     0.251 C 
ENDROOT
BRANCH   1   2
ATOM      2  N   UNL d   1      10.508   8.607  -9.033  0.00  0.00     0.141 N 
ATOM      3  C   UNL d   1      11.820   8.942  -8.482  0.00  0.00     0.274 C 
ATOM      4  C   UNL d   1      11.649   9.674  -7.114  0.00  0.00     0.137 C 
ATOM      5  N   UNL d   1      10.829   8.881  -6.217  0.00  0.00    -0.343 N 
ATOM      6  C   UNL d   1       9.567   8.370  -6.749  0.00  0.00     0.137 C 
ATOM      7  C   UNL d   1       9.753   7.716  -8.137  0.00  0.00     0.274 C 
BRANCH   5   8
ATOM      8  C   UNL d   1      11.316   8.503  -4.944  0.00  0.00     0.079 A 
ATOM      9  C   UNL d   1      11.450   7.157  -4.557  0.00  0.00     0.110 A 
ATOM     10  C   UNL d   1      11.894   6.823  -3.271  0.00  0.00     0.026 A 
ATOM     11  C   UNL d   1      12.223   7.833  -2.344  0.00  0.00     0.002 A 
ATOM     12  C   UNL d   1      12.063   9.184  -2.725  0.00  0.00     0.002 A 
ATOM     13  C   UNL d   1      11.613   9.522  -4.005  0.00  0.00     0.019 A 
BRANCH   9  14
ATOM     14  O   UNL d   1      11.117   6.126  -5.399  0.00  0.00    -0.327 OA
ATOM     15  C   UNL d   1      11.996   5.889  -6.482  0.00  0.00     0.181 C 
ENDBRANCH   9  14
ENDBRANCH   5   8
ENDBRANCH   1   2
BRANCH   1  16
ATOM     16  C   UNL d   1       9.459   7.803 -11.135  0.00  0.00     0.037 C 
BRANCH  16  17
ATOM     17  C   UNL d   1       8.794   6.412 -10.961  0.00  0.00     0.029 C 
BRANCH  17  18
ATOM     18  C   UNL d   1       7.712   6.187 -12.034  0.00  0.00     0.129 C 
BRANCH  18  19
ATOM     19  N   UNL d   1       7.889   4.938 -12.743  0.00  0.00    -0.234 NA
ATOM     20  C   UNL d   1       8.978   4.563 -13.435  0.00  0.00     0.276 C 
ATOM     21  O   UNL d   1      10.028   5.213 -13.453  0.00  0.00    -0.266 OA
BRANCH  20  22
ATOM     22  C   UNL d   1       8.845   3.301 -14.221  0.00  0.00     0.077 A 
ATOM     23  C   UNL d   1       9.975   2.751 -14.788  0.00  0.00     0.105 A 
ATOM     24  N   UNL d   1       9.859   1.649 -15.572  0.00  0.00    -0.228 N 
ATOM     25  C   UNL d   1       8.621   1.032 -15.829  0.00  0.00     0.085 A 
ATOM     26  N   UNL d   1      10.888   1.017 -16.216  0.00  0.00    -0.164 NA
ATOM     27  C   UNL d   1       7.456   1.574 -15.235  0.00  0.00     0.019 A 
ATOM     28  C   UNL d   1       8.891  -0.015 -16.662  0.00  0.00     0.042 A 
ATOM     29  C   UNL d   1       7.570   2.687 -14.446  0.00  0.00     0.008 A 
ATOM     30  C   UNL d   1      10.291   0.033 -16.853  0.00  0.00     0.122 A 
ENDBRANCH  20  22
ENDBRANCH  18  19
ENDBRANCH  17  18
ENDBRANCH  16  17
ENDBRANCH   1  16
TORSDOF 8
