REMARK  9 active torsions:
REMARK  status: ('A' for Active; 'I' for Inactive)
REMARK    1  A    between atoms: C_2  and  C_5 
REMARK    2  A    between atoms: C_7  and  N_8 
REMARK    3  A    between atoms: N_11  and  C_12 
REMARK    4  A    between atoms: C_12  and  C_13 
REMARK    5  A    between atoms: C_13  and  C_14 
REMARK    6  A    between atoms: C_14  and  C_15 
REMARK    7  A    between atoms: C_15  and  N_16 
REMARK       I    between atoms: N_16  and  C_17 
REMARK    8  A    between atoms: C_17  and  C_19 
REMARK    9  A    between atoms: C_31  and  C_32 
ROOT
ATOM      1  N   UNL d   1       7.834   1.697 -15.014  0.00  0.00    -0.330 N 
ATOM      2  C   UNL d   1       7.030   2.749 -14.418  0.00  0.00     0.138 C 
ATOM      3  C   UNL d   1       7.910   3.972 -14.108  0.00  0.00     0.274 C 
ATOM      4  N   UNL d   1       9.036   3.588 -13.253  0.00  0.00     0.141 N 
ATOM      5  C   UNL d   1       9.855   2.600 -13.973  0.00  0.00     0.274 C 
ATOM      6  C   UNL d   1       9.037   1.332 -14.295  0.00  0.00     0.138 C 
ENDROOT
BRANCH   4   7
ATOM      7  C   UNL d   1       9.855   4.754 -12.941  0.00  0.00     0.251 C 
BRANCH   7   8
ATOM      8  C   UNL d   1       9.151   5.746 -11.991  0.00  0.00     0.037 C 
BRANCH   8   9
ATOM      9  C   UNL d   1       9.863   5.886 -10.641  0.00  0.00     0.029 C 
BRANCH   9  10
ATOM     10  C   UNL d   1       9.125   6.791  -9.689  0.00  0.00     0.129 C 
BRANCH  10  11
ATOM     11  N   UNL d   1       9.855   6.974  -8.443  0.00  0.00    -0.233 NA
ATOM     12  C   UNL d   1      10.319   8.163  -8.011  0.00  0.00     0.294 C 
ATOM     13  O   UNL d   1      10.293   9.179  -8.685  0.00  0.00    -0.264 OA
BRANCH  12  14
ATOM     14  C   UNL d   1      10.790   8.143  -6.597  0.00  0.00     0.158 A 
ATOM     15  N   UNL d   1      11.036   9.288  -5.835  0.00  0.00    -0.222 NA
ATOM     16  C   UNL d   1      11.464   8.855  -4.654  0.00  0.00     0.148 A 
ATOM     17  N   UNL d   1      11.487   7.441  -4.634  0.00  0.00    -0.288 N 
ATOM     18  C   UNL d   1      11.847   9.515  -3.452  0.00  0.00     0.037 A 
ATOM     19  C   UNL d   1      11.072   7.020  -5.878  0.00  0.00     0.106 A 
ATOM     20  C   UNL d   1      11.888   6.726  -3.555  0.00  0.00     0.082 A 
ATOM     21  C   UNL d   1      12.281   7.377  -2.415  0.00  0.00     0.019 A 
ATOM     22  C   UNL d   1      12.258   8.789  -2.364  0.00  0.00     0.005 A 
ENDBRANCH  12  14
ENDBRANCH  10  11
ENDBRANCH   9  10
ENDBRANCH   8   9
ENDBRANCH   7   8
ENDBRANCH   4   7
BRANCH   1  23
ATOM     23  C   UNL d   1       7.490   1.083 -16.211  0.00  0.00     0.143 A 
ATOM     24  C   UNL d   1       6.343   0.274 -16.298  0.00  0.00     0.051 A 
ATOM     25  C   UNL d   1       6.079  -0.316 -17.560  0.00  0.00     0.063 A 
ATOM     26  N   UNL d   1       6.884  -0.054 -18.609  0.00  0.00    -0.235 NA
ATOM     27  C   UNL d   1       7.972   0.691 -18.423  0.00  0.00     0.140 A 
ATOM     28  N   UNL d   1       8.293   1.302 -17.275  0.00  0.00    -0.214 NA
BRANCH  25  29
ATOM     29  C   UNL d   1       4.882  -1.237 -17.835  0.00  0.00     0.036 C 
ATOM     30  C   UNL d   1       4.069  -1.534 -16.560  0.00  0.00     0.006 C 
ATOM     31  C   UNL d   1       5.374  -2.594 -18.388  0.00  0.00     0.006 C 
ATOM     32  C   UNL d   1       3.942  -0.578 -18.864  0.00  0.00     0.006 C 
ENDBRANCH  25  29
BRANCH  27  33
ATOM     33  C   UNL d   1       8.779   1.075 -19.676  0.00  0.00     0.052 C 
ATOM     34  C   UNL d   1       8.704  -0.035 -20.754  0.00  0.00     0.008 C 
ATOM     35  C   UNL d   1      10.276   1.244 -19.340  0.00  0.00     0.008 C 
ATOM     36  C   UNL d   1       8.226   2.388 -20.262  0.00  0.00     0.008 C 
ENDBRANCH  27  33
ENDBRANCH   1  23
TORSDOF 9
