REMARK  5 active torsions:
REMARK  status: ('A' for Active; 'I' for Inactive)
REMARK    1  A    between atoms: C_2  and  C_3 
REMARK    2  A    between atoms: N_12  and  C_13 
REMARK    3  A    between atoms: C_13  and  C_14 
REMARK    4  A    between atoms: C_14  and  C_15 
REMARK    5  A    between atoms: C_17  and  C_18 
ROOT
ATOM      1  O   UNL d   1      12.678   8.161  -8.378  0.00  0.00    -0.221 OA
ATOM      2  C   UNL d   1      11.408   8.008  -7.761  0.00  0.00     0.149 C 
ATOM      3  C   UNL d   1      10.537   9.167  -8.259  0.00  0.00     0.070 C 
ATOM      4  C   UNL d   1      10.223   9.097  -9.765  0.00  0.00     0.253 C 
ATOM      5  N   UNL d   1       9.634   7.819 -10.109  0.00  0.00     0.137 N 
ATOM      6  C   UNL d   1      10.516   6.714  -9.761  0.00  0.00     0.253 C 
ATOM      7  C   UNL d   1      10.780   6.705  -8.263  0.00  0.00     0.070 C 
ENDROOT
BRANCH   5   8
ATOM      8  C   UNL d   1       9.184   7.877 -11.492  0.00  0.00     0.250 C 
BRANCH   8   9
ATOM      9  C   UNL d   1       8.789   6.496 -12.020  0.00  0.00     0.036 C 
BRANCH   9  10
ATOM     10  C   UNL d   1       7.642   5.833 -11.278  0.00  0.00     0.006 A 
ATOM     11  C   UNL d   1       7.064   4.506 -11.714  0.00  0.00     0.022 A 
ATOM     12  C   UNL d   1       6.259   5.784 -11.902  0.00  0.00     0.005 A 
BRANCH  11  13
ATOM     13  C   UNL d   1       7.608   3.770 -12.902  0.00  0.00    -0.022 A 
ATOM     14  C   UNL d   1       9.017   3.614 -13.080  0.00  0.00    -0.002 A 
ATOM     15  C   UNL d   1       9.518   2.982 -14.215  0.00  0.00     0.029 A 
ATOM     16  C   UNL d   1       8.621   2.378 -15.144  0.00  0.00     0.140 A 
ATOM     17  C   UNL d   1       7.250   2.411 -14.917  0.00  0.00     0.029 A 
ATOM     18  F   UNL d   1       9.117   1.780 -16.250  0.00  0.00    -0.204 F 
ATOM     19  C   UNL d   1       6.751   3.137 -13.813  0.00  0.00    -0.002 A 
ENDBRANCH  11  13
ENDBRANCH   9  10
ENDBRANCH   8   9
ENDBRANCH   5   8
BRANCH   2  20
ATOM     20  C   UNL d   1      11.515   8.050  -6.235  0.00  0.00     0.005 A 
ATOM     21  C   UNL d   1      11.913   9.245  -5.592  0.00  0.00    -0.001 A 
ATOM     22  C   UNL d   1      12.122   9.255  -4.200  0.00  0.00     0.011 A 
ATOM     23  C   UNL d   1      12.001   8.085  -3.451  0.00  0.00     0.058 A 
ATOM     24  C   UNL d   1      11.617   6.890  -4.081  0.00  0.00     0.011 A 
ATOM     25 CL   UNL d   1      12.315   8.124  -1.764  0.00  0.00    -0.082 Cl
ATOM     26  C   UNL d   1      11.392   6.867  -5.455  0.00  0.00    -0.001 A 
ENDBRANCH   2  20
TORSDOF 5
