REMARK  9 active torsions:
REMARK  status: ('A' for Active; 'I' for Inactive)
REMARK    1  A    between atoms: O_2  and  C_3 
REMARK    2  A    between atoms: C_8  and  C_9 
REMARK       I    between atoms: C_9  and  N_11 
REMARK    3  A    between atoms: N_11  and  C_12 
REMARK    4  A    between atoms: C_12  and  C_13 
REMARK    5  A    between atoms: C_13  and  C_14 
REMARK    6  A    between atoms: C_14  and  C_16 
REMARK    7  A    between atoms: C_16  and  N_17 
REMARK    8  A    between atoms: N_20  and  C_21 
REMARK    9  A    between atoms: C_26  and  O_27 
ROOT
ATOM      1  C   UNL d   1       8.779   4.297 -13.499  0.00  0.00     0.196 C 
ATOM      2  F   UNL d   1       9.313   5.184 -14.344  0.00  0.00    -0.235 F 
ENDROOT
BRANCH   1   3
ATOM      3  C   UNL d   1       9.175   4.699 -12.080  0.00  0.00     0.064 C 
BRANCH   3   4
ATOM      4  C   UNL d   1       8.678   6.090 -11.681  0.00  0.00     0.132 C 
BRANCH   4   5
ATOM      5  N   UNL d   1       9.162   6.409 -10.344  0.00  0.00    -0.233 NA
ATOM      6  C   UNL d   1       9.878   7.496 -10.009  0.00  0.00     0.293 C 
ATOM      7  O   UNL d   1      10.190   8.386 -10.795  0.00  0.00    -0.264 OA
BRANCH   6   8
ATOM      8  C   UNL d   1      10.267   7.588  -8.593  0.00  0.00     0.139 A 
ATOM      9  N   UNL d   1      10.830   8.770  -8.158  0.00  0.00    -0.241 NA
ATOM     10  C   UNL d   1      11.178   8.687  -6.838  0.00  0.00     0.082 A 
ATOM     11  C   UNL d   1      11.767   9.621  -5.987  0.00  0.00     0.021 A 
ATOM     12  C   UNL d   1      10.835   7.374  -6.406  0.00  0.00     0.021 A 
ATOM     13  C   UNL d   1      12.023   9.254  -4.659  0.00  0.00     0.026 A 
ATOM     14  C   UNL d   1      11.710   7.958  -4.170  0.00  0.00     0.094 A 
ATOM     15  C   UNL d   1      11.122   7.037  -5.060  0.00  0.00     0.026 A 
ATOM     16  C   UNL d   1      10.252   6.695  -7.549  0.00  0.00     0.026 A 
BRANCH  14  17
ATOM     17  O   UNL d   1      11.918   7.542  -2.868  0.00  0.00    -0.328 OA
ATOM     18  C   UNL d   1      12.469   8.493  -1.958  0.00  0.00     0.181 C 
ENDBRANCH  14  17
ENDBRANCH   6   8
ENDBRANCH   4   5
ENDBRANCH   3   4
ENDBRANCH   1   3
BRANCH   1  19
ATOM     19  C   UNL d   1       9.305   2.914 -13.919  0.00  0.00     0.285 C 
BRANCH  19  20
ATOM     20  N   UNL d   1       8.875   2.583 -15.280  0.00  0.00     0.144 N 
ATOM     21  C   UNL d   1       9.713   1.503 -15.807  0.00  0.00     0.274 C 
ATOM     22  C   UNL d   1       9.338   1.200 -17.265  0.00  0.00     0.137 C 
ATOM     23  N   UNL d   1       7.919   0.875 -17.369  0.00  0.00    -0.343 N 
ATOM     24  C   UNL d   1       7.035   1.867 -16.764  0.00  0.00     0.137 C 
ATOM     25  C   UNL d   1       7.468   2.148 -15.316  0.00  0.00     0.274 C 
BRANCH  23  26
ATOM     26  C   UNL d   1       7.430  -0.267 -18.017  0.00  0.00     0.079 A 
ATOM     27  C   UNL d   1       8.018  -0.766 -19.219  0.00  0.00     0.110 A 
ATOM     28  C   UNL d   1       7.493  -1.945 -19.816  0.00  0.00     0.026 A 
ATOM     29  C   UNL d   1       6.398  -2.615 -19.243  0.00  0.00     0.002 A 
ATOM     30  C   UNL d   1       5.804  -2.123 -18.072  0.00  0.00     0.002 A 
ATOM     31  C   UNL d   1       6.316  -0.955 -17.470  0.00  0.00     0.019 A 
BRANCH  27  32
ATOM     32  O   UNL d   1       9.055  -0.046 -19.776  0.00  0.00    -0.327 OA
ATOM     33  C   UNL d   1       9.656  -0.502 -20.971  0.00  0.00     0.181 C 
ENDBRANCH  27  32
ENDBRANCH  23  26
ENDBRANCH  19  20
ENDBRANCH   1  19
TORSDOF 9
