REMARK  6 active torsions:
REMARK  status: ('A' for Active; 'I' for Inactive)
REMARK    1  A    between atoms: C_7  and  N_8 
REMARK    2  A    between atoms: N_11  and  C_12 
REMARK    3  A    between atoms: C_12  and  C_13 
REMARK    4  A    between atoms: C_13  and  C_15 
REMARK    5  A    between atoms: C_15  and  N_16 
REMARK    6  A    between atoms: C_20  and  C_22 
ROOT
ATOM      1  C   UNL d   1       9.313   5.360 -11.164  0.00  0.00     0.208 C 
ATOM      2  O   UNL d   1       7.919   5.610 -11.237  0.00  0.00    -0.219 OA
ENDROOT
BRANCH   1   3
ATOM      3  C   UNL d   1       9.667   4.128 -12.048  0.00  0.00     0.285 C 
BRANCH   3   4
ATOM      4  N   UNL d   1       9.222   4.176 -13.435  0.00  0.00     0.144 N 
ATOM      5  C   UNL d   1       9.253   2.829 -14.007  0.00  0.00     0.274 C 
ATOM      6  C   UNL d   1       8.687   2.859 -15.431  0.00  0.00     0.137 C 
ATOM      7  N   UNL d   1       9.464   3.808 -16.230  0.00  0.00    -0.344 N 
ATOM      8  C   UNL d   1       9.598   5.149 -15.657  0.00  0.00     0.137 C 
ATOM      9  C   UNL d   1      10.086   5.060 -14.205  0.00  0.00     0.274 C 
BRANCH   7  10
ATOM     10  C   UNL d   1      10.110   3.456 -17.400  0.00  0.00     0.052 A 
ATOM     11  C   UNL d   1      11.018   2.368 -17.464  0.00  0.00    -0.006 A 
ATOM     12  C   UNL d   1      11.619   2.060 -18.701  0.00  0.00    -0.003 A 
ATOM     13  C   UNL d   1      11.421   1.535 -16.255  0.00  0.00     0.033 C 
ATOM     14  C   UNL d   1      11.340   2.808 -19.859  0.00  0.00    -0.004 A 
ATOM     15  C   UNL d   1      10.452   3.897 -19.794  0.00  0.00    -0.020 A 
ATOM     16  C   UNL d   1      10.144   4.696 -21.053  0.00  0.00     0.031 C 
ATOM     17  C   UNL d   1       9.849   4.222 -18.560  0.00  0.00     0.012 A 
ENDBRANCH   7  10
ENDBRANCH   3   4
ENDBRANCH   1   3
BRANCH   1  18
ATOM     18  C   UNL d   1       9.602   5.156  -9.651  0.00  0.00     0.148 C 
BRANCH  18  19
ATOM     19  N   UNL d   1       9.915   6.403  -8.930  0.00  0.00    -0.247 N 
ATOM     20  C   UNL d   1       9.321   6.762  -7.794  0.00  0.00     0.265 A 
ATOM     21  C   UNL d   1       9.997   8.041  -7.322  0.00  0.00     0.179 A 
ATOM     22  O   UNL d   1       8.401   6.190  -7.215  0.00  0.00    -0.269 OA
ATOM     23  N   UNL d   1      10.948   8.261  -8.346  0.00  0.00    -0.209 NA
ATOM     24  C   UNL d   1       9.033   9.172  -7.466  0.00  0.00     0.039 C 
ATOM     25  C   UNL d   1      10.923   7.276  -9.209  0.00  0.00     0.348 A 
ATOM     26  O   UNL d   1      11.800   7.217 -10.044  0.00  0.00    -0.245 OA
BRANCH  21  27
ATOM     27  C   UNL d   1      10.735   7.957  -5.989  0.00  0.00     0.006 C 
ATOM     28  C   UNL d   1      11.269   6.721  -5.589  0.00  0.00     0.000 C 
ATOM     29  C   UNL d   1      11.857   6.571  -4.321  0.00  0.00     0.029 C 
ATOM     30  C   UNL d   1      12.045   7.698  -3.500  0.00  0.00     0.140 C 
ATOM     31  C   UNL d   1      11.616   8.965  -3.927  0.00  0.00     0.029 C 
ATOM     32  F   UNL d   1      12.632   7.550  -2.293  0.00  0.00    -0.204 F 
ATOM     33  C   UNL d   1      10.977   9.101  -5.175  0.00  0.00     0.000 C 
ENDBRANCH  21  27
ENDBRANCH  18  19
ENDBRANCH   1  18
TORSDOF 6
