REMARK  3 active torsions:
REMARK  status: ('A' for Active; 'I' for Inactive)
REMARK    1  A    between atoms: C_2  and  C_3 
REMARK    2  A    between atoms: C_3  and  N_4 
REMARK    3  A    between atoms: N_7  and  C_8 
ROOT
ATOM      1  N   UNL d   1      10.243   7.390 -10.229  0.00  0.00     0.144 N 
ATOM      2  C   UNL d   1       9.448   7.049  -9.038  0.00  0.00     0.274 C 
ATOM      3  C   UNL d   1      10.312   6.770  -7.815  0.00  0.00     0.137 C 
ATOM      4  N   UNL d   1      11.204   7.896  -7.565  0.00  0.00    -0.344 N 
ATOM      5  C   UNL d   1      11.984   8.351  -8.715  0.00  0.00     0.137 C 
ATOM      6  C   UNL d   1      11.062   8.577  -9.930  0.00  0.00     0.274 C 
ENDROOT
BRANCH   4   7
ATOM      7  C   UNL d   1      11.238   8.514  -6.316  0.00  0.00     0.068 A 
ATOM      8  C   UNL d   1      11.500   7.790  -5.130  0.00  0.00     0.084 A 
ATOM      9  C   UNL d   1      11.600   8.405  -3.872  0.00  0.00     0.070 A 
ATOM     10 CL   UNL d   1      11.860   6.147  -5.219  0.00  0.00    -0.080 Cl
ATOM     11  C   UNL d   1      11.370   9.777  -3.770  0.00  0.00     0.012 A 
ATOM     12 CL   UNL d   1      12.004   7.485  -2.464  0.00  0.00    -0.081 Cl
ATOM     13  C   UNL d   1      11.053  10.500  -4.931  0.00  0.00     0.002 A 
ATOM     14  C   UNL d   1      11.027   9.898  -6.204  0.00  0.00     0.018 A 
ENDBRANCH   4   7
BRANCH   1  15
ATOM     15  C   UNL d   1       9.401   7.614 -11.406  0.00  0.00     0.286 C 
BRANCH  15  16
ATOM     16  C   UNL d   1       8.726   6.364 -12.008  0.00  0.00     0.218 C 
ATOM     17  O   UNL d   1       7.581   5.979 -11.285  0.00  0.00    -0.218 OA
ENDBRANCH  15  16
ENDBRANCH   1  15
TORSDOF 3
