REMARK  6 active torsions:
REMARK  status: ('A' for Active; 'I' for Inactive)
REMARK       I    between atoms: C_2  and  N_3 
REMARK    1  A    between atoms: C_2  and  C_22 
REMARK    2  A    between atoms: N_3  and  C_4 
REMARK    3  A    between atoms: C_4  and  C_5 
REMARK    4  A    between atoms: C_6  and  C_7 
REMARK    5  A    between atoms: C_7  and  N_8 
REMARK    6  A    between atoms: N_11  and  C_12 
ROOT
ATOM      1  N   UNL d   1       6.891   4.174 -12.720  0.00  0.00     0.145 N 
ATOM      2  C   UNL d   1       5.682   3.531 -13.246  0.00  0.00     0.275 C 
ATOM      3  C   UNL d   1       5.963   2.061 -13.633  0.00  0.00     0.137 C 
ATOM      4  N   UNL d   1       7.077   1.975 -14.569  0.00  0.00    -0.344 N 
ATOM      5  C   UNL d   1       8.284   2.694 -14.153  0.00  0.00     0.137 C 
ATOM      6  C   UNL d   1       7.956   4.147 -13.738  0.00  0.00     0.275 C 
ENDROOT
BRANCH   1   7
ATOM      7  C   UNL d   1       6.543   5.547 -12.349  0.00  0.00     0.276 C 
BRANCH   7   8
ATOM      8  C   UNL d   1       7.756   6.335 -11.907  0.00  0.00     0.006 C 
ATOM      9  C   UNL d   1       8.103   7.519 -12.438  0.00  0.00    -0.003 C 
BRANCH   9  10
ATOM     10  C   UNL d   1       9.314   8.326 -12.017  0.00  0.00     0.155 C 
BRANCH  10  11
ATOM     11  N   UNL d   1       9.460   8.305 -10.573  0.00  0.00    -0.229 NA
ATOM     12  C   UNL d   1      10.594   8.463  -9.879  0.00  0.00     0.275 C 
ATOM     13  O   UNL d   1      11.665   8.783 -10.390  0.00  0.00    -0.266 OA
BRANCH  12  14
ATOM     14  C   UNL d   1      10.519   8.205  -8.400  0.00  0.00     0.061 A 
ATOM     15  C   UNL d   1      11.554   8.646  -7.544  0.00  0.00     0.025 A 
ATOM     16  C   UNL d   1      11.454   8.358  -6.171  0.00  0.00     0.099 A 
ATOM     17  N   UNL d   1      10.440   7.644  -5.637  0.00  0.00    -0.242 NA
ATOM     18  C   UNL d   1       9.463   7.210  -6.466  0.00  0.00     0.099 A 
ATOM     19  C   UNL d   1       9.455   7.460  -7.845  0.00  0.00     0.025 A 
ENDBRANCH  12  14
ENDBRANCH  10  11
ENDBRANCH   9  10
ENDBRANCH   7   8
ENDBRANCH   1   7
BRANCH   4  20
ATOM     20  C   UNL d   1       7.010   1.252 -15.778  0.00  0.00     0.068 A 
ATOM     21  C   UNL d   1       6.336   0.007 -15.904  0.00  0.00     0.084 A 
ATOM     22  C   UNL d   1       6.264  -0.634 -17.162  0.00  0.00     0.070 A 
ATOM     23 CL   UNL d   1       5.607  -0.775 -14.538  0.00  0.00    -0.080 Cl
ATOM     24  C   UNL d   1       6.917  -0.084 -18.279  0.00  0.00     0.012 A 
ATOM     25 CL   UNL d   1       5.417  -2.127 -17.359  0.00  0.00    -0.081 Cl
ATOM     26  C   UNL d   1       7.611   1.129 -18.152  0.00  0.00     0.002 A 
ATOM     27  C   UNL d   1       7.639   1.796 -16.918  0.00  0.00     0.018 A 
ENDBRANCH   4  20
TORSDOF 6
