REMARK  6 active torsions:
REMARK  status: ('A' for Active; 'I' for Inactive)
REMARK    1  A    between atoms: C_2  and  C_3 
REMARK    2  A    between atoms: N_16  and  C_17 
REMARK    3  A    between atoms: C_17  and  C_18 
REMARK    4  A    between atoms: C_18  and  C_19 
REMARK    5  A    between atoms: C_19  and  S_20 
REMARK    6  A    between atoms: S_20  and  C_21 
ROOT
ATOM      1  O   UNL d   1      11.055   9.635  -7.535  0.00  0.00    -0.221 OA
ATOM      2  C   UNL d   1      11.042   8.311  -7.107  0.00  0.00     0.149 C 
ATOM      3  C   UNL d   1       9.622   7.760  -7.292  0.00  0.00     0.068 C 
ATOM      4  C   UNL d   1       9.287   7.453  -8.743  0.00  0.00     0.222 C 
ATOM      5  C   UNL d   1       9.468   8.630  -9.728  0.00  0.00     0.035 C 
ATOM      6  C   UNL d   1      10.921   8.517 -10.164  0.00  0.00     0.035 C 
ATOM      7  C   UNL d   1      11.420   7.263  -9.435  0.00  0.00     0.222 C 
ATOM      8  C   UNL d   1      12.024   7.578  -8.038  0.00  0.00     0.068 C 
ATOM      9  N   UNL d   1      10.214   6.423  -9.239  0.00  0.00     0.133 N 
ENDROOT
BRANCH   9  10
ATOM     10  C   UNL d   1       9.791   5.782 -10.498  0.00  0.00     0.251 C 
BRANCH  10  11
ATOM     11  C   UNL d   1       8.255   5.585 -10.691  0.00  0.00     0.047 C 
BRANCH  11  12
ATOM     12  C   UNL d   1       7.748   6.040 -12.063  0.00  0.00     0.064 C 
BRANCH  12  13
ATOM     13  S   UNL d   1       6.481   4.875 -12.668  0.00  0.00    -0.114 SA
BRANCH  13  14
ATOM     14  C   UNL d   1       7.371   3.609 -13.508  0.00  0.00     0.025 A 
ATOM     15  C   UNL d   1       8.777   3.676 -13.664  0.00  0.00     0.009 A 
ATOM     16  C   UNL d   1       9.456   2.679 -14.384  0.00  0.00     0.030 A 
ATOM     17  C   UNL d   1       8.749   1.600 -14.922  0.00  0.00     0.140 A 
ATOM     18  C   UNL d   1       7.351   1.518 -14.754  0.00  0.00     0.030 A 
ATOM     19  F   UNL d   1       9.417   0.636 -15.601  0.00  0.00    -0.204 F 
ATOM     20  C   UNL d   1       6.658   2.517 -14.053  0.00  0.00     0.009 A 
ENDBRANCH  13  14
ENDBRANCH  12  13
ENDBRANCH  11  12
ENDBRANCH  10  11
ENDBRANCH   9  10
BRANCH   2  21
ATOM     21  C   UNL d   1      11.440   8.254  -5.649  0.00  0.00     0.005 A 
ATOM     22  C   UNL d   1      11.460   7.015  -4.978  0.00  0.00    -0.001 A 
ATOM     23  C   UNL d   1      11.857   6.970  -3.636  0.00  0.00     0.011 A 
ATOM     24  C   UNL d   1      12.180   8.178  -2.985  0.00  0.00     0.058 A 
ATOM     25  C   UNL d   1      12.132   9.418  -3.638  0.00  0.00     0.011 A 
ATOM     26 CL   UNL d   1      12.566   8.195  -1.357  0.00  0.00    -0.082 Cl
ATOM     27  C   UNL d   1      11.757   9.452  -4.973  0.00  0.00    -0.001 A 
ENDBRANCH   2  21
TORSDOF 6
