REMARK  6 active torsions:
REMARK  status: ('A' for Active; 'I' for Inactive)
REMARK    1  A    between atoms: N_9  and  C_10 
REMARK    2  A    between atoms: C_10  and  C_11 
REMARK    3  A    between atoms: C_11  and  C_12 
REMARK    4  A    between atoms: C_12  and  C_13 
REMARK    5  A    between atoms: C_13  and  N_14 
REMARK    6  A    between atoms: N_17  and  C_18 
ROOT
ATOM      1  C   UNL d   1      13.275  -0.242 -20.017  0.00  0.00     0.139 C 
ATOM      2  N   UNL d   1      12.732   0.715 -19.037  0.00  0.00    -0.246 N 
ATOM      3  C   UNL d   1      11.573   0.391 -18.386  0.00  0.00     0.284 A 
ATOM      4  O   UNL d   1      10.941  -0.656 -18.555  0.00  0.00    -0.265 OA
ATOM      5  C   UNL d   1      11.126   1.408 -17.432  0.00  0.00     0.172 A 
ATOM      6  C   UNL d   1      11.804   2.566 -17.202  0.00  0.00     0.187 A 
ATOM      7  N   UNL d   1      11.170   3.363 -16.241  0.00  0.00    -0.043 NA
ATOM      8  C   UNL d   1      10.100   2.625 -15.933  0.00  0.00     0.720 A 
ATOM      9  N   UNL d   1       9.057   2.943 -15.008  0.00  0.00    -0.128 N 
ATOM     10  C   UNL d   1       7.977   2.108 -14.851  0.00  0.00     0.276 A 
ATOM     11  O   UNL d   1       7.014   2.403 -14.143  0.00  0.00    -0.266 OA
ATOM     12  C   UNL d   1       8.009   0.845 -15.608  0.00  0.00     0.081 A 
ATOM     13  C   UNL d   1       8.997   0.526 -16.473  0.00  0.00     0.103 A 
ATOM     14  N   UNL d   1      10.017   1.473 -16.598  0.00  0.00    -0.133 N 
ATOM     15  N   UNL d   1      12.994   2.798 -17.935  0.00  0.00    -0.263 N 
ATOM     16  C   UNL d   1      13.745   4.036 -17.698  0.00  0.00     0.137 C 
ATOM     17  C   UNL d   1      13.454   1.883 -18.846  0.00  0.00     0.335 A 
ATOM     18  O   UNL d   1      14.503   2.091 -19.464  0.00  0.00    -0.246 OA
ENDROOT
BRANCH   9  19
ATOM     19  C   UNL d   1       9.130   4.218 -14.267  0.00  0.00     0.128 C 
BRANCH  19  20
ATOM     20  C   UNL d   1       9.330   4.005 -12.754  0.00  0.00     0.027 C 
BRANCH  20  21
ATOM     21  C   UNL d   1       9.325   5.312 -11.956  0.00  0.00     0.037 C 
BRANCH  21  22
ATOM     22  C   UNL d   1       9.023   5.072 -10.463  0.00  0.00     0.251 C 
BRANCH  22  23
ATOM     23  N   UNL d   1       9.245   6.273  -9.667  0.00  0.00     0.141 N 
ATOM     24  C   UNL d   1       8.557   6.141  -8.378  0.00  0.00     0.274 C 
ATOM     25  C   UNL d   1       8.726   7.424  -7.529  0.00  0.00     0.137 C 
ATOM     26  N   UNL d   1      10.130   7.750  -7.373  0.00  0.00    -0.344 N 
ATOM     27  C   UNL d   1      10.911   7.775  -8.590  0.00  0.00     0.137 C 
ATOM     28  C   UNL d   1      10.667   6.483  -9.394  0.00  0.00     0.274 C 
BRANCH  26  29
ATOM     29  C   UNL d   1      10.719   7.925  -6.115  0.00  0.00     0.056 A 
ATOM     30  C   UNL d   1      11.172   6.808  -5.392  0.00  0.00     0.018 A 
ATOM     31  C   UNL d   1      11.778   6.975  -4.130  0.00  0.00     0.013 A 
ATOM     32  C   UNL d   1      11.918   8.264  -3.589  0.00  0.00     0.058 A 
ATOM     33  C   UNL d   1      11.464   9.387  -4.310  0.00  0.00     0.013 A 
ATOM     34 CL   UNL d   1      12.650   8.458  -2.040  0.00  0.00    -0.082 Cl
ATOM     35  C   UNL d   1      10.865   9.218  -5.579  0.00  0.00     0.018 A 
ENDBRANCH  26  29
ENDBRANCH  22  23
ENDBRANCH  21  22
ENDBRANCH  20  21
ENDBRANCH  19  20
ENDBRANCH   9  19
TORSDOF 6
