REMARK  3 active torsions:
REMARK  status: ('A' for Active; 'I' for Inactive)
REMARK    1  A    between atoms: C_4  and  C_5 
REMARK    2  A    between atoms: C_5  and  N_6 
REMARK    3  A    between atoms: C_9  and  C_10 
ROOT
ATOM      1  N   UNL d   1       8.000   4.348 -13.096  0.00  0.00     0.137 N 
ATOM      2  C   UNL d   1       8.612   3.809 -14.311  0.00  0.00     0.251 C 
ATOM      3  C   UNL d   1       8.182   2.347 -14.546  0.00  0.00     0.041 C 
ATOM      4  C   UNL d   1       6.655   2.215 -14.603  0.00  0.00     0.047 C 
ATOM      5  C   UNL d   1       6.018   2.897 -13.376  0.00  0.00     0.041 C 
ATOM      6  C   UNL d   1       6.537   4.317 -13.194  0.00  0.00     0.251 C 
ENDROOT
BRANCH   1   7
ATOM      7  C   UNL d   1       8.439   5.726 -12.845  0.00  0.00     0.251 C 
BRANCH   7   8
ATOM      8  C   UNL d   1       9.032   5.869 -11.431  0.00  0.00     0.045 C 
ATOM      9  C   UNL d   1       8.057   5.431 -10.336  0.00  0.00     0.071 C 
ATOM     10  C   UNL d   1       8.662   5.574  -8.943  0.00  0.00     0.173 C 
ATOM     11  O   UNL d   1       8.336   4.761  -8.095  0.00  0.00    -0.291 OA
ATOM     12  C   UNL d   1       9.620   6.678  -8.698  0.00  0.00     0.031 A 
ATOM     13  C   UNL d   1      10.026   7.521  -9.756  0.00  0.00    -0.019 A 
ATOM     14  C   UNL d   1      10.132   6.885  -7.397  0.00  0.00     0.003 A 
ATOM     15  C   UNL d   1       9.492   7.319 -11.168  0.00  0.00     0.029 C 
ATOM     16  C   UNL d   1      10.933   8.571  -9.502  0.00  0.00    -0.004 A 
ATOM     17  C   UNL d   1      11.432   8.773  -8.201  0.00  0.00    -0.000 A 
ATOM     18  C   UNL d   1      11.035   7.928  -7.147  0.00  0.00     0.000 A 
ENDBRANCH   7   8
ENDBRANCH   1   7
BRANCH   4  19
ATOM     19  C   UNL d   1       6.207   0.779 -14.747  0.00  0.00     0.087 A 
ATOM     20  C   UNL d   1       5.757   0.049 -15.872  0.00  0.00     0.041 A 
ATOM     21  C   UNL d   1       5.469  -1.261 -15.481  0.00  0.00     0.129 A 
ATOM     22  C   UNL d   1       5.586   0.411 -17.227  0.00  0.00     0.006 A 
ATOM     23  O   UNL d   1       5.768  -1.310 -14.132  0.00  0.00    -0.211 OA
ATOM     24  C   UNL d   1       5.034  -2.248 -16.375  0.00  0.00     0.057 A 
ATOM     25  N   UNL d   1       6.245  -0.043 -13.696  0.00  0.00    -0.131 NA
ATOM     26  C   UNL d   1       4.859  -1.881 -17.728  0.00  0.00     0.142 A 
ATOM     27  F   UNL d   1       4.436  -2.800 -18.630  0.00  0.00    -0.204 F 
ATOM     28  C   UNL d   1       5.128  -0.558 -18.147  0.00  0.00     0.030 A 
ENDBRANCH   4  19
TORSDOF 3
