REMARK  4 active torsions:
REMARK  status: ('A' for Active; 'I' for Inactive)
REMARK    1  A    between atoms: N_3  and  C_4 
REMARK    2  A    between atoms: C_4  and  C_5 
REMARK    3  A    between atoms: C_5  and  N_6 
REMARK    4  A    between atoms: N_17  and  C_18 
ROOT
ATOM      1  O   UNL d   1      10.161   5.342 -13.229  0.00  0.00    -0.247 OA
ATOM      2  C   UNL d   1       9.114   5.199 -12.599  0.00  0.00     0.328 A 
ATOM      3  N   UNL d   1       8.723   6.003 -11.607  0.00  0.00    -0.298 N 
ATOM      4  C   UNL d   1       7.410   5.663 -11.098  0.00  0.00     0.131 A 
ATOM      5  C   UNL d   1       7.020   4.448 -11.916  0.00  0.00     0.135 A 
ATOM      6  N   UNL d   1       8.168   4.244 -12.798  0.00  0.00    -0.280 N 
ENDROOT
BRANCH   3   7
ATOM      7  C   UNL d   1       9.451   7.170 -11.106  0.00  0.00     0.141 C 
BRANCH   7   8
ATOM      8  C   UNL d   1      10.150   6.843  -9.774  0.00  0.00     0.275 C 
BRANCH   8   9
ATOM      9  N   UNL d   1       9.167   6.988  -8.704  0.00  0.00     0.148 N 
ATOM     10  C   UNL d   1       9.150   8.390  -8.233  0.00  0.00     0.277 C 
ATOM     11  C   UNL d   1      10.130   8.409  -7.099  0.00  0.00     0.009 A 
ATOM     12  C   UNL d   1      10.319   7.112  -6.668  0.00  0.00     0.009 A 
ATOM     13  C   UNL d   1      10.777   9.492  -6.483  0.00  0.00    -0.003 A 
ATOM     14  C   UNL d   1       9.484   6.195  -7.515  0.00  0.00     0.277 C 
ATOM     15  C   UNL d   1      11.155   6.810  -5.585  0.00  0.00    -0.003 A 
ATOM     16  C   UNL d   1      11.805   7.883  -4.937  0.00  0.00    -0.000 A 
ATOM     17  C   UNL d   1      11.629   9.210  -5.395  0.00  0.00    -0.000 A 
ENDBRANCH   8   9
ENDBRANCH   7   8
ENDBRANCH   3   7
BRANCH   6  18
ATOM     18  C   UNL d   1       8.229   3.186 -13.764  0.00  0.00     0.067 A 
ATOM     19  C   UNL d   1       9.466   2.684 -14.244  0.00  0.00     0.029 A 
ATOM     20  C   UNL d   1       9.509   1.650 -15.189  0.00  0.00     0.061 A 
ATOM     21  C   UNL d   1       8.325   1.043 -15.638  0.00  0.00     0.041 A 
ATOM     22 CL   UNL d   1      11.039   1.138 -15.803  0.00  0.00    -0.082 Cl
ATOM     23  C   UNL d   1       7.091   1.483 -15.130  0.00  0.00     0.142 A 
ATOM     24  C   UNL d   1       7.037   2.551 -14.214  0.00  0.00     0.047 A 
ATOM     25  F   UNL d   1       5.952   0.861 -15.527  0.00  0.00    -0.204 F 
ENDBRANCH   6  18
TORSDOF 4
