REMARK  11 active torsions:
REMARK  status: ('A' for Active; 'I' for Inactive)
REMARK    1  A    between atoms: O_2  and  C_3 
REMARK    2  A    between atoms: C_6  and  C_7 
REMARK    3  A    between atoms: C_12  and  N_13 
REMARK    4  A    between atoms: N_16  and  C_17 
REMARK    5  A    between atoms: C_17  and  C_18 
REMARK    6  A    between atoms: C_18  and  C_19 
REMARK    7  A    between atoms: C_19  and  C_20 
REMARK    8  A    between atoms: C_20  and  C_21 
REMARK    9  A    between atoms: C_21  and  C_22 
REMARK       I    between atoms: C_22  and  N_24 
REMARK   10  A    between atoms: N_24  and  C_25 
REMARK   11  A    between atoms: C_25  and  C_27 
ROOT
ATOM      1  N   UNL d   1      10.091   2.552 -15.768  0.00  0.00    -0.344 N 
ATOM      2  C   UNL d   1      10.438   2.080 -14.440  0.00  0.00     0.137 C 
ATOM      3  C   UNL d   1      10.447   3.272 -13.476  0.00  0.00     0.274 C 
ATOM      4  N   UNL d   1       9.171   3.982 -13.477  0.00  0.00     0.141 N 
ATOM      5  C   UNL d   1       8.936   4.508 -14.818  0.00  0.00     0.274 C 
ATOM      6  C   UNL d   1       8.875   3.344 -15.831  0.00  0.00     0.137 C 
ENDROOT
BRANCH   4   7
ATOM      7  C   UNL d   1       9.219   5.090 -12.520  0.00  0.00     0.250 C 
BRANCH   7   8
ATOM      8  C   UNL d   1       9.081   4.606 -11.068  0.00  0.00     0.035 C 
BRANCH   8   9
ATOM      9  C   UNL d   1       9.167   5.756 -10.065  0.00  0.00     0.003 C 
BRANCH   9  10
ATOM     10  C   UNL d   1       8.825   5.319  -8.632  0.00  0.00     0.010 C 
BRANCH  10  11
ATOM     11  C   UNL d   1       8.772   6.496  -7.637  0.00  0.00     0.090 C 
BRANCH  11  12
ATOM     12  C   UNL d   1      10.143   7.001  -7.200  0.00  0.00     0.252 C 
ATOM     13  O   UNL d   1      11.148   6.332  -7.402  0.00  0.00    -0.271 OA
ATOM     14  N   UNL d   1      10.183   8.186  -6.579  0.00  0.00    -0.235 NA
BRANCH  14  15
ATOM     15  C   UNL d   1      11.402   8.820  -6.074  0.00  0.00     0.129 C 
ATOM     16  C   UNL d   1      11.275  10.334  -6.226  0.00  0.00     0.031 C 
BRANCH  15  17
ATOM     17  C   UNL d   1      11.724   8.387  -4.640  0.00  0.00    -0.000 A 
ATOM     18  C   UNL d   1      11.862   7.020  -4.316  0.00  0.00    -0.002 A 
ATOM     19  C   UNL d   1      12.219   6.627  -3.010  0.00  0.00    -0.000 A 
ATOM     20  C   UNL d   1      12.412   7.598  -2.019  0.00  0.00    -0.000 A 
ATOM     21  C   UNL d   1      12.257   8.951  -2.312  0.00  0.00    -0.000 A 
ATOM     22  C   UNL d   1      11.911   9.339  -3.611  0.00  0.00    -0.002 A 
ENDBRANCH  15  17
ENDBRANCH  14  15
ENDBRANCH  11  12
ENDBRANCH  10  11
ENDBRANCH   9  10
ENDBRANCH   8   9
ENDBRANCH   7   8
ENDBRANCH   4   7
BRANCH   1  23
ATOM     23  C   UNL d   1      10.829   2.195 -16.895  0.00  0.00     0.056 A 
ATOM     24  C   UNL d   1      10.258   1.510 -17.998  0.00  0.00     0.015 A 
ATOM     25  C   UNL d   1      11.096   1.203 -19.109  0.00  0.00     0.001 A 
ATOM     26  C   UNL d   1      12.445   1.579 -19.128  0.00  0.00     0.000 A 
ATOM     27  C   UNL d   1      12.998   2.264 -18.040  0.00  0.00     0.002 A 
ATOM     28  C   UNL d   1      12.188   2.561 -16.919  0.00  0.00     0.017 A 
BRANCH  24  29
ATOM     29  C   UNL d   1       8.844   1.092 -18.063  0.00  0.00     0.002 A 
ATOM     30  C   UNL d   1       8.129   1.350 -19.246  0.00  0.00     0.002 A 
ATOM     31  C   UNL d   1       6.782   0.979 -19.376  0.00  0.00     0.024 A 
ATOM     32  C   UNL d   1       6.090   0.359 -18.296  0.00  0.00     0.094 A 
ATOM     33  C   UNL d   1       6.803   0.118 -17.104  0.00  0.00     0.024 A 
ATOM     34  C   UNL d   1       8.168   0.448 -16.999  0.00  0.00     0.002 A 
BRANCH  32  35
ATOM     35  O   UNL d   1       4.769  -0.012 -18.333  0.00  0.00    -0.328 OA
ATOM     36  C   UNL d   1       4.101   0.109 -19.579  0.00  0.00     0.181 C 
ENDBRANCH  32  35
ENDBRANCH  24  29
ENDBRANCH   1  23
TORSDOF 11
