REMARK  11 active torsions:
REMARK  status: ('A' for Active; 'I' for Inactive)
REMARK    1  A    between atoms: C_2  and  C_3 
REMARK    2  A    between atoms: C_3  and  N_4 
REMARK    3  A    between atoms: N_4  and  C_5 
REMARK    4  A    between atoms: N_4  and  C_21 
REMARK    5  A    between atoms: C_5  and  C_6 
REMARK    6  A    between atoms: C_6  and  C_7 
REMARK    7  A    between atoms: C_7  and  C_8 
REMARK    8  A    between atoms: C_8  and  N_9 
REMARK       I    between atoms: N_9  and  C_10 
REMARK    9  A    between atoms: C_10  and  C_12 
REMARK   10  A    between atoms: C_21  and  C_22 
REMARK   11  A    between atoms: C_24  and  C_25 
ROOT
ATOM      1  N   UNL d   1      10.400   4.773 -14.570  0.00  0.00     0.137 N 
ENDROOT
BRANCH   1   2
ATOM      2  C   UNL d   1      11.374   3.895 -15.222  0.00  0.00     0.250 C 
BRANCH   2   3
ATOM      3  C   UNL d   1      12.803   4.448 -15.186  0.00  0.00     0.035 C 
ATOM      4  C   UNL d   1      12.941   5.712 -16.037  0.00  0.00     0.002 C 
ENDBRANCH   2   3
ENDBRANCH   1   2
BRANCH   1   5
ATOM      5  C   UNL d   1      10.468   4.697 -13.114  0.00  0.00     0.250 C 
BRANCH   5   6
ATOM      6  C   UNL d   1       9.667   5.827 -12.441  0.00  0.00     0.037 C 
BRANCH   6   7
ATOM      7  C   UNL d   1      10.038   6.019 -10.965  0.00  0.00     0.029 C 
BRANCH   7   8
ATOM      8  C   UNL d   1       9.062   6.878 -10.202  0.00  0.00     0.129 C 
BRANCH   8   9
ATOM      9  N   UNL d   1       9.606   7.188  -8.887  0.00  0.00    -0.233 NA
ATOM     10  C   UNL d   1      10.301   8.293  -8.573  0.00  0.00     0.293 C 
ATOM     11  O   UNL d   1      10.562   9.189  -9.380  0.00  0.00    -0.264 OA
BRANCH  10  12
ATOM     12  C   UNL d   1      10.696   8.416  -7.160  0.00  0.00     0.139 A 
ATOM     13  N   UNL d   1      11.028   7.275  -6.449  0.00  0.00    -0.241 NA
ATOM     14  C   UNL d   1      11.395   7.588  -5.157  0.00  0.00     0.082 A 
ATOM     15  C   UNL d   1      11.265   9.001  -5.049  0.00  0.00     0.019 A 
ATOM     16  C   UNL d   1      11.825   6.792  -4.083  0.00  0.00     0.019 A 
ATOM     17  C   UNL d   1      10.842   9.503  -6.327  0.00  0.00     0.025 A 
ATOM     18  C   UNL d   1      11.560   9.581  -3.793  0.00  0.00     0.002 A 
ATOM     19  C   UNL d   1      11.998   8.791  -2.710  0.00  0.00     0.000 A 
ATOM     20  C   UNL d   1      12.130   7.397  -2.851  0.00  0.00     0.002 A 
ENDBRANCH  10  12
ENDBRANCH   8   9
ENDBRANCH   7   8
ENDBRANCH   6   7
ENDBRANCH   5   6
ENDBRANCH   1   5
BRANCH   1  21
ATOM     21  C   UNL d   1       9.074   4.421 -15.078  0.00  0.00     0.251 C 
BRANCH  21  22
ATOM     22  C   UNL d   1       8.716   2.957 -14.822  0.00  0.00     0.038 A 
ATOM     23  C   UNL d   1       7.834   2.201 -15.802  0.00  0.00     0.025 A 
ATOM     24  C   UNL d   1       9.292   1.847 -15.651  0.00  0.00     0.007 A 
BRANCH  23  25
ATOM     25  C   UNL d   1       6.810   1.216 -15.345  0.00  0.00    -0.011 A 
ATOM     26  C   UNL d   1       6.447   0.144 -16.193  0.00  0.00     0.064 A 
ATOM     27  C   UNL d   1       5.503  -0.814 -15.748  0.00  0.00     0.068 A 
ATOM     28 CL   UNL d   1       7.179  -0.022 -17.753  0.00  0.00    -0.082 Cl
ATOM     29  C   UNL d   1       4.935  -0.691 -14.462  0.00  0.00     0.012 A 
ATOM     30 CL   UNL d   1       5.058  -2.150 -16.749  0.00  0.00    -0.082 Cl
ATOM     31  C   UNL d   1       5.292   0.386 -13.625  0.00  0.00     0.001 A 
ATOM     32  C   UNL d   1       6.216   1.346 -14.082  0.00  0.00    -0.003 A 
ENDBRANCH  23  25
ENDBRANCH  21  22
ENDBRANCH   1  21
TORSDOF 11
