REMARK  6 active torsions:
REMARK  status: ('A' for Active; 'I' for Inactive)
REMARK    1  A    between atoms: C_2  and  C_3 
REMARK    2  A    between atoms: C_2  and  C_21 
REMARK    3  A    between atoms: C_3  and  C_4 
REMARK    4  A    between atoms: C_4  and  C_5 
REMARK    5  A    between atoms: C_5  and  N_6 
REMARK    6  A    between atoms: C_9  and  C_11 
ROOT
ATOM      1  N   UNL d   1       9.601   5.735 -11.666  0.00  0.00     0.137 N 
ATOM      2  C   UNL d   1       9.514   4.825 -10.515  0.00  0.00     0.253 C 
ATOM      3  C   UNL d   1      10.174   5.494  -9.302  0.00  0.00     0.070 C 
ATOM      4  C   UNL d   1       9.509   6.788  -8.870  0.00  0.00     0.149 C 
ATOM      5  O   UNL d   1       8.299   6.300  -8.369  0.00  0.00    -0.221 OA
ATOM      6  C   UNL d   1       9.467   7.654 -10.156  0.00  0.00     0.070 C 
ATOM      7  C   UNL d   1       8.827   6.940 -11.340  0.00  0.00     0.253 C 
ENDROOT
BRANCH   1   8
ATOM      8  C   UNL d   1       9.000   5.136 -12.842  0.00  0.00     0.251 C 
BRANCH   8   9
ATOM      9  C   UNL d   1       9.807   3.924 -13.360  0.00  0.00     0.043 C 
BRANCH   9  10
ATOM     10  C   UNL d   1       9.243   3.262 -14.625  0.00  0.00     0.071 C 
BRANCH  10  11
ATOM     11  C   UNL d   1       7.827   2.699 -14.469  0.00  0.00     0.173 C 
ATOM     12  O   UNL d   1       7.058   3.172 -13.638  0.00  0.00    -0.291 OA
BRANCH  11  13
ATOM     13  C   UNL d   1       7.419   1.605 -15.396  0.00  0.00     0.035 A 
ATOM     14  C   UNL d   1       8.043   1.413 -16.660  0.00  0.00     0.005 A 
ATOM     15  C   UNL d   1       7.576   0.409 -17.527  0.00  0.00     0.030 A 
ATOM     16  C   UNL d   1       6.484  -0.408 -17.149  0.00  0.00     0.140 A 
ATOM     17  C   UNL d   1       5.864  -0.222 -15.898  0.00  0.00     0.030 A 
ATOM     18  F   UNL d   1       6.031  -1.371 -17.987  0.00  0.00    -0.204 F 
ATOM     19  C   UNL d   1       6.334   0.779 -15.033  0.00  0.00     0.005 A 
ENDBRANCH  11  13
ENDBRANCH  10  11
ENDBRANCH   9  10
ENDBRANCH   8   9
ENDBRANCH   1   8
BRANCH   4  20
ATOM     20  C   UNL d   1      10.319   7.500  -7.762  0.00  0.00     0.006 A 
ATOM     21  C   UNL d   1      10.633   6.819  -6.559  0.00  0.00     0.010 A 
ATOM     22  C   UNL d   1      11.352   7.465  -5.514  0.00  0.00     0.068 A 
ATOM     23  C   UNL d   1      11.758   8.800  -5.670  0.00  0.00     0.068 A 
ATOM     24 CL   UNL d   1      11.747   6.639  -4.059  0.00  0.00    -0.082 Cl
ATOM     25  C   UNL d   1      11.469   9.491  -6.854  0.00  0.00     0.012 A 
ATOM     26 CL   UNL d   1      12.648   9.580  -4.414  0.00  0.00    -0.082 Cl
ATOM     27  C   UNL d   1      10.760   8.844  -7.895  0.00  0.00    -0.001 A 
ENDBRANCH   4  20
TORSDOF 6
