REMARK  4 active torsions:
REMARK  status: ('A' for Active; 'I' for Inactive)
REMARK    1  A    between atoms: C_6  and  N_7 
REMARK       I    between atoms: N_7  and  C_8 
REMARK    2  A    between atoms: C_8  and  C_10 
REMARK    3  A    between atoms: C_10  and  N_11 
REMARK    4  A    between atoms: N_14  and  C_15 
ROOT
ATOM      1  N   UNL d   1       9.953   7.496  -8.782  0.00  0.00     0.151 N 
ATOM      2  C   UNL d   1       9.850   6.502  -7.708  0.00  0.00     0.275 C 
ATOM      3  C   UNL d   1       9.506   7.189  -6.386  0.00  0.00     0.138 C 
ATOM      4  N   UNL d   1      10.489   8.218  -6.087  0.00  0.00    -0.330 N 
ATOM      5  C   UNL d   1      10.722   9.193  -7.141  0.00  0.00     0.138 C 
ATOM      6  C   UNL d   1      11.025   8.469  -8.471  0.00  0.00     0.275 C 
ENDROOT
BRANCH   1   7
ATOM      7  C   UNL d   1      10.212   6.882 -10.101  0.00  0.00     0.339 C 
BRANCH   7   8
ATOM      8  C   UNL d   1       9.218   5.819 -10.590  0.00  0.00     0.290 C 
ATOM      9  N   UNL d   1       9.061   5.730 -11.924  0.00  0.00    -0.210 NA
ATOM     10  O   UNL d   1       8.680   5.041  -9.811  0.00  0.00    -0.268 OA
BRANCH   9  11
ATOM     11  C   UNL d   1       8.244   4.786 -12.598  0.00  0.00     0.084 A 
ATOM     12  C   UNL d   1       6.916   4.525 -12.189  0.00  0.00     0.019 A 
ATOM     13  C   UNL d   1       6.123   3.614 -12.909  0.00  0.00     0.001 A 
ATOM     14  C   UNL d   1       6.657   2.947 -14.026  0.00  0.00    -0.004 A 
ATOM     15  C   UNL d   1       7.997   3.174 -14.415  0.00  0.00    -0.020 A 
ATOM     16  C   UNL d   1       8.587   2.458 -15.607  0.00  0.00     0.031 C 
ATOM     17  C   UNL d   1       8.787   4.094 -13.695  0.00  0.00     0.015 A 
ENDBRANCH   9  11
ENDBRANCH   7   8
ENDBRANCH   1   7
BRANCH   4  18
ATOM     18  C   UNL d   1      11.192   8.247  -4.878  0.00  0.00     0.140 A 
ATOM     19  N   UNL d   1      11.444   9.469  -4.369  0.00  0.00    -0.227 NA
ATOM     20  C   UNL d   1      12.080   9.541  -3.186  0.00  0.00     0.101 A 
ATOM     21  C   UNL d   1      12.521   8.417  -2.468  0.00  0.00     0.021 A 
ATOM     22  C   UNL d   1      12.258   7.144  -2.997  0.00  0.00     0.005 A 
ATOM     23  C   UNL d   1      11.572   7.052  -4.224  0.00  0.00     0.037 A 
ENDBRANCH   4  18
TORSDOF 4
