REMARK  2 active torsions:
REMARK  status: ('A' for Active; 'I' for Inactive)
REMARK    1  A    between atoms: N_5  and  C1*_6 
REMARK    2  A    between atoms: C4*_8  and  C5*_9 
ROOT
ATOM      1  C1* UNL d   1      10.801   8.679  -6.806  0.00  0.00     0.260 C 
ATOM      2  O4* UNL d   1       9.452   8.325  -6.839  0.00  0.00    -0.330 OA
ATOM      3  C4* UNL d   1       9.190   7.440  -7.924  0.00  0.00     0.183 C 
ATOM      4  C3* UNL d   1      10.434   7.557  -8.819  0.00  0.00     0.216 C 
ATOM      5  O3* UNL d   1      10.244   8.671  -9.680  0.00  0.00    -0.218 OA
ATOM      6  C2* UNL d   1      11.543   7.783  -7.815  0.00  0.00     0.236 C 
ATOM      7  O2* UNL d   1      12.657   8.388  -8.426  0.00  0.00    -0.216 OA
ENDROOT
BRANCH   1   8
ATOM      8  N   UNL d   1      11.262   8.488  -5.383  0.00  0.00    -0.172 N 
ATOM      9  N   UNL d   1      11.452   7.162  -4.925  0.00  0.00    -0.157 NA
ATOM     10  C   UNL d   1      11.857   6.965  -3.715  0.00  0.00     0.183 C 
ATOM     11  C   UNL d   1      12.071   8.110  -2.792  0.00  0.00     0.304 C 
ATOM     12  O   UNL d   1      12.467   7.948  -1.640  0.00  0.00    -0.263 OA
ATOM     13  N   UNL d   1      11.771   9.334  -3.263  0.00  0.00    -0.151 NA
ATOM     14  C   UNL d   1      11.329   9.606  -4.513  0.00  0.00     0.371 C 
ATOM     15  O   UNL d   1      11.003  10.738  -4.865  0.00  0.00    -0.243 OA
ENDBRANCH   1   8
BRANCH   3  16
ATOM     16  C5* UNL d   1       8.989   6.021  -7.378  0.00  0.00     0.214 C 
ATOM     17  O5* UNL d   1       8.652   5.154  -8.442  0.00  0.00    -0.218 OA
ENDBRANCH   3  16
TORSDOF 2
