REMARK  7 active torsions:
REMARK  status: ('A' for Active; 'I' for Inactive)
REMARK    1  A    between atoms: C_2  and  O_3 
REMARK    2  A    between atoms: O_3  and  C_4 
REMARK    3  A    between atoms: C_4  and  C_6 
REMARK    4  A    between atoms: C_6  and  C_7 
REMARK    5  A    between atoms: C_7  and  C_8 
REMARK    6  A    between atoms: C_8  and  C_9 
REMARK    7  A    between atoms: C_9  and  C_11 
ROOT
ATOM      1  C   UNL d   1      10.629   6.960  -9.656  0.00  0.00     0.016 C 
ENDROOT
BRANCH   1   2
ATOM      2  C   UNL d   1       9.238   6.705  -9.067  0.00  0.00     0.012 C 
BRANCH   2   3
ATOM      3  C   UNL d   1       8.534   5.472  -9.656  0.00  0.00     0.096 C 
BRANCH   3   4
ATOM      4  C   UNL d   1       8.306   5.558 -11.164  0.00  0.00     0.272 C 
ATOM      5  O   UNL d   1       9.246   5.536 -11.961  0.00  0.00    -0.264 OA
BRANCH   4   6
ATOM      6  O   UNL d   1       7.014   5.674 -11.486  0.00  0.00    -0.302 OA
BRANCH   6   7
ATOM      7  C   UNL d   1       6.644   6.122 -12.777  0.00  0.00     0.152 C 
ATOM      8  C   UNL d   1       6.285   7.608 -12.703  0.00  0.00     0.035 C 
ENDBRANCH   6   7
ENDBRANCH   4   6
ENDBRANCH   3   4
ENDBRANCH   2   3
ENDBRANCH   1   2
BRANCH   1   9
ATOM      9  C   UNL d   1      11.427   8.087  -8.993  0.00  0.00     0.079 C 
ATOM     10 BR   UNL d   1      13.307   7.988  -9.643  0.00  0.00    -0.077 Br
BRANCH   9  11
ATOM     11  C   UNL d   1      11.445   8.056  -7.472  0.00  0.00    -0.012 A 
ATOM     12  C   UNL d   1      11.449   6.830  -6.764  0.00  0.00    -0.003 A 
ATOM     13  C   UNL d   1      11.448   6.825  -5.359  0.00  0.00    -0.000 A 
ATOM     14  C   UNL d   1      11.467   8.041  -4.651  0.00  0.00    -0.000 A 
ATOM     15  C   UNL d   1      11.463   9.264  -5.348  0.00  0.00    -0.000 A 
ATOM     16  C   UNL d   1      11.463   9.272  -6.756  0.00  0.00    -0.003 A 
ENDBRANCH   9  11
ENDBRANCH   1   9
TORSDOF 7
