REMARK  7 active torsions:
REMARK  status: ('A' for Active; 'I' for Inactive)
REMARK    1  A    between atoms: C_2  and  C_3 
REMARK    2  A    between atoms: C_3  and  N_4 
REMARK    3  A    between atoms: N_4  and  C_5 
REMARK    4  A    between atoms: N_4  and  C_8 
REMARK    5  A    between atoms: C_5  and  C_6 
REMARK    6  A    between atoms: C_16  and  C_17 
REMARK    7  A    between atoms: C_22  and  O_23 
ROOT
ATOM      1  C   UNL d   1       8.716   4.441 -13.336  0.00  0.00     0.253 C 
ATOM      2  C   UNL d   1      10.026   5.193 -13.615  0.00  0.00     0.182 C 
ATOM      3  O   UNL d   1      10.511   5.081 -14.908  0.00  0.00    -0.329 OA
ATOM      4  C   UNL d   1      10.588   3.811 -15.399  0.00  0.00     0.090 A 
ATOM      5  C   UNL d   1       9.884   2.737 -14.809  0.00  0.00     0.002 A 
ATOM      6  C   UNL d   1      10.016   1.452 -15.359  0.00  0.00    -0.002 A 
ATOM      7  C   UNL d   1      10.825   1.262 -16.490  0.00  0.00    -0.000 A 
ATOM      8  C   UNL d   1      11.509   2.338 -17.078  0.00  0.00     0.002 A 
ATOM      9  C   UNL d   1      11.391   3.633 -16.536  0.00  0.00     0.024 A 
ATOM     10  C   UNL d   1       8.986   2.953 -13.603  0.00  0.00     0.064 C 
ENDROOT
BRANCH   9  11
ATOM     11  C   UNL d   1      12.100   4.770 -17.142  0.00  0.00     0.024 A 
ATOM     12  C   UNL d   1      11.398   5.768 -17.864  0.00  0.00     0.094 A 
ATOM     13  C   UNL d   1      12.128   6.835 -18.448  0.00  0.00     0.024 A 
ATOM     14  C   UNL d   1      13.525   6.911 -18.302  0.00  0.00     0.002 A 
ATOM     15  C   UNL d   1      14.213   5.926 -17.572  0.00  0.00     0.000 A 
ATOM     16  C   UNL d   1      13.498   4.862 -16.997  0.00  0.00     0.002 A 
BRANCH  12  17
ATOM     17  O   UNL d   1      10.027   5.640 -17.963  0.00  0.00    -0.328 OA
ATOM     18  C   UNL d   1       9.318   6.561 -18.778  0.00  0.00     0.181 C 
ENDBRANCH  12  17
ENDBRANCH   9  11
BRANCH   1  19
ATOM     19  N   UNL d   1       8.151   4.670 -11.984  0.00  0.00     0.138 N 
BRANCH  19  20
ATOM     20  C   UNL d   1       9.175   4.740 -10.916  0.00  0.00     0.250 C 
BRANCH  20  21
ATOM     21  C   UNL d   1       8.611   5.056  -9.523  0.00  0.00     0.035 C 
ATOM     22  C   UNL d   1       9.704   5.500  -8.548  0.00  0.00     0.002 C 
ENDBRANCH  20  21
ENDBRANCH  19  20
BRANCH  19  23
ATOM     23  C   UNL d   1       7.173   5.765 -11.966  0.00  0.00     0.250 C 
BRANCH  23  24
ATOM     24  C   UNL d   1       7.730   7.088 -12.562  0.00  0.00     0.035 C 
ATOM     25  C   UNL d   1       9.013   7.662 -11.896  0.00  0.00     0.002 C 
ENDBRANCH  23  24
ENDBRANCH  19  23
ENDBRANCH   1  19
TORSDOF 7
