REMARK  4 active torsions:
REMARK  status: ('A' for Active; 'I' for Inactive)
REMARK    1  A    between atoms: C_6  and  N_7 
REMARK       I    between atoms: N_7  and  C_8 
REMARK    2  A    between atoms: C_8  and  C_10 
REMARK    3  A    between atoms: C_10  and  N_11 
REMARK    4  A    between atoms: N_14  and  C_15 
ROOT
ATOM      1  N   UNL d   1       9.888   7.460  -8.793  0.00  0.00     0.151 N 
ATOM      2  C   UNL d   1      10.969   8.427  -8.507  0.00  0.00     0.276 C 
ATOM      3  C   UNL d   1      10.685   9.186  -7.193  0.00  0.00     0.155 C 
ATOM      4  N   UNL d   1      10.474   8.242  -6.105  0.00  0.00    -0.179 N 
ATOM      5  C   UNL d   1       9.476   7.219  -6.386  0.00  0.00     0.155 C 
ATOM      6  C   UNL d   1       9.793   6.495  -7.693  0.00  0.00     0.276 C 
ENDROOT
BRANCH   1   7
ATOM      7  C   UNL d   1      10.133   6.812 -10.099  0.00  0.00     0.339 C 
BRANCH   7   8
ATOM      8  C   UNL d   1       9.150   5.722 -10.555  0.00  0.00     0.290 C 
ATOM      9  N   UNL d   1       8.953   5.633 -11.883  0.00  0.00    -0.210 NA
ATOM     10  O   UNL d   1       8.654   4.930  -9.765  0.00  0.00    -0.268 OA
BRANCH   9  11
ATOM     11  C   UNL d   1       8.124   4.696 -12.552  0.00  0.00     0.084 A 
ATOM     12  C   UNL d   1       6.796   4.432 -12.138  0.00  0.00     0.019 A 
ATOM     13  C   UNL d   1       6.004   3.519 -12.861  0.00  0.00     0.001 A 
ATOM     14  C   UNL d   1       6.537   2.861 -13.985  0.00  0.00    -0.004 A 
ATOM     15  C   UNL d   1       7.868   3.105 -14.388  0.00  0.00    -0.020 A 
ATOM     16  C   UNL d   1       8.451   2.418 -15.600  0.00  0.00     0.031 C 
ATOM     17  C   UNL d   1       8.656   4.026 -13.667  0.00  0.00     0.015 A 
ENDBRANCH   9  11
ENDBRANCH   7   8
ENDBRANCH   1   7
BRANCH   4  18
ATOM     18  C   UNL d   1      11.185   8.286  -4.920  0.00  0.00     0.727 A 
ATOM     19  N   UNL d   1      11.420   9.496  -4.412  0.00  0.00    -0.060 NA
ATOM     20  C   UNL d   1      12.068   9.543  -3.235  0.00  0.00     0.120 A 
ATOM     21  C   UNL d   1      12.506   8.382  -2.577  0.00  0.00     0.043 A 
ATOM     22  C   UNL d   1      12.203   7.162  -3.201  0.00  0.00     0.120 A 
ATOM     23  N   UNL d   1      11.528   7.121  -4.370  0.00  0.00    -0.060 NA
ENDBRANCH   4  18
TORSDOF 4
