REMARK  7 active torsions:
REMARK  status: ('A' for Active; 'I' for Inactive)
REMARK    1  A    between atoms: O_2  and  C_3 
REMARK    2  A    between atoms: C_12  and  C_13 
REMARK    3  A    between atoms: C_13  and  C_14 
REMARK    4  A    between atoms: C_14  and  C_16 
REMARK    5  A    between atoms: C_16  and  C_17 
REMARK    6  A    between atoms: N_20  and  C_21 
REMARK    7  A    between atoms: C_21  and  C_22 
ROOT
ATOM      1  C   UNL d   1       8.985   4.892 -12.707  0.00  0.00     0.155 C 
ATOM      2  O   UNL d   1       9.926   5.499 -13.225  0.00  0.00    -0.296 OA
ENDROOT
BRANCH   1   3
ATOM      3  C   UNL d   1       7.830   4.382 -13.546  0.00  0.00     0.093 C 
BRANCH   3   4
ATOM      4  C   UNL d   1       8.267   3.217 -14.414  0.00  0.00     0.007 A 
ATOM      5  C   UNL d   1       7.485   2.043 -14.442  0.00  0.00     0.090 A 
ATOM      6  C   UNL d   1       7.920   0.965 -15.247  0.00  0.00     0.024 A 
ATOM      7  C   UNL d   1       9.104   1.059 -16.006  0.00  0.00     0.002 A 
ATOM      8  C   UNL d   1       9.876   2.239 -15.978  0.00  0.00    -0.000 A 
ATOM      9  C   UNL d   1       9.527  -0.017 -16.808  0.00  0.00     0.000 A 
ATOM     10  C   UNL d   1      11.062   2.345 -16.728  0.00  0.00    -0.000 A 
ATOM     11  C   UNL d   1       9.444   3.314 -15.194  0.00  0.00    -0.002 A 
ATOM     12  C   UNL d   1      11.479   1.264 -17.525  0.00  0.00    -0.000 A 
ATOM     13  C   UNL d   1      10.710   0.084 -17.565  0.00  0.00     0.000 A 
BRANCH   5  14
ATOM     14  O   UNL d   1       6.323   2.033 -13.692  0.00  0.00    -0.328 OA
ATOM     15  C   UNL d   1       5.564   0.839 -13.661  0.00  0.00     0.181 C 
ENDBRANCH   5  14
ENDBRANCH   3   4
ENDBRANCH   1   3
BRANCH   1  16
ATOM     16  C   UNL d   1       8.957   4.601 -11.210  0.00  0.00     0.065 C 
BRANCH  16  17
ATOM     17  C   UNL d   1       8.912   5.861 -10.326  0.00  0.00     0.011 C 
ATOM     18  C   UNL d   1       9.076   5.484  -8.861  0.00  0.00     0.036 C 
ATOM     19  C   UNL d   1       9.062   6.739  -7.975  0.00  0.00     0.251 C 
ATOM     20  N   UNL d   1      10.221   7.587  -8.334  0.00  0.00     0.141 N 
ATOM     21  C   UNL d   1      10.009   8.091  -9.699  0.00  0.00     0.251 C 
ATOM     22  C   UNL d   1       9.985   6.915 -10.675  0.00  0.00     0.036 C 
BRANCH  20  23
ATOM     23  C   UNL d   1      10.324   8.744  -7.442  0.00  0.00     0.277 C 
BRANCH  23  24
ATOM     24  C   UNL d   1      11.024   8.445  -6.114  0.00  0.00     0.011 A 
ATOM     25  C   UNL d   1      11.781   9.484  -5.497  0.00  0.00    -0.002 A 
ATOM     26  C   UNL d   1      12.421   9.227  -4.254  0.00  0.00    -0.000 A 
ATOM     27  C   UNL d   1      12.296   7.976  -3.599  0.00  0.00    -0.000 A 
ATOM     28  C   UNL d   1      11.549   6.965  -4.231  0.00  0.00    -0.000 A 
ATOM     29  C   UNL d   1      10.948   7.164  -5.491  0.00  0.00    -0.002 A 
ENDBRANCH  23  24
ENDBRANCH  20  23
ENDBRANCH  16  17
ENDBRANCH   1  16
TORSDOF 7
