REMARK  11 active torsions:
REMARK  status: ('A' for Active; 'I' for Inactive)
REMARK    1  A    between atoms: C_2  and  O_4 
REMARK    2  A    between atoms: O_4  and  C_5 
REMARK    3  A    between atoms: C_10  and  O_11 
REMARK    4  A    between atoms: O_11  and  C_12 
REMARK    5  A    between atoms: C_12  and  C_13 
REMARK    6  A    between atoms: C_13  and  C_14 
REMARK    7  A    between atoms: C_14  and  C_15 
REMARK    8  A    between atoms: C_15  and  N_16 
REMARK    9  A    between atoms: N_19  and  C_20 
REMARK   10  A    between atoms: N_28  and  S_29 
REMARK   11  A    between atoms: S_29  and  C_32 
ROOT
ATOM      1  N   UNL d   1       8.636   4.820 -12.559  0.00  0.00     0.141 N 
ATOM      2  C   UNL d   1       8.860   6.274 -12.635  0.00  0.00     0.274 C 
ATOM      3  C   UNL d   1       8.756   6.909 -11.245  0.00  0.00     0.137 C 
ATOM      4  N   UNL d   1       9.680   6.288 -10.321  0.00  0.00    -0.344 N 
ATOM      5  C   UNL d   1       9.568   4.835 -10.247  0.00  0.00     0.137 C 
ATOM      6  C   UNL d   1       9.663   4.264 -11.684  0.00  0.00     0.274 C 
ENDROOT
BRANCH   4   7
ATOM      7  C   UNL d   1      10.499   7.086  -9.524  0.00  0.00     0.058 A 
ATOM      8  C   UNL d   1      10.091   7.638  -8.316  0.00  0.00     0.034 A 
ATOM      9  C   UNL d   1      11.027   8.401  -7.561  0.00  0.00     0.076 A 
ATOM     10  C   UNL d   1       8.883   7.607  -7.597  0.00  0.00     0.023 A 
ATOM     11  C   UNL d   1      12.351   8.592  -7.997  0.00  0.00     0.018 A 
ATOM     12  N   UNL d   1      10.361   8.815  -6.425  0.00  0.00    -0.231 N 
ATOM     13  C   UNL d   1      12.741   8.054  -9.204  0.00  0.00     0.003 A 
ATOM     14  C   UNL d   1      11.785   7.366  -9.946  0.00  0.00     0.017 A 
ATOM     15  C   UNL d   1       9.060   8.367  -6.497  0.00  0.00     0.092 A 
BRANCH  12  16
ATOM     16  S   UNL d   1      11.109   9.715  -5.191  0.00  0.00     0.271 S 
ATOM     17  O   UNL d   1      12.185  10.434  -5.846  0.00  0.00    -0.200 OA
ATOM     18  O   UNL d   1      10.072  10.400  -4.443  0.00  0.00    -0.200 OA
BRANCH  16  19
ATOM     19  C   UNL d   1      11.729   8.557  -4.054  0.00  0.00     0.104 A 
ATOM     20  C   UNL d   1      11.736   7.196  -4.412  0.00  0.00     0.013 A 
ATOM     21  C   UNL d   1      12.233   6.301  -3.488  0.00  0.00     0.001 A 
ATOM     22  C   UNL d   1      12.600   6.656  -2.191  0.00  0.00     0.000 A 
ATOM     23  C   UNL d   1      12.556   8.000  -1.835  0.00  0.00     0.001 A 
ATOM     24  C   UNL d   1      12.088   8.956  -2.751  0.00  0.00     0.013 A 
ENDBRANCH  16  19
ENDBRANCH  12  16
ENDBRANCH   4   7
BRANCH   1  25
ATOM     25  C   UNL d   1       8.773   4.273 -13.913  0.00  0.00     0.251 C 
BRANCH  25  26
ATOM     26  C   UNL d   1       8.421   2.771 -13.974  0.00  0.00     0.038 C 
BRANCH  26  27
ATOM     27  C   UNL d   1       8.682   2.137 -15.333  0.00  0.00     0.035 C 
BRANCH  27  28
ATOM     28  C   UNL d   1       8.571   0.603 -15.251  0.00  0.00     0.149 C 
BRANCH  28  29
ATOM     29  O   UNL d   1       8.797   0.048 -16.549  0.00  0.00    -0.329 OA
BRANCH  29  30
ATOM     30  C   UNL d   1       7.759   0.086 -17.461  0.00  0.00     0.116 C 
ATOM     31  C   UNL d   1       8.083  -0.011 -18.835  0.00  0.00     0.116 C 
ATOM     32  C   UNL d   1       7.034   0.127 -19.798  0.00  0.00     0.026 C 
ATOM     33  C   UNL d   1       5.688   0.178 -19.422  0.00  0.00     0.002 C 
ATOM     34  C   UNL d   1       5.363   0.255 -18.068  0.00  0.00     0.002 C 
ATOM     35  C   UNL d   1       6.390   0.253 -17.103  0.00  0.00     0.026 C 
BRANCH  31  36
ATOM     36  O   UNL d   1       9.408  -0.224 -19.153  0.00  0.00    -0.331 OA
BRANCH  36  37
ATOM     37  C   UNL d   1       9.841  -0.243 -20.517  0.00  0.00     0.122 C 
ATOM     38  C   UNL d   1       9.719   1.195 -21.110  0.00  0.00     0.033 C 
ATOM     39  C   UNL d   1       9.278  -1.435 -21.364  0.00  0.00     0.033 C 
ENDBRANCH  36  37
ENDBRANCH  31  36
ENDBRANCH  29  30
ENDBRANCH  28  29
ENDBRANCH  27  28
ENDBRANCH  26  27
ENDBRANCH  25  26
ENDBRANCH   1  25
TORSDOF 11
