REMARK  4 active torsions:
REMARK  status: ('A' for Active; 'I' for Inactive)
REMARK    1  A    between atoms: O_2  and  C_3 
REMARK    2  A    between atoms: C_8  and  C_9 
REMARK    3  A    between atoms: C_12  and  C_13 
REMARK       I    between atoms: C_13  and  N_15 
REMARK       I    between atoms: N_18  and  C_19 
REMARK    4  A    between atoms: C_19  and  C_21 
ROOT
ATOM      1  C   UNL d   1       5.283  -0.425 -16.153  0.00  0.00     0.257 C 
ATOM      2  O   UNL d   1       4.423  -0.421 -15.263  0.00  0.00    -0.267 OA
ATOM      3  N   UNL d   1       5.190  -1.159 -17.290  0.00  0.00    -0.313 N 
ATOM      4  C   UNL d   1       6.267  -1.326 -18.303  0.00  0.00     0.129 C 
ATOM      5  C   UNL d   1       5.684  -1.660 -19.692  0.00  0.00     0.129 C 
ATOM      6  N   UNL d   1       4.780  -2.834 -19.716  0.00  0.00    -0.315 N 
ATOM      7  C   UNL d   1       4.598  -3.515 -20.879  0.00  0.00     0.257 C 
ATOM      8  O   UNL d   1       5.312  -3.334 -21.866  0.00  0.00    -0.267 OA
ATOM      9  C   UNL d   1       4.206  -3.204 -18.408  0.00  0.00     0.106 C 
ATOM     10  C   UNL d   1       5.131  -4.260 -17.721  0.00  0.00     0.026 C 
ATOM     11  C   UNL d   1       3.977  -1.982 -17.506  0.00  0.00     0.127 C 
ENDROOT
BRANCH   1  12
ATOM     12  C   UNL d   1       6.519   0.400 -15.945  0.00  0.00     0.056 A 
ATOM     13  C   UNL d   1       6.953   1.306 -16.932  0.00  0.00     0.005 A 
ATOM     14  C   UNL d   1       8.149   2.018 -16.769  0.00  0.00     0.000 A 
ATOM     15  C   UNL d   1       8.882   1.913 -15.567  0.00  0.00     0.002 A 
ATOM     16  C   UNL d   1       8.418   1.051 -14.554  0.00  0.00     0.000 A 
ATOM     17  C   UNL d   1       7.240   0.301 -14.736  0.00  0.00     0.005 A 
BRANCH  15  18
ATOM     18  C   UNL d   1      10.104   2.710 -15.396  0.00  0.00     0.022 A 
ATOM     19  C   UNL d   1      10.276   3.549 -14.267  0.00  0.00     0.094 A 
ATOM     20  C   UNL d   1      11.475   4.290 -14.139  0.00  0.00     0.024 A 
ATOM     21  C   UNL d   1      12.473   4.227 -15.128  0.00  0.00     0.002 A 
ATOM     22  C   UNL d   1      12.293   3.407 -16.253  0.00  0.00     0.000 A 
ATOM     23  C   UNL d   1      11.117   2.651 -16.380  0.00  0.00     0.002 A 
BRANCH  19  24
ATOM     24  O   UNL d   1       9.249   3.611 -13.347  0.00  0.00    -0.328 OA
ATOM     25  C   UNL d   1       9.393   4.458 -12.216  0.00  0.00     0.181 C 
ENDBRANCH  19  24
ENDBRANCH  15  18
ENDBRANCH   1  12
BRANCH   7  26
ATOM     26  C   UNL d   1       3.418  -4.456 -21.024  0.00  0.00     0.057 A 
ATOM     27  C   UNL d   1       3.058  -5.371 -20.007  0.00  0.00     0.024 A 
ATOM     28  C   UNL d   1       1.923  -6.153 -20.136  0.00  0.00     0.082 A 
ATOM     29  C   UNL d   1       1.126  -6.156 -21.318  0.00  0.00     0.019 A 
ATOM     30  N   UNL d   1       1.348  -7.043 -19.274  0.00  0.00    -0.244 NA
ATOM     31  C   UNL d   1       1.518  -5.283 -22.369  0.00  0.00     0.002 A 
ATOM     32  C   UNL d   1       0.070  -7.115 -21.118  0.00  0.00     0.022 A 
ATOM     33  C   UNL d   1       2.658  -4.453 -22.223  0.00  0.00     0.005 A 
ATOM     34  C   UNL d   1       0.253  -7.650 -19.861  0.00  0.00     0.099 A 
ENDBRANCH   7  26
TORSDOF 4
