REMARK  6 active torsions:
REMARK  status: ('A' for Active; 'I' for Inactive)
REMARK    1  A    between atoms: O_2  and  N_3 
REMARK    2  A    between atoms: C_4  and  C_5 
REMARK    3  A    between atoms: C_4  and  C_19 
REMARK    4  A    between atoms: C_5  and  C_6 
REMARK    5  A    between atoms: C_6  and  N_7 
REMARK    6  A    between atoms: N_10  and  C_11 
ROOT
ATOM      1  C   UNL d   1       9.515   6.251 -10.305  0.00  0.00     0.257 C 
ENDROOT
BRANCH   1   2
ATOM      2  C   UNL d   1       9.422   4.790 -10.798  0.00  0.00     0.083 C 
BRANCH   2   3
ATOM      3  C   UNL d   1       9.348   4.713 -12.330  0.00  0.00     0.087 C 
ATOM      4  N   UNL d   1      10.258   5.237 -13.052  0.00  0.00    -0.136 NA
BRANCH   4   5
ATOM      5  O   UNL d   1      10.035   5.132 -14.438  0.00  0.00    -0.234 OA
ATOM      6  C   UNL d   1      11.245   5.433 -15.101  0.00  0.00     0.211 C 
ENDBRANCH   4   5
BRANCH   3   7
ATOM      7  C   UNL d   1       8.192   4.002 -12.902  0.00  0.00     0.012 A 
ATOM      8  C   UNL d   1       8.355   2.870 -13.774  0.00  0.00    -0.021 A 
ATOM      9  C   UNL d   1       7.204   2.184 -14.194  0.00  0.00    -0.004 A 
ATOM     10  C   UNL d   1       9.726   2.284 -14.152  0.00  0.00     0.031 C 
ATOM     11  C   UNL d   1       5.934   2.575 -13.729  0.00  0.00    -0.000 A 
ATOM     12  C   UNL d   1       5.774   3.711 -12.914  0.00  0.00     0.000 A 
ATOM     13  C   UNL d   1       6.905   4.418 -12.499  0.00  0.00     0.001 A 
ENDBRANCH   3   7
ENDBRANCH   2   3
ENDBRANCH   1   2
BRANCH   1  14
ATOM     14  N   UNL d   1       9.435   6.336  -8.845  0.00  0.00     0.141 N 
ATOM     15  C   UNL d   1       9.257   7.728  -8.413  0.00  0.00     0.274 C 
ATOM     16  C   UNL d   1       9.109   7.821  -6.907  0.00  0.00     0.138 C 
ATOM     17  N   UNL d   1      10.356   7.340  -6.357  0.00  0.00    -0.330 N 
ATOM     18  C   UNL d   1      10.751   6.052  -6.815  0.00  0.00     0.138 C 
ATOM     19  C   UNL d   1      10.737   5.990  -8.322  0.00  0.00     0.274 C 
BRANCH  17  20
ATOM     20  C   UNL d   1      11.035   7.971  -5.331  0.00  0.00     0.140 A 
ATOM     21  N   UNL d   1      10.820   9.284  -5.305  0.00  0.00    -0.227 NA
ATOM     22  C   UNL d   1      11.476   9.996  -4.393  0.00  0.00     0.101 A 
ATOM     23  C   UNL d   1      12.375   9.414  -3.476  0.00  0.00     0.021 A 
ATOM     24  C   UNL d   1      12.604   8.041  -3.501  0.00  0.00     0.005 A 
ATOM     25  C   UNL d   1      11.877   7.283  -4.431  0.00  0.00     0.037 A 
ENDBRANCH  17  20
ENDBRANCH   1  14
TORSDOF 6
