REMARK  8 active torsions:
REMARK  status: ('A' for Active; 'I' for Inactive)
REMARK    1  A    between atoms: C_3  and  S_4 
REMARK    2  A    between atoms: S_4  and  C_5 
REMARK    3  A    between atoms: C_5  and  C_6 
REMARK    4  A    between atoms: C_6  and  C_7 
REMARK    5  A    between atoms: C_7  and  N_8 
REMARK    6  A    between atoms: N_13  and  C_14 
REMARK    7  A    between atoms: C_19  and  C_20 
REMARK    8  A    between atoms: C_28  and  C_29 
ROOT
ATOM      1  N   UNL d   1      10.888   4.648 -15.535  0.00  0.00     0.138 N 
ATOM      2  C   UNL d   1      11.488   5.703 -16.312  0.00  0.00     0.252 C 
ATOM      3  C   UNL d   1      11.873   4.998 -17.624  0.00  0.00     0.052 C 
ATOM      4  C   UNL d   1      13.275   4.374 -17.632  0.00  0.00     0.021 C 
ATOM      5  C   UNL d   1      13.048   3.024 -18.295  0.00  0.00     0.077 C 
ATOM      6  N   UNL d   1      11.726   2.605 -17.831  0.00  0.00    -0.252 NA
ATOM      7  C   UNL d   1      10.906   3.823 -17.751  0.00  0.00     0.097 C 
ATOM      8  C   UNL d   1      10.049   3.895 -16.465  0.00  0.00     0.266 C 
ENDROOT
BRANCH   1   9
ATOM      9  C   UNL d   1      10.092   5.120 -14.413  0.00  0.00     0.251 C 
BRANCH   9  10
ATOM     10  C   UNL d   1      10.023   4.097 -13.267  0.00  0.00     0.047 C 
BRANCH  10  11
ATOM     11  C   UNL d   1       9.068   4.510 -12.139  0.00  0.00     0.067 C 
BRANCH  11  12
ATOM     12  S   UNL d   1       9.026   6.316 -11.846  0.00  0.00    -0.075 SA
BRANCH  12  13
ATOM     13  C   UNL d   1       9.468   6.373 -10.142  0.00  0.00     0.193 A 
ATOM     14  N   UNL d   1       9.938   7.486  -9.545  0.00  0.00    -0.287 N 
ATOM     15  C   UNL d   1      10.120   8.812 -10.124  0.00  0.00     0.134 C 
ATOM     16  C   UNL d   1      10.179   7.043  -8.282  0.00  0.00     0.185 A 
ATOM     17  N   UNL d   1       9.864   5.750  -8.141  0.00  0.00    -0.127 NA
ATOM     18  N   UNL d   1       9.392   5.317  -9.343  0.00  0.00    -0.122 NA
BRANCH  16  19
ATOM     19  C   UNL d   1      10.718   7.800  -7.149  0.00  0.00     0.117 A 
ATOM     20  N   UNL d   1      10.998   9.112  -7.324  0.00  0.00    -0.241 NA
ATOM     21  C   UNL d   1      11.490   9.810  -6.290  0.00  0.00     0.099 A 
ATOM     22  C   UNL d   1      11.742   9.246  -5.026  0.00  0.00     0.021 A 
ATOM     23  C   UNL d   1      11.478   7.882  -4.835  0.00  0.00     0.003 A 
ATOM     24  C   UNL d   1      10.946   7.144  -5.911  0.00  0.00     0.022 A 
ENDBRANCH  16  19
ENDBRANCH  12  13
ENDBRANCH  11  12
ENDBRANCH  10  11
ENDBRANCH   9  10
ENDBRANCH   1   9
BRANCH   6  25
ATOM     25  C   UNL d   1      11.173   1.459 -18.451  0.00  0.00     0.040 A 
ATOM     26  C   UNL d   1      10.391   0.514 -17.721  0.00  0.00     0.082 A 
ATOM     27  C   UNL d   1       9.857  -0.604 -18.398  0.00  0.00     0.005 A 
ATOM     28  C   UNL d   1      10.100  -0.809 -19.764  0.00  0.00     0.000 A 
ATOM     29  C   UNL d   1      10.891   0.092 -20.482  0.00  0.00     0.001 A 
ATOM     30  C   UNL d   1      11.416   1.221 -19.831  0.00  0.00     0.011 A 
BRANCH  26  31
ATOM     31  C   UNL d   1      10.078   0.632 -16.221  0.00  0.00     0.420 C 
ATOM     32  F   UNL d   1       9.897  -0.574 -15.658  0.00  0.00    -0.166 F 
ATOM     33  F   UNL d   1      11.075   1.189 -15.554  0.00  0.00    -0.166 F 
ATOM     34  F   UNL d   1       8.954   1.317 -16.065  0.00  0.00    -0.166 F 
ENDBRANCH  26  31
ENDBRANCH   6  25
TORSDOF 8
