REMARK  6 active torsions:
REMARK  status: ('A' for Active; 'I' for Inactive)
REMARK       I    between atoms: C_2  and  N_3 
REMARK    1  A    between atoms: C_2  and  C_27 
REMARK    2  A    between atoms: N_3  and  C_4 
REMARK    3  A    between atoms: C_7  and  C_8 
REMARK    4  A    between atoms: C_8  and  C_9 
REMARK    5  A    between atoms: C_9  and  N_10 
REMARK    6  A    between atoms: C_13  and  C_14 
ROOT
ATOM      1  C   UNL d   1       9.267   5.662 -11.627  0.00  0.00     0.035 C 
ENDROOT
BRANCH   1   2
ATOM      2  C   UNL d   1       9.391   4.445 -12.545  0.00  0.00     0.002 C 
ATOM      3  C   UNL d   1       8.053   4.199 -13.245  0.00  0.00     0.002 C 
ATOM      4  C   UNL d   1       8.151   3.043 -14.234  0.00  0.00     0.024 C 
ATOM      5  C   UNL d   1       9.272   3.272 -15.264  0.00  0.00     0.106 C 
ATOM      6  C   UNL d   1      10.624   3.504 -14.563  0.00  0.00     0.024 C 
ATOM      7  C   UNL d   1      10.526   4.660 -13.568  0.00  0.00     0.002 C 
BRANCH   5   8
ATOM      8  N   UNL d   1       9.366   2.132 -16.159  0.00  0.00    -0.240 NA
ATOM      9  C   UNL d   1       8.504   1.834 -17.139  0.00  0.00     0.252 C 
ATOM     10  O   UNL d   1       7.422   2.391 -17.279  0.00  0.00    -0.271 OA
BRANCH   9  11
ATOM     11  C   UNL d   1       8.944   0.785 -18.145  0.00  0.00     0.098 C 
ATOM     12  C   UNL d   1      10.309   1.136 -18.786  0.00  0.00     0.132 C 
ATOM     13  S   UNL d   1      11.018  -0.450 -19.347  0.00  0.00     0.171 S 
ATOM     14  C   UNL d   1       9.804  -1.522 -18.480  0.00  0.00     0.123 C 
ATOM     15  O   UNL d   1      12.345  -0.628 -18.737  0.00  0.00    -0.226 OA
ATOM     16  O   UNL d   1      10.822  -0.588 -20.800  0.00  0.00    -0.226 OA
ATOM     17  C   UNL d   1       9.043  -0.610 -17.517  0.00  0.00     0.027 C 
ENDBRANCH   9  11
ENDBRANCH   5   8
ENDBRANCH   1   2
BRANCH   1  18
ATOM     18  C   UNL d   1       8.720   5.310 -10.222  0.00  0.00     0.250 C 
BRANCH  18  19
ATOM     19  N   UNL d   1       9.194   6.214  -9.172  0.00  0.00     0.137 N 
ATOM     20  C   UNL d   1       8.656   5.747  -7.892  0.00  0.00     0.251 C 
ATOM     21  C   UNL d   1       9.033   6.731  -6.773  0.00  0.00     0.040 C 
ATOM     22  C   UNL d   1      10.549   6.918  -6.662  0.00  0.00     0.028 C 
ATOM     23  C   UNL d   1      11.112   7.264  -8.034  0.00  0.00     0.040 C 
ATOM     24  C   UNL d   1      10.656   6.260  -9.076  0.00  0.00     0.251 C 
BRANCH  22  25
ATOM     25  C   UNL d   1      10.924   7.965  -5.642  0.00  0.00     0.002 A 
ATOM     26  C   UNL d   1      11.533   7.622  -4.426  0.00  0.00     0.115 A 
ATOM     27  C   UNL d   1      11.860   8.567  -3.485  0.00  0.00     0.119 A 
ATOM     28  O   UNL d   1      11.861   6.393  -3.958  0.00  0.00    -0.300 OA
ATOM     29  C   UNL d   1      11.585   9.925  -3.689  0.00  0.00     0.026 A 
ATOM     30  O   UNL d   1      12.422   7.972  -2.402  0.00  0.00    -0.300 OA
ATOM     31  C   UNL d   1      10.995  10.298  -4.914  0.00  0.00     0.002 A 
ATOM     32  C   UNL d   1      10.662   9.334  -5.885  0.00  0.00    -0.002 A 
ATOM     33  C   UNL d   1      12.423   6.599  -2.692  0.00  0.00     0.304 A 
ENDBRANCH  22  25
ENDBRANCH  18  19
ENDBRANCH   1  18
TORSDOF 6
