REMARK  7 active torsions:
REMARK  status: ('A' for Active; 'I' for Inactive)
REMARK    1  A    between atoms: C_2  and  N_3 
REMARK    2  A    between atoms: C_7  and  C_8 
REMARK    3  A    between atoms: C_8  and  N_9 
REMARK       I    between atoms: N_9  and  C_10 
REMARK    4  A    between atoms: C_10  and  C_12 
REMARK    5  A    between atoms: C_13  and  O_14 
REMARK    6  A    between atoms: C_18  and  S_19 
REMARK    7  A    between atoms: C_21  and  O_22 
ROOT
ATOM      1  C   UNL d   1       9.391   6.417 -10.344  0.00  0.00     0.102 A 
ATOM      2  C   UNL d   1       9.151   5.577  -9.226  0.00  0.00     0.101 A 
ATOM      3  C   UNL d   1       9.590   5.968  -7.930  0.00  0.00     0.025 A 
ATOM      4  C   UNL d   1      10.250   7.180  -7.734  0.00  0.00     0.010 A 
ATOM      5  C   UNL d   1      10.432   7.994  -8.844  0.00  0.00     0.048 A 
ATOM      6  C   UNL d   1      10.012   7.665 -10.140  0.00  0.00     0.106 A 
ENDROOT
BRANCH   1   7
ATOM      7  C   UNL d   1       9.009   5.966 -11.712  0.00  0.00     0.279 C 
ATOM      8  N   UNL d   1       7.755   5.590 -11.881  0.00  0.00    -0.232 NA
ATOM      9  O   UNL d   1       9.822   6.046 -12.641  0.00  0.00    -0.265 OA
BRANCH   8  10
ATOM     10  C   UNL d   1       7.239   5.047 -13.126  0.00  0.00     0.162 C 
BRANCH  10  11
ATOM     11  C   UNL d   1       7.759   3.606 -13.288  0.00  0.00     0.243 C 
ATOM     12  N   UNL d   1       7.250   2.889 -14.440  0.00  0.00     0.137 N 
ATOM     13  C   UNL d   1       8.072   1.717 -14.736  0.00  0.00     0.250 C 
ATOM     14  C   UNL d   1       9.468   2.224 -14.464  0.00  0.00     0.037 C 
ATOM     15  C   UNL d   1       9.276   3.415 -13.532  0.00  0.00     0.037 C 
BRANCH  12  16
ATOM     16  C   UNL d   1       5.860   2.507 -14.310  0.00  0.00     0.250 C 
ATOM     17  C   UNL d   1       5.413   1.835 -13.011  0.00  0.00     0.037 C 
ENDBRANCH  12  16
ENDBRANCH  10  11
ENDBRANCH   8  10
ENDBRANCH   1   7
BRANCH   6  18
ATOM     18  O   UNL d   1      10.201   8.522 -11.180  0.00  0.00    -0.327 OA
ATOM     19  C   UNL d   1       9.034   9.086 -11.756  0.00  0.00     0.181 C 
ENDBRANCH   6  18
BRANCH   2  20
ATOM     20  O   UNL d   1       8.517   4.400  -9.475  0.00  0.00    -0.328 OA
ATOM     21  C   UNL d   1       8.216   3.585  -8.361  0.00  0.00     0.181 C 
ENDBRANCH   2  20
BRANCH   5  22
ATOM     22  S   UNL d   1      11.207   9.514  -8.633  0.00  0.00    -0.111 SA
ATOM     23  C   UNL d   1      11.380   9.898  -6.869  0.00  0.00     0.074 C 
ENDBRANCH   5  22
TORSDOF 7
