REMARK  6 active torsions:
REMARK  status: ('A' for Active; 'I' for Inactive)
REMARK    1  A    between atoms: C_5  and  C_6 
REMARK    2  A    between atoms: C_9  and  C_10 
REMARK    3  A    between atoms: C_10  and  N_11 
REMARK    4  A    between atoms: N_11  and  C_12 
REMARK    5  A    between atoms: C_12  and  C_13 
REMARK    6  A    between atoms: C_13  and  C_14 
ROOT
ATOM      1  C   UNL d   1       7.858   4.930 -10.893  0.00  0.00     0.341 C 
ENDROOT
BRANCH   1   2
ATOM      2  C   UNL d   1       8.675   4.843 -12.138  0.00  0.00     0.114 A 
ATOM      3  C   UNL d   1       9.460   5.734 -12.805  0.00  0.00     0.024 A 
ATOM      4  C   UNL d   1      10.015   5.031 -13.912  0.00  0.00     0.026 A 
ATOM      5  C   UNL d   1       9.503   3.764 -13.858  0.00  0.00     0.100 A 
ATOM      6  O   UNL d   1       8.665   3.649 -12.793  0.00  0.00    -0.309 OA
BRANCH   5   7
ATOM      7  C   UNL d   1       9.694   2.586 -14.698  0.00  0.00     0.023 A 
ATOM      8  C   UNL d   1      10.824   2.484 -15.539  0.00  0.00     0.004 A 
ATOM      9  C   UNL d   1      11.019   1.345 -16.346  0.00  0.00     0.028 A 
ATOM     10  C   UNL d   1      10.080   0.297 -16.317  0.00  0.00     0.131 A 
ATOM     11  O   UNL d   1      10.257  -0.807 -17.103  0.00  0.00    -0.190 OA
ATOM     12  C   UNL d   1       8.953   0.389 -15.483  0.00  0.00     0.028 A 
ATOM     13  C   UNL d   1       8.764   1.528 -14.675  0.00  0.00     0.004 A 
ENDBRANCH   5   7
ENDBRANCH   1   2
BRANCH   1  14
ATOM     14  N   UNL d   1       8.654   4.793  -9.678  0.00  0.00     0.346 N 
BRANCH  14  15
ATOM     15  C   UNL d   1       9.123   6.094  -9.244  0.00  0.00     0.295 C 
BRANCH  15  16
ATOM     16  C   UNL d   1       9.711   5.994  -7.838  0.00  0.00     0.066 C 
BRANCH  16  17
ATOM     17  C   UNL d   1      10.197   7.310  -7.302  0.00  0.00     0.002 A 
ATOM     18  C   UNL d   1      10.847   7.554  -6.039  0.00  0.00     0.036 A 
ATOM     19  C   UNL d   1      11.136   8.940  -5.953  0.00  0.00     0.162 A 
ATOM     20  C   UNL d   1      11.248   6.788  -4.921  0.00  0.00     0.034 A 
ATOM     21  N   UNL d   1      10.672   9.497  -7.117  0.00  0.00    -0.226 NA
ATOM     22  N   UNL d   1      11.746   9.598  -4.929  0.00  0.00    -0.223 NA
ATOM     23  C   UNL d   1      10.093   8.534  -7.923  0.00  0.00     0.097 A 
ATOM     24  C   UNL d   1      12.114   8.811  -3.894  0.00  0.00     0.130 A 
ATOM     25  C   UNL d   1      11.889   7.421  -3.838  0.00  0.00     0.159 A 
ATOM     26  F   UNL d   1      12.288   6.705  -2.761  0.00  0.00    -0.203 F 
ENDBRANCH  16  17
ENDBRANCH  15  16
ENDBRANCH  14  15
ENDBRANCH   1  14
TORSDOF 6
