REMARK  6 active torsions:
REMARK  status: ('A' for Active; 'I' for Inactive)
REMARK    1  A    between atoms: C_2  and  N_3 
REMARK    2  A    between atoms: N_3  and  C_4 
REMARK       I    between atoms: N_3  and  C_6 
REMARK       I    between atoms: C_6  and  N_8 
REMARK    3  A    between atoms: N_8  and  C_9 
REMARK    4  A    between atoms: C_12  and  C_13 
REMARK    5  A    between atoms: C_13  and  C_14 
REMARK    6  A    between atoms: C_14  and  N_15 
ROOT
ATOM      1  C   UNL d   1       8.741   6.777 -11.116  0.00  0.00     0.035 C 
ENDROOT
BRANCH   1   2
ATOM      2  C   UNL d   1       8.748   5.758 -12.250  0.00  0.00     0.002 C 
ATOM      3  C   UNL d   1       9.239   4.381 -11.789  0.00  0.00     0.002 C 
ATOM      4  C   UNL d   1       9.237   3.382 -12.952  0.00  0.00     0.025 C 
ATOM      5  C   UNL d   1       7.838   3.257 -13.586  0.00  0.00     0.108 C 
ATOM      6  C   UNL d   1       7.353   4.617 -14.011  0.00  0.00     0.025 C 
ATOM      7  C   UNL d   1       7.335   5.612 -12.845  0.00  0.00     0.002 C 
BRANCH   5   8
ATOM      8  N   UNL d   1       7.886   2.351 -14.725  0.00  0.00    -0.221 NA
ATOM      9  C   UNL d   1       7.085   1.292 -14.904  0.00  0.00     0.342 C 
ATOM     10  N   UNL d   1       7.420   0.517 -15.966  0.00  0.00    -0.301 N 
ATOM     11  O   UNL d   1       6.106   1.069 -14.185  0.00  0.00    -0.245 OA
BRANCH  10  12
ATOM     12  C   UNL d   1       8.735   0.576 -16.652  0.00  0.00     0.106 C 
ATOM     13  C   UNL d   1       9.963   0.372 -15.725  0.00  0.00     0.026 C 
ENDBRANCH  10  12
BRANCH  10  14
ATOM     14  C   UNL d   1       6.476  -0.508 -16.453  0.00  0.00     0.106 C 
ATOM     15  C   UNL d   1       5.191   0.102 -17.027  0.00  0.00     0.026 C 
ENDBRANCH  10  14
ENDBRANCH   5   8
ENDBRANCH   1   2
BRANCH   1  16
ATOM     16  C   UNL d   1      10.132   7.205 -10.618  0.00  0.00     0.250 C 
BRANCH  16  17
ATOM     17  N   UNL d   1      10.076   7.687  -9.246  0.00  0.00     0.138 N 
ATOM     18  C   UNL d   1      10.300   6.564  -8.344  0.00  0.00     0.255 C 
ATOM     19  C   UNL d   1       9.890   6.851  -6.898  0.00  0.00     0.055 C 
ATOM     20  C   UNL d   1      10.880   7.659  -6.072  0.00  0.00    -0.024 A 
ATOM     21  C   UNL d   1       8.484   7.407  -6.820  0.00  0.00     0.007 C 
ATOM     22  C   UNL d   1      11.303   8.920  -6.471  0.00  0.00    -0.024 A 
ATOM     23  C   UNL d   1      11.299   7.150  -4.805  0.00  0.00     0.007 A 
ATOM     24  C   UNL d   1      10.831   9.526  -7.767  0.00  0.00     0.061 C 
ATOM     25  C   UNL d   1      12.164   9.692  -5.646  0.00  0.00    -0.004 A 
ATOM     26  C   UNL d   1      11.081   8.714  -9.040  0.00  0.00     0.255 C 
ATOM     27  C   UNL d   1      12.577   9.183  -4.408  0.00  0.00     0.011 A 
ATOM     28  C   UNL d   1      12.133   7.924  -3.985  0.00  0.00     0.057 A 
ATOM     29 CL   UNL d   1      12.589   7.320  -2.432  0.00  0.00    -0.082 Cl
ENDBRANCH  16  17
ENDBRANCH   1  16
TORSDOF 6
