REMARK  6 active torsions:
REMARK  status: ('A' for Active; 'I' for Inactive)
REMARK    1  A    between atoms: C_2  and  N_3 
REMARK    2  A    between atoms: C_7  and  C_8 
REMARK    3  A    between atoms: C_8  and  N_9 
REMARK    4  A    between atoms: N_9  and  C_10 
REMARK    5  A    between atoms: C_17  and  O_18 
REMARK    6  A    between atoms: C_20  and  O_21 
ROOT
ATOM      1  C   UNL d   1       9.243   4.869 -13.508  0.00  0.00     0.181 A 
ATOM      2  N   UNL d   1      10.559   5.184 -13.639  0.00  0.00    -0.129 NA
ATOM      3  N   UNL d   1      11.438   4.331 -14.167  0.00  0.00    -0.145 NA
ATOM      4  C   UNL d   1      11.018   3.122 -14.594  0.00  0.00     0.122 A 
ATOM      5  C   UNL d   1       9.679   2.707 -14.491  0.00  0.00     0.026 A 
ATOM      6  C   UNL d   1       9.292   1.427 -14.931  0.00  0.00     0.004 A 
ATOM      7  C   UNL d   1       7.957   1.020 -14.802  0.00  0.00     0.026 A 
ATOM      8  C   UNL d   1       6.991   1.892 -14.238  0.00  0.00     0.116 A 
ATOM      9  C   UNL d   1       7.374   3.190 -13.810  0.00  0.00     0.119 A 
ATOM     10  C   UNL d   1       8.731   3.607 -13.931  0.00  0.00     0.063 A 
ENDROOT
BRANCH   1  11
ATOM     11  N   UNL d   1       8.421   5.861 -12.947  0.00  0.00    -0.249 NA
BRANCH  11  12
ATOM     12  C   UNL d   1       8.950   6.846 -11.991  0.00  0.00     0.161 C 
BRANCH  12  13
ATOM     13  C   UNL d   1       9.445   6.224 -10.662  0.00  0.00     0.243 C 
ATOM     14  N   UNL d   1       9.881   7.199  -9.669  0.00  0.00     0.137 N 
ATOM     15  C   UNL d   1       9.948   6.447  -8.422  0.00  0.00     0.250 C 
ATOM     16  C   UNL d   1       8.683   5.615  -8.434  0.00  0.00     0.037 C 
ATOM     17  C   UNL d   1       8.382   5.445  -9.904  0.00  0.00     0.037 C 
BRANCH  14  18
ATOM     18  C   UNL d   1      11.175   7.797 -10.013  0.00  0.00     0.250 C 
ATOM     19  C   UNL d   1      11.648   8.767  -8.927  0.00  0.00     0.037 C 
ENDBRANCH  14  18
ENDBRANCH  12  13
ENDBRANCH  11  12
ENDBRANCH   1  11
BRANCH   9  20
ATOM     20  O   UNL d   1       6.410   4.007 -13.271  0.00  0.00    -0.326 OA
ATOM     21  C   UNL d   1       6.010   3.662 -11.958  0.00  0.00     0.181 C 
ENDBRANCH   9  20
BRANCH   8  22
ATOM     22  O   UNL d   1       5.678   1.532 -14.040  0.00  0.00    -0.326 OA
ATOM     23  C   UNL d   1       5.245   0.249 -14.461  0.00  0.00     0.181 C 
ENDBRANCH   8  22
TORSDOF 6
