REMARK  7 active torsions:
REMARK  status: ('A' for Active; 'I' for Inactive)
REMARK    1  A    between atoms: C_2  and  O_3 
REMARK    2  A    between atoms: O_3  and  C_4 
REMARK    3  A    between atoms: C_7  and  O_8 
REMARK    4  A    between atoms: O_8  and  C_9 
REMARK    5  A    between atoms: C_9  and  C_10 
REMARK    6  A    between atoms: C_10  and  N_11 
REMARK       I    between atoms: N_14  and  C_15 
REMARK    7  A    between atoms: C_15  and  C_17 
ROOT
ATOM      1  N   UNL d   1       8.801   5.575 -11.073  0.00  0.00     0.144 N 
ATOM      2  C   UNL d   1       9.211   5.252  -9.700  0.00  0.00     0.274 C 
ATOM      3  C   UNL d   1       9.147   6.493  -8.812  0.00  0.00     0.140 C 
ATOM      4  N   UNL d   1      10.007   7.555  -9.363  0.00  0.00    -0.311 N 
ATOM      5  C   UNL d   1      10.927   8.289  -8.685  0.00  0.00     0.275 C 
ATOM      6  O   UNL d   1      11.527   9.207  -9.213  0.00  0.00    -0.266 OA
ATOM      7  C   UNL d   1       9.694   7.872 -10.759  0.00  0.00     0.140 C 
ATOM      8  C   UNL d   1       9.689   6.599 -11.589  0.00  0.00     0.274 C 
ENDROOT
BRANCH   1   9
ATOM      9  C   UNL d   1       8.881   4.359 -11.883  0.00  0.00     0.283 C 
BRANCH   9  10
ATOM     10  C   UNL d   1       8.529   4.587 -13.374  0.00  0.00     0.184 C 
BRANCH  10  11
ATOM     11  O   UNL d   1       8.470   3.392 -14.141  0.00  0.00    -0.329 OA
BRANCH  11  12
ATOM     12  C   UNL d   1       7.348   2.606 -14.047  0.00  0.00     0.094 A 
ATOM     13  C   UNL d   1       6.226   2.928 -13.260  0.00  0.00     0.026 A 
ATOM     14  C   UNL d   1       5.181   2.008 -13.109  0.00  0.00     0.026 A 
ATOM     15  C   UNL d   1       5.215   0.766 -13.774  0.00  0.00     0.094 A 
ATOM     16  C   UNL d   1       6.349   0.433 -14.550  0.00  0.00     0.026 A 
ATOM     17  C   UNL d   1       7.414   1.341 -14.674  0.00  0.00     0.026 A 
BRANCH  15  18
ATOM     18  O   UNL d   1       4.109  -0.040 -13.634  0.00  0.00    -0.331 OA
BRANCH  18  19
ATOM     19  C   UNL d   1       4.045  -1.259 -14.362  0.00  0.00     0.149 C 
ATOM     20  C   UNL d   1       3.702  -1.097 -15.848  0.00  0.00     0.035 C 
ENDBRANCH  18  19
ENDBRANCH  15  18
ENDBRANCH  11  12
ENDBRANCH  10  11
ENDBRANCH   9  10
ENDBRANCH   1   9
BRANCH   5  21
ATOM     21  C   UNL d   1      11.127   8.066  -7.239  0.00  0.00     0.137 A 
ATOM     22  N   UNL d   1      11.246   9.181  -6.410  0.00  0.00    -0.241 NA
ATOM     23  C   UNL d   1      11.447   8.794  -5.094  0.00  0.00     0.082 A 
ATOM     24  C   UNL d   1      11.471   7.368  -5.130  0.00  0.00     0.019 A 
ATOM     25  C   UNL d   1      11.595   9.507  -3.892  0.00  0.00     0.019 A 
ATOM     26  C   UNL d   1      11.328   6.944  -6.483  0.00  0.00     0.025 A 
ATOM     27  C   UNL d   1      11.705   6.700  -3.911  0.00  0.00     0.002 A 
ATOM     28  C   UNL d   1      11.889   7.395  -2.709  0.00  0.00     0.000 A 
ATOM     29  C   UNL d   1      11.864   8.803  -2.700  0.00  0.00     0.002 A 
ENDBRANCH   5  21
TORSDOF 7
