REMARK  11 active torsions:
REMARK  status: ('A' for Active; 'I' for Inactive)
REMARK    1  A    between atoms: C_2  and  O_3 
REMARK    2  A    between atoms: O_3  and  C_4 
REMARK    3  A    between atoms: C_10  and  C_11 
REMARK    4  A    between atoms: C_13  and  C_14 
REMARK    5  A    between atoms: C_14  and  N_15 
REMARK    6  A    between atoms: N_15  and  C_16 
REMARK    7  A    between atoms: C_16  and  C_17 
REMARK    8  A    between atoms: C_17  and  C_18 
REMARK    9  A    between atoms: C_18  and  S_19 
REMARK   10  A    between atoms: S_19  and  C_20 
REMARK   11  A    between atoms: C_23  and  C_24 
ROOT
ATOM      1  C   UNL d   1       9.846   7.319 -12.038  0.00  0.00     0.291 C 
ENDROOT
BRANCH   1   2
ATOM      2  N   UNL d   1       9.098   6.352 -12.821  0.00  0.00     0.339 N 
BRANCH   2   3
ATOM      3  C   UNL d   1       9.837   5.097 -12.852  0.00  0.00     0.290 C 
BRANCH   3   4
ATOM      4  C   UNL d   1       9.230   4.258 -13.928  0.00  0.00     0.041 A 
ATOM      5  C   UNL d   1       9.472   2.778 -13.941  0.00  0.00     0.026 A 
ATOM      6  C   UNL d   1       8.109   3.325 -13.582  0.00  0.00     0.007 A 
BRANCH   5   7
ATOM      7  C   UNL d   1       9.698   2.036 -15.222  0.00  0.00     0.002 A 
ATOM      8  C   UNL d   1       8.741   1.096 -15.680  0.00  0.00     0.090 A 
ATOM      9  C   UNL d   1       8.940   0.463 -16.929  0.00  0.00     0.026 A 
ATOM     10  C   UNL d   1      10.084   0.739 -17.698  0.00  0.00     0.032 A 
ATOM     11  C   UNL d   1      11.037   1.662 -17.234  0.00  0.00     0.140 A 
ATOM     12  F   UNL d   1      12.132   1.930 -17.981  0.00  0.00    -0.204 F 
ATOM     13  C   UNL d   1      10.846   2.307 -15.999  0.00  0.00     0.027 A 
BRANCH   8  14
ATOM     14  O   UNL d   1       7.655   0.834 -14.870  0.00  0.00    -0.331 OA
BRANCH  14  15
ATOM     15  C   UNL d   1       6.455   0.354 -15.463  0.00  0.00     0.149 C 
ATOM     16  C   UNL d   1       5.429   0.118 -14.350  0.00  0.00     0.035 C 
ENDBRANCH  14  15
ENDBRANCH   8  14
ENDBRANCH   5   7
ENDBRANCH   3   4
ENDBRANCH   2   3
ENDBRANCH   1   2
BRANCH   1  17
ATOM     17  C   UNL d   1       9.014   8.323 -11.288  0.00  0.00     0.050 C 
BRANCH  17  18
ATOM     18  C   UNL d   1       9.579   8.848  -9.925  0.00  0.00     0.067 C 
BRANCH  18  19
ATOM     19  S   UNL d   1      11.070   7.968  -9.330  0.00  0.00    -0.075 SA
BRANCH  19  20
ATOM     20  C   UNL d   1      11.182   8.590  -7.705  0.00  0.00     0.193 A 
ATOM     21  N   UNL d   1      11.488   7.803  -6.676  0.00  0.00    -0.289 N 
ATOM     22  C   UNL d   1      11.541   8.688  -5.670  0.00  0.00     0.167 A 
ATOM     23  C   UNL d   1      11.758   6.385  -6.698  0.00  0.00     0.134 C 
ATOM     24  N   UNL d   1      11.306   9.942  -6.047  0.00  0.00    -0.128 NA
ATOM     25  N   UNL d   1      11.078   9.865  -7.372  0.00  0.00    -0.122 NA
BRANCH  22  26
ATOM     26  C   UNL d   1      11.843   8.354  -4.306  0.00  0.00     0.036 A 
ATOM     27  C   UNL d   1      11.588   7.071  -3.779  0.00  0.00     0.003 A 
ATOM     28  C   UNL d   1      11.901   6.770  -2.460  0.00  0.00     0.000 A 
ATOM     29  C   UNL d   1      12.435   7.769  -1.657  0.00  0.00     0.000 A 
ATOM     30  C   UNL d   1      12.633   9.030  -2.141  0.00  0.00     0.000 A 
ATOM     31  C   UNL d   1      12.358   9.343  -3.462  0.00  0.00     0.003 A 
ENDBRANCH  22  26
ENDBRANCH  19  20
ENDBRANCH  18  19
ENDBRANCH  17  18
ENDBRANCH   1  17
TORSDOF 11
