REMARK  6 active torsions:
REMARK  status: ('A' for Active; 'I' for Inactive)
REMARK    1  A    between atoms: C_2  and  C_3 
REMARK    2  A    between atoms: N_13  and  C_14 
REMARK    3  A    between atoms: C_14  and  C_15 
REMARK    4  A    between atoms: C_15  and  C_17 
REMARK    5  A    between atoms: C_17  and  N_18 
REMARK    6  A    between atoms: N_21  and  C_22 
ROOT
ATOM      1  C   UNL d   1       8.948   5.984 -11.319  0.00  0.00     0.208 C 
ATOM      2  O   UNL d   1       7.793   5.754 -10.546  0.00  0.00    -0.219 OA
ENDROOT
BRANCH   1   3
ATOM      3  C   UNL d   1      10.148   6.075 -10.372  0.00  0.00     0.148 C 
BRANCH   3   4
ATOM      4  N   UNL d   1      10.046   7.080  -9.333  0.00  0.00    -0.247 N 
ATOM      5  C   UNL d   1      10.338   8.390  -9.447  0.00  0.00     0.348 A 
ATOM      6  N   UNL d   1      10.143   8.951  -8.248  0.00  0.00    -0.209 NA
ATOM      7  O   UNL d   1      10.732   8.978 -10.424  0.00  0.00    -0.245 OA
ATOM      8  C   UNL d   1       9.785   7.978  -7.233  0.00  0.00     0.179 A 
ATOM      9  C   UNL d   1       8.420   8.237  -6.685  0.00  0.00     0.039 C 
ATOM     10  C   UNL d   1       9.708   6.738  -8.100  0.00  0.00     0.265 A 
ATOM     11  O   UNL d   1       9.313   5.626  -7.727  0.00  0.00    -0.269 OA
BRANCH   8  12
ATOM     12  C   UNL d   1      10.759   7.925  -6.074  0.00  0.00     0.006 A 
ATOM     13  C   UNL d   1      10.725   6.811  -5.215  0.00  0.00     0.000 A 
ATOM     14  C   UNL d   1      11.577   6.757  -4.114  0.00  0.00     0.029 A 
ATOM     15  C   UNL d   1      12.426   7.820  -3.826  0.00  0.00     0.140 A 
ATOM     16  C   UNL d   1      12.439   8.971  -4.640  0.00  0.00     0.029 A 
ATOM     17  F   UNL d   1      13.294   7.663  -2.814  0.00  0.00    -0.204 F 
ATOM     18  C   UNL d   1      11.603   9.026  -5.770  0.00  0.00     0.000 A 
ENDBRANCH   8  12
ENDBRANCH   3   4
ENDBRANCH   1   3
BRANCH   1  19
ATOM     19  C   UNL d   1       9.001   4.714 -12.198  0.00  0.00     0.285 C 
BRANCH  19  20
ATOM     20  N   UNL d   1      10.190   4.525 -13.021  0.00  0.00     0.144 N 
ATOM     21  C   UNL d   1      10.207   3.206 -13.648  0.00  0.00     0.274 C 
ATOM     22  C   UNL d   1      11.477   2.967 -14.487  0.00  0.00     0.137 C 
ATOM     23  N   UNL d   1      11.674   4.060 -15.430  0.00  0.00    -0.344 N 
ATOM     24  C   UNL d   1      11.562   5.402 -14.901  0.00  0.00     0.137 C 
ATOM     25  C   UNL d   1      10.283   5.529 -14.061  0.00  0.00     0.274 C 
BRANCH  23  26
ATOM     26  C   UNL d   1      11.952   3.832 -16.794  0.00  0.00     0.068 A 
ATOM     27  C   UNL d   1      13.000   4.493 -17.493  0.00  0.00     0.084 A 
ATOM     28  C   UNL d   1      13.178   4.246 -18.871  0.00  0.00     0.070 A 
ATOM     29 CL   UNL d   1      14.136   5.566 -16.733  0.00  0.00    -0.080 Cl
ATOM     30  C   UNL d   1      12.336   3.348 -19.543  0.00  0.00     0.012 A 
ATOM     31 CL   UNL d   1      14.444   5.026 -19.746  0.00  0.00    -0.081 Cl
ATOM     32  C   UNL d   1      11.315   2.680 -18.856  0.00  0.00     0.002 A 
ATOM     33  C   UNL d   1      11.126   2.918 -17.483  0.00  0.00     0.018 A 
ENDBRANCH  23  26
ENDBRANCH  19  20
ENDBRANCH   1  19
TORSDOF 6
