REMARK  7 active torsions:
REMARK  status: ('A' for Active; 'I' for Inactive)
REMARK    1  A    between atoms: O_2  and  C_3 
REMARK    2  A    between atoms: C_8  and  N_9 
REMARK    3  A    between atoms: N_12  and  C_13 
REMARK    4  A    between atoms: C_13  and  C_14 
REMARK    5  A    between atoms: C_14  and  C_15 
REMARK    6  A    between atoms: C_15  and  N_16 
REMARK       I    between atoms: N_19  and  C_20 
REMARK    7  A    between atoms: C_20  and  C_22 
ROOT
ATOM      1  C   UNL d   1       8.850   4.610 -14.340  0.00  0.00     0.071 C 
ENDROOT
BRANCH   1   2
ATOM      2  C   UNL d   1       9.917   4.041 -15.270  0.00  0.00     0.253 C 
BRANCH   2   3
ATOM      3  N   UNL d   1      10.556   5.090 -16.078  0.00  0.00     0.141 N 
ATOM      4  C   UNL d   1      11.809   5.569 -15.460  0.00  0.00     0.274 C 
ATOM      5  C   UNL d   1      12.403   6.732 -16.284  0.00  0.00     0.137 C 
ATOM      6  N   UNL d   1      12.598   6.322 -17.657  0.00  0.00    -0.343 N 
ATOM      7  C   UNL d   1      11.450   5.693 -18.308  0.00  0.00     0.137 C 
ATOM      8  C   UNL d   1      10.872   4.575 -17.407  0.00  0.00     0.274 C 
BRANCH   6   9
ATOM      9  C   UNL d   1      13.868   6.365 -18.248  0.00  0.00     0.079 A 
ATOM     10  C   UNL d   1      14.435   5.218 -18.860  0.00  0.00     0.110 A 
ATOM     11  C   UNL d   1      15.701   5.335 -19.499  0.00  0.00     0.026 A 
ATOM     12  C   UNL d   1      16.393   6.562 -19.498  0.00  0.00     0.002 A 
ATOM     13  C   UNL d   1      15.840   7.684 -18.855  0.00  0.00     0.002 A 
ATOM     14  C   UNL d   1      14.578   7.575 -18.233  0.00  0.00     0.019 A 
BRANCH  10  15
ATOM     15  O   UNL d   1      13.735   4.030 -18.796  0.00  0.00    -0.327 OA
ATOM     16  C   UNL d   1      14.302   2.859 -19.362  0.00  0.00     0.181 C 
ENDBRANCH  10  15
ENDBRANCH   6   9
ENDBRANCH   2   3
ENDBRANCH   1   2
BRANCH   1  17
ATOM     17  C   UNL d   1       9.439   5.409 -13.188  0.00  0.00     0.253 C 
BRANCH  17  18
ATOM     18  N   UNL d   1       8.397   6.199 -12.523  0.00  0.00     0.141 N 
ATOM     19  C   UNL d   1       7.593   5.463 -11.553  0.00  0.00     0.274 C 
ATOM     20  C   UNL d   1       8.462   4.985 -10.370  0.00  0.00     0.140 C 
ATOM     21  N   UNL d   1       9.170   6.127  -9.754  0.00  0.00    -0.312 N 
ATOM     22  C   UNL d   1       9.886   6.979 -10.725  0.00  0.00     0.140 C 
ATOM     23  C   UNL d   1       9.157   6.322  -8.418  0.00  0.00     0.257 C 
ATOM     24  C   UNL d   1       8.997   7.375 -11.902  0.00  0.00     0.274 C 
ATOM     25  O   UNL d   1       8.462   5.645  -7.654  0.00  0.00    -0.267 OA
BRANCH  23  26
ATOM     26  C   UNL d   1      10.020   7.411  -7.831  0.00  0.00     0.056 A 
ATOM     27  C   UNL d   1       9.500   8.237  -6.818  0.00  0.00     0.005 A 
ATOM     28  C   UNL d   1      10.296   9.245  -6.242  0.00  0.00     0.000 A 
ATOM     29  C   UNL d   1      11.604   9.474  -6.704  0.00  0.00     0.000 A 
ATOM     30  C   UNL d   1      12.139   8.642  -7.714  0.00  0.00     0.000 A 
ATOM     31  C   UNL d   1      11.360   7.591  -8.244  0.00  0.00     0.005 A 
ENDBRANCH  23  26
ENDBRANCH  17  18
ENDBRANCH   1  17
TORSDOF 7
