REMARK  5 active torsions:
REMARK  status: ('A' for Active; 'I' for Inactive)
REMARK    1  A    between atoms: C_2  and  C_3 
REMARK    2  A    between atoms: C_3  and  N_4 
REMARK    3  A    between atoms: N_4  and  C_5 
REMARK    4  A    between atoms: N_4  and  C_8 
REMARK    5  A    between atoms: C_5  and  C_6 
ROOT
ATOM      1  C   UNL d   1       8.511   5.843 -10.722  0.00  0.00     0.224 C 
ATOM      2  C   UNL d   1       8.921   4.836  -9.612  0.00  0.00     0.038 C 
ATOM      3  C   UNL d   1       9.252   5.533  -8.281  0.00  0.00     0.029 C 
ATOM      4  C   UNL d   1      10.105   6.750  -8.449  0.00  0.00    -0.020 A 
ATOM      5  C   UNL d   1      10.815   7.424  -7.412  0.00  0.00     0.003 A 
ATOM      6  C   UNL d   1      11.482   8.532  -7.867  0.00  0.00     0.035 A 
ATOM      7  S   UNL d   1      11.242   8.781  -9.572  0.00  0.00    -0.091 SA
ATOM      8  C   UNL d   1      10.269   7.338  -9.667  0.00  0.00     0.005 A 
ATOM      9  C   UNL d   1       9.663   6.875 -10.949  0.00  0.00     0.066 C 
ENDROOT
BRANCH   1  10
ATOM     10  N   UNL d   1       8.096   5.157 -11.963  0.00  0.00     0.135 N 
BRANCH  10  11
ATOM     11  C   UNL d   1       6.937   4.276 -11.808  0.00  0.00     0.250 C 
BRANCH  11  12
ATOM     12  C   UNL d   1       6.686   3.438 -13.087  0.00  0.00     0.035 C 
ATOM     13  C   UNL d   1       5.536   2.467 -12.857  0.00  0.00     0.002 C 
ENDBRANCH  11  12
ENDBRANCH  10  11
BRANCH  10  14
ATOM     14  C   UNL d   1       7.926   6.117 -13.104  0.00  0.00     0.250 C 
BRANCH  14  15
ATOM     15  C   UNL d   1       7.012   7.343 -12.753  0.00  0.00     0.035 C 
ATOM     16  C   UNL d   1       5.609   7.007 -12.219  0.00  0.00     0.002 C 
ENDBRANCH  14  15
ENDBRANCH  10  14
ENDBRANCH   1  10
TORSDOF 5
