REMARK  2 active torsions:
REMARK  status: ('A' for Active; 'I' for Inactive)
REMARK    1  A    between atoms: N_14  and  C_15 
REMARK    2  A    between atoms: C_15  and  C_16 
ROOT
ATOM      1  O   UNL d   1       9.419   4.977 -13.740  0.00  0.00    -0.291 OA
ATOM      2  C   UNL d   1       8.306   4.599 -13.356  0.00  0.00     0.172 C 
ATOM      3  C   UNL d   1       7.751   3.295 -13.787  0.00  0.00     0.031 A 
ATOM      4  C   UNL d   1       8.539   2.452 -14.596  0.00  0.00     0.003 A 
ATOM      5  C   UNL d   1       8.069   1.204 -15.026  0.00  0.00     0.000 A 
ATOM      6  C   UNL d   1       6.787   0.775 -14.624  0.00  0.00    -0.000 A 
ATOM      7  C   UNL d   1       5.984   1.598 -13.800  0.00  0.00    -0.004 A 
ATOM      8  C   UNL d   1       6.450   2.866 -13.392  0.00  0.00    -0.019 A 
ATOM      9  C   UNL d   1       5.585   3.709 -12.480  0.00  0.00     0.027 C 
ATOM     10  C   UNL d   1       5.966   5.200 -12.570  0.00  0.00     0.012 C 
ATOM     11  C   UNL d   1       7.489   5.458 -12.371  0.00  0.00     0.060 C 
ATOM     12  C   UNL d   1       7.768   6.960 -12.562  0.00  0.00     0.043 C 
ATOM     13  C   UNL d   1       9.162   7.402 -12.071  0.00  0.00     0.251 C 
ATOM     14  N   UNL d   1       9.408   6.990 -10.690  0.00  0.00     0.141 N 
ATOM     15  C   UNL d   1       9.284   5.539 -10.524  0.00  0.00     0.251 C 
ATOM     16  C   UNL d   1       7.864   5.127 -10.910  0.00  0.00     0.043 C 
ENDROOT
BRANCH  14  17
ATOM     17  C   UNL d   1      10.684   7.475 -10.213  0.00  0.00     0.277 C 
BRANCH  17  18
ATOM     18  C   UNL d   1      10.756   7.826  -8.740  0.00  0.00     0.011 A 
ATOM     19  C   UNL d   1       9.852   7.287  -7.790  0.00  0.00    -0.000 A 
ATOM     20  C   UNL d   1       9.995   7.615  -6.430  0.00  0.00     0.029 A 
ATOM     21  C   UNL d   1      10.991   8.520  -6.015  0.00  0.00     0.140 A 
ATOM     22  C   UNL d   1      11.863   9.089  -6.966  0.00  0.00     0.029 A 
ATOM     23  F   UNL d   1      11.101   8.866  -4.709  0.00  0.00    -0.204 F 
ATOM     24  C   UNL d   1      11.755   8.726  -8.322  0.00  0.00    -0.000 A 
ENDBRANCH  17  18
ENDBRANCH  14  17
TORSDOF 2
