REMARK  8 active torsions:
REMARK  status: ('A' for Active; 'I' for Inactive)
REMARK    1  A    between atoms: C_2  and  C_3 
REMARK       I    between atoms: C_2  and  N_21 
REMARK    2  A    between atoms: C_3  and  C_4 
REMARK    3  A    between atoms: C_4  and  C_5 
REMARK    4  A    between atoms: C_5  and  C_6 
REMARK    5  A    between atoms: C_6  and  C_7 
REMARK    6  A    between atoms: C_7  and  N_8 
REMARK    7  A    between atoms: N_11  and  C_12 
REMARK    8  A    between atoms: N_21  and  C_22 
ROOT
ATOM      1  C   UNL d   1       9.112   5.534 -11.113  0.00  0.00     0.003 C 
ENDROOT
BRANCH   1   2
ATOM      2  C   UNL d   1       8.538   5.090  -9.755  0.00  0.00     0.010 C 
BRANCH   2   3
ATOM      3  C   UNL d   1       8.565   6.196  -8.670  0.00  0.00     0.090 C 
BRANCH   3   4
ATOM      4  C   UNL d   1       9.893   6.335  -7.998  0.00  0.00     0.252 C 
ATOM      5  O   UNL d   1      10.660   5.415  -8.154  0.00  0.00    -0.271 OA
ATOM      6  N   UNL d   1      10.192   7.435  -7.311  0.00  0.00    -0.235 NA
BRANCH   6   7
ATOM      7  C   UNL d   1      11.533   7.782  -6.871  0.00  0.00     0.128 C 
ATOM      8  C   UNL d   1      11.606   7.811  -5.347  0.00  0.00    -0.004 A 
ATOM      9  C   UNL d   1      11.685   9.021  -4.630  0.00  0.00    -0.024 A 
ATOM     10  C   UNL d   1      11.704   6.600  -4.645  0.00  0.00    -0.003 A 
ATOM     11  C   UNL d   1      11.681  10.329  -5.372  0.00  0.00     0.026 C 
ATOM     12  C   UNL d   1      11.838   9.021  -3.230  0.00  0.00    -0.004 A 
ATOM     13  C   UNL d   1      11.243  10.260  -6.801  0.00  0.00     0.007 C 
ATOM     14  C   UNL d   1      11.935   9.111  -7.532  0.00  0.00     0.029 C 
ATOM     15  C   UNL d   1      11.898   7.800  -2.534  0.00  0.00    -0.000 A 
ATOM     16  C   UNL d   1      11.853   6.593  -3.249  0.00  0.00    -0.000 A 
ENDBRANCH   6   7
ENDBRANCH   3   4
ENDBRANCH   2   3
ENDBRANCH   1   2
BRANCH   1  17
ATOM     17  C   UNL d   1       8.995   4.399 -12.138  0.00  0.00     0.035 C 
BRANCH  17  18
ATOM     18  C   UNL d   1       9.172   4.862 -13.602  0.00  0.00     0.250 C 
BRANCH  18  19
ATOM     19  N   UNL d   1      10.224   4.117 -14.285  0.00  0.00     0.141 N 
ATOM     20  C   UNL d   1      10.518   4.739 -15.584  0.00  0.00     0.274 C 
ATOM     21  C   UNL d   1      11.652   3.977 -16.315  0.00  0.00     0.137 C 
ATOM     22  N   UNL d   1      11.305   2.574 -16.436  0.00  0.00    -0.344 N 
ATOM     23  C   UNL d   1      10.864   1.909 -15.226  0.00  0.00     0.137 C 
ATOM     24  C   UNL d   1       9.769   2.737 -14.523  0.00  0.00     0.274 C 
BRANCH  22  25
ATOM     25  C   UNL d   1      11.268   1.928 -17.686  0.00  0.00     0.067 A 
ATOM     26  C   UNL d   1      10.053   1.593 -18.337  0.00  0.00     0.073 A 
ATOM     27  C   UNL d   1      10.082   0.940 -19.586  0.00  0.00     0.013 A 
ATOM     28 CL   UNL d   1       8.504   1.991 -17.679  0.00  0.00    -0.081 Cl
ATOM     29  C   UNL d   1      11.305   0.616 -20.196  0.00  0.00     0.001 A 
ATOM     30  C   UNL d   1      12.512   0.950 -19.558  0.00  0.00     0.002 A 
ATOM     31  C   UNL d   1      12.492   1.610 -18.312  0.00  0.00     0.018 A 
ENDBRANCH  22  25
ENDBRANCH  18  19
ENDBRANCH  17  18
ENDBRANCH   1  17
TORSDOF 8
