REMARK  2 active torsions:
REMARK  status: ('A' for Active; 'I' for Inactive)
REMARK    1  A    between atoms: C_2  and  C_3 
REMARK    2  A    between atoms: C_3  and  N_4 
ROOT
ATOM      1  N   UNL d   1       7.139   4.579 -11.942  0.00  0.00     0.140 N 
ATOM      2  C   UNL d   1       6.149   3.543 -11.683  0.00  0.00     0.282 C 
ATOM      3  C   UNL d   1       5.668   2.778 -12.925  0.00  0.00     0.178 C 
ATOM      4  O   UNL d   1       6.789   2.282 -13.640  0.00  0.00    -0.348 OA
ATOM      5  C   UNL d   1       7.750   3.274 -13.986  0.00  0.00     0.169 C 
ATOM      6  C   UNL d   1       8.895   2.743 -14.823  0.00  0.00     0.003 A 
ATOM      7  C   UNL d   1       8.845   1.474 -15.433  0.00  0.00     0.008 A 
ATOM      8  C   UNL d   1       9.937   1.056 -16.227  0.00  0.00     0.068 A 
ATOM      9  C   UNL d   1       9.903  -0.214 -16.925  0.00  0.00     0.101 C 
ATOM     10  N   UNL d   1       9.881  -1.221 -17.487  0.00  0.00    -0.191 NA
ATOM     11  C   UNL d   1      11.078   1.877 -16.382  0.00  0.00     0.010 A 
ATOM     12  C   UNL d   1      11.105   3.149 -15.777  0.00  0.00    -0.004 A 
ATOM     13  C   UNL d   1      10.008   3.583 -15.015  0.00  0.00    -0.024 A 
ATOM     14  C   UNL d   1      10.017   4.944 -14.351  0.00  0.00     0.028 C 
ATOM     15  C   UNL d   1       9.535   4.871 -12.890  0.00  0.00     0.041 C 
ATOM     16  C   UNL d   1       8.257   3.996 -12.711  0.00  0.00     0.251 C 
ENDROOT
BRANCH   1  17
ATOM     17  C   UNL d   1       6.444   5.718 -12.556  0.00  0.00     0.250 C 
BRANCH  17  18
ATOM     18  C   UNL d   1       7.197   7.052 -12.490  0.00  0.00     0.035 C 
ATOM     19  C   UNL d   1       6.271   8.277 -12.455  0.00  0.00     0.002 C 
ENDBRANCH  17  18
ENDBRANCH   1  17
TORSDOF 2
