REMARK  7 active torsions:
REMARK  status: ('A' for Active; 'I' for Inactive)
REMARK    1  A    between atoms: S_2  and  N_4 
REMARK    2  A    between atoms: S_2  and  C_24 
REMARK    3  A    between atoms: N_4  and  C_5 
REMARK    4  A    between atoms: C_5  and  C_6 
REMARK    5  A    between atoms: C_6  and  C_7 
REMARK    6  A    between atoms: C_7  and  N_8 
REMARK    7  A    between atoms: C_11  and  C_12 
ROOT
ATOM      1  C   UNL d   1       6.800   0.248 -18.176  0.00  0.00     0.062 C 
ENDROOT
BRANCH   1   2
ATOM      2  C   UNL d   1       6.638  -0.599 -16.900  0.00  0.00     0.141 C 
BRANCH   2   3
ATOM      3  N   UNL d   1       5.457  -0.153 -16.152  0.00  0.00    -0.185 NA
BRANCH   3   4
ATOM      4  S   UNL d   1       5.487  -0.078 -14.434  0.00  0.00     0.281 S 
ATOM      5  O   UNL d   1       4.102   0.086 -13.971  0.00  0.00    -0.199 OA
ATOM      6  O   UNL d   1       6.281  -1.208 -13.950  0.00  0.00    -0.199 OA
BRANCH   4   7
ATOM      7  C   UNL d   1       6.419   1.415 -14.104  0.00  0.00     0.105 A 
ATOM      8  C   UNL d   1       5.847   2.430 -13.311  0.00  0.00     0.013 A 
ATOM      9  C   UNL d   1       6.583   3.617 -13.079  0.00  0.00     0.001 A 
ATOM     10  C   UNL d   1       7.877   3.772 -13.642  0.00  0.00     0.001 A 
ATOM     11  C   UNL d   1       6.050   4.638 -12.271  0.00  0.00     0.001 A 
ATOM     12  C   UNL d   1       8.439   2.748 -14.425  0.00  0.00     0.001 A 
ATOM     13  C   UNL d   1       8.625   4.938 -13.400  0.00  0.00     0.011 A 
ATOM     14  C   UNL d   1       7.726   1.554 -14.640  0.00  0.00     0.013 A 
ATOM     15  C   UNL d   1       8.089   5.955 -12.586  0.00  0.00     0.058 A 
ATOM     16 CL   UNL d   1       9.015   7.378 -12.271  0.00  0.00    -0.082 Cl
ATOM     17  C   UNL d   1       6.800   5.805 -12.037  0.00  0.00     0.011 A 
ENDBRANCH   4   7
ENDBRANCH   3   4
ENDBRANCH   2   3
ENDBRANCH   1   2
BRANCH   1  18
ATOM     18  C   UNL d   1       8.201   0.084 -18.804  0.00  0.00     0.252 C 
BRANCH  18  19
ATOM     19  N   UNL d   1       9.192   0.998 -18.218  0.00  0.00     0.137 N 
ATOM     20  C   UNL d   1      10.542   0.507 -18.517  0.00  0.00     0.251 C 
ATOM     21  C   UNL d   1      11.600   1.398 -17.843  0.00  0.00     0.041 C 
ATOM     22  C   UNL d   1      11.464   2.861 -18.286  0.00  0.00     0.047 C 
ATOM     23  C   UNL d   1      10.012   3.326 -18.127  0.00  0.00     0.041 C 
ATOM     24  C   UNL d   1       9.034   2.344 -18.784  0.00  0.00     0.251 C 
BRANCH  22  25
ATOM     25  C   UNL d   1      12.410   3.757 -17.513  0.00  0.00     0.087 A 
ATOM     26  C   UNL d   1      13.534   4.510 -17.925  0.00  0.00     0.041 A 
ATOM     27  C   UNL d   1      14.063   5.173 -16.816  0.00  0.00     0.129 A 
ATOM     28  C   UNL d   1      14.151   4.671 -19.186  0.00  0.00     0.006 A 
ATOM     29  O   UNL d   1      13.261   4.811 -15.749  0.00  0.00    -0.211 OA
ATOM     30  C   UNL d   1      15.191   5.996 -16.883  0.00  0.00     0.057 A 
ATOM     31  N   UNL d   1      12.246   3.927 -16.196  0.00  0.00    -0.131 NA
ATOM     32  C   UNL d   1      15.812   6.158 -18.138  0.00  0.00     0.142 A 
ATOM     33  F   UNL d   1      16.910   6.943 -18.243  0.00  0.00    -0.204 F 
ATOM     34  C   UNL d   1      15.293   5.501 -19.281  0.00  0.00     0.030 A 
ENDBRANCH  22  25
ENDBRANCH  18  19
ENDBRANCH   1  18
TORSDOF 7
