REMARK  1 active torsions:
REMARK  status: ('A' for Active; 'I' for Inactive)
REMARK    1  A    between atoms: C_13  and  C_14 
ROOT
ATOM      1  C   UNL d   1       5.985   0.576 -15.526  0.00  0.00     0.285 C 
ATOM      2  N   UNL d   1       7.406   0.742 -15.241  0.00  0.00     0.140 N 
ATOM      3  C   UNL d   1       8.158   0.211 -16.375  0.00  0.00     0.255 C 
ATOM      4  C   UNL d   1       9.653   0.051 -16.064  0.00  0.00     0.061 C 
ATOM      5  C   UNL d   1      10.435   1.340 -16.252  0.00  0.00    -0.023 A 
ATOM      6  C   UNL d   1      11.439   1.380 -17.246  0.00  0.00     0.004 A 
ATOM      7  C   UNL d   1      12.172   2.556 -17.478  0.00  0.00     0.060 A 
ATOM      8 BR   UNL d   1      13.500   2.594 -18.843  0.00  0.00    -0.047 Br
ATOM      9  C   UNL d   1      11.909   3.702 -16.708  0.00  0.00     0.137 A 
ATOM     10  O   UNL d   1      12.614   4.853 -16.914  0.00  0.00    -0.190 OA
ATOM     11  C   UNL d   1      10.910   3.669 -15.719  0.00  0.00     0.024 A 
ATOM     12  C   UNL d   1      10.157   2.492 -15.473  0.00  0.00    -0.018 A 
ATOM     13  C   UNL d   1       9.067   2.454 -14.387  0.00  0.00     0.078 C 
ATOM     14  C   UNL d   1       7.658   2.152 -14.946  0.00  0.00     0.259 C 
ENDROOT
BRANCH  13  15
ATOM     15  C   UNL d   1       9.027   3.702 -13.504  0.00  0.00    -0.016 C 
ATOM     16  C   UNL d   1       9.685   3.691 -12.263  0.00  0.00    -0.003 C 
ATOM     17  C   UNL d   1       9.649   4.814 -11.419  0.00  0.00     0.014 C 
ATOM     18  C   UNL d   1       9.049   6.010 -11.843  0.00  0.00     0.070 C 
ATOM     19  C   UNL d   1       8.342   6.008 -13.059  0.00  0.00     0.014 C 
ATOM     20  N   UNL d   1       9.201   7.168 -11.088  0.00  0.00    -0.101 NA
ATOM     21  C   UNL d   1       8.342   4.874 -13.891  0.00  0.00    -0.003 C 
ENDBRANCH  13  15
TORSDOF 1
