REMARK  6 active torsions:
REMARK  status: ('A' for Active; 'I' for Inactive)
REMARK    1  A    between atoms: N_10  and  C_11 
REMARK    2  A    between atoms: N_14  and  C_15 
REMARK    3  A    between atoms: C_15  and  C_16 
REMARK    4  A    between atoms: C_16  and  C_17 
REMARK    5  A    between atoms: C_17  and  O_18 
REMARK    6  A    between atoms: O_18  and  C_19 
ROOT
ATOM      1  C   UNL d   1       8.546   5.571 -12.043  0.00  0.00     0.094 C 
ATOM      2  C   UNL d   1       9.147   6.852 -12.611  0.00  0.00     0.058 C 
ATOM      3  C   UNL d   1       9.266   7.966 -11.576  0.00  0.00     0.252 C 
ATOM      4  N   UNL d   1       9.995   7.515 -10.389  0.00  0.00     0.137 N 
ATOM      5  C   UNL d   1       9.338   6.363  -9.772  0.00  0.00     0.252 C 
ATOM      6  C   UNL d   1       9.243   5.191 -10.749  0.00  0.00     0.058 C 
ENDROOT
BRANCH   4   7
ATOM      7  C   UNL d   1      10.089   8.609  -9.429  0.00  0.00     0.253 C 
BRANCH   7   8
ATOM      8  C   UNL d   1      11.301   8.443  -8.511  0.00  0.00     0.068 C 
BRANCH   8   9
ATOM      9  C   UNL d   1      11.011   7.599  -7.263  0.00  0.00     0.151 C 
BRANCH   9  10
ATOM     10  O   UNL d   1      10.585   8.499  -6.259  0.00  0.00    -0.331 OA
BRANCH  10  11
ATOM     11  C   UNL d   1      11.156   8.395  -5.022  0.00  0.00     0.094 A 
ATOM     12  C   UNL d   1      11.581   7.176  -4.441  0.00  0.00     0.026 A 
ATOM     13  C   UNL d   1      12.196   7.172  -3.174  0.00  0.00     0.032 A 
ATOM     14  C   UNL d   1      12.347   8.382  -2.469  0.00  0.00     0.140 A 
ATOM     15  C   UNL d   1      11.887   9.588  -3.026  0.00  0.00     0.032 A 
ATOM     16  F   UNL d   1      12.907   8.393  -1.240  0.00  0.00    -0.204 F 
ATOM     17  C   UNL d   1      11.285   9.592  -4.297  0.00  0.00     0.026 A 
ENDBRANCH  10  11
ENDBRANCH   9  10
ENDBRANCH   8   9
ENDBRANCH   7   8
ENDBRANCH   4   7
BRANCH   1  18
ATOM     18  N   UNL d   1       8.620   4.485 -13.037  0.00  0.00    -0.281 N 
ATOM     19  C   UNL d   1       9.690   4.068 -13.781  0.00  0.00     0.350 A 
ATOM     20  O   UNL d   1      10.822   4.543 -13.763  0.00  0.00    -0.244 OA
ATOM     21  N   UNL d   1       9.306   3.013 -14.542  0.00  0.00    -0.191 NA
ATOM     22  C   UNL d   1       7.989   2.694 -14.248  0.00  0.00     0.102 A 
ATOM     23  C   UNL d   1       7.552   3.612 -13.305  0.00  0.00     0.082 A 
ATOM     24  C   UNL d   1       7.187   1.641 -14.711  0.00  0.00     0.021 A 
ATOM     25  C   UNL d   1       6.265   3.532 -12.732  0.00  0.00     0.019 A 
ATOM     26  C   UNL d   1       5.448   2.469 -13.173  0.00  0.00     0.002 A 
ATOM     27  C   UNL d   1       5.895   1.540 -14.148  0.00  0.00     0.002 A 
ENDBRANCH   1  18
TORSDOF 6
