REMARK  6 active torsions:
REMARK  status: ('A' for Active; 'I' for Inactive)
REMARK    1  A    between atoms: C_9  and  O_10 
REMARK    2  A    between atoms: O_10  and  C_11 
REMARK    3  A    between atoms: C_11  and  C_12 
REMARK    4  A    between atoms: C_12  and  C_13 
REMARK    5  A    between atoms: C_13  and  N_14 
REMARK    6  A    between atoms: N_17  and  C_18 
ROOT
ATOM      1  N   UNL d   1       9.983   6.269  -9.488  0.00  0.00     0.141 N 
ATOM      2  C   UNL d   1      10.528   7.638  -9.528  0.00  0.00     0.274 C 
ATOM      3  C   UNL d   1      11.572   7.854  -8.410  0.00  0.00     0.137 C 
ATOM      4  N   UNL d   1      11.002   7.481  -7.130  0.00  0.00    -0.344 N 
ATOM      5  C   UNL d   1      10.326   6.194  -7.104  0.00  0.00     0.137 C 
ATOM      6  C   UNL d   1       9.311   6.070  -8.205  0.00  0.00     0.274 C 
ENDROOT
BRANCH   1   7
ATOM      7  C   UNL d   1       9.001   6.081 -10.553  0.00  0.00     0.253 C 
BRANCH   7   8
ATOM      8  C   UNL d   1       9.648   5.527 -11.826  0.00  0.00     0.068 C 
BRANCH   8   9
ATOM      9  C   UNL d   1       8.798   5.856 -13.064  0.00  0.00     0.151 C 
BRANCH   9  10
ATOM     10  O   UNL d   1       7.621   5.059 -13.071  0.00  0.00    -0.330 OA
BRANCH  10  11
ATOM     11  C   UNL d   1       7.650   3.815 -13.665  0.00  0.00     0.105 A 
ATOM     12  C   UNL d   1       6.436   3.067 -13.644  0.00  0.00     0.080 A 
ATOM     13  C   UNL d   1       6.347   1.807 -14.278  0.00  0.00     0.011 A 
ATOM     14 CL   UNL d   1       5.030   3.697 -12.869  0.00  0.00    -0.080 Cl
ATOM     15  C   UNL d   1       7.484   1.323 -14.945  0.00  0.00     0.008 A 
ATOM     16  C   UNL d   1       7.686   0.037 -15.699  0.00  0.00     0.155 A 
ATOM     17  C   UNL d   1       8.665   2.037 -14.960  0.00  0.00     0.058 A 
ATOM     18  N   UNL d   1       9.091   0.160 -16.129  0.00  0.00    -0.229 NA
ATOM     19  C   UNL d   1       9.689   1.293 -15.721  0.00  0.00     0.275 A 
ATOM     20  O   UNL d   1      10.843   1.658 -15.929  0.00  0.00    -0.266 OA
ATOM     21  C   UNL d   1       8.798   3.276 -14.323  0.00  0.00     0.030 A 
ENDBRANCH  10  11
ENDBRANCH   9  10
ENDBRANCH   8   9
ENDBRANCH   7   8
ENDBRANCH   1   7
BRANCH   4  22
ATOM     22  C   UNL d   1      11.094   8.299  -5.999  0.00  0.00     0.058 A 
ATOM     23  C   UNL d   1      11.544   7.881  -4.707  0.00  0.00     0.043 A 
ATOM     24  C   UNL d   1      11.586   8.796  -3.625  0.00  0.00     0.004 A 
ATOM     25  C   UNL d   1      12.032   6.610  -4.439  0.00  0.00     0.141 A 
ATOM     26  C   UNL d   1      11.136  10.086  -3.818  0.00  0.00     0.000 A 
ATOM     27  C   UNL d   1      12.082   8.482  -2.344  0.00  0.00     0.000 A 
ATOM     28  C   UNL d   1      10.683  10.498  -5.070  0.00  0.00     0.002 A 
ATOM     29  C   UNL d   1      10.669   9.630  -6.168  0.00  0.00     0.017 A 
ATOM     30  C   UNL d   1      12.498   7.176  -2.089  0.00  0.00     0.002 A 
ATOM     31  C   UNL d   1      12.440   6.263  -3.147  0.00  0.00     0.030 A 
ATOM     32  F   UNL d   1      12.273   5.780  -5.469  0.00  0.00    -0.204 F 
ENDBRANCH   4  22
TORSDOF 6
