REMARK  7 active torsions:
REMARK  status: ('A' for Active; 'I' for Inactive)
REMARK    1  A    between atoms: O_2  and  C_3 
REMARK    2  A    between atoms: C_6  and  O_7 
REMARK    3  A    between atoms: O_7  and  C_8 
REMARK    4  A    between atoms: C_8  and  C_9 
REMARK    5  A    between atoms: C_9  and  C_10 
REMARK    6  A    between atoms: C_10  and  N_11 
REMARK       I    between atoms: N_14  and  C_15 
REMARK    7  A    between atoms: C_15  and  C_17 
ROOT
ATOM      1  N   UNL d   1       9.460   5.832 -11.605  0.00  0.00     0.141 N 
ATOM      2  C   UNL d   1       9.516   5.439 -10.199  0.00  0.00     0.274 C 
ATOM      3  C   UNL d   1      10.406   6.377  -9.407  0.00  0.00     0.140 C 
ATOM      4  N   UNL d   1       9.886   7.739  -9.464  0.00  0.00    -0.311 N 
ATOM      5  C   UNL d   1       9.668   8.513  -8.380  0.00  0.00     0.275 C 
ATOM      6  O   UNL d   1       9.015   9.547  -8.431  0.00  0.00    -0.266 OA
ATOM      7  C   UNL d   1       9.694   8.209 -10.869  0.00  0.00     0.140 C 
ATOM      8  C   UNL d   1       8.872   7.169 -11.672  0.00  0.00     0.274 C 
ENDROOT
BRANCH   1   9
ATOM      9  C   UNL d   1       8.619   4.874 -12.314  0.00  0.00     0.253 C 
BRANCH   9  10
ATOM     10  C   UNL d   1       9.100   4.737 -13.767  0.00  0.00     0.068 C 
BRANCH  10  11
ATOM     11  C   UNL d   1       9.908   3.451 -14.004  0.00  0.00     0.151 C 
BRANCH  11  12
ATOM     12  O   UNL d   1      10.128   3.293 -15.402  0.00  0.00    -0.331 OA
BRANCH  12  13
ATOM     13  C   UNL d   1       9.187   2.631 -16.165  0.00  0.00     0.094 A 
ATOM     14  C   UNL d   1       9.410   2.583 -17.557  0.00  0.00     0.026 A 
ATOM     15  C   UNL d   1       8.521   1.890 -18.403  0.00  0.00     0.026 A 
ATOM     16  C   UNL d   1       7.389   1.231 -17.882  0.00  0.00     0.094 A 
ATOM     17  C   UNL d   1       7.156   1.289 -16.488  0.00  0.00     0.026 A 
ATOM     18  C   UNL d   1       8.035   1.988 -15.644  0.00  0.00     0.026 A 
BRANCH  16  19
ATOM     19  O   UNL d   1       6.566   0.579 -18.774  0.00  0.00    -0.328 OA
ATOM     20  C   UNL d   1       5.415  -0.074 -18.257  0.00  0.00     0.181 C 
ENDBRANCH  16  19
ENDBRANCH  12  13
ENDBRANCH  11  12
ENDBRANCH  10  11
ENDBRANCH   9  10
ENDBRANCH   1   9
BRANCH   5  21
ATOM     21  C   UNL d   1      10.306   8.211  -7.065  0.00  0.00     0.137 A 
ATOM     22  N   UNL d   1      10.572   9.297  -6.227  0.00  0.00    -0.241 NA
ATOM     23  C   UNL d   1      11.148   8.881  -5.046  0.00  0.00     0.082 A 
ATOM     24  C   UNL d   1      11.261   7.468  -5.181  0.00  0.00     0.019 A 
ATOM     25  C   UNL d   1      11.575   9.545  -3.876  0.00  0.00     0.019 A 
ATOM     26  C   UNL d   1      10.721   7.078  -6.423  0.00  0.00     0.025 A 
ATOM     27  C   UNL d   1      11.841   6.749  -4.117  0.00  0.00     0.002 A 
ATOM     28  C   UNL d   1      12.275   7.385  -2.952  0.00  0.00     0.000 A 
ATOM     29  C   UNL d   1      12.145   8.782  -2.833  0.00  0.00     0.002 A 
ENDBRANCH   5  21
TORSDOF 7
