REMARK  4 active torsions:
REMARK  status: ('A' for Active; 'I' for Inactive)
REMARK    1  A    between atoms: C_2  and  C_3 
REMARK    2  A    between atoms: C_3  and  N_4 
REMARK    3  A    between atoms: N_7  and  C_8 
REMARK    4  A    between atoms: C_13  and  O_14 
ROOT
ATOM      1  N   UNL d   1       9.391   5.061 -12.391  0.00  0.00     0.141 N 
ATOM      2  C   UNL d   1       9.427   3.596 -12.467  0.00  0.00     0.274 C 
ATOM      3  C   UNL d   1      10.207   3.115 -13.702  0.00  0.00     0.137 C 
ATOM      4  N   UNL d   1       9.620   3.687 -14.902  0.00  0.00    -0.343 N 
ATOM      5  C   UNL d   1       9.445   5.131 -14.873  0.00  0.00     0.137 C 
ATOM      6  C   UNL d   1       8.690   5.549 -13.583  0.00  0.00     0.274 C 
ENDROOT
BRANCH   4   7
ATOM      7  C   UNL d   1       9.174   2.900 -15.980  0.00  0.00     0.079 A 
ATOM      8  C   UNL d   1       8.383   1.738 -15.774  0.00  0.00     0.110 A 
ATOM      9  C   UNL d   1       7.986   0.969 -16.898  0.00  0.00     0.026 A 
ATOM     10  C   UNL d   1       8.346   1.357 -18.201  0.00  0.00     0.002 A 
ATOM     11  C   UNL d   1       9.108   2.521 -18.401  0.00  0.00     0.002 A 
ATOM     12  C   UNL d   1       9.515   3.289 -17.293  0.00  0.00     0.019 A 
BRANCH   8  13
ATOM     13  O   UNL d   1       8.010   1.428 -14.481  0.00  0.00    -0.327 OA
ATOM     14  C   UNL d   1       7.201   0.288 -14.259  0.00  0.00     0.181 C 
ENDBRANCH   8  13
ENDBRANCH   4   7
BRANCH   1  15
ATOM     15  C   UNL d   1       8.655   5.480 -11.193  0.00  0.00     0.250 C 
BRANCH  15  16
ATOM     16  C   UNL d   1       9.508   5.337  -9.918  0.00  0.00     0.035 C 
ATOM     17  C   UNL d   1       8.741   5.718  -8.650  0.00  0.00     0.002 C 
ENDBRANCH  15  16
ENDBRANCH   1  15
TORSDOF 4
