REMARK  11 active torsions:
REMARK  status: ('A' for Active; 'I' for Inactive)
REMARK    1  A    between atoms: C_2  and  N_3 
REMARK    2  A    between atoms: N_3  and  C_4 
REMARK    3  A    between atoms: N_3  and  C_20 
REMARK    4  A    between atoms: C_4  and  C_5 
REMARK    5  A    between atoms: C_5  and  C_6 
REMARK    6  A    between atoms: C_6  and  C_7 
REMARK    7  A    between atoms: C_7  and  N_8 
REMARK       I    between atoms: N_8  and  C_9 
REMARK    8  A    between atoms: C_9  and  C_11 
REMARK    9  A    between atoms: C_20  and  C_21 
REMARK   10  A    between atoms: C_23  and  C_24 
REMARK   11  A    between atoms: C_30  and  O_31 
ROOT
ATOM      1  N   UNL d   1       8.458   5.522 -12.066  0.00  0.00     0.137 N 
ENDROOT
BRANCH   1   2
ATOM      2  C   UNL d   1       7.116   6.096 -11.935  0.00  0.00     0.250 C 
ATOM      3  C   UNL d   1       6.960   7.458 -12.660  0.00  0.00     0.037 C 
ENDBRANCH   1   2
BRANCH   1   4
ATOM      4  C   UNL d   1       9.559   6.470 -11.900  0.00  0.00     0.250 C 
BRANCH   4   5
ATOM      5  C   UNL d   1       9.563   7.227 -10.580  0.00  0.00     0.037 C 
BRANCH   5   6
ATOM      6  C   UNL d   1      10.755   8.202 -10.596  0.00  0.00     0.029 C 
BRANCH   6   7
ATOM      7  C   UNL d   1      10.569   9.407  -9.677  0.00  0.00     0.129 C 
BRANCH   7   8
ATOM      8  N   UNL d   1      10.520   9.148  -8.267  0.00  0.00    -0.233 NA
ATOM      9  C   UNL d   1      11.207   8.187  -7.653  0.00  0.00     0.293 C 
ATOM     10  O   UNL d   1      11.690   7.210  -8.186  0.00  0.00    -0.264 OA
BRANCH   9  11
ATOM     11  C   UNL d   1      11.339   8.417  -6.214  0.00  0.00     0.139 A 
ATOM     12  N   UNL d   1      11.553   7.297  -5.419  0.00  0.00    -0.241 NA
ATOM     13  C   UNL d   1      11.844   7.680  -4.142  0.00  0.00     0.082 A 
ATOM     14  C   UNL d   1      11.731   9.102  -4.128  0.00  0.00     0.019 A 
ATOM     15  C   UNL d   1      12.269   6.949  -3.000  0.00  0.00     0.019 A 
ATOM     16  C   UNL d   1      11.396   9.537  -5.451  0.00  0.00     0.025 A 
ATOM     17  C   UNL d   1      11.980   9.756  -2.920  0.00  0.00     0.002 A 
ATOM     18  C   UNL d   1      12.380   9.051  -1.765  0.00  0.00     0.000 A 
ATOM     19  C   UNL d   1      12.546   7.651  -1.837  0.00  0.00     0.002 A 
ENDBRANCH   9  11
ENDBRANCH   7   8
ENDBRANCH   6   7
ENDBRANCH   5   6
ENDBRANCH   4   5
ENDBRANCH   1   4
BRANCH   1  20
ATOM     20  C   UNL d   1       8.559   4.670 -13.257  0.00  0.00     0.251 C 
BRANCH  20  21
ATOM     21  C   UNL d   1       9.951   4.625 -13.858  0.00  0.00     0.038 A 
ATOM     22  C   UNL d   1      10.446   3.434 -14.647  0.00  0.00     0.026 A 
ATOM     23  C   UNL d   1      10.955   3.683 -13.245  0.00  0.00     0.007 A 
BRANCH  22  24
ATOM     24  C   UNL d   1      11.376   3.650 -15.812  0.00  0.00     0.002 A 
ATOM     25  C   UNL d   1      11.357   2.747 -16.904  0.00  0.00     0.090 A 
ATOM     26  C   UNL d   1      12.234   2.971 -17.997  0.00  0.00     0.026 A 
ATOM     27  C   UNL d   1      13.112   4.072 -17.994  0.00  0.00     0.032 A 
ATOM     28  C   UNL d   1      13.144   4.957 -16.898  0.00  0.00     0.140 A 
ATOM     29  C   UNL d   1      12.279   4.734 -15.818  0.00  0.00     0.027 A 
ATOM     30  F   UNL d   1      13.993   6.011 -16.876  0.00  0.00    -0.204 F 
BRANCH  25  31
ATOM     31  O   UNL d   1      10.475   1.691 -16.830  0.00  0.00    -0.328 OA
ATOM     32  C   UNL d   1      10.448   0.747 -17.881  0.00  0.00     0.181 C 
ENDBRANCH  25  31
ENDBRANCH  22  24
ENDBRANCH  20  21
ENDBRANCH   1  20
TORSDOF 11
