REMARK  5 active torsions:
REMARK  status: ('A' for Active; 'I' for Inactive)
REMARK    1  A    between atoms: C_2  and  O_3 
REMARK    2  A    between atoms: O_3  and  C_4 
REMARK    3  A    between atoms: C_13  and  C_14 
REMARK       I    between atoms: C_14  and  N_16 
REMARK    4  A    between atoms: N_16  and  N_17 
REMARK    5  A    between atoms: C_26  and  N_27 
ROOT
ATOM      1  N   UNL d   1      10.424   2.251 -16.954  0.00  0.00    -0.225 N 
ATOM      2  C   UNL d   1      10.923   1.559 -18.058  0.00  0.00     0.101 A 
ATOM      3  C   UNL d   1      11.252   0.197 -17.903  0.00  0.00     0.022 A 
ATOM      4  C   UNL d   1      11.785  -0.536 -18.975  0.00  0.00     0.013 A 
ATOM      5  C   UNL d   1      11.982   0.090 -20.217  0.00  0.00     0.059 A 
ATOM      6 CL   UNL d   1      12.639  -0.809 -21.535  0.00  0.00    -0.082 Cl
ATOM      7  C   UNL d   1      11.637   1.445 -20.384  0.00  0.00     0.032 A 
ATOM      8  C   UNL d   1      11.113   2.202 -19.314  0.00  0.00     0.101 A 
ATOM      9  N   UNL d   1      10.696   3.501 -19.630  0.00  0.00    -0.227 NA
ATOM     10  C   UNL d   1      10.694   4.522 -18.823  0.00  0.00     0.142 C 
ATOM     11  C   UNL d   1      11.229   4.512 -17.415  0.00  0.00     0.051 A 
ATOM     12  C   UNL d   1      11.942   5.651 -16.961  0.00  0.00     0.004 A 
ATOM     13  C   UNL d   1      12.404   5.736 -15.638  0.00  0.00     0.000 A 
ATOM     14  C   UNL d   1      12.159   4.678 -14.744  0.00  0.00     0.002 A 
ATOM     15  C   UNL d   1      11.460   3.537 -15.179  0.00  0.00     0.019 A 
ATOM     16  C   UNL d   1      11.008   3.442 -16.514  0.00  0.00     0.086 A 
ENDROOT
BRANCH   1  17
ATOM     17  N   UNL d   1       9.362   1.705 -16.227  0.00  0.00    -0.123 NA
ATOM     18  C   UNL d   1       8.099   1.687 -16.680  0.00  0.00     0.297 C 
ATOM     19  O   UNL d   1       7.756   2.020 -17.819  0.00  0.00    -0.264 OA
BRANCH  18  20
ATOM     20  C   UNL d   1       7.091   1.246 -15.657  0.00  0.00     0.082 A 
ATOM     21  C   UNL d   1       6.356   0.053 -15.886  0.00  0.00     0.099 A 
ATOM     22  C   UNL d   1       5.393  -0.363 -14.935  0.00  0.00     0.024 A 
ATOM     23  C   UNL d   1       5.106   0.428 -13.820  0.00  0.00     0.002 A 
ATOM     24  C   UNL d   1       5.812   1.617 -13.591  0.00  0.00     0.000 A 
ATOM     25  C   UNL d   1       6.829   2.030 -14.491  0.00  0.00     0.007 A 
ATOM     26  C   UNL d   1       5.461   2.416 -12.488  0.00  0.00     0.000 A 
ATOM     27  C   UNL d   1       7.509   3.244 -14.210  0.00  0.00     0.000 A 
ATOM     28  C   UNL d   1       7.171   4.023 -13.085  0.00  0.00     0.000 A 
ATOM     29  C   UNL d   1       6.142   3.606 -12.222  0.00  0.00     0.000 A 
BRANCH  21  30
ATOM     30  O   UNL d   1       6.609  -0.658 -17.047  0.00  0.00    -0.331 OA
BRANCH  30  31
ATOM     31  C   UNL d   1       5.827  -1.817 -17.340  0.00  0.00     0.149 C 
ATOM     32  C   UNL d   1       4.409  -1.437 -17.823  0.00  0.00     0.035 C 
ENDBRANCH  30  31
ENDBRANCH  21  30
ENDBRANCH  18  20
ENDBRANCH   1  17
BRANCH  10  33
ATOM     33  N   UNL d   1      10.163   5.737 -19.229  0.00  0.00    -0.330 N 
ATOM     34  C   UNL d   1       9.084   6.420 -18.522  0.00  0.00     0.138 C 
ATOM     35  C   UNL d   1       7.934   6.765 -19.487  0.00  0.00     0.274 C 
ATOM     36  N   UNL d   1       8.435   7.574 -20.600  0.00  0.00     0.143 N 
ATOM     37  C   UNL d   1       9.427   6.789 -21.336  0.00  0.00     0.274 C 
ATOM     38  C   UNL d   1       7.331   7.905 -21.484  0.00  0.00     0.286 C 
ATOM     39  C   UNL d   1      10.614   6.449 -20.419  0.00  0.00     0.138 C 
ENDBRANCH  10  33
TORSDOF 5
