REMARK  6 active torsions:
REMARK  status: ('A' for Active; 'I' for Inactive)
REMARK    1  A    between atoms: C_4  and  C_5 
REMARK       I    between atoms: C_5  and  N_7 
REMARK    2  A    between atoms: N_7  and  C_8 
REMARK    3  A    between atoms: C_11  and  C_12 
REMARK    4  A    between atoms: C_12  and  C_13 
REMARK    5  A    between atoms: C_13  and  N_14 
REMARK    6  A    between atoms: C_17  and  C_18 
ROOT
ATOM      1  C   UNL d   1       9.243   5.534 -11.913  0.00  0.00     0.035 C 
ENDROOT
BRANCH   1   2
ATOM      2  C   UNL d   1       9.416   4.323 -12.848  0.00  0.00     0.002 C 
ATOM      3  C   UNL d   1       8.090   3.987 -13.537  0.00  0.00     0.002 C 
ATOM      4  C   UNL d   1       8.251   2.841 -14.546  0.00  0.00     0.024 C 
ATOM      5  C   UNL d   1       9.359   3.147 -15.576  0.00  0.00     0.107 C 
ATOM      6  C   UNL d   1      10.691   3.450 -14.879  0.00  0.00     0.024 C 
ATOM      7  C   UNL d   1      10.525   4.599 -13.879  0.00  0.00     0.002 C 
BRANCH   5   8
ATOM      8  N   UNL d   1       9.527   2.014 -16.477  0.00  0.00    -0.234 NA
ATOM      9  C   UNL d   1       8.893   1.875 -17.650  0.00  0.00     0.300 C 
ATOM     10  O   UNL d   1       8.261   2.780 -18.191  0.00  0.00    -0.263 OA
BRANCH   9  11
ATOM     11  C   UNL d   1       8.954   0.530 -18.252  0.00  0.00     0.183 A 
ATOM     12  C   UNL d   1       8.277   0.151 -19.376  0.00  0.00     0.049 A 
ATOM     13  C   UNL d   1       8.653  -1.212 -19.521  0.00  0.00     0.088 A 
ATOM     14  C   UNL d   1       8.257  -2.178 -20.599  0.00  0.00     0.055 C 
ATOM     15  N   UNL d   1       9.458  -1.614 -18.544  0.00  0.00    -0.131 NA
ATOM     16  O   UNL d   1       9.664  -0.498 -17.722  0.00  0.00    -0.206 OA
ENDBRANCH   9  11
ENDBRANCH   5   8
ENDBRANCH   1   2
BRANCH   1  17
ATOM     17  C   UNL d   1       8.707   5.154 -10.514  0.00  0.00     0.250 C 
BRANCH  17  18
ATOM     18  N   UNL d   1       9.110   6.117  -9.492  0.00  0.00     0.137 N 
ATOM     19  C   UNL d   1       8.556   5.713  -8.194  0.00  0.00     0.251 C 
ATOM     20  C   UNL d   1       8.930   6.740  -7.107  0.00  0.00     0.040 C 
ATOM     21  C   UNL d   1      10.453   6.917  -7.006  0.00  0.00     0.028 C 
ATOM     22  C   UNL d   1      11.028   7.202  -8.385  0.00  0.00     0.040 C 
ATOM     23  C   UNL d   1      10.568   6.149  -9.376  0.00  0.00     0.251 C 
BRANCH  21  24
ATOM     24  C   UNL d   1      10.816   8.038  -6.072  0.00  0.00     0.004 A 
ATOM     25  C   UNL d   1      11.387   7.934  -4.761  0.00  0.00     0.021 A 
ATOM     26  C   UNL d   1      11.509   9.262  -4.290  0.00  0.00     0.100 A 
ATOM     27  C   UNL d   1      11.787   6.894  -3.888  0.00  0.00     0.002 A 
ATOM     28  O   UNL d   1      11.061  10.145  -5.247  0.00  0.00    -0.305 OA
ATOM     29  C   UNL d   1      11.996   9.567  -3.015  0.00  0.00     0.025 A 
ATOM     30  C   UNL d   1      10.658   9.384  -6.303  0.00  0.00     0.118 A 
ATOM     31  C   UNL d   1      12.388   8.523  -2.169  0.00  0.00     0.002 A 
ATOM     32  C   UNL d   1      12.273   7.186  -2.593  0.00  0.00     0.000 A 
ENDBRANCH  21  24
ENDBRANCH  17  18
ENDBRANCH   1  17
TORSDOF 6
