REMARK  7 active torsions:
REMARK  status: ('A' for Active; 'I' for Inactive)
REMARK    1  A    between atoms: N_2  and  C_4 
REMARK    2  A    between atoms: C_7  and  C_8 
REMARK    3  A    between atoms: N_12  and  C_13 
REMARK    4  A    between atoms: C_13  and  C_14 
REMARK    5  A    between atoms: C_14  and  C_15 
REMARK    6  A    between atoms: C_15  and  C_16 
REMARK    7  A    between atoms: C_16  and  C_18 
ROOT
ATOM      1  C   UNL d   1       9.885   7.663  -7.977  0.00  0.00     0.149 C 
ATOM      2  O   UNL d   1       8.719   8.458  -7.876  0.00  0.00    -0.221 OA
ATOM      3  C   UNL d   1      10.734   8.287  -9.103  0.00  0.00     0.070 C 
ATOM      4  C   UNL d   1      10.102   8.076 -10.497  0.00  0.00     0.253 C 
ATOM      5  N   UNL d   1       9.875   6.661 -10.800  0.00  0.00     0.137 N 
ATOM      6  C   UNL d   1       8.977   6.041  -9.827  0.00  0.00     0.253 C 
ATOM      7  C   UNL d   1       9.538   6.203  -8.420  0.00  0.00     0.070 C 
ENDROOT
BRANCH   5   8
ATOM      8  C   UNL d   1       9.354   6.517 -12.158  0.00  0.00     0.251 C 
BRANCH   8   9
ATOM      9  C   UNL d   1       9.592   5.089 -12.677  0.00  0.00     0.043 C 
BRANCH   9  10
ATOM     10  C   UNL d   1       9.170   4.950 -14.146  0.00  0.00     0.071 C 
BRANCH  10  11
ATOM     11  C   UNL d   1       9.216   3.497 -14.640  0.00  0.00     0.173 C 
ATOM     12  O   UNL d   1      10.231   3.100 -15.216  0.00  0.00    -0.291 OA
BRANCH  11  13
ATOM     13  C   UNL d   1       8.034   2.621 -14.386  0.00  0.00     0.035 A 
ATOM     14  C   UNL d   1       8.072   1.289 -14.836  0.00  0.00     0.005 A 
ATOM     15  C   UNL d   1       6.997   0.400 -14.590  0.00  0.00     0.030 A 
ATOM     16  C   UNL d   1       5.872   0.863 -13.876  0.00  0.00     0.140 A 
ATOM     17  C   UNL d   1       5.832   2.185 -13.413  0.00  0.00     0.030 A 
ATOM     18  F   UNL d   1       4.838   0.022 -13.623  0.00  0.00    -0.204 F 
ATOM     19  C   UNL d   1       6.891   3.074 -13.663  0.00  0.00     0.005 A 
ENDBRANCH  11  13
ENDBRANCH  10  11
ENDBRANCH   9  10
ENDBRANCH   8   9
ENDBRANCH   5   8
BRANCH   1  20
ATOM     20  C   UNL d   1      10.626   7.746  -6.626  0.00  0.00     0.005 A 
ATOM     21  C   UNL d   1      10.927   8.990  -6.026  0.00  0.00    -0.001 A 
ATOM     22  C   UNL d   1      11.542   9.060  -4.752  0.00  0.00     0.017 A 
ATOM     23  C   UNL d   1      11.848   7.865  -4.046  0.00  0.00     0.056 A 
ATOM     24  C   UNL d   1      11.529   6.643  -4.647  0.00  0.00     0.017 A 
ATOM     25  C   UNL d   1      10.956   6.575  -5.914  0.00  0.00    -0.001 A 
BRANCH  23  26
ATOM     26  N   UNL d   1      12.390   7.854  -2.753  0.00  0.00    -0.344 N 
ATOM     27  C   UNL d   1      12.580   6.592  -2.030  0.00  0.00     0.126 C 
ATOM     28  C   UNL d   1      12.756   9.111  -2.148  0.00  0.00     0.126 C 
ENDBRANCH  23  26
ENDBRANCH   1  20
TORSDOF 7
