REMARK  3 active torsions:
REMARK  status: ('A' for Active; 'I' for Inactive)
REMARK    1  A    between atoms: C_2  and  C_3 
REMARK    2  A    between atoms: C_3  and  N_4 
REMARK    3  A    between atoms: C_13  and  O_14 
ROOT
ATOM      1  N   UNL d   1      11.068   4.960 -15.023  0.00  0.00     0.140 N 
ATOM      2  C   UNL d   1      10.920   3.917 -16.043  0.00  0.00     0.251 C 
ATOM      3  C   UNL d   1       9.732   3.063 -15.636  0.00  0.00     0.042 C 
ATOM      4  C   UNL d   1       9.329   3.646 -14.292  0.00  0.00     0.057 C 
ATOM      5  C   UNL d   1       7.889   3.469 -13.833  0.00  0.00    -0.002 A 
ATOM      6  C   UNL d   1       7.315   4.490 -13.022  0.00  0.00    -0.024 A 
ATOM      7  C   UNL d   1       6.012   4.330 -12.526  0.00  0.00    -0.004 A 
ATOM      8  C   UNL d   1       5.283   3.175 -12.835  0.00  0.00     0.002 A 
ATOM      9  C   UNL d   1       5.845   2.165 -13.625  0.00  0.00     0.024 A 
ATOM     10  C   UNL d   1       7.154   2.299 -14.140  0.00  0.00     0.090 A 
ATOM     11  C   UNL d   1       8.069   5.775 -12.681  0.00  0.00     0.028 C 
ATOM     12  C   UNL d   1       9.544   5.830 -13.136  0.00  0.00     0.038 C 
ATOM     13  C   UNL d   1       9.719   5.102 -14.484  0.00  0.00     0.224 C 
ENDROOT
BRANCH   1  14
ATOM     14  C   UNL d   1      11.634   6.191 -15.586  0.00  0.00     0.276 C 
BRANCH  14  15
ATOM     15  C   UNL d   1      13.067   6.085 -16.110  0.00  0.00     0.009 C 
ATOM     16  C   UNL d   1      13.881   5.013 -16.046  0.00  0.00    -0.003 C 
ENDBRANCH  14  15
ENDBRANCH   1  14
BRANCH  10  17
ATOM     17  O   UNL d   1       7.741   1.300 -14.888  0.00  0.00    -0.328 OA
ATOM     18  C   UNL d   1       6.969   0.170 -15.257  0.00  0.00     0.181 C 
ENDBRANCH  10  17
TORSDOF 3
