REMARK  8 active torsions:
REMARK  status: ('A' for Active; 'I' for Inactive)
REMARK    1  A    between atoms: C_6  and  C_7 
REMARK    2  A    between atoms: N_10  and  C_11 
REMARK    3  A    between atoms: C_11  and  C_12 
REMARK    4  A    between atoms: C_12  and  C_13 
REMARK    5  A    between atoms: C_13  and  O_14 
REMARK    6  A    between atoms: O_14  and  C_15 
REMARK    7  A    between atoms: C_18  and  C_19 
REMARK    8  A    between atoms: C_19  and  N_20 
ROOT
ATOM      1  C   UNL d   1       7.633   2.503 -15.163  0.00  0.00     0.253 C 
ENDROOT
BRANCH   1   2
ATOM      2  N   UNL d   1       7.955   3.014 -13.835  0.00  0.00     0.137 N 
ATOM      3  C   UNL d   1       6.953   3.983 -13.393  0.00  0.00     0.251 C 
ATOM      4  C   UNL d   1       7.217   4.443 -11.950  0.00  0.00     0.041 C 
ATOM      5  C   UNL d   1       8.635   5.027 -11.797  0.00  0.00     0.047 C 
ATOM      6  C   UNL d   1       9.673   4.058 -12.395  0.00  0.00     0.041 C 
ATOM      7  C   UNL d   1       9.292   3.611 -13.815  0.00  0.00     0.251 C 
BRANCH   5   8
ATOM      8  C   UNL d   1       8.944   5.404 -10.363  0.00  0.00     0.087 A 
ATOM      9  C   UNL d   1       9.523   6.570  -9.819  0.00  0.00     0.041 A 
ATOM     10  C   UNL d   1      10.001   7.752 -10.429  0.00  0.00     0.006 A 
ATOM     11  C   UNL d   1       9.594   6.446  -8.428  0.00  0.00     0.129 A 
ATOM     12  C   UNL d   1      10.553   8.764  -9.605  0.00  0.00     0.030 A 
ATOM     13  C   UNL d   1      10.605   8.608  -8.196  0.00  0.00     0.142 A 
ATOM     14  F   UNL d   1      11.123   9.589  -7.422  0.00  0.00    -0.204 F 
ATOM     15  C   UNL d   1      10.120   7.432  -7.590  0.00  0.00     0.057 A 
ATOM     16  O   UNL d   1       9.082   5.194  -8.148  0.00  0.00    -0.211 OA
ATOM     17  N   UNL d   1       8.712   4.553  -9.358  0.00  0.00    -0.131 NA
ENDBRANCH   5   8
ENDBRANCH   1   2
BRANCH   1  18
ATOM     18  C   UNL d   1       8.089   1.050 -15.338  0.00  0.00     0.068 C 
BRANCH  18  19
ATOM     19  C   UNL d   1       7.692   0.477 -16.719  0.00  0.00     0.151 C 
BRANCH  19  20
ATOM     20  O   UNL d   1       8.170   1.300 -17.781  0.00  0.00    -0.331 OA
BRANCH  20  21
ATOM     21  C   UNL d   1       9.517   1.304 -18.077  0.00  0.00     0.094 A 
ATOM     22  C   UNL d   1      10.449   0.378 -17.546  0.00  0.00     0.024 A 
ATOM     23  C   UNL d   1      11.805   0.455 -17.901  0.00  0.00    -0.000 A 
ATOM     24  C   UNL d   1      12.252   1.460 -18.779  0.00  0.00     0.011 A 
ATOM     25  C   UNL d   1      11.336   2.379 -19.320  0.00  0.00    -0.000 A 
ATOM     26  C   UNL d   1       9.975   2.299 -18.971  0.00  0.00     0.024 A 
BRANCH  24  27
ATOM     27  C   UNL d   1      13.719   1.541 -19.136  0.00  0.00     0.277 C 
BRANCH  27  28
ATOM     28  N   UNL d   1      13.990   1.294 -20.553  0.00  0.00     0.147 N 
ATOM     29  C   UNL d   1      15.383   1.562 -20.893  0.00  0.00     0.283 C 
ATOM     30  C   UNL d   1      16.348   0.496 -20.329  0.00  0.00     0.178 C 
ATOM     31  O   UNL d   1      15.952  -0.797 -20.782  0.00  0.00    -0.350 OA
ATOM     32  C   UNL d   1      14.609  -1.133 -20.432  0.00  0.00     0.178 C 
ATOM     33  C   UNL d   1      13.646  -0.063 -20.987  0.00  0.00     0.283 C 
ENDBRANCH  27  28
ENDBRANCH  24  27
ENDBRANCH  20  21
ENDBRANCH  19  20
ENDBRANCH  18  19
ENDBRANCH   1  18
TORSDOF 8
