REMARK  6 active torsions:
REMARK  status: ('A' for Active; 'I' for Inactive)
REMARK    1  A    between atoms: C_2  and  O_4 
REMARK    2  A    between atoms: O_4  and  C_5 
REMARK    3  A    between atoms: C_10  and  N_11 
REMARK    4  A    between atoms: N_14  and  C_15 
REMARK    5  A    between atoms: C_18  and  N_19 
REMARK       I    between atoms: N_19  and  C_20 
REMARK       I    between atoms: C_20  and  N_22 
REMARK    6  A    between atoms: N_22  and  C_23 
ROOT
ATOM      1  C   UNL d   1       9.474   5.526 -11.032  0.00  0.00     0.220 C 
ATOM      2  C   UNL d   1       8.844   4.770  -9.848  0.00  0.00     0.035 C 
ATOM      3  C   UNL d   1       9.208   5.283  -8.491  0.00  0.00     0.026 C 
ATOM      4  C   UNL d   1       8.896   6.761  -8.491  0.00  0.00     0.108 C 
ATOM      5  C   UNL d   1       9.640   7.544  -9.609  0.00  0.00     0.026 C 
ATOM      6  C   UNL d   1       9.256   7.020 -11.005  0.00  0.00     0.035 C 
ENDROOT
BRANCH   1   7
ATOM      7  N   UNL d   1       9.200   4.944 -12.365  0.00  0.00     0.139 N 
ATOM      8  C   UNL d   1       9.860   3.645 -12.601  0.00  0.00     0.274 C 
ATOM      9  C   UNL d   1       9.616   3.101 -14.017  0.00  0.00     0.137 C 
ATOM     10  N   UNL d   1       8.194   3.077 -14.276  0.00  0.00    -0.343 N 
ATOM     11  C   UNL d   1       7.490   4.309 -13.995  0.00  0.00     0.137 C 
ATOM     12  C   UNL d   1       7.761   4.761 -12.570  0.00  0.00     0.274 C 
BRANCH  10  13
ATOM     13  C   UNL d   1       7.530   1.928 -14.781  0.00  0.00     0.079 A 
ATOM     14  C   UNL d   1       8.103   1.210 -15.844  0.00  0.00     0.109 A 
ATOM     15  C   UNL d   1       7.400   0.065 -16.336  0.00  0.00     0.026 A 
ATOM     16  C   UNL d   1       6.171  -0.310 -15.774  0.00  0.00     0.002 A 
ATOM     17  C   UNL d   1       5.618   0.413 -14.711  0.00  0.00     0.002 A 
ATOM     18  C   UNL d   1       6.306   1.545 -14.212  0.00  0.00     0.019 A 
BRANCH  14  19
ATOM     19  O   UNL d   1       9.289   1.667 -16.377  0.00  0.00    -0.332 OA
BRANCH  19  20
ATOM     20  C   UNL d   1       9.913   1.012 -17.466  0.00  0.00     0.122 C 
ATOM     21  C   UNL d   1      11.363   1.519 -17.499  0.00  0.00     0.033 C 
ATOM     22  C   UNL d   1       9.171   1.374 -18.764  0.00  0.00     0.033 C 
ENDBRANCH  19  20
ENDBRANCH  14  19
ENDBRANCH  10  13
ENDBRANCH   1   7
BRANCH   4  23
ATOM     23  N   UNL d   1       9.172   7.313  -7.191  0.00  0.00    -0.219 NA
ATOM     24  C   UNL d   1      10.367   7.237  -6.593  0.00  0.00     0.364 C 
ATOM     25  O   UNL d   1      11.462   7.040  -7.144  0.00  0.00    -0.243 OA
ATOM     26  N   UNL d   1      10.277   7.322  -5.277  0.00  0.00    -0.190 NA
BRANCH  26  27
ATOM     27  C   UNL d   1      11.299   7.706  -4.439  0.00  0.00     0.097 A 
ATOM     28  C   UNL d   1      11.709   9.039  -4.392  0.00  0.00     0.075 A 
ATOM     29  C   UNL d   1      12.589   9.374  -3.374  0.00  0.00     0.013 A 
ATOM     30 CL   UNL d   1      11.058  10.285  -5.416  0.00  0.00    -0.081 Cl
ATOM     31  C   UNL d   1      13.055   8.466  -2.412  0.00  0.00     0.001 A 
ATOM     32  C   UNL d   1      12.598   7.148  -2.472  0.00  0.00     0.002 A 
ATOM     33  C   UNL d   1      11.706   6.762  -3.466  0.00  0.00     0.020 A 
ENDBRANCH  26  27
ENDBRANCH   4  23
TORSDOF 6
