REMARK  8 active torsions:
REMARK  status: ('A' for Active; 'I' for Inactive)
REMARK    1  A    between atoms: C_4  and  C_5 
REMARK    2  A    between atoms: C_8  and  S_9 
REMARK    3  A    between atoms: S_9  and  C_10 
REMARK    4  A    between atoms: C_10  and  C_11 
REMARK    5  A    between atoms: C_11  and  C_12 
REMARK    6  A    between atoms: C_12  and  N_13 
REMARK    7  A    between atoms: C_18  and  C_19 
REMARK    8  A    between atoms: C_22  and  C_23 
ROOT
ATOM      1  N   UNL d   1       9.734   4.277 -14.470  0.00  0.00     0.137 N 
ATOM      2  C   UNL d   1       8.859   3.133 -14.259  0.00  0.00     0.250 C 
ATOM      3  C   UNL d   1       7.622   3.727 -13.572  0.00  0.00     0.038 C 
ATOM      4  C   UNL d   1       8.146   4.957 -12.891  0.00  0.00     0.037 A 
ATOM      5  C   UNL d   1       7.289   6.204 -12.809  0.00  0.00     0.007 A 
ATOM      6  C   UNL d   1       7.643   5.451 -11.553  0.00  0.00     0.024 A 
ATOM      7  C   UNL d   1       9.632   4.994 -13.219  0.00  0.00     0.251 C 
ENDROOT
BRANCH   1   8
ATOM      8  C   UNL d   1      11.119   3.934 -14.766  0.00  0.00     0.251 C 
BRANCH   8   9
ATOM      9  C   UNL d   1      11.257   3.224 -16.126  0.00  0.00     0.047 C 
BRANCH   9  10
ATOM     10  C   UNL d   1      11.080   1.694 -16.023  0.00  0.00     0.067 C 
BRANCH  10  11
ATOM     11  S   UNL d   1      10.946   0.913 -17.656  0.00  0.00    -0.075 SA
BRANCH  11  12
ATOM     12  C   UNL d   1       9.185   0.943 -17.812  0.00  0.00     0.193 A 
ATOM     13  N   UNL d   1       8.431   2.002 -17.517  0.00  0.00    -0.122 NA
ATOM     14  N   UNL d   1       7.131   1.591 -17.703  0.00  0.00    -0.126 NA
ATOM     15  C   UNL d   1       7.198   0.330 -18.122  0.00  0.00     0.192 A 
ATOM     16  N   UNL d   1       8.473  -0.123 -18.231  0.00  0.00    -0.287 N 
ATOM     17  C   UNL d   1       8.950  -1.413 -18.694  0.00  0.00     0.134 C 
BRANCH  15  18
ATOM     18  C   UNL d   1       5.998  -0.425 -18.465  0.00  0.00     0.162 A 
ATOM     19  C   UNL d   1       5.705  -1.755 -18.407  0.00  0.00     0.047 A 
ATOM     20  C   UNL d   1       4.373  -1.831 -18.899  0.00  0.00     0.088 A 
ATOM     21  C   UNL d   1       3.516  -3.049 -19.056  0.00  0.00     0.055 C 
ATOM     22  N   UNL d   1       3.908  -0.641 -19.239  0.00  0.00    -0.131 NA
ATOM     23  O   UNL d   1       4.942   0.265 -18.974  0.00  0.00    -0.208 OA
ENDBRANCH  15  18
ENDBRANCH  11  12
ENDBRANCH  10  11
ENDBRANCH   9  10
ENDBRANCH   8   9
ENDBRANCH   1   8
BRANCH   6  24
ATOM     24  C   UNL d   1       8.627   5.982 -10.543  0.00  0.00    -0.022 A 
ATOM     25  C   UNL d   1       9.500   7.041 -10.892  0.00  0.00    -0.004 A 
ATOM     26  C   UNL d   1      10.413   7.550  -9.966  0.00  0.00     0.004 A 
ATOM     27  C   UNL d   1      10.460   7.022  -8.657  0.00  0.00     0.071 A 
ATOM     28  C   UNL d   1       9.582   5.985  -8.293  0.00  0.00     0.004 A 
ATOM     29  C   UNL d   1       8.675   5.457  -9.236  0.00  0.00    -0.004 A 
BRANCH  27  30
ATOM     30  C   UNL d   1      11.459   7.590  -7.670  0.00  0.00     0.419 C 
ATOM     31  F   UNL d   1      10.895   8.589  -6.991  0.00  0.00    -0.166 F 
ATOM     32  F   UNL d   1      11.842   6.636  -6.820  0.00  0.00    -0.166 F 
ATOM     33  F   UNL d   1      12.538   8.051  -8.303  0.00  0.00    -0.166 F 
ENDBRANCH  27  30
ENDBRANCH   6  24
TORSDOF 8
