REMARK  1 active torsions:
REMARK  status: ('A' for Active; 'I' for Inactive)
REMARK    1  A    between atoms: C_7  and  C_8 
ROOT
ATOM      1  N   UNL d   1       8.914   5.524  -8.354  0.00  0.00     0.063 N 
ATOM      2  C   UNL d   1       9.837   6.508  -8.146  0.00  0.00     0.785 A 
ATOM      3  N   UNL d   1      10.431   6.997  -9.233  0.00  0.00     0.137 NA
ATOM      4  C   UNL d   1      11.382   7.869  -8.931  0.00  0.00     0.785 A 
ATOM      5  N   UNL d   1      12.079   8.388  -9.989  0.00  0.00     0.063 N 
ATOM      6  N   UNL d   1      11.782   8.258  -7.723  0.00  0.00    -0.038 NA
ATOM      7  C   UNL d   1      11.076   7.695  -6.736  0.00  0.00     0.200 A 
ATOM      8  N   UNL d   1      10.089   6.808  -6.873  0.00  0.00    -0.038 NA
ENDROOT
BRANCH   7   9
ATOM      9  C   UNL d   1      11.454   8.048  -5.353  0.00  0.00     0.049 A 
ATOM     10  C   UNL d   1      11.468   9.393  -4.911  0.00  0.00     0.061 A 
ATOM     11  C   UNL d   1      11.807   9.713  -3.581  0.00  0.00     0.012 A 
ATOM     12 CL   UNL d   1      11.075  10.671  -5.971  0.00  0.00    -0.082 Cl
ATOM     13  C   UNL d   1      12.190   8.718  -2.689  0.00  0.00     0.012 A 
ATOM     14  C   UNL d   1      12.179   7.397  -3.134  0.00  0.00     0.058 A 
ATOM     15  C   UNL d   1      11.810   7.035  -4.443  0.00  0.00     0.015 A 
ATOM     16 CL   UNL d   1      12.658   6.214  -2.034  0.00  0.00    -0.082 Cl
ENDBRANCH   7   9
TORSDOF 1
