REMARK  3 active torsions:
REMARK  status: ('A' for Active; 'I' for Inactive)
REMARK    1  A    between atoms: C_2  and  N_3 
REMARK    2  A    between atoms: C_5  and  C_6 
REMARK    3  A    between atoms: C_14  and  N_15 
ROOT
ATOM      1  N   UNL d   1      10.995   8.097  -9.345  0.00  0.00    -0.311 N 
ATOM      2  C   UNL d   1      10.336   7.668 -10.480  0.00  0.00     0.086 C 
ATOM      3  C   UNL d   1       9.405   6.704 -10.530  0.00  0.00     0.120 C 
ATOM      4  C   UNL d   1       8.966   6.157  -9.245  0.00  0.00     0.207 C 
ATOM      5  O   UNL d   1       8.203   5.210  -9.188  0.00  0.00    -0.286 OA
ATOM      6  C   UNL d   1       9.488   6.807  -8.035  0.00  0.00     0.094 C 
ATOM      7  C   UNL d   1       9.056   6.451  -6.774  0.00  0.00     0.124 C 
ATOM      8  N   UNL d   1       9.778   6.790  -5.687  0.00  0.00    -0.059 NA
ATOM      9  C   UNL d   1      10.690   7.772  -5.828  0.00  0.00     0.729 C 
ATOM     10  N   UNL d   1      10.993   8.373  -6.978  0.00  0.00    -0.044 NA
ATOM     11  C   UNL d   1      10.473   7.806  -8.088  0.00  0.00     0.167 C 
ENDROOT
BRANCH   9  12
ATOM     12  N   UNL d   1      11.389   8.164  -4.715  0.00  0.00    -0.183 N 
ATOM     13  C   UNL d   1      11.787   7.284  -3.635  0.00  0.00     0.120 C 
ATOM     14  C   UNL d   1      12.166   8.206  -2.482  0.00  0.00     0.027 C 
ATOM     15  C   UNL d   1      12.412   9.552  -3.149  0.00  0.00     0.027 C 
ATOM     16  C   UNL d   1      11.519   9.556  -4.378  0.00  0.00     0.120 C 
ENDBRANCH   9  12
BRANCH   1  17
ATOM     17  C   UNL d   1      12.135   8.979  -9.421  0.00  0.00     0.108 C 
ATOM     18  C   UNL d   1      13.458   8.428  -8.822  0.00  0.00     0.027 C 
ENDBRANCH   1  17
BRANCH   3  19
ATOM     19  C   UNL d   1       8.888   6.354 -11.853  0.00  0.00     0.215 C 
ATOM     20  O   UNL d   1       9.583   5.972 -12.795  0.00  0.00    -0.644 OA
ATOM     21  O   UNL d   1       7.544   6.577 -11.989  0.00  0.00    -0.644 OA
ENDBRANCH   3  19
TORSDOF 3
