REMARK  6 active torsions:
REMARK  status: ('A' for Active; 'I' for Inactive)
REMARK    1  A    between atoms: C_2  and  N_3 
REMARK    2  A    between atoms: C_7  and  C_8 
REMARK    3  A    between atoms: C_8  and  N_9 
REMARK       I    between atoms: N_9  and  C_10 
REMARK    4  A    between atoms: C_10  and  C_12 
REMARK    5  A    between atoms: C_14  and  N_15 
REMARK    6  A    between atoms: C_21  and  O_22 
ROOT
ATOM      1  C   UNL d   1       9.031   3.268 -13.992  0.00  0.00     0.084 A 
ATOM      2  C   UNL d   1       7.669   2.860 -13.957  0.00  0.00     0.030 A 
ATOM      3  C   UNL d   1       7.271   1.599 -14.439  0.00  0.00     0.129 A 
ATOM      4  C   UNL d   1       8.220   0.749 -15.029  0.00  0.00     0.053 A 
ATOM      5  C   UNL d   1       9.563   1.150 -15.122  0.00  0.00     0.155 A 
ATOM      6  O   UNL d   1      10.464   0.282 -15.675  0.00  0.00    -0.188 OA
ATOM      7  C   UNL d   1       9.973   2.415 -14.633  0.00  0.00     0.124 A 
ENDROOT
BRANCH   1   8
ATOM      8  C   UNL d   1       9.438   4.597 -13.387  0.00  0.00     0.277 C 
ATOM      9  N   UNL d   1       8.633   5.074 -12.419  0.00  0.00    -0.232 NA
ATOM     10  O   UNL d   1      10.464   5.185 -13.729  0.00  0.00    -0.266 OA
BRANCH   9  11
ATOM     11  C   UNL d   1       8.811   6.359 -11.746  0.00  0.00     0.162 C 
BRANCH  11  12
ATOM     12  C   UNL d   1       9.518   6.170 -10.382  0.00  0.00     0.243 C 
ATOM     13  N   UNL d   1       9.800   7.426  -9.688  0.00  0.00     0.137 N 
ATOM     14  C   UNL d   1      10.084   7.014  -8.317  0.00  0.00     0.250 C 
ATOM     15  C   UNL d   1       9.051   5.943  -8.021  0.00  0.00     0.037 C 
ATOM     16  C   UNL d   1       8.678   5.376  -9.380  0.00  0.00     0.037 C 
BRANCH  13  17
ATOM     17  C   UNL d   1      10.900   8.170 -10.277  0.00  0.00     0.250 C 
ATOM     18  C   UNL d   1      11.068   9.512  -9.577  0.00  0.00     0.037 C 
ENDBRANCH  13  17
ENDBRANCH  11  12
ENDBRANCH   9  11
ENDBRANCH   1   8
BRANCH   7  19
ATOM     19  O   UNL d   1      11.294   2.778 -14.748  0.00  0.00    -0.326 OA
ATOM     20  C   UNL d   1      11.656   3.170 -16.065  0.00  0.00     0.181 C 
ENDBRANCH   7  19
BRANCH   3  21
ATOM     21  N   UNL d   1       5.900   1.120 -14.220  0.00  0.00    -0.114 N 
ATOM     22  O   UNL d   1       5.429   0.326 -15.017  0.00  0.00    -0.532 OA
ATOM     23  O   UNL d   1       5.315   1.529 -13.218  0.00  0.00    -0.532 OA
ENDBRANCH   3  21
TORSDOF 6
