REMARK  3 active torsions:
REMARK  status: ('A' for Active; 'I' for Inactive)
REMARK    1  A    between atoms: C_8  and  N_9 
REMARK    2  A    between atoms: N_12  and  C_13 
REMARK    3  A    between atoms: C_13  and  C_14 
ROOT
ATOM      1  N   UNL d   1       7.065   2.200 -14.348  0.00  0.00    -0.343 N 
ATOM      2  C   UNL d   1       6.108   2.779 -13.399  0.00  0.00     0.137 C 
ATOM      3  C   UNL d   1       6.323   4.301 -13.307  0.00  0.00     0.274 C 
ATOM      4  N   UNL d   1       7.720   4.646 -12.989  0.00  0.00     0.141 N 
ATOM      5  C   UNL d   1       8.608   4.106 -14.035  0.00  0.00     0.274 C 
ATOM      6  C   UNL d   1       8.468   2.574 -14.151  0.00  0.00     0.137 C 
ENDROOT
BRANCH   4   7
ATOM      7  C   UNL d   1       7.888   6.106 -12.874  0.00  0.00     0.251 C 
BRANCH   7   8
ATOM      8  C   UNL d   1       8.915   6.484 -11.761  0.00  0.00     0.040 C 
ATOM      9  C   UNL d   1       8.483   5.978 -10.378  0.00  0.00     0.048 C 
ATOM     10  C   UNL d   1       9.246   6.581  -9.259  0.00  0.00     0.055 A 
ATOM     11  C   UNL d   1      10.030   7.692  -9.306  0.00  0.00    -0.007 A 
ATOM     12  N   UNL d   1       9.159   6.120  -7.969  0.00  0.00    -0.250 NA
ATOM     13  C   UNL d   1      10.222   8.453 -10.584  0.00  0.00     0.028 C 
ATOM     14  C   UNL d   1      10.540   7.879  -7.959  0.00  0.00     0.017 A 
ATOM     15  C   UNL d   1       9.204   8.011 -11.707  0.00  0.00     0.007 C 
ATOM     16  C   UNL d   1       9.948   6.866  -7.136  0.00  0.00     0.081 A 
ATOM     17  C   UNL d   1      11.416   8.780  -7.301  0.00  0.00     0.031 A 
ATOM     18  C   UNL d   1      10.173   6.771  -5.762  0.00  0.00     0.021 A 
ATOM     19  C   UNL d   1      11.069   7.658  -5.150  0.00  0.00     0.031 A 
ATOM     20  C   UNL d   1      11.656   8.693  -5.915  0.00  0.00     0.140 A 
ATOM     21  F   UNL d   1      12.503   9.565  -5.325  0.00  0.00    -0.204 F 
ENDBRANCH   7   8
ENDBRANCH   4   7
BRANCH   1  22
ATOM     22  C   UNL d   1       6.679   1.303 -15.371  0.00  0.00     0.081 A 
ATOM     23  C   UNL d   1       7.309   1.328 -16.645  0.00  0.00     0.019 A 
ATOM     24  C   UNL d   1       6.883   0.478 -17.703  0.00  0.00     0.003 A 
ATOM     25  C   UNL d   1       5.809  -0.420 -17.520  0.00  0.00     0.021 A 
ATOM     26  C   UNL d   1       5.212  -0.439 -16.254  0.00  0.00     0.111 A 
ATOM     27  N   UNL d   1       4.127  -1.163 -15.766  0.00  0.00    -0.184 NA
ATOM     28  C   UNL d   1       5.632   0.373 -15.216  0.00  0.00     0.138 A 
ATOM     29  C   UNL d   1       3.907  -0.797 -14.439  0.00  0.00     0.392 A 
ATOM     30  O   UNL d   1       3.051  -1.200 -13.653  0.00  0.00    -0.236 OA
ATOM     31  O   UNL d   1       4.845   0.141 -14.126  0.00  0.00    -0.255 OA
ENDBRANCH   1  22
TORSDOF 3
