REMARK  10 active torsions:
REMARK  status: ('A' for Active; 'I' for Inactive)
REMARK    1  A    between atoms: C_2  and  C_3 
REMARK    2  A    between atoms: C_3  and  N_4 
REMARK    3  A    between atoms: N_4  and  C_5 
REMARK    4  A    between atoms: N_4  and  C_8 
REMARK    5  A    between atoms: C_5  and  C_6 
REMARK    6  A    between atoms: C_13  and  C_14 
REMARK    7  A    between atoms: C_14  and  N_15 
REMARK       I    between atoms: N_15  and  C_16 
REMARK    8  A    between atoms: N_15  and  C_20 
REMARK    9  A    between atoms: C_16  and  O_18 
REMARK   10  A    between atoms: C_23  and  O_24 
ROOT
ATOM      1  C   UNL d   1       8.758   4.229 -13.237  0.00  0.00     0.224 C 
ATOM      2  C   UNL d   1       7.516   3.426 -13.680  0.00  0.00     0.038 C 
ATOM      3  C   UNL d   1       7.904   2.116 -14.385  0.00  0.00     0.028 C 
ATOM      4  C   UNL d   1       9.000   2.271 -15.423  0.00  0.00    -0.026 A 
ATOM      5  C   UNL d   1       9.226   1.249 -16.359  0.00  0.00    -0.007 A 
ATOM      6  C   UNL d   1      10.251   1.382 -17.323  0.00  0.00     0.000 A 
ATOM      7  C   UNL d   1      11.062   2.538 -17.325  0.00  0.00    -0.003 A 
ATOM      8  C   UNL d   1      10.838   3.558 -16.400  0.00  0.00    -0.005 A 
ATOM      9  C   UNL d   1       9.813   3.433 -15.440  0.00  0.00    -0.024 A 
ATOM     10  C   UNL d   1       9.606   4.576 -14.469  0.00  0.00     0.059 C 
ENDROOT
BRANCH   6  11
ATOM     11  C   UNL d   1      10.479   0.272 -18.338  0.00  0.00     0.138 C 
BRANCH  11  12
ATOM     12  N   UNL d   1      10.819   0.774 -19.678  0.00  0.00    -0.272 N 
ATOM     13  C   UNL d   1       9.778   1.100 -20.557  0.00  0.00     0.369 C 
ATOM     14  O   UNL d   1       8.572   1.049 -20.294  0.00  0.00    -0.238 OA
BRANCH  13  15
ATOM     15  O   UNL d   1      10.259   1.483 -21.758  0.00  0.00    -0.282 OA
ATOM     16  C   UNL d   1       9.370   1.786 -22.816  0.00  0.00     0.186 C 
ENDBRANCH  13  15
BRANCH  12  17
ATOM     17  C   UNL d   1      12.202   0.901 -20.022  0.00  0.00     0.065 A 
ATOM     18  C   UNL d   1      13.054  -0.219 -19.958  0.00  0.00     0.019 A 
ATOM     19  C   UNL d   1      14.425  -0.089 -20.257  0.00  0.00     0.026 A 
ATOM     20  C   UNL d   1      14.961   1.173 -20.613  0.00  0.00     0.094 A 
ATOM     21  C   UNL d   1      14.105   2.289 -20.679  0.00  0.00     0.026 A 
ATOM     22  C   UNL d   1      12.738   2.159 -20.381  0.00  0.00     0.019 A 
BRANCH  20  23
ATOM     23  O   UNL d   1      16.284   1.399 -20.914  0.00  0.00    -0.328 OA
ATOM     24  C   UNL d   1      17.237   0.472 -20.424  0.00  0.00     0.181 C 
ENDBRANCH  20  23
ENDBRANCH  12  17
ENDBRANCH  11  12
ENDBRANCH   6  11
BRANCH   1  25
ATOM     25  N   UNL d   1       8.381   5.451 -12.494  0.00  0.00     0.135 N 
BRANCH  25  26
ATOM     26  C   UNL d   1       7.864   5.169 -11.150  0.00  0.00     0.250 C 
BRANCH  26  27
ATOM     27  C   UNL d   1       9.004   5.032 -10.098  0.00  0.00     0.035 C 
ATOM     28  C   UNL d   1       8.455   4.687  -8.704  0.00  0.00     0.002 C 
ENDBRANCH  26  27
ENDBRANCH  25  26
BRANCH  25  29
ATOM     29  C   UNL d   1       9.427   6.484 -12.458  0.00  0.00     0.250 C 
BRANCH  29  30
ATOM     30  C   UNL d   1       8.909   7.878 -12.046  0.00  0.00     0.035 C 
ATOM     31  C   UNL d   1       9.454   8.357 -10.691  0.00  0.00     0.002 C 
ENDBRANCH  29  30
ENDBRANCH  25  29
ENDBRANCH   1  25
TORSDOF 10
