REMARK  9 active torsions:
REMARK  status: ('A' for Active; 'I' for Inactive)
REMARK    1  A    between atoms: C_2  and  C_5 
REMARK    2  A    between atoms: C_7  and  N_8 
REMARK    3  A    between atoms: N_11  and  C_12 
REMARK    4  A    between atoms: C_12  and  C_13 
REMARK    5  A    between atoms: C_13  and  C_14 
REMARK    6  A    between atoms: C_14  and  C_15 
REMARK    7  A    between atoms: C_15  and  N_16 
REMARK    8  A    between atoms: C_19  and  C_20 
REMARK    9  A    between atoms: C_29  and  C_30 
ROOT
ATOM      1  N   UNL d   1      12.027   3.223 -17.019  0.00  0.00    -0.330 N 
ATOM      2  C   UNL d   1      11.805   1.987 -16.261  0.00  0.00     0.138 C 
ATOM      3  C   UNL d   1      10.294   1.659 -16.208  0.00  0.00     0.274 C 
ATOM      4  N   UNL d   1       9.528   2.796 -15.678  0.00  0.00     0.141 N 
ATOM      5  C   UNL d   1       9.711   3.934 -16.599  0.00  0.00     0.274 C 
ATOM      6  C   UNL d   1      11.189   4.376 -16.688  0.00  0.00     0.138 C 
ENDROOT
BRANCH   1   7
ATOM      7  C   UNL d   1      12.950   3.268 -18.063  0.00  0.00     0.143 A 
ATOM      8  N   UNL d   1      13.238   2.115 -18.706  0.00  0.00    -0.214 NA
ATOM      9  C   UNL d   1      14.109   2.148 -19.714  0.00  0.00     0.140 A 
ATOM     10  N   UNL d   1      14.764   3.238 -20.128  0.00  0.00    -0.227 NA
ATOM     11  C   UNL d   1      14.491   4.404 -19.506  0.00  0.00     0.157 A 
ATOM     12  C   UNL d   1      13.564   4.472 -18.444  0.00  0.00     0.060 A 
BRANCH   9  13
ATOM     13  C   UNL d   1      14.507   0.806 -20.347  0.00  0.00     0.052 C 
ATOM     14  C   UNL d   1      15.936   0.442 -19.905  0.00  0.00     0.008 C 
ATOM     15  C   UNL d   1      14.442   0.884 -21.884  0.00  0.00     0.008 C 
ATOM     16  C   UNL d   1      13.549  -0.338 -19.923  0.00  0.00     0.008 C 
ENDBRANCH   9  13
BRANCH  11  17
ATOM     17  C   UNL d   1      15.239   5.639 -19.991  0.00  0.00     0.435 C 
ATOM     18  F   UNL d   1      14.872   6.730 -19.317  0.00  0.00    -0.165 F 
ATOM     19  F   UNL d   1      16.553   5.471 -19.825  0.00  0.00    -0.165 F 
ATOM     20  F   UNL d   1      14.994   5.842 -21.288  0.00  0.00    -0.165 F 
ENDBRANCH  11  17
ENDBRANCH   1   7
BRANCH   4  21
ATOM     21  C   UNL d   1       9.900   3.068 -14.286  0.00  0.00     0.251 C 
BRANCH  21  22
ATOM     22  C   UNL d   1       8.942   4.034 -13.585  0.00  0.00     0.037 C 
BRANCH  22  23
ATOM     23  C   UNL d   1       9.549   4.519 -12.267  0.00  0.00     0.027 C 
BRANCH  23  24
ATOM     24  C   UNL d   1       8.577   5.402 -11.476  0.00  0.00     0.111 C 
BRANCH  24  25
ATOM     25  N   UNL d   1       9.239   6.034 -10.328  0.00  0.00    -0.279 N 
ATOM     26  C   UNL d   1       9.227   5.459  -9.083  0.00  0.00     0.350 A 
ATOM     27  N   UNL d   1       9.879   6.132  -8.039  0.00  0.00    -0.197 NA
ATOM     28  O   UNL d   1       8.669   4.387  -8.880  0.00  0.00    -0.244 OA
ATOM     29  C   UNL d   1      10.433   7.267  -8.223  0.00  0.00     0.065 A 
ATOM     30  C   UNL d   1      10.466   7.924  -9.544  0.00  0.00     0.034 A 
ATOM     31  C   UNL d   1       9.859   7.276 -10.545  0.00  0.00     0.081 A 
BRANCH  29  32
ATOM     32  C   UNL d   1      11.085   7.994  -7.071  0.00  0.00     0.041 A 
ATOM     33  C   UNL d   1      10.255   8.797  -6.092  0.00  0.00     0.006 A 
ATOM     34  C   UNL d   1      10.910   7.516  -5.636  0.00  0.00     0.006 A 
ENDBRANCH  29  32
ENDBRANCH  24  25
ENDBRANCH  23  24
ENDBRANCH  22  23
ENDBRANCH  21  22
ENDBRANCH   4  21
TORSDOF 9
