REMARK  5 active torsions:
REMARK  status: ('A' for Active; 'I' for Inactive)
REMARK    1  A    between atoms: C_5  and  C_6 
REMARK    2  A    between atoms: C_6  and  N_7 
REMARK    3  A    between atoms: C_8  and  S_9 
REMARK    4  A    between atoms: S_9  and  C_10 
REMARK    5  A    between atoms: C_10  and  C_11 
ROOT
ATOM      1  N   UNL d   1      11.290   2.896 -17.841  0.00  0.00    -0.303 N 
ATOM      2  C   UNL d   1      11.016   3.873 -16.930  0.00  0.00     0.172 A 
ATOM      3  N   UNL d   1      11.991   4.752 -16.706  0.00  0.00    -0.221 NA
ATOM      4  C   UNL d   1      12.963   4.349 -17.582  0.00  0.00     0.099 A 
ATOM      5  C   UNL d   1      14.220   4.916 -17.834  0.00  0.00     0.021 A 
ATOM      6  C   UNL d   1      15.063   4.355 -18.817  0.00  0.00     0.002 A 
ATOM      7  C   UNL d   1      14.657   3.218 -19.544  0.00  0.00     0.002 A 
ATOM      8  C   UNL d   1      13.402   2.630 -19.302  0.00  0.00     0.019 A 
ATOM      9  C   UNL d   1      12.564   3.198 -18.321  0.00  0.00     0.080 A 
ENDROOT
BRANCH   1  10
ATOM     10  C   UNL d   1      10.461   1.782 -18.314  0.00  0.00     0.135 C 
BRANCH  10  11
ATOM     11  C   UNL d   1       9.550   1.254 -17.212  0.00  0.00     0.001 A 
ATOM     12  C   UNL d   1       8.153   1.216 -17.423  0.00  0.00    -0.002 A 
ATOM     13  C   UNL d   1       7.297   0.791 -16.386  0.00  0.00     0.011 A 
ATOM     14  C   UNL d   1       7.839   0.366 -15.160  0.00  0.00     0.058 A 
ATOM     15 CL   UNL d   1       6.783  -0.131 -13.891  0.00  0.00    -0.082 Cl
ATOM     16  C   UNL d   1       9.237   0.361 -14.969  0.00  0.00     0.011 A 
ATOM     17  C   UNL d   1      10.085   0.779 -16.024  0.00  0.00    -0.002 A 
ENDBRANCH  10  11
ENDBRANCH   1  10
BRANCH   2  18
ATOM     18  S   UNL d   1       9.470   3.998 -16.146  0.00  0.00    -0.072 SA
BRANCH  18  19
ATOM     19  C   UNL d   1      10.054   4.238 -14.397  0.00  0.00     0.091 C 
BRANCH  19  20
ATOM     20  C   UNL d   1       8.898   4.682 -13.534  0.00  0.00    -0.011 A 
ATOM     21  C   UNL d   1       8.968   5.928 -12.883  0.00  0.00    -0.003 A 
ATOM     22  C   UNL d   1       7.873   6.389 -12.118  0.00  0.00    -0.000 A 
ATOM     23  C   UNL d   1       6.718   5.594 -11.983  0.00  0.00    -0.000 A 
ATOM     24  C   UNL d   1       6.654   4.333 -12.617  0.00  0.00    -0.000 A 
ATOM     25  C   UNL d   1       7.746   3.882 -13.392  0.00  0.00    -0.003 A 
ENDBRANCH  19  20
ENDBRANCH  18  19
ENDBRANCH   2  18
TORSDOF 5
