REMARK  2 active torsions:
REMARK  status: ('A' for Active; 'I' for Inactive)
REMARK    1  A    between atoms: N_5  and  C_6 
REMARK    2  A    between atoms: C_18  and  C_19 
ROOT
ATOM      1  C   UNL d   1      11.377   0.508 -19.724  0.00  0.00     0.246 C 
ATOM      2  C   UNL d   1      12.043  -0.126 -20.967  0.00  0.00     0.065 C 
ATOM      3  C   UNL d   1      13.533   0.149 -21.107  0.00  0.00    -0.014 A 
ATOM      4  C   UNL d   1      14.483  -0.863 -20.865  0.00  0.00    -0.004 A 
ATOM      5  C   UNL d   1      15.855  -0.587 -21.026  0.00  0.00    -0.000 A 
ATOM      6  C   UNL d   1      16.280   0.696 -21.426  0.00  0.00     0.001 A 
ATOM      7  C   UNL d   1      15.331   1.707 -21.670  0.00  0.00     0.006 A 
ATOM      8  C   UNL d   1      13.962   1.424 -21.514  0.00  0.00     0.025 A 
ATOM      9  S   UNL d   1      12.761   2.679 -21.762  0.00  0.00    -0.087 SA
ATOM     10  C   UNL d   1      12.348   2.939 -20.073  0.00  0.00     0.027 A 
ATOM     11  C   UNL d   1      12.576   4.228 -19.553  0.00  0.00     0.006 A 
ATOM     12  C   UNL d   1      12.255   4.528 -18.216  0.00  0.00     0.001 A 
ATOM     13  C   UNL d   1      11.723   3.524 -17.381  0.00  0.00     0.003 A 
ATOM     14  C   UNL d   1      11.529   2.220 -17.898  0.00  0.00    -0.002 A 
ATOM     15  C   UNL d   1      11.798   1.912 -19.252  0.00  0.00     0.015 A 
ENDROOT
BRANCH   1  16
ATOM     16  N   UNL d   1       9.899   0.384 -19.821  0.00  0.00     0.144 N 
ATOM     17  C   UNL d   1       9.302   1.469 -20.614  0.00  0.00     0.286 C 
ATOM     18  C   UNL d   1       7.779   1.314 -20.766  0.00  0.00     0.286 C 
ATOM     19  N   UNL d   1       7.127   1.239 -19.458  0.00  0.00     0.143 N 
ATOM     20  C   UNL d   1       5.682   1.104 -19.602  0.00  0.00     0.285 C 
ATOM     21  C   UNL d   1       7.690   0.126 -18.697  0.00  0.00     0.286 C 
ATOM     22  C   UNL d   1       9.205   0.307 -18.527  0.00  0.00     0.286 C 
ENDBRANCH   1  16
BRANCH  13  23
ATOM     23  C   UNL d   1      11.333   3.826 -16.003  0.00  0.00     0.040 A 
ATOM     24  C   UNL d   1      10.339   3.253 -15.249  0.00  0.00     0.097 A 
ATOM     25  N   UNL d   1      10.407   3.858 -14.011  0.00  0.00    -0.248 N 
ATOM     26  N   UNL d   1      11.383   4.787 -13.947  0.00  0.00    -0.168 NA
ATOM     27  C   UNL d   1       9.587   3.615 -12.846  0.00  0.00     0.154 C 
ATOM     28  C   UNL d   1      11.934   4.784 -15.148  0.00  0.00     0.122 A 
ENDBRANCH  13  23
TORSDOF 2
