REMARK  5 active torsions:
REMARK  status: ('A' for Active; 'I' for Inactive)
REMARK    1  A    between atoms: N_11  and  C_12 
REMARK    2  A    between atoms: C_12  and  C_13 
REMARK    3  A    between atoms: C_13  and  C_14 
REMARK    4  A    between atoms: C_14  and  N_15 
REMARK    5  A    between atoms: C_18  and  N_19 
ROOT
ATOM      1  N   UNL d   1       8.714   4.601 -12.872  0.00  0.00     0.137 N 
ATOM      2  C   UNL d   1       8.782   6.063 -12.786  0.00  0.00     0.252 C 
ATOM      3  C   UNL d   1       8.686   6.550 -11.336  0.00  0.00     0.058 C 
ATOM      4  C   UNL d   1       9.789   5.934 -10.475  0.00  0.00     0.094 C 
ATOM      5  C   UNL d   1       9.673   4.375 -10.649  0.00  0.00     0.058 C 
ATOM      6  C   UNL d   1       9.828   3.994 -12.140  0.00  0.00     0.252 C 
ENDROOT
BRANCH   1   7
ATOM      7  C   UNL d   1       8.755   4.188 -14.263  0.00  0.00     0.252 C 
BRANCH   7   8
ATOM      8  C   UNL d   1       8.229   2.750 -14.422  0.00  0.00     0.060 C 
BRANCH   8   9
ATOM      9  C   UNL d   1       7.546   2.521 -15.771  0.00  0.00     0.111 C 
BRANCH   9  10
ATOM     10  N   UNL d   1       7.460   1.152 -16.221  0.00  0.00    -0.299 N 
ATOM     11  C   UNL d   1       8.401   0.715 -17.105  0.00  0.00     0.238 C 
ATOM     12  O   UNL d   1       9.295   1.431 -17.575  0.00  0.00    -0.272 OA
ATOM     13  C   UNL d   1       8.399  -0.753 -17.480  0.00  0.00     0.093 C 
ATOM     14  C   UNL d   1       6.954  -1.320 -17.549  0.00  0.00     0.038 C 
ATOM     15  C   UNL d   1       6.102  -0.894 -16.354  0.00  0.00    -0.006 A 
ATOM     16  C   UNL d   1       6.388   0.352 -15.722  0.00  0.00     0.058 A 
ATOM     17  C   UNL d   1       5.052  -1.708 -15.855  0.00  0.00    -0.003 A 
ATOM     18  C   UNL d   1       5.570   0.764 -14.621  0.00  0.00     0.017 A 
ATOM     19  C   UNL d   1       4.531  -0.040 -14.147  0.00  0.00     0.002 A 
ATOM     20  C   UNL d   1       4.263  -1.264 -14.768  0.00  0.00    -0.000 A 
ENDBRANCH   9  10
ENDBRANCH   8   9
ENDBRANCH   7   8
ENDBRANCH   1   7
BRANCH   4  21
ATOM     21  N   UNL d   1       9.675   6.336  -9.071  0.00  0.00    -0.281 N 
ATOM     22  C   UNL d   1      10.519   7.236  -8.418  0.00  0.00     0.082 A 
ATOM     23  C   UNL d   1      10.104   7.312  -7.103  0.00  0.00     0.102 A 
ATOM     24  C   UNL d   1      11.634   7.964  -8.878  0.00  0.00     0.019 A 
ATOM     25  N   UNL d   1       9.011   6.486  -6.980  0.00  0.00    -0.191 NA
ATOM     26  C   UNL d   1      10.734   8.098  -6.126  0.00  0.00     0.021 A 
ATOM     27  C   UNL d   1       8.805   5.879  -8.152  0.00  0.00     0.350 A 
ATOM     28  O   UNL d   1       7.996   4.970  -8.297  0.00  0.00    -0.244 OA
ATOM     29  C   UNL d   1      11.857   8.840  -6.569  0.00  0.00     0.002 A 
ATOM     30  C   UNL d   1      12.312   8.743  -7.912  0.00  0.00     0.002 A 
ENDBRANCH   4  21
TORSDOF 5
