REMARK  9 active torsions:
REMARK  status: ('A' for Active; 'I' for Inactive)
REMARK    1  A    between atoms: C_5  and  O_6 
REMARK    2  A    between atoms: O_6  and  C_7 
REMARK    3  A    between atoms: C_7  and  C_8 
REMARK    4  A    between atoms: C_8  and  N_9 
REMARK    5  A    between atoms: N_9  and  C_10 
REMARK    6  A    between atoms: C_10  and  C_11 
REMARK    7  A    between atoms: C_11  and  C_12 
REMARK    8  A    between atoms: C_12  and  O_13 
REMARK    9  A    between atoms: O_13  and  C_14 
ROOT
ATOM      1  N   UNL d   1       9.022   6.404  -9.849  0.00  0.00     0.342 N 
ENDROOT
BRANCH   1   2
ATOM      2  C   UNL d   1      10.228   7.259  -9.657  0.00  0.00     0.323 C 
BRANCH   2   3
ATOM      3  C   UNL d   1       9.882   8.369  -8.643  0.00  0.00     0.187 C 
BRANCH   3   4
ATOM      4  O   UNL d   1      11.009   9.011  -8.042  0.00  0.00    -0.329 OA
BRANCH   4   5
ATOM      5  C   UNL d   1      11.327   8.597  -6.767  0.00  0.00     0.094 A 
ATOM      6  C   UNL d   1      11.120   7.274  -6.303  0.00  0.00     0.025 A 
ATOM      7  C   UNL d   1      11.380   6.946  -4.963  0.00  0.00     0.013 A 
ATOM      8  C   UNL d   1      11.868   7.921  -4.078  0.00  0.00     0.058 A 
ATOM      9 CL   UNL d   1      12.211   7.516  -2.440  0.00  0.00    -0.082 Cl
ATOM     10  C   UNL d   1      12.104   9.229  -4.536  0.00  0.00     0.013 A 
ATOM     11  C   UNL d   1      11.852   9.563  -5.885  0.00  0.00     0.025 A 
ENDBRANCH   4   5
ENDBRANCH   3   4
ENDBRANCH   2   3
ENDBRANCH   1   2
BRANCH   1  12
ATOM     12  C   UNL d   1       9.058   5.783 -11.168  0.00  0.00     0.293 C 
BRANCH  12  13
ATOM     13  C   UNL d   1       7.681   5.178 -11.495  0.00  0.00     0.071 C 
BRANCH  13  14
ATOM     14  C   UNL d   1       7.427   4.923 -13.000  0.00  0.00     0.151 C 
BRANCH  14  15
ATOM     15  O   UNL d   1       8.015   3.686 -13.443  0.00  0.00    -0.331 OA
BRANCH  15  16
ATOM     16  C   UNL d   1       9.285   3.670 -13.990  0.00  0.00     0.094 A 
ATOM     17  C   UNL d   1       9.808   2.423 -14.435  0.00  0.00     0.024 A 
ATOM     18  C   UNL d   1      11.076   2.367 -15.070  0.00  0.00     0.002 A 
ATOM     19  C   UNL d   1      11.821   3.552 -15.267  0.00  0.00     0.000 A 
ATOM     20  C   UNL d   1      11.300   4.775 -14.805  0.00  0.00     0.002 A 
ATOM     21  C   UNL d   1      10.070   4.829 -14.156  0.00  0.00     0.024 A 
ENDBRANCH  15  16
ENDBRANCH  14  15
ENDBRANCH  13  14
ENDBRANCH  12  13
ENDBRANCH   1  12
TORSDOF 9
