REMARK  9 active torsions:
REMARK  status: ('A' for Active; 'I' for Inactive)
REMARK    1  A    between atoms: C_7  and  C_8 
REMARK    2  A    between atoms: C_8  and  C_9 
REMARK    3  A    between atoms: C_9  and  C_10 
REMARK    4  A    between atoms: C_10  and  N_11 
REMARK       I    between atoms: N_11  and  C_12 
REMARK       I    between atoms: N_14  and  C_15 
REMARK       I    between atoms: C_15  and  N_17 
REMARK    5  A    between atoms: N_17  and  C_18 
REMARK    6  A    between atoms: C_18  and  C_19 
REMARK    7  A    between atoms: C_19  and  C_21 
REMARK    8  A    between atoms: C_21  and  C_22 
REMARK    9  A    between atoms: C_22  and  C_23 
ROOT
ATOM      1  N   UNL d   1       8.002   5.643 -10.917  0.00  0.00    -0.084 NA
ATOM      2  C   UNL d   1       7.205   5.146 -11.947  0.00  0.00     0.768 C 
ATOM      3  N   UNL d   1       6.194   6.034 -12.248  0.00  0.00     0.062 N 
ATOM      4  N   UNL d   1       7.400   3.996 -12.507  0.00  0.00     0.001 NA
ATOM      5  C   UNL d   1       6.485   3.451 -13.407  0.00  0.00     0.380 C 
ATOM      6  O   UNL d   1       5.348   3.825 -13.614  0.00  0.00    -0.242 OA
ATOM      7  N   UNL d   1       7.059   2.421 -14.040  0.00  0.00    -0.217 NA
ENDROOT
BRANCH   1   8
ATOM      8  C   UNL d   1       8.904   4.841 -10.105  0.00  0.00     0.145 C 
BRANCH   8   9
ATOM      9  C   UNL d   1       9.839   5.704  -9.247  0.00  0.00     0.032 C 
BRANCH   9  10
ATOM     10  C   UNL d   1       9.128   6.503  -8.138  0.00  0.00     0.036 C 
BRANCH  10  11
ATOM     11  C   UNL d   1      10.027   7.486  -7.467  0.00  0.00     0.023 A 
ATOM     12  C   UNL d   1      10.548   8.649  -7.996  0.00  0.00     0.063 A 
ATOM     13  C   UNL d   1      10.346   9.191  -9.386  0.00  0.00     0.052 C 
ATOM     14  N   UNL d   1      11.356   9.349  -7.092  0.00  0.00    -0.230 NA
ATOM     15  C   UNL d   1      11.460   8.729  -5.918  0.00  0.00     0.180 A 
ATOM     16  N   UNL d   1      12.191   9.208  -4.847  0.00  0.00    -0.072 NA
ATOM     17  S   UNL d   1      10.599   7.204  -5.841  0.00  0.00    -0.057 SA
ENDBRANCH  10  11
ENDBRANCH   9  10
ENDBRANCH   8   9
ENDBRANCH   1   8
BRANCH   7  18
ATOM     18  C   UNL d   1       6.517   1.475 -15.018  0.00  0.00     0.131 C 
BRANCH  18  19
ATOM     19  C   UNL d   1       7.004   1.801 -16.444  0.00  0.00     0.025 C 
ATOM     20  C   UNL d   1       6.401   0.800 -17.428  0.00  0.00     0.002 C 
BRANCH  19  21
ATOM     21  C   UNL d   1       8.539   1.893 -16.630  0.00  0.00     0.007 C 
BRANCH  21  22
ATOM     22  C   UNL d   1       9.271   2.880 -15.684  0.00  0.00     0.026 C 
BRANCH  22  23
ATOM     23  C   UNL d   1      10.442   3.580 -16.269  0.00  0.00    -0.022 A 
ATOM     24  C   UNL d   1      11.678   2.922 -16.360  0.00  0.00    -0.004 A 
ATOM     25  C   UNL d   1      12.790   3.616 -16.873  0.00  0.00    -0.000 A 
ATOM     26  C   UNL d   1      12.652   4.966 -17.273  0.00  0.00    -0.000 A 
ATOM     27  C   UNL d   1      11.418   5.639 -17.145  0.00  0.00    -0.000 A 
ATOM     28  C   UNL d   1      10.313   4.934 -16.639  0.00  0.00    -0.004 A 
ENDBRANCH  22  23
ENDBRANCH  21  22
ENDBRANCH  19  21
ENDBRANCH  18  19
ENDBRANCH   7  18
TORSDOF 9
