REMARK  9 active torsions:
REMARK  status: ('A' for Active; 'I' for Inactive)
REMARK    1  A    between atoms: O_2  and  C_3 
REMARK    2  A    between atoms: C_3  and  C_4 
REMARK    3  A    between atoms: C_3  and  O_31 
REMARK    4  A    between atoms: C_4  and  C_5 
REMARK       I    between atoms: C_5  and  N_7 
REMARK    5  A    between atoms: N_7  and  C_8 
REMARK    6  A    between atoms: C_11  and  C_12 
REMARK    7  A    between atoms: C_12  and  C_13 
REMARK    8  A    between atoms: C_13  and  N_14 
REMARK    9  A    between atoms: N_17  and  C_18 
ROOT
ATOM      1  C   UNL d   1       8.369   3.513 -14.830  0.00  0.00     0.035 C 
ENDROOT
BRANCH   1   2
ATOM      2  C   UNL d   1       8.403   3.848 -13.349  0.00  0.00     0.002 C 
ATOM      3  C   UNL d   1       9.718   4.501 -12.912  0.00  0.00     0.002 C 
ATOM      4  C   UNL d   1       9.652   4.864 -11.445  0.00  0.00     0.024 C 
ATOM      5  C   UNL d   1       8.480   5.715 -11.025  0.00  0.00     0.106 C 
ATOM      6  C   UNL d   1       7.167   5.075 -11.473  0.00  0.00     0.024 C 
ATOM      7  C   UNL d   1       7.205   4.735 -12.970  0.00  0.00     0.002 C 
BRANCH   5   8
ATOM      8  N   UNL d   1       8.533   5.893  -9.575  0.00  0.00    -0.240 NA
ATOM      9  C   UNL d   1       9.530   6.443  -8.864  0.00  0.00     0.257 C 
ATOM     10  O   UNL d   1      10.596   6.853  -9.338  0.00  0.00    -0.270 OA
BRANCH   9  11
ATOM     11  C   UNL d   1       9.331   6.566  -7.357  0.00  0.00     0.151 C 
BRANCH  11  12
ATOM     12  C   UNL d   1      10.237   7.678  -6.731  0.00  0.00     0.245 C 
BRANCH  12  13
ATOM     13  O   UNL d   1       9.839   8.993  -7.043  0.00  0.00    -0.328 OA
ATOM     14  C   UNL d   1       8.773   9.236  -7.961  0.00  0.00     0.177 C 
ENDBRANCH  12  13
BRANCH  12  15
ATOM     15  O   UNL d   1      10.240   7.491  -5.348  0.00  0.00    -0.328 OA
ATOM     16  C   UNL d   1      11.347   6.775  -4.867  0.00  0.00     0.177 C 
ENDBRANCH  12  15
ENDBRANCH  11  12
ENDBRANCH   9  11
ENDBRANCH   5   8
ENDBRANCH   1   2
BRANCH   1  17
ATOM     17  C   UNL d   1       9.349   2.412 -15.190  0.00  0.00     0.250 C 
BRANCH  17  18
ATOM     18  N   UNL d   1       9.179   1.981 -16.577  0.00  0.00     0.141 N 
ATOM     19  C   UNL d   1      10.008   0.801 -16.824  0.00  0.00     0.274 C 
ATOM     20  C   UNL d   1      11.502   1.151 -16.642  0.00  0.00     0.138 C 
ATOM     21  N   UNL d   1      11.832   2.250 -17.529  0.00  0.00    -0.330 N 
ATOM     22  C   UNL d   1      10.993   3.442 -17.469  0.00  0.00     0.138 C 
ATOM     23  C   UNL d   1       9.501   3.022 -17.571  0.00  0.00     0.274 C 
BRANCH  21  24
ATOM     24  C   UNL d   1      12.907   2.187 -18.451  0.00  0.00     0.138 A 
ATOM     25  C   UNL d   1      13.270   0.997 -19.112  0.00  0.00     0.036 A 
ATOM     26  C   UNL d   1      14.335   0.983 -19.990  0.00  0.00     0.095 A 
ATOM     27  C   UNL d   1      12.671  -0.376 -19.078  0.00  0.00     0.064 C 
ATOM     28  C   UNL d   1      15.072   2.157 -20.216  0.00  0.00     0.045 A 
ATOM     29  O   UNL d   1      14.537  -0.234 -20.581  0.00  0.00    -0.331 OA
ATOM     30  C   UNL d   1      14.646   3.314 -19.521  0.00  0.00     0.103 A 
ATOM     31  N   UNL d   1      13.591   3.333 -18.669  0.00  0.00    -0.228 NA
ATOM     32  C   UNL d   1      13.451  -1.091 -20.190  0.00  0.00     0.154 C 
ENDBRANCH  21  24
ENDBRANCH  17  18
ENDBRANCH   1  17
TORSDOF 9
