REMARK  8 active torsions:
REMARK  status: ('A' for Active; 'I' for Inactive)
REMARK    1  A    between atoms: S_2  and  N_4 
REMARK    2  A    between atoms: S_2  and  C_25 
REMARK    3  A    between atoms: N_4  and  C_5 
REMARK    4  A    between atoms: C_5  and  C_6 
REMARK    5  A    between atoms: C_6  and  C_7 
REMARK    6  A    between atoms: C_7  and  C_8 
REMARK    7  A    between atoms: C_8  and  N_9 
REMARK    8  A    between atoms: C_12  and  C_13 
ROOT
ATOM      1  N   UNL d   1       9.013   4.340 -14.394  0.00  0.00     0.142 N 
ATOM      2  C   UNL d   1       9.868   4.071 -15.552  0.00  0.00     0.276 C 
ATOM      3  C   UNL d   1       9.393   2.888 -16.378  0.00  0.00     0.005 C 
ATOM      4  C   UNL d   1       8.469   2.000 -15.958  0.00  0.00    -0.021 C 
ATOM      5  C   UNL d   1       7.894   2.170 -14.560  0.00  0.00     0.061 C 
ATOM      6  C   UNL d   1       8.730   3.099 -13.682  0.00  0.00     0.255 C 
ENDROOT
BRANCH   1   7
ATOM      7  C   UNL d   1       9.655   5.276 -13.489  0.00  0.00     0.251 C 
BRANCH   7   8
ATOM      8  C   UNL d   1       8.604   6.077 -12.707  0.00  0.00     0.037 C 
BRANCH   8   9
ATOM      9  C   UNL d   1       9.213   6.794 -11.495  0.00  0.00     0.029 C 
BRANCH   9  10
ATOM     10  C   UNL d   1       9.348   5.868 -10.269  0.00  0.00     0.139 C 
BRANCH  10  11
ATOM     11  N   UNL d   1       9.419   6.645  -9.037  0.00  0.00    -0.185 NA
BRANCH  11  12
ATOM     12  S   UNL d   1      10.519   7.959  -8.897  0.00  0.00     0.281 S 
ATOM     13  O   UNL d   1      11.759   7.595  -9.596  0.00  0.00    -0.199 OA
ATOM     14  O   UNL d   1       9.796   9.189  -9.248  0.00  0.00    -0.199 OA
BRANCH  12  15
ATOM     15  C   UNL d   1      10.863   7.984  -7.160  0.00  0.00     0.107 A 
ATOM     16  C   UNL d   1      10.809   9.198  -6.459  0.00  0.00     0.040 A 
ATOM     17  C   UNL d   1      11.111   9.214  -5.085  0.00  0.00     0.132 A 
ATOM     18  C   UNL d   1      11.461   8.025  -4.423  0.00  0.00     0.027 A 
ATOM     19  O   UNL d   1      11.057  10.386  -4.399  0.00  0.00    -0.190 OA
ATOM     20  C   UNL d   1      11.473   6.803  -5.124  0.00  0.00     0.003 A 
ATOM     21  C   UNL d   1      11.189   6.785  -6.505  0.00  0.00     0.013 A 
ENDBRANCH  12  15
ENDBRANCH  11  12
ENDBRANCH  10  11
ENDBRANCH   9  10
ENDBRANCH   8   9
ENDBRANCH   7   8
ENDBRANCH   1   7
BRANCH   4  22
ATOM     22  C   UNL d   1       8.044   0.871 -16.812  0.00  0.00     0.017 A 
ATOM     23  C   UNL d   1       6.858   0.069 -16.642  0.00  0.00     0.020 A 
ATOM     24  C   UNL d   1       6.832  -0.856 -17.732  0.00  0.00     0.082 A 
ATOM     25  C   UNL d   1       5.783  -0.009 -15.717  0.00  0.00     0.013 A 
ATOM     26  N   UNL d   1       7.972  -0.605 -18.481  0.00  0.00    -0.244 NA
ATOM     27  C   UNL d   1       5.799  -1.798 -17.889  0.00  0.00     0.020 A 
ATOM     28  C   UNL d   1       8.702   0.434 -17.933  0.00  0.00     0.099 A 
ATOM     29  C   UNL d   1       4.747  -1.842 -16.951  0.00  0.00     0.013 A 
ATOM     30  C   UNL d   1       4.744  -0.942 -15.868  0.00  0.00     0.058 A 
ATOM     31 CL   UNL d   1       3.460  -0.946 -14.716  0.00  0.00    -0.082 Cl
ENDBRANCH   4  22
TORSDOF 8
