REMARK  10 active torsions:
REMARK  status: ('A' for Active; 'I' for Inactive)
REMARK    1  A    between atoms: C_2  and  C_3 
REMARK    2  A    between atoms: C_3  and  N_4 
REMARK    3  A    between atoms: N_4  and  C_5 
REMARK    4  A    between atoms: N_4  and  C_24 
REMARK    5  A    between atoms: C_5  and  C_6 
REMARK    6  A    between atoms: C_6  and  N_7 
REMARK    7  A    between atoms: N_10  and  C_11 
REMARK    8  A    between atoms: C_11  and  C_12 
REMARK    9  A    between atoms: C_12  and  C_13 
REMARK   10  A    between atoms: C_27  and  O_28 
ROOT
ATOM      1  N   UNL d   1       8.526   4.494 -12.836  0.00  0.00     0.143 N 
ATOM      2  C   UNL d   1       8.532   5.953 -12.894  0.00  0.00     0.285 C 
ATOM      3  C   UNL d   1       8.393   6.604 -11.517  0.00  0.00     0.285 C 
ATOM      4  N   UNL d   1       9.470   6.176 -10.601  0.00  0.00     0.142 N 
ATOM      5  C   UNL d   1       9.434   4.724 -10.515  0.00  0.00     0.285 C 
ATOM      6  C   UNL d   1       9.579   4.076 -11.904  0.00  0.00     0.285 C 
ENDROOT
BRANCH   1   7
ATOM      7  C   UNL d   1       8.711   3.903 -14.155  0.00  0.00     0.268 C 
BRANCH   7   8
ATOM      8  C   UNL d   1       8.460   2.382 -14.172  0.00  0.00     0.112 C 
BRANCH   8   9
ATOM      9  N   UNL d   1       8.303   1.808 -15.501  0.00  0.00    -0.251 NA
BRANCH   9  10
ATOM     10  C   UNL d   1       7.982   0.369 -15.540  0.00  0.00     0.077 C 
BRANCH  10  11
ATOM     11  C   UNL d   1       6.518   0.037 -15.149  0.00  0.00     0.018 C 
ATOM     12  C   UNL d   1       6.136   0.255 -13.662  0.00  0.00     0.002 C 
ENDBRANCH  10  11
ENDBRANCH   9  10
BRANCH   9  13
ATOM     13  C   UNL d   1       9.393   2.107 -16.343  0.00  0.00     0.037 A 
ATOM     14  C   UNL d   1       9.210   2.893 -17.502  0.00  0.00     0.013 A 
ATOM     15  C   UNL d   1      10.311   3.250 -18.293  0.00  0.00     0.025 A 
ATOM     16  C   UNL d   1      11.621   2.824 -17.954  0.00  0.00     0.094 A 
ATOM     17  C   UNL d   1      11.785   2.036 -16.786  0.00  0.00     0.025 A 
ATOM     18  C   UNL d   1      10.690   1.681 -16.000  0.00  0.00     0.013 A 
BRANCH  16  19
ATOM     19  O   UNL d   1      12.635   3.202 -18.792  0.00  0.00    -0.328 OA
ATOM     20  C   UNL d   1      13.953   2.783 -18.465  0.00  0.00     0.181 C 
ENDBRANCH  16  19
ENDBRANCH   9  13
ENDBRANCH   8   9
ENDBRANCH   7   8
ENDBRANCH   1   7
BRANCH   4  21
ATOM     21  C   UNL d   1       9.317   6.820  -9.303  0.00  0.00     0.255 C 
BRANCH  21  22
ATOM     22  C   UNL d   1      10.530   6.660  -8.359  0.00  0.00     0.063 C 
BRANCH  22  23
ATOM     23  C   UNL d   1      10.670   7.800  -7.394  0.00  0.00     0.000 A 
ATOM     24  C   UNL d   1      11.084   7.750  -6.012  0.00  0.00     0.015 A 
ATOM     25  C   UNL d   1      11.109   9.083  -5.511  0.00  0.00     0.081 A 
ATOM     26  C   UNL d   1      11.463   6.728  -5.125  0.00  0.00     0.001 A 
ATOM     27  N   UNL d   1      10.722   9.880  -6.551  0.00  0.00    -0.244 NA
ATOM     28  C   UNL d   1      11.476   9.374  -4.177  0.00  0.00     0.019 A 
ATOM     29  C   UNL d   1      10.465   9.122  -7.675  0.00  0.00     0.095 A 
ATOM     30  C   UNL d   1      11.848   8.322  -3.325  0.00  0.00     0.002 A 
ATOM     31  C   UNL d   1      11.843   7.004  -3.803  0.00  0.00     0.000 A 
ENDBRANCH  22  23
ENDBRANCH  21  22
ENDBRANCH   4  21
TORSDOF 10
