REMARK  6 active torsions:
REMARK  status: ('A' for Active; 'I' for Inactive)
REMARK    1  A    between atoms: C_4  and  C_5 
REMARK    2  A    between atoms: N_13  and  C_14 
REMARK    3  A    between atoms: C_14  and  C_15 
REMARK    4  A    between atoms: C_15  and  C_16 
REMARK    5  A    between atoms: C_16  and  S_17 
REMARK    6  A    between atoms: S_17  and  C_18 
ROOT
ATOM      1  C   UNL d   1       8.726   4.837 -11.920  0.00  0.00     0.020 A 
ATOM      2  C   UNL d   1       7.404   4.395 -12.118  0.00  0.00     0.001 A 
ATOM      3  C   UNL d   1       7.081   3.607 -13.243  0.00  0.00    -0.004 A 
ATOM      4  C   UNL d   1       8.082   3.236 -14.171  0.00  0.00    -0.024 A 
ATOM      5  C   UNL d   1       9.406   3.685 -13.987  0.00  0.00    -0.024 A 
ATOM      6  C   UNL d   1       9.714   4.487 -12.866  0.00  0.00    -0.003 A 
ATOM      7  C   UNL d   1      10.508   3.300 -14.960  0.00  0.00     0.061 C 
ATOM      8  C   UNL d   1      10.750   1.784 -15.063  0.00  0.00     0.255 C 
ATOM      9  N   UNL d   1       9.791   1.085 -15.930  0.00  0.00     0.138 N 
ATOM     10  C   UNL d   1       8.452   0.990 -15.338  0.00  0.00     0.255 C 
ATOM     11  C   UNL d   1       7.724   2.331 -15.343  0.00  0.00     0.061 C 
ENDROOT
BRANCH   9  12
ATOM     12  C   UNL d   1      10.317  -0.247 -16.206  0.00  0.00     0.251 C 
BRANCH  12  13
ATOM     13  C   UNL d   1       9.646  -0.960 -17.396  0.00  0.00     0.047 C 
BRANCH  13  14
ATOM     14  C   UNL d   1       9.963  -0.278 -18.737  0.00  0.00     0.067 C 
BRANCH  14  15
ATOM     15  S   UNL d   1       8.948  -0.930 -20.094  0.00  0.00    -0.075 SA
BRANCH  15  16
ATOM     16  C   UNL d   1       7.353  -0.393 -19.549  0.00  0.00     0.193 A 
ATOM     17  N   UNL d   1       6.260  -1.170 -19.672  0.00  0.00    -0.292 N 
ATOM     18  C   UNL d   1       5.305  -0.391 -19.127  0.00  0.00     0.144 A 
ATOM     19  C   UNL d   1       6.160  -2.507 -20.233  0.00  0.00     0.134 C 
ATOM     20  N   UNL d   1       5.758   0.789 -18.692  0.00  0.00    -0.133 NA
ATOM     21  C   UNL d   1       3.874  -0.816 -19.036  0.00  0.00     0.074 C 
ATOM     22  N   UNL d   1       7.106   0.793 -18.979  0.00  0.00    -0.122 NA
ENDBRANCH  15  16
ENDBRANCH  14  15
ENDBRANCH  13  14
ENDBRANCH  12  13
ENDBRANCH   9  12
BRANCH   1  23
ATOM     23  C   UNL d   1       9.063   5.627 -10.730  0.00  0.00     0.110 A 
ATOM     24  C   UNL d   1       8.664   5.420  -9.381  0.00  0.00     0.044 A 
ATOM     25  C   UNL d   1       9.255   6.448  -8.701  0.00  0.00     0.105 A 
ATOM     26  C   UNL d   1       9.248   6.870  -7.274  0.00  0.00     0.061 C 
ATOM     27  O   UNL d   1       9.991   7.205  -9.550  0.00  0.00    -0.215 OA
ATOM     28  N   UNL d   1       9.856   6.673 -10.838  0.00  0.00    -0.127 NA
ENDBRANCH   1  23
TORSDOF 6
