REMARK  4 active torsions:
REMARK  status: ('A' for Active; 'I' for Inactive)
REMARK    1  A    between atoms: C_8  and  C_9 
REMARK    2  A    between atoms: C_9  and  C_10 
REMARK    3  A    between atoms: C_10  and  N_11 
REMARK    4  A    between atoms: N_14  and  C_15 
ROOT
ATOM      1  N   UNL d   1       8.601   4.401 -13.033  0.00  0.00     0.141 N 
ATOM      2  C   UNL d   1       8.708   5.837 -13.299  0.00  0.00     0.274 C 
ATOM      3  C   UNL d   1       8.305   6.674 -12.081  0.00  0.00     0.138 C 
ATOM      4  N   UNL d   1       9.126   6.304 -10.936  0.00  0.00    -0.329 N 
ATOM      5  C   UNL d   1       9.148   4.872 -10.664  0.00  0.00     0.138 C 
ATOM      6  C   UNL d   1       9.539   4.108 -11.945  0.00  0.00     0.274 C 
ENDROOT
BRANCH   1   7
ATOM      7  C   UNL d   1       8.972   3.666 -14.234  0.00  0.00     0.255 C 
BRANCH   7   8
ATOM      8  C   UNL d   1       8.455   2.225 -14.168  0.00  0.00     0.068 C 
BRANCH   8   9
ATOM      9  C   UNL d   1       8.740   1.443 -15.438  0.00  0.00     0.050 A 
ATOM     10  C   UNL d   1       9.866   0.715 -15.600  0.00  0.00     0.062 A 
ATOM     11  C   UNL d   1      10.937   0.622 -14.558  0.00  0.00     0.052 C 
ATOM     12  N   UNL d   1      10.100  -0.013 -16.759  0.00  0.00    -0.230 NA
ATOM     13  C   UNL d   1       9.239   0.020 -17.721  0.00  0.00     0.181 A 
ATOM     14  C   UNL d   1       9.606  -0.720 -18.960  0.00  0.00     0.207 C 
ATOM     15  N   UNL d   1       8.046   0.755 -17.635  0.00  0.00    -0.279 N 
ATOM     16  C   UNL d   1       8.603  -0.805 -20.113  0.00  0.00     0.074 C 
ATOM     17  O   UNL d   1      10.729  -1.194 -19.074  0.00  0.00    -0.288 OA
ATOM     18  C   UNL d   1       7.725   0.452 -20.134  0.00  0.00     0.033 C 
ATOM     19  C   UNL d   1       7.080   0.686 -18.755  0.00  0.00     0.111 C 
ATOM     20  C   UNL d   1       7.731   1.428 -16.501  0.00  0.00     0.259 A 
ATOM     21  O   UNL d   1       6.655   1.974 -16.385  0.00  0.00    -0.267 OA
ENDBRANCH   8   9
ENDBRANCH   7   8
ENDBRANCH   1   7
BRANCH   4  22
ATOM     22  C   UNL d   1       9.798   7.265 -10.170  0.00  0.00     0.148 C 
ATOM     23  C   UNL d   1       9.860   7.256  -8.720  0.00  0.00     0.042 A 
ATOM     24  C   UNL d   1      10.643   8.358  -8.269  0.00  0.00     0.050 A 
ATOM     25  C   UNL d   1       9.257   6.454  -7.744  0.00  0.00     0.004 A 
ATOM     26  S   UNL d   1      11.255   9.161  -9.660  0.00  0.00     0.015 SA
ATOM     27  C   UNL d   1      10.824   8.668  -6.917  0.00  0.00     0.008 A 
ATOM     28  N   UNL d   1      10.319   8.334 -10.749  0.00  0.00    -0.192 NA
ATOM     29  C   UNL d   1      10.224   7.853  -5.961  0.00  0.00     0.001 A 
ATOM     30  C   UNL d   1       9.430   6.775  -6.387  0.00  0.00     0.000 A 
ENDBRANCH   4  22
TORSDOF 4
