REMARK  4 active torsions:
REMARK  status: ('A' for Active; 'I' for Inactive)
REMARK    1  A    between atoms: C_8  and  C_9 
REMARK    2  A    between atoms: C_9  and  C_10 
REMARK    3  A    between atoms: C_10  and  N_11 
REMARK    4  A    between atoms: N_14  and  C_15 
ROOT
ATOM      1  N   UNL d   1       8.222   5.270 -11.892  0.00  0.00     0.141 N 
ATOM      2  C   UNL d   1       9.155   4.240 -12.349  0.00  0.00     0.274 C 
ATOM      3  C   UNL d   1       8.801   3.810 -13.771  0.00  0.00     0.137 C 
ATOM      4  N   UNL d   1       7.415   3.363 -13.829  0.00  0.00    -0.344 N 
ATOM      5  C   UNL d   1       6.427   4.275 -13.277  0.00  0.00     0.137 C 
ATOM      6  C   UNL d   1       6.849   4.740 -11.879  0.00  0.00     0.274 C 
ENDROOT
BRANCH   1   7
ATOM      7  C   UNL d   1       8.533   5.641 -10.519  0.00  0.00     0.255 C 
BRANCH   7   8
ATOM      8  C   UNL d   1       9.918   6.326 -10.437  0.00  0.00     0.068 C 
BRANCH   8   9
ATOM      9  C   UNL d   1      10.161   7.209  -9.224  0.00  0.00     0.050 A 
ATOM     10  C   UNL d   1      10.689   8.453  -9.299  0.00  0.00     0.061 A 
ATOM     11  C   UNL d   1      11.021   9.125 -10.575  0.00  0.00     0.052 C 
ATOM     12  N   UNL d   1      11.003   9.204  -8.179  0.00  0.00    -0.234 NA
ATOM     13  C   UNL d   1      10.803   8.705  -7.014  0.00  0.00     0.153 A 
ATOM     14  C   UNL d   1      11.055   9.507  -5.726  0.00  0.00     0.208 C 
ATOM     15  N   UNL d   1      10.322   7.388  -6.840  0.00  0.00    -0.283 N 
ATOM     16  C   UNL d   1      11.742   8.647  -4.650  0.00  0.00     0.043 C 
ATOM     17  O   UNL d   1      11.864  10.633  -6.035  0.00  0.00    -0.215 OA
ATOM     18  C   UNL d   1      11.134   7.234  -4.496  0.00  0.00     0.028 C 
ATOM     19  C   UNL d   1       9.950   7.028  -5.476  0.00  0.00     0.111 C 
ATOM     20  C   UNL d   1       9.945   6.617  -7.903  0.00  0.00     0.259 A 
ATOM     21  O   UNL d   1       9.431   5.511  -7.766  0.00  0.00    -0.267 OA
ENDBRANCH   8   9
ENDBRANCH   7   8
ENDBRANCH   1   7
BRANCH   4  22
ATOM     22  C   UNL d   1       7.055   2.119 -14.386  0.00  0.00     0.057 A 
ATOM     23  C   UNL d   1       7.664   1.641 -15.581  0.00  0.00     0.022 A 
ATOM     24  C   UNL d   1       7.225   0.366 -16.065  0.00  0.00     0.031 A 
ATOM     25  C   UNL d   1       8.664   2.230 -16.459  0.00  0.00     0.009 A 
ATOM     26  C   UNL d   1       6.256  -0.391 -15.386  0.00  0.00     0.007 A 
ATOM     27  S   UNL d   1       8.047  -0.051 -17.564  0.00  0.00    -0.086 SA
ATOM     28  C   UNL d   1       5.680   0.098 -14.211  0.00  0.00     0.002 A 
ATOM     29  C   UNL d   1       6.075   1.350 -13.713  0.00  0.00     0.017 A 
ATOM     30  C   UNL d   1       8.963   1.421 -17.518  0.00  0.00     0.035 A 
ENDBRANCH   4  22
TORSDOF 4
