REMARK  8 active torsions:
REMARK  status: ('A' for Active; 'I' for Inactive)
REMARK    1  A    between atoms: C_2  and  C_3 
REMARK       I    between atoms: C_2  and  N_21 
REMARK    2  A    between atoms: C_3  and  C_4 
REMARK    3  A    between atoms: C_4  and  C_5 
REMARK    4  A    between atoms: C_5  and  C_6 
REMARK    5  A    between atoms: C_6  and  C_7 
REMARK    6  A    between atoms: C_7  and  N_8 
REMARK    7  A    between atoms: N_11  and  C_12 
REMARK    8  A    between atoms: N_21  and  C_22 
ROOT
ATOM      1  C   UNL d   1       8.140   4.556 -11.554  0.00  0.00     0.003 C 
ENDROOT
BRANCH   1   2
ATOM      2  C   UNL d   1       7.561   4.860 -12.936  0.00  0.00     0.010 C 
BRANCH   2   3
ATOM      3  C   UNL d   1       7.097   3.593 -13.661  0.00  0.00     0.090 C 
BRANCH   3   4
ATOM      4  C   UNL d   1       8.226   2.714 -14.247  0.00  0.00     0.252 C 
ATOM      5  O   UNL d   1       9.402   3.057 -14.168  0.00  0.00    -0.271 OA
ATOM      6  N   UNL d   1       7.903   1.551 -14.830  0.00  0.00    -0.235 NA
BRANCH   6   7
ATOM      7  C   UNL d   1       6.557   1.062 -15.113  0.00  0.00     0.128 C 
ATOM      8  C   UNL d   1       6.411   0.570 -16.549  0.00  0.00    -0.004 A 
ATOM      9  C   UNL d   1       5.587  -0.542 -16.855  0.00  0.00    -0.024 A 
ATOM     10  C   UNL d   1       7.050   1.276 -17.595  0.00  0.00    -0.003 A 
ATOM     11  C   UNL d   1       4.867  -1.324 -15.764  0.00  0.00     0.026 C 
ATOM     12  C   UNL d   1       5.448  -0.955 -18.194  0.00  0.00    -0.004 A 
ATOM     13  C   UNL d   1       4.766  -0.574 -14.428  0.00  0.00     0.007 C 
ATOM     14  C   UNL d   1       6.108   0.052 -14.046  0.00  0.00     0.029 C 
ATOM     15  C   UNL d   1       6.108  -0.262 -19.226  0.00  0.00    -0.000 A 
ATOM     16  C   UNL d   1       6.906   0.858 -18.929  0.00  0.00    -0.000 A 
ENDBRANCH   6   7
ENDBRANCH   3   4
ENDBRANCH   2   3
ENDBRANCH   1   2
BRANCH   1  17
ATOM     17  C   UNL d   1       8.851   5.757 -10.923  0.00  0.00     0.035 C 
BRANCH  17  18
ATOM     18  C   UNL d   1       8.659   5.787  -9.402  0.00  0.00     0.250 C 
BRANCH  18  19
ATOM     19  N   UNL d   1       9.645   6.665  -8.772  0.00  0.00     0.141 N 
ATOM     20  C   UNL d   1       8.976   7.579  -7.844  0.00  0.00     0.274 C 
ATOM     21  C   UNL d   1       9.993   8.493  -7.168  0.00  0.00     0.137 C 
ATOM     22  N   UNL d   1      11.010   7.708  -6.486  0.00  0.00    -0.344 N 
ATOM     23  C   UNL d   1      11.641   6.694  -7.301  0.00  0.00     0.137 C 
ATOM     24  C   UNL d   1      10.560   5.842  -7.991  0.00  0.00     0.274 C 
BRANCH  22  25
ATOM     25  C   UNL d   1      11.369   7.904  -5.146  0.00  0.00     0.067 A 
ATOM     26  C   UNL d   1      11.585   9.204  -4.627  0.00  0.00     0.073 A 
ATOM     27  C   UNL d   1      11.945   9.372  -3.274  0.00  0.00     0.013 A 
ATOM     28 CL   UNL d   1      11.455  10.598  -5.642  0.00  0.00    -0.081 Cl
ATOM     29  C   UNL d   1      12.098   8.254  -2.436  0.00  0.00     0.001 A 
ATOM     30  C   UNL d   1      11.879   6.961  -2.948  0.00  0.00     0.002 A 
ATOM     31  C   UNL d   1      11.523   6.791  -4.294  0.00  0.00     0.018 A 
ENDBRANCH  22  25
ENDBRANCH  18  19
ENDBRANCH  17  18
ENDBRANCH   1  17
TORSDOF 8
