REMARK  0 active torsions:
REMARK  status: ('A' for Active; 'I' for Inactive)
ROOT
ATOM      1  C   UNL d   1       9.472   2.534 -18.845  0.00  0.00     0.286 C 
ATOM      2  N   UNL d   1       9.639   2.796 -17.424  0.00  0.00     0.143 N 
ATOM      3  C   UNL d   1       9.734   4.235 -17.186  0.00  0.00     0.274 C 
ATOM      4  C   UNL d   1       9.971   4.501 -15.685  0.00  0.00     0.139 C 
ATOM      5  N   UNL d   1       8.895   3.925 -14.879  0.00  0.00    -0.328 N 
ATOM      6  C   UNL d   1       8.673   4.460 -13.595  0.00  0.00     0.137 A 
ATOM      7  N   UNL d   1       9.728   5.014 -12.953  0.00  0.00    -0.228 NA
ATOM      8  C   UNL d   1       9.509   5.569 -11.740  0.00  0.00     0.101 A 
ATOM      9  C   UNL d   1       8.270   5.585 -11.095  0.00  0.00     0.021 A 
ATOM     10  C   UNL d   1       7.168   5.043 -11.772  0.00  0.00     0.001 A 
ATOM     11  C   UNL d   1       7.369   4.480 -13.049  0.00  0.00     0.016 A 
ATOM     12  C   UNL d   1       6.203   3.878 -13.793  0.00  0.00     0.055 C 
ATOM     13  C   UNL d   1       6.391   2.393 -13.847  0.00  0.00    -0.020 A 
ATOM     14  C   UNL d   1       5.402   1.619 -13.235  0.00  0.00    -0.004 A 
ATOM     15  C   UNL d   1       5.489   0.231 -13.239  0.00  0.00    -0.000 A 
ATOM     16  C   UNL d   1       6.620  -0.404 -13.777  0.00  0.00    -0.000 A 
ATOM     17  C   UNL d   1       7.628   0.364 -14.384  0.00  0.00    -0.003 A 
ATOM     18  C   UNL d   1       7.525   1.770 -14.437  0.00  0.00    -0.004 A 
ATOM     19  C   UNL d   1       8.657   2.499 -15.156  0.00  0.00     0.138 C 
ATOM     20  C   UNL d   1       8.489   2.274 -16.686  0.00  0.00     0.277 C 
ENDROOT
TORSDOF 0
