REMARK  3 active torsions:
REMARK  status: ('A' for Active; 'I' for Inactive)
REMARK    1  A    between atoms: C_11  and  C_12 
REMARK    2  A    between atoms: C_12  and  C_13 
REMARK    3  A    between atoms: C_13  and  N_14 
ROOT
ATOM      1  C   UNL d   1       7.461   5.092 -11.136  0.00  0.00     0.043 C 
ENDROOT
BRANCH   1   2
ATOM      2  C   UNL d   1       8.963   5.256 -10.822  0.00  0.00     0.068 A 
ATOM      3  C   UNL d   1       9.444   6.693 -11.094  0.00  0.00     0.173 A 
ATOM      4  O   UNL d   1       9.356   7.258 -12.190  0.00  0.00    -0.291 OA
ATOM      5  C   UNL d   1      10.011   7.229  -9.867  0.00  0.00     0.031 A 
ATOM      6  C   UNL d   1       9.939   6.278  -8.858  0.00  0.00    -0.017 A 
ATOM      7  C   UNL d   1      10.559   8.502  -9.642  0.00  0.00     0.005 A 
ATOM      8  C   UNL d   1      10.419   6.555  -7.567  0.00  0.00     0.025 A 
ATOM      9  C   UNL d   1       9.299   4.999  -9.327  0.00  0.00     0.034 A 
ATOM     10  C   UNL d   1      10.974   7.829  -7.323  0.00  0.00     0.140 A 
ATOM     11  C   UNL d   1      11.041   8.796  -8.351  0.00  0.00     0.030 A 
ATOM     12  F   UNL d   1      11.451   8.123  -6.089  0.00  0.00    -0.204 F 
ENDBRANCH   1   2
BRANCH   1  13
ATOM     13  C   UNL d   1       7.094   5.047 -12.626  0.00  0.00     0.251 C 
BRANCH  13  14
ATOM     14  N   UNL d   1       7.486   3.758 -13.193  0.00  0.00     0.142 N 
ATOM     15  C   UNL d   1       8.668   3.886 -14.051  0.00  0.00     0.276 C 
ATOM     16  C   UNL d   1       9.065   2.594 -14.754  0.00  0.00     0.007 A 
ATOM     17  C   UNL d   1       8.114   1.564 -14.922  0.00  0.00    -0.022 A 
ATOM     18  C   UNL d   1      10.366   2.442 -15.283  0.00  0.00    -0.003 A 
ATOM     19  C   UNL d   1       6.723   1.713 -14.331  0.00  0.00     0.061 C 
ATOM     20  C   UNL d   1       8.468   0.386 -15.614  0.00  0.00    -0.004 A 
ATOM     21  C   UNL d   1       6.388   3.167 -13.950  0.00  0.00     0.255 C 
ATOM     22  C   UNL d   1       9.766   0.239 -16.142  0.00  0.00    -0.000 A 
ATOM     23  C   UNL d   1      10.715   1.265 -15.975  0.00  0.00    -0.000 A 
ENDBRANCH  13  14
ENDBRANCH   1  13
TORSDOF 3
