REMARK  0 active torsions:
REMARK  status: ('A' for Active; 'I' for Inactive)
ROOT
ATOM      1  C   UNL d   1       6.449   0.776 -15.138  0.00  0.00     0.000 C 
ATOM      2  C   UNL d   1       7.545   1.766 -15.579  0.00  0.00     0.003 C 
ATOM      3  C   UNL d   1       8.539   1.050 -16.498  0.00  0.00     0.000 C 
ATOM      4  C   UNL d   1       9.616   2.017 -16.984  0.00  0.00     0.003 C 
ATOM      5  C   UNL d   1      10.450   2.499 -15.787  0.00  0.00     0.042 C 
ATOM      6  C   UNL d   1      11.640   3.410 -16.125  0.00  0.00     0.089 C 
ATOM      7  C   UNL d   1      12.657   2.756 -17.077  0.00  0.00     0.011 C 
ATOM      8  C   UNL d   1      11.144   4.756 -16.645  0.00  0.00     0.273 C 
ATOM      9  O   UNL d   1      11.739   5.343 -17.549  0.00  0.00    -0.264 OA
ATOM     10  O   UNL d   1      10.014   5.245 -16.095  0.00  0.00    -0.273 OA
ATOM     11  C   UNL d   1       9.384   4.697 -14.957  0.00  0.00     0.273 C 
ATOM     12  O   UNL d   1       9.635   5.411 -13.780  0.00  0.00    -0.306 OA
ATOM     13  C   UNL d   1       9.145   4.791 -12.592  0.00  0.00     0.221 C 
ATOM     14  C   UNL d   1       9.438   5.759 -11.443  0.00  0.00     0.064 C 
ATOM     15  C   UNL d   1       7.650   4.405 -12.588  0.00  0.00     0.059 C 
ATOM     16  C   UNL d   1       7.175   3.395 -13.662  0.00  0.00     0.008 C 
ATOM     17  C   UNL d   1       8.228   2.479 -14.376  0.00  0.00     0.033 C 
ATOM     18  C   UNL d   1       9.593   3.179 -14.698  0.00  0.00     0.179 C 
ATOM     19  O   UNL d   1      10.481   3.096 -13.590  0.00  0.00    -0.219 OA
ATOM     20  O   UNL d   1       9.822   3.589 -12.326  0.00  0.00    -0.198 OA
ENDROOT
TORSDOF 0
