REMARK  9 active torsions:
REMARK  status: ('A' for Active; 'I' for Inactive)
REMARK    1  A    between atoms: C_2  and  C_5 
REMARK    2  A    between atoms: C_7  and  N_8 
REMARK    3  A    between atoms: N_11  and  C_12 
REMARK    4  A    between atoms: C_12  and  C_13 
REMARK    5  A    between atoms: C_13  and  C_14 
REMARK    6  A    between atoms: C_14  and  C_15 
REMARK    7  A    between atoms: C_15  and  N_16 
REMARK       I    between atoms: N_16  and  C_17 
REMARK    8  A    between atoms: C_17  and  C_19 
REMARK    9  A    between atoms: C_31  and  C_32 
ROOT
ATOM      1  N   UNL d   1      11.232   3.209 -15.193  0.00  0.00    -0.330 N 
ATOM      2  C   UNL d   1      11.665   4.583 -15.114  0.00  0.00     0.138 C 
ATOM      3  C   UNL d   1      10.534   5.439 -14.539  0.00  0.00     0.274 C 
ATOM      4  N   UNL d   1      10.054   4.944 -13.250  0.00  0.00     0.141 N 
ATOM      5  C   UNL d   1       9.528   3.592 -13.442  0.00  0.00     0.274 C 
ATOM      6  C   UNL d   1      10.631   2.661 -13.994  0.00  0.00     0.138 C 
ENDROOT
BRANCH   4   7
ATOM      7  C   UNL d   1       8.982   5.809 -12.739  0.00  0.00     0.251 C 
BRANCH   7   8
ATOM      8  C   UNL d   1       9.456   7.204 -12.274  0.00  0.00     0.037 C 
BRANCH   8   9
ATOM      9  C   UNL d   1      10.124   7.101 -10.867  0.00  0.00     0.029 C 
BRANCH   9  10
ATOM     10  C   UNL d   1      10.213   8.498 -10.212  0.00  0.00     0.129 C 
BRANCH  10  11
ATOM     11  N   UNL d   1      10.712   8.407  -8.849  0.00  0.00    -0.234 NA
ATOM     12  C   UNL d   1      10.208   7.616  -7.889  0.00  0.00     0.281 C 
ATOM     13  O   UNL d   1       9.336   6.770  -8.057  0.00  0.00    -0.265 OA
BRANCH  12  14
ATOM     14  C   UNL d   1      10.816   7.748  -6.563  0.00  0.00     0.087 A 
ATOM     15  S   UNL d   1      11.181   9.351  -5.984  0.00  0.00    -0.082 SA
ATOM     16  C   UNL d   1      11.694   8.676  -4.448  0.00  0.00     0.030 A 
ATOM     17  C   UNL d   1      11.564   7.263  -4.426  0.00  0.00     0.007 A 
ATOM     18  C   UNL d   1      12.180   9.348  -3.322  0.00  0.00     0.006 A 
ATOM     19  C   UNL d   1      11.055   6.757  -5.663  0.00  0.00     0.012 A 
ATOM     20  C   UNL d   1      11.936   6.626  -3.232  0.00  0.00     0.001 A 
ATOM     21  C   UNL d   1      12.434   7.292  -2.108  0.00  0.00     0.000 A 
ATOM     22  C   UNL d   1      12.565   8.677  -2.152  0.00  0.00     0.001 A 
ENDBRANCH  12  14
ENDBRANCH  10  11
ENDBRANCH   9  10
ENDBRANCH   8   9
ENDBRANCH   7   8
ENDBRANCH   4   7
BRANCH   1  23
ATOM     23  C   UNL d   1      11.336   2.475 -16.402  0.00  0.00     0.143 A 
ATOM     24  N   UNL d   1      10.400   1.539 -16.608  0.00  0.00    -0.214 NA
ATOM     25  C   UNL d   1      10.470   0.827 -17.730  0.00  0.00     0.140 A 
ATOM     26  N   UNL d   1      11.387   0.997 -18.699  0.00  0.00    -0.227 NA
ATOM     27  C   UNL d   1      12.334   1.936 -18.497  0.00  0.00     0.157 A 
ATOM     28  C   UNL d   1      12.348   2.733 -17.326  0.00  0.00     0.060 A 
BRANCH  25  29
ATOM     29  C   UNL d   1       9.315  -0.142 -18.023  0.00  0.00     0.052 C 
ATOM     30  C   UNL d   1       8.396   0.434 -19.112  0.00  0.00     0.008 C 
ATOM     31  C   UNL d   1       8.443  -0.360 -16.770  0.00  0.00     0.008 C 
ATOM     32  C   UNL d   1       9.878  -1.505 -18.466  0.00  0.00     0.008 C 
ENDBRANCH  25  29
BRANCH  27  33
ATOM     33  C   UNL d   1      13.376   2.098 -19.593  0.00  0.00     0.435 C 
ATOM     34  F   UNL d   1      14.274   3.033 -19.285  0.00  0.00    -0.165 F 
ATOM     35  F   UNL d   1      14.020   0.944 -19.786  0.00  0.00    -0.165 F 
ATOM     36  F   UNL d   1      12.772   2.449 -20.731  0.00  0.00    -0.165 F 
ENDBRANCH  27  33
ENDBRANCH   1  23
TORSDOF 9
