REMARK  6 active torsions:
REMARK  status: ('A' for Active; 'I' for Inactive)
REMARK    1  A    between atoms: C_2  and  C_3 
REMARK    2  A    between atoms: C_2  and  C_20 
REMARK    3  A    between atoms: C_3  and  C_4 
REMARK    4  A    between atoms: C_4  and  C_5 
REMARK    5  A    between atoms: C_5  and  N_6 
REMARK    6  A    between atoms: C_9  and  C_11 
ROOT
ATOM      1  N   UNL d   1       9.833   6.360 -10.132  0.00  0.00     0.137 N 
ATOM      2  C   UNL d   1       8.893   5.945  -9.089  0.00  0.00     0.253 C 
ATOM      3  C   UNL d   1       9.491   6.266  -7.721  0.00  0.00     0.070 C 
ATOM      4  C   UNL d   1       9.877   7.753  -7.514  0.00  0.00     0.149 C 
ATOM      5  O   UNL d   1       8.693   8.515  -7.565  0.00  0.00    -0.221 OA
ATOM      6  C   UNL d   1      10.732   8.193  -8.718  0.00  0.00     0.070 C 
ATOM      7  C   UNL d   1      10.077   7.803 -10.060  0.00  0.00     0.253 C 
ENDROOT
BRANCH   1   8
ATOM      8  C   UNL d   1       9.296   6.025 -11.440  0.00  0.00     0.250 C 
BRANCH   8   9
ATOM      9  C   UNL d   1       9.370   4.504 -11.691  0.00  0.00     0.038 C 
BRANCH   9  10
ATOM     10  C   UNL d   1       9.889   4.150 -13.099  0.00  0.00     0.040 C 
BRANCH  10  11
ATOM     11  C   UNL d   1       8.827   4.261 -14.207  0.00  0.00     0.174 C 
ATOM     12  O   UNL d   1       9.489   4.199 -15.454  0.00  0.00    -0.219 OA
BRANCH  11  13
ATOM     13  C   UNL d   1       7.753   3.188 -14.068  0.00  0.00     0.008 A 
ATOM     14  C   UNL d   1       7.955   1.891 -14.585  0.00  0.00     0.001 A 
ATOM     15  C   UNL d   1       6.971   0.894 -14.426  0.00  0.00     0.029 A 
ATOM     16  C   UNL d   1       5.789   1.188 -13.718  0.00  0.00     0.140 A 
ATOM     17  C   UNL d   1       5.582   2.477 -13.195  0.00  0.00     0.029 A 
ATOM     18  F   UNL d   1       4.848   0.227 -13.546  0.00  0.00    -0.204 F 
ATOM     19  C   UNL d   1       6.555   3.482 -13.376  0.00  0.00     0.001 A 
ENDBRANCH  11  13
ENDBRANCH  10  11
ENDBRANCH   9  10
ENDBRANCH   8   9
ENDBRANCH   1   8
BRANCH   4  20
ATOM     20  C   UNL d   1      10.614   8.010  -6.188  0.00  0.00     0.005 A 
ATOM     21  C   UNL d   1      11.139   6.955  -5.406  0.00  0.00    -0.001 A 
ATOM     22  C   UNL d   1      11.774   7.205  -4.179  0.00  0.00     0.011 A 
ATOM     23  C   UNL d   1      11.889   8.518  -3.697  0.00  0.00     0.058 A 
ATOM     24  C   UNL d   1      11.379   9.588  -4.465  0.00  0.00     0.011 A 
ATOM     25 CL   UNL d   1      12.621   8.783  -2.156  0.00  0.00    -0.082 Cl
ATOM     26  C   UNL d   1      10.751   9.333  -5.706  0.00  0.00    -0.001 A 
ENDBRANCH   4  20
TORSDOF 6
