REMARK  5 active torsions:
REMARK  status: ('A' for Active; 'I' for Inactive)
REMARK    1  A    between atoms: O_2  and  C_3 
REMARK    2  A    between atoms: C_10  and  C_11 
REMARK    3  A    between atoms: C_11  and  N_12 
REMARK    4  A    between atoms: C_15  and  C_16 
REMARK    5  A    between atoms: C_16  and  C_18 
ROOT
ATOM      1  N   UNL d   1       9.447   5.641 -11.710  0.00  0.00     0.137 N 
ATOM      2  C   UNL d   1       9.537   5.183 -10.322  0.00  0.00     0.251 C 
ATOM      3  C   UNL d   1      10.367   6.157  -9.463  0.00  0.00     0.043 C 
ATOM      4  C   UNL d   1       9.679   7.547  -9.434  0.00  0.00     0.066 C 
ATOM      5  C   UNL d   1       9.462   7.992 -10.905  0.00  0.00     0.043 C 
ATOM      6  C   UNL d   1       8.719   6.908 -11.723  0.00  0.00     0.251 C 
ENDROOT
BRANCH   1   7
ATOM      7  C   UNL d   1       8.753   4.619 -12.488  0.00  0.00     0.251 C 
BRANCH   7   8
ATOM      8  C   UNL d   1       9.752   3.984 -13.473  0.00  0.00     0.045 C 
ATOM      9  C   UNL d   1      10.120   4.950 -14.608  0.00  0.00     0.029 C 
ATOM     10  C   UNL d   1      11.030   4.301 -15.630  0.00  0.00    -0.017 A 
ATOM     11  C   UNL d   1      11.062   2.899 -15.820  0.00  0.00     0.031 A 
ATOM     12  C   UNL d   1      11.858   5.136 -16.398  0.00  0.00     0.020 A 
ATOM     13  C   UNL d   1      11.940   2.363 -16.789  0.00  0.00     0.004 A 
ATOM     14  C   UNL d   1      10.206   1.998 -15.009  0.00  0.00     0.173 C 
ATOM     15  C   UNL d   1      12.768   3.208 -17.555  0.00  0.00     0.024 A 
ATOM     16  C   UNL d   1      12.741   4.606 -17.371  0.00  0.00     0.094 A 
ATOM     17  C   UNL d   1       9.218   2.671 -14.056  0.00  0.00     0.071 C 
ATOM     18  O   UNL d   1      10.237   0.769 -15.080  0.00  0.00    -0.291 OA
BRANCH  16  19
ATOM     19  O   UNL d   1      13.571   5.388 -18.150  0.00  0.00    -0.328 OA
ATOM     20  C   UNL d   1      13.498   6.796 -17.966  0.00  0.00     0.181 C 
ENDBRANCH  16  19
ENDBRANCH   7   8
ENDBRANCH   1   7
BRANCH   4  21
ATOM     21  C   UNL d   1      10.530   8.582  -8.659  0.00  0.00     0.173 C 
ATOM     22  O   UNL d   1      10.991   9.547  -9.267  0.00  0.00    -0.291 OA
BRANCH  21  23
ATOM     23  C   UNL d   1      10.814   8.368  -7.207  0.00  0.00     0.035 C 
ATOM     24  C   UNL d   1      10.441   7.162  -6.524  0.00  0.00     0.005 C 
ATOM     25  C   UNL d   1      10.906   6.970  -5.211  0.00  0.00     0.030 C 
ATOM     26  C   UNL d   1      11.580   7.987  -4.492  0.00  0.00     0.140 C 
ATOM     27  C   UNL d   1      11.849   9.213  -5.146  0.00  0.00     0.030 C 
ATOM     28  F   UNL d   1      11.905   7.813  -3.188  0.00  0.00    -0.204 F 
ATOM     29  C   UNL d   1      11.505   9.395  -6.503  0.00  0.00     0.005 C 
ENDBRANCH  21  23
ENDBRANCH   4  21
TORSDOF 5
