REMARK  5 active torsions:
REMARK  status: ('A' for Active; 'I' for Inactive)
REMARK    1  A    between atoms: C_4  and  C_5 
REMARK    2  A    between atoms: C_5  and  C_6 
REMARK    3  A    between atoms: N_8  and  C_9 
REMARK    4  A    between atoms: N_12  and  C_13 
REMARK    5  A    between atoms: C_13  and  C_14 
ROOT
ATOM      1  C   UNL d   1       9.704   7.583  -9.348  0.00  0.00     0.111 C 
ATOM      2  C   UNL d   1      11.164   8.040  -9.364  0.00  0.00     0.060 C 
ATOM      3  C   UNL d   1      11.428   9.025  -8.218  0.00  0.00     0.253 C 
ATOM      4  N   UNL d   1      11.081   8.442  -6.928  0.00  0.00     0.141 N 
ATOM      5  C   UNL d   1       9.662   8.102  -6.857  0.00  0.00     0.253 C 
ATOM      6  C   UNL d   1       9.332   7.071  -7.935  0.00  0.00     0.060 C 
ENDROOT
BRANCH   1   7
ATOM      7  N   UNL d   1       9.440   6.601 -10.397  0.00  0.00    -0.233 N 
ATOM      8  C   UNL d   1       9.163   6.816 -11.734  0.00  0.00     0.114 A 
ATOM      9  C   UNL d   1       9.008   5.557 -12.238  0.00  0.00     0.105 A 
ATOM     10  N   UNL d   1       9.243   4.642 -11.220  0.00  0.00    -0.133 NA
ATOM     11  N   UNL d   1       9.461   5.276 -10.118  0.00  0.00    -0.064 NA
BRANCH   9  12
ATOM     12  C   UNL d   1       8.688   5.106 -13.626  0.00  0.00     0.076 C 
BRANCH  12  13
ATOM     13  C   UNL d   1       7.709   3.939 -13.663  0.00  0.00    -0.016 A 
ATOM     14  C   UNL d   1       8.015   2.778 -14.403  0.00  0.00    -0.004 A 
ATOM     15  C   UNL d   1       7.108   1.700 -14.443  0.00  0.00    -0.000 A 
ATOM     16  C   UNL d   1       5.899   1.769 -13.724  0.00  0.00    -0.000 A 
ATOM     17  C   UNL d   1       5.586   2.923 -12.984  0.00  0.00    -0.000 A 
ATOM     18  C   UNL d   1       6.483   4.010 -12.957  0.00  0.00    -0.004 A 
ENDBRANCH  12  13
ENDBRANCH   9  12
ENDBRANCH   1   7
BRANCH   4  19
ATOM     19  C   UNL d   1      11.443   9.337  -5.831  0.00  0.00     0.277 C 
BRANCH  19  20
ATOM     20  C   UNL d   1      11.703   8.621  -4.513  0.00  0.00     0.011 A 
ATOM     21  C   UNL d   1      11.883   9.388  -3.340  0.00  0.00    -0.002 A 
ATOM     22  C   UNL d   1      12.259   8.769  -2.132  0.00  0.00    -0.000 A 
ATOM     23  C   UNL d   1      12.401   7.375  -2.092  0.00  0.00    -0.000 A 
ATOM     24  C   UNL d   1      12.199   6.613  -3.242  0.00  0.00    -0.000 A 
ATOM     25  C   UNL d   1      11.847   7.216  -4.455  0.00  0.00    -0.002 A 
ENDBRANCH  19  20
ENDBRANCH   4  19
TORSDOF 5
