REMARK  11 active torsions:
REMARK  status: ('A' for Active; 'I' for Inactive)
REMARK    1  A    between atoms: O_2  and  C_3 
REMARK    2  A    between atoms: C_6  and  C_7 
REMARK    3  A    between atoms: C_12  and  N_13 
REMARK    4  A    between atoms: N_16  and  C_17 
REMARK    5  A    between atoms: C_17  and  C_18 
REMARK    6  A    between atoms: C_18  and  O_19 
REMARK    7  A    between atoms: O_19  and  C_20 
REMARK    8  A    between atoms: C_20  and  C_21 
REMARK    9  A    between atoms: C_21  and  C_22 
REMARK       I    between atoms: C_22  and  N_24 
REMARK   10  A    between atoms: N_24  and  C_25 
REMARK   11  A    between atoms: C_25  and  C_26 
ROOT
ATOM      1  N   UNL d   1       7.889   3.309 -14.046  0.00  0.00    -0.344 N 
ATOM      2  C   UNL d   1       7.293   4.632 -13.866  0.00  0.00     0.137 C 
ATOM      3  C   UNL d   1       7.920   5.376 -12.685  0.00  0.00     0.274 C 
ATOM      4  N   UNL d   1       9.368   5.445 -12.780  0.00  0.00     0.144 N 
ATOM      5  C   UNL d   1       9.919   4.088 -12.870  0.00  0.00     0.274 C 
ATOM      6  C   UNL d   1       9.350   3.303 -14.055  0.00  0.00     0.137 C 
ENDROOT
BRANCH   4   7
ATOM      7  C   UNL d   1       9.866   6.199 -11.627  0.00  0.00     0.282 C 
BRANCH   7   8
ATOM      8  C   UNL d   1       9.646   7.717 -11.780  0.00  0.00     0.178 C 
BRANCH   8   9
ATOM      9  O   UNL d   1      10.553   8.364 -10.914  0.00  0.00    -0.352 OA
BRANCH   9  10
ATOM     10  C   UNL d   1      10.373   8.058  -9.559  0.00  0.00     0.152 C 
BRANCH  10  11
ATOM     11  C   UNL d   1      11.004   9.180  -8.767  0.00  0.00     0.122 C 
BRANCH  11  12
ATOM     12  C   UNL d   1      10.517   9.221  -7.316  0.00  0.00     0.254 C 
ATOM     13  O   UNL d   1       9.488   8.661  -6.944  0.00  0.00    -0.270 OA
ATOM     14  N   UNL d   1      11.247   9.968  -6.490  0.00  0.00    -0.233 NA
BRANCH  14  15
ATOM     15  C   UNL d   1      10.975  10.091  -5.064  0.00  0.00     0.155 C 
BRANCH  15  16
ATOM     16  C   UNL d   1      11.535   8.948  -4.227  0.00  0.00     0.005 A 
ATOM     17  C   UNL d   1      11.431   7.595  -4.644  0.00  0.00     0.018 A 
ATOM     18  C   UNL d   1      11.907   6.603  -3.780  0.00  0.00     0.099 A 
ATOM     19  N   UNL d   1      12.496   6.858  -2.586  0.00  0.00    -0.243 NA
ATOM     20  C   UNL d   1      12.603   8.147  -2.200  0.00  0.00     0.099 A 
ATOM     21  C   UNL d   1      12.127   9.220  -2.975  0.00  0.00     0.018 A 
ENDBRANCH  15  16
ENDBRANCH  14  15
ENDBRANCH  11  12
ENDBRANCH  10  11
ENDBRANCH   9  10
ENDBRANCH   8   9
ENDBRANCH   7   8
ENDBRANCH   4   7
BRANCH   1  22
ATOM     22  C   UNL d   1       7.086   2.140 -14.162  0.00  0.00     0.056 A 
ATOM     23  C   UNL d   1       7.442   1.074 -15.051  0.00  0.00     0.015 A 
ATOM     24  C   UNL d   1       6.649  -0.105 -15.049  0.00  0.00     0.001 A 
ATOM     25  C   UNL d   1       5.519  -0.205 -14.223  0.00  0.00     0.000 A 
ATOM     26  C   UNL d   1       5.102   0.869 -13.455  0.00  0.00     0.002 A 
ATOM     27  C   UNL d   1       5.896   2.011 -13.386  0.00  0.00     0.017 A 
BRANCH  23  28
ATOM     28  C   UNL d   1       8.573   1.119 -15.990  0.00  0.00     0.002 A 
ATOM     29  C   UNL d   1       9.487   0.047 -16.056  0.00  0.00     0.002 A 
ATOM     30  C   UNL d   1      10.567   0.097 -16.951  0.00  0.00     0.024 A 
ATOM     31  C   UNL d   1      10.793   1.225 -17.759  0.00  0.00     0.094 A 
ATOM     32  C   UNL d   1       9.875   2.304 -17.694  0.00  0.00     0.024 A 
ATOM     33  C   UNL d   1       8.760   2.231 -16.840  0.00  0.00     0.002 A 
BRANCH  31  34
ATOM     34  O   UNL d   1      11.916   1.233 -18.538  0.00  0.00    -0.328 OA
ATOM     35  C   UNL d   1      12.131   2.356 -19.384  0.00  0.00     0.181 C 
ENDBRANCH  31  34
ENDBRANCH  23  28
ENDBRANCH   1  22
TORSDOF 11
