REMARK  4 active torsions:
REMARK  status: ('A' for Active; 'I' for Inactive)
REMARK    1  A    between atoms: C_2  and  N_5 
REMARK    2  A    between atoms: N_5  and  C_6 
REMARK    3  A    between atoms: C_6  and  C_7 
REMARK    4  A    between atoms: C_7  and  C_9 
ROOT
ATOM      1  C   UNL d   1      11.239   8.572  -7.227  0.00  0.00     0.014 A 
ATOM      2  C   UNL d   1      10.059   7.866  -7.572  0.00  0.00     0.026 A 
ATOM      3  C   UNL d   1       9.929   7.322  -8.859  0.00  0.00     0.133 A 
ATOM      4  O   UNL d   1       8.820   6.578  -9.164  0.00  0.00    -0.190 OA
ATOM      5  C   UNL d   1      10.926   7.517  -9.819  0.00  0.00     0.055 A 
ATOM      6  C   UNL d   1      12.097   8.208  -9.467  0.00  0.00     0.133 A 
ATOM      7  O   UNL d   1      13.125   8.373 -10.345  0.00  0.00    -0.190 OA
ATOM      8  C   UNL d   1      12.263   8.713  -8.178  0.00  0.00     0.026 A 
ENDROOT
BRANCH   1   9
ATOM      9  C   UNL d   1      11.480   9.101  -5.832  0.00  0.00     0.198 C 
ATOM     10  O   UNL d   1      10.746  10.258  -5.552  0.00  0.00    -0.216 OA
BRANCH   9  11
ATOM     11  C   UNL d   1      11.170   8.024  -4.808  0.00  0.00     0.157 C 
BRANCH  11  12
ATOM     12  N   UNL d   1      11.568   8.503  -3.470  0.00  0.00    -0.296 NA
BRANCH  12  13
ATOM     13  C   UNL d   1      11.968   7.529  -2.453  0.00  0.00     0.080 C 
ATOM     14  C   UNL d   1      12.633   8.322  -1.320  0.00  0.00     0.024 C 
ATOM     15  C   UNL d   1      13.047   6.644  -3.007  0.00  0.00     0.024 C 
ATOM     16  C   UNL d   1      10.805   6.611  -2.021  0.00  0.00     0.024 C 
ENDBRANCH  12  13
ENDBRANCH  11  12
ENDBRANCH   9  11
ENDBRANCH   1   9
TORSDOF 4
