REMARK  6 active torsions:
REMARK  status: ('A' for Active; 'I' for Inactive)
REMARK    1  A    between atoms: C_6  and  C_7 
REMARK    2  A    between atoms: C_10  and  S_11 
REMARK    3  A    between atoms: S_11  and  C_12 
REMARK    4  A    between atoms: C_12  and  C_13 
REMARK    5  A    between atoms: C_13  and  C_14 
REMARK    6  A    between atoms: C_14  and  N_15 
ROOT
ATOM      1  S   UNL d   1      10.482  -0.210 -19.318  0.00  0.00    -0.075 SA
ENDROOT
BRANCH   1   2
ATOM      2  C   UNL d   1       9.881   0.029 -17.679  0.00  0.00     0.193 A 
ATOM      3  N   UNL d   1      10.667   0.064 -16.603  0.00  0.00    -0.122 NA
ATOM      4  N   UNL d   1       9.836   0.315 -15.539  0.00  0.00    -0.128 NA
ATOM      5  C   UNL d   1       8.606   0.395 -16.056  0.00  0.00     0.167 A 
ATOM      6  N   UNL d   1       8.578   0.206 -17.395  0.00  0.00    -0.289 N 
ATOM      7  C   UNL d   1       7.434   0.196 -18.292  0.00  0.00     0.134 C 
BRANCH   5   8
ATOM      8  C   UNL d   1       7.432   0.621 -15.226  0.00  0.00     0.037 A 
ATOM      9  C   UNL d   1       7.256   1.791 -14.442  0.00  0.00     0.021 A 
ATOM     10  C   UNL d   1       8.208   2.843 -14.442  0.00  0.00     0.003 A 
ATOM     11  C   UNL d   1       6.085   1.945 -13.643  0.00  0.00     0.081 A 
ATOM     12  C   UNL d   1       7.968   3.982 -13.656  0.00  0.00     0.015 A 
ATOM     13  C   UNL d   1       6.782   4.043 -12.907  0.00  0.00     0.059 A 
ATOM     14  C   UNL d   1       6.513   5.242 -12.024  0.00  0.00     0.052 C 
ATOM     15  N   UNL d   1       5.857   3.059 -12.903  0.00  0.00    -0.250 NA
ATOM     16  C   UNL d   1       5.147   0.894 -13.625  0.00  0.00     0.019 A 
ATOM     17  C   UNL d   1       5.311  -0.259 -14.403  0.00  0.00     0.002 A 
ATOM     18  C   UNL d   1       6.446  -0.380 -15.214  0.00  0.00     0.003 A 
ENDBRANCH   5   8
ENDBRANCH   1   2
BRANCH   1  19
ATOM     19  C   UNL d   1      12.029   0.741 -19.197  0.00  0.00     0.067 C 
BRANCH  19  20
ATOM     20  C   UNL d   1      11.773   2.231 -18.903  0.00  0.00     0.047 C 
BRANCH  20  21
ATOM     21  C   UNL d   1      13.066   3.001 -18.602  0.00  0.00     0.251 C 
BRANCH  21  22
ATOM     22  N   UNL d   1      12.797   4.346 -18.084  0.00  0.00     0.138 N 
ATOM     23  C   UNL d   1      11.977   5.216 -18.932  0.00  0.00     0.255 C 
ATOM     24  C   UNL d   1      12.617   5.590 -20.282  0.00  0.00     0.061 C 
ATOM     25  C   UNL d   1      13.625   6.720 -20.171  0.00  0.00    -0.022 A 
ATOM     26  C   UNL d   1      14.789   6.602 -19.365  0.00  0.00    -0.022 A 
ATOM     27  C   UNL d   1      13.385   7.915 -20.887  0.00  0.00     0.022 A 
ATOM     28  C   UNL d   1      15.079   5.334 -18.579  0.00  0.00     0.061 C 
ATOM     29  C   UNL d   1      15.708   7.677 -19.281  0.00  0.00     0.017 A 
ATOM     30  C   UNL d   1      13.994   4.987 -17.539  0.00  0.00     0.255 C 
ATOM     31  C   UNL d   1      15.479   8.872 -19.994  0.00  0.00     0.106 A 
ATOM     32  C   UNL d   1      14.313   8.959 -20.781  0.00  0.00     0.119 A 
ATOM     33  N   UNL d   1      16.196  10.047 -20.096  0.00  0.00    -0.217 NA
ATOM     34  O   UNL d   1      14.289  10.201 -21.383  0.00  0.00    -0.285 OA
ATOM     35  C   UNL d   1      15.437  10.781 -20.921  0.00  0.00     0.225 A 
ENDBRANCH  21  22
ENDBRANCH  20  21
ENDBRANCH  19  20
ENDBRANCH   1  19
TORSDOF 6
