REMARK  5 active torsions:
REMARK  status: ('A' for Active; 'I' for Inactive)
REMARK    1  A    between atoms: C_7  and  S_8 
REMARK    2  A    between atoms: S_8  and  C_11 
REMARK    3  A    between atoms: N_14  and  C_15 
REMARK    4  A    between atoms: C_15  and  C_16 
REMARK    5  A    between atoms: C_16  and  C_17 
ROOT
ATOM      1  N   UNL d   1      10.183  -0.135 -15.649  0.00  0.00    -0.191 NA
ATOM      2  C   UNL d   1      10.265   0.979 -15.349  0.00  0.00     0.101 C 
ATOM      3  C   UNL d   1      10.369   2.374 -14.977  0.00  0.00     0.069 A 
ATOM      4  C   UNL d   1      11.420   3.168 -15.488  0.00  0.00     0.010 A 
ATOM      5  C   UNL d   1      11.506   4.530 -15.148  0.00  0.00     0.001 A 
ATOM      6  C   UNL d   1      10.538   5.099 -14.297  0.00  0.00     0.011 A 
ATOM      7  C   UNL d   1       9.481   4.308 -13.805  0.00  0.00     0.085 A 
ATOM      8  C   UNL d   1       9.406   2.941 -14.122  0.00  0.00     0.021 A 
ENDROOT
BRANCH   7   9
ATOM      9  S   UNL d   1       8.223   5.010 -12.749  0.00  0.00     0.189 S 
ATOM     10  O   UNL d   1       8.038   6.399 -13.182  0.00  0.00    -0.222 OA
ATOM     11  O   UNL d   1       7.069   4.100 -12.735  0.00  0.00    -0.222 OA
BRANCH   9  12
ATOM     12  C   UNL d   1       9.016   5.025 -11.078  0.00  0.00     0.116 C 
ATOM     13  C   UNL d   1       9.802   6.317 -10.868  0.00  0.00     0.052 C 
ATOM     14  C   UNL d   1      10.348   6.409  -9.450  0.00  0.00     0.251 C 
ATOM     15  N   UNL d   1       9.257   6.380  -8.479  0.00  0.00     0.137 N 
ATOM     16  C   UNL d   1       8.546   5.104  -8.589  0.00  0.00     0.251 C 
ATOM     17  C   UNL d   1       7.953   4.951 -10.000  0.00  0.00     0.052 C 
BRANCH  15  18
ATOM     18  C   UNL d   1       9.781   6.512  -7.132  0.00  0.00     0.255 C 
BRANCH  18  19
ATOM     19  C   UNL d   1      10.345   7.925  -6.847  0.00  0.00     0.064 C 
BRANCH  19  20
ATOM     20  C   UNL d   1      10.975   8.083  -5.470  0.00  0.00     0.007 A 
ATOM     21  C   UNL d   1      11.120   9.376  -4.915  0.00  0.00     0.138 A 
ATOM     22  C   UNL d   1      11.723   9.537  -3.651  0.00  0.00     0.059 A 
ATOM     23  F   UNL d   1      10.685  10.464  -5.593  0.00  0.00    -0.204 F 
ATOM     24  C   UNL d   1      12.191   8.417  -2.940  0.00  0.00     0.142 A 
ATOM     25  C   UNL d   1      12.061   7.132  -3.494  0.00  0.00     0.029 A 
ATOM     26  F   UNL d   1      12.746   8.569  -1.717  0.00  0.00    -0.204 F 
ATOM     27  C   UNL d   1      11.463   6.968  -4.756  0.00  0.00     0.000 A 
ENDBRANCH  19  20
ENDBRANCH  18  19
ENDBRANCH  15  18
ENDBRANCH   9  12
ENDBRANCH   7   9
TORSDOF 5
