REMARK  8 active torsions:
REMARK  status: ('A' for Active; 'I' for Inactive)
REMARK    1  A    between atoms: O_2  and  C_3 
REMARK    2  A    between atoms: C_8  and  N_9 
REMARK    3  A    between atoms: N_15  and  C_16 
REMARK    4  A    between atoms: C_16  and  C_17 
REMARK    5  A    between atoms: C_17  and  C_18 
REMARK    6  A    between atoms: C_18  and  S_19 
REMARK    7  A    between atoms: S_19  and  C_20 
REMARK    8  A    between atoms: C_23  and  C_24 
ROOT
ATOM      1  N   UNL d   1      10.357   1.734 -17.611  0.00  0.00    -0.347 N 
ATOM      2  C   UNL d   1      11.334   1.307 -16.614  0.00  0.00     0.102 C 
ATOM      3  C   UNL d   1      10.713   1.408 -15.199  0.00  0.00     0.024 C 
ATOM      4  C   UNL d   1      10.105   2.807 -14.944  0.00  0.00     0.008 C 
ATOM      5  C   UNL d   1      11.210   3.890 -14.854  0.00  0.00     0.035 C 
ATOM      6  C   UNL d   1      10.625   5.244 -14.446  0.00  0.00     0.250 C 
ATOM      7  N   UNL d   1       9.992   5.168 -13.129  0.00  0.00     0.137 N 
ATOM      8  C   UNL d   1       8.878   4.208 -13.156  0.00  0.00     0.250 C 
ATOM      9  C   UNL d   1       9.377   2.819 -13.591  0.00  0.00     0.035 C 
ATOM     10  C   UNL d   1       9.076   3.088 -16.053  0.00  0.00     0.024 C 
ATOM     11  C   UNL d   1       9.678   3.009 -17.450  0.00  0.00     0.102 C 
ENDROOT
BRANCH   7  12
ATOM     12  C   UNL d   1       9.483   6.477 -12.721  0.00  0.00     0.251 C 
BRANCH  12  13
ATOM     13  C   UNL d   1       9.556   6.655 -11.180  0.00  0.00     0.047 C 
BRANCH  13  14
ATOM     14  C   UNL d   1      10.472   7.827 -10.749  0.00  0.00     0.067 C 
BRANCH  14  15
ATOM     15  S   UNL d   1       9.847   8.805  -9.365  0.00  0.00    -0.076 SA
BRANCH  15  16
ATOM     16  C   UNL d   1      10.524   7.923  -8.026  0.00  0.00     0.190 A 
ATOM     17  N   UNL d   1      10.710   8.503  -6.843  0.00  0.00    -0.220 NA
ATOM     18  C   UNL d   1      11.278   7.571  -6.000  0.00  0.00     0.103 A 
ATOM     19  C   UNL d   1      11.440   6.434  -6.757  0.00  0.00     0.120 A 
ATOM     20  N   UNL d   1      10.928   6.661  -8.033  0.00  0.00    -0.218 NA
BRANCH  18  21
ATOM     21  C   UNL d   1      11.617   7.882  -4.623  0.00  0.00     0.019 A 
ATOM     22  C   UNL d   1      11.634   9.221  -4.177  0.00  0.00     0.002 A 
ATOM     23  C   UNL d   1      11.949   9.513  -2.843  0.00  0.00     0.000 A 
ATOM     24  C   UNL d   1      12.276   8.477  -1.955  0.00  0.00     0.000 A 
ATOM     25  C   UNL d   1      12.267   7.141  -2.388  0.00  0.00     0.000 A 
ATOM     26  C   UNL d   1      11.940   6.845  -3.721  0.00  0.00     0.002 A 
ENDBRANCH  18  21
ENDBRANCH  15  16
ENDBRANCH  14  15
ENDBRANCH  13  14
ENDBRANCH  12  13
ENDBRANCH   7  12
BRANCH   1  27
ATOM     27  C   UNL d   1       9.981   0.881 -18.660  0.00  0.00     0.079 A 
ATOM     28  C   UNL d   1       8.621   0.547 -18.910  0.00  0.00     0.110 A 
ATOM     29  C   UNL d   1       8.323  -0.302 -19.994  0.00  0.00     0.026 A 
ATOM     30  C   UNL d   1       9.343  -0.808 -20.821  0.00  0.00     0.002 A 
ATOM     31  C   UNL d   1      10.682  -0.465 -20.567  0.00  0.00     0.002 A 
ATOM     32  C   UNL d   1      11.003   0.364 -19.487  0.00  0.00     0.019 A 
BRANCH  28  33
ATOM     33  O   UNL d   1       7.654   1.065 -18.065  0.00  0.00    -0.327 OA
ATOM     34  C   UNL d   1       6.286   0.854 -18.390  0.00  0.00     0.181 C 
ENDBRANCH  28  33
ENDBRANCH   1  27
TORSDOF 8
