REMARK  5 active torsions:
REMARK  status: ('A' for Active; 'I' for Inactive)
REMARK    1  A    between atoms: N_11  and  C_12 
REMARK    2  A    between atoms: C_12  and  C_13 
REMARK    3  A    between atoms: C_13  and  C_14 
REMARK    4  A    between atoms: C_14  and  N_15 
REMARK    5  A    between atoms: N_18  and  C_19 
ROOT
ATOM      1  N   UNL d   1       6.672  -0.196 -17.026  0.00  0.00     0.141 N 
ATOM      2  C   UNL d   1       7.238   1.128 -17.300  0.00  0.00     0.274 C 
ATOM      3  C   UNL d   1       8.081   1.597 -16.102  0.00  0.00     0.137 C 
ATOM      4  N   UNL d   1       7.276   1.577 -14.890  0.00  0.00    -0.343 N 
ATOM      5  C   UNL d   1       6.606   0.316 -14.613  0.00  0.00     0.137 C 
ATOM      6  C   UNL d   1       5.802  -0.121 -15.844  0.00  0.00     0.274 C 
ENDROOT
BRANCH   1   7
ATOM      7  C   UNL d   1       5.917  -0.666 -18.178  0.00  0.00     0.252 C 
BRANCH   7   8
ATOM      8  C   UNL d   1       6.096  -2.182 -18.352  0.00  0.00     0.060 C 
BRANCH   8   9
ATOM      9  C   UNL d   1       5.060  -3.021 -17.578  0.00  0.00     0.111 C 
BRANCH   9  10
ATOM     10  N   UNL d   1       5.018  -4.415 -18.041  0.00  0.00    -0.295 N 
ATOM     11  C   UNL d   1       5.469  -5.414 -17.244  0.00  0.00     0.268 C 
ATOM     12  O   UNL d   1       6.059  -5.246 -16.174  0.00  0.00    -0.269 OA
ATOM     13  C   UNL d   1       5.213  -6.849 -17.716  0.00  0.00     0.236 C 
ATOM     14  O   UNL d   1       5.337  -6.980 -19.131  0.00  0.00    -0.319 OA
ATOM     15  C   UNL d   1       4.703  -6.016 -19.876  0.00  0.00     0.110 A 
ATOM     16  C   UNL d   1       4.503  -4.717 -19.349  0.00  0.00     0.085 A 
ATOM     17  C   UNL d   1       4.298  -6.325 -21.188  0.00  0.00     0.026 A 
ATOM     18  C   UNL d   1       3.859  -3.746 -20.158  0.00  0.00     0.019 A 
ATOM     19  C   UNL d   1       3.457  -4.060 -21.471  0.00  0.00     0.002 A 
ATOM     20  C   UNL d   1       3.671  -5.351 -21.985  0.00  0.00     0.002 A 
ENDBRANCH   9  10
ENDBRANCH   8   9
ENDBRANCH   7   8
ENDBRANCH   1   7
BRANCH   4  21
ATOM     21  C   UNL d   1       7.152   2.699 -14.047  0.00  0.00     0.081 A 
ATOM     22  C   UNL d   1       8.238   3.571 -13.816  0.00  0.00     0.138 A 
ATOM     23  C   UNL d   1       8.116   4.660 -12.984  0.00  0.00     0.111 A 
ATOM     24  O   UNL d   1       9.518   3.502 -14.286  0.00  0.00    -0.255 OA
ATOM     25  C   UNL d   1       6.930   4.983 -12.316  0.00  0.00     0.021 A 
ATOM     26  N   UNL d   1       9.361   5.264 -12.964  0.00  0.00    -0.184 NA
ATOM     27  C   UNL d   1       5.830   4.123 -12.526  0.00  0.00     0.003 A 
ATOM     28  C   UNL d   1       5.938   2.994 -13.377  0.00  0.00     0.019 A 
ATOM     29  C   UNL d   1      10.230   4.543 -13.778  0.00  0.00     0.392 A 
ATOM     30  O   UNL d   1      11.411   4.784 -14.018  0.00  0.00    -0.236 OA
ENDBRANCH   4  21
TORSDOF 5
