REMARK  7 active torsions:
REMARK  status: ('A' for Active; 'I' for Inactive)
REMARK    1  A    between atoms: N_10  and  C_11 
REMARK    2  A    between atoms: C_11  and  C_12 
REMARK    3  A    between atoms: C_12  and  C_13 
REMARK    4  A    between atoms: C_13  and  C_14 
REMARK    5  A    between atoms: C_14  and  C_15 
REMARK    6  A    between atoms: C_15  and  N_16 
REMARK    7  A    between atoms: C_19  and  C_20 
ROOT
ATOM      1  C   UNL d   1       8.979   5.633 -10.964  0.00  0.00     0.035 C 
ENDROOT
BRANCH   1   2
ATOM      2  C   UNL d   1       9.220   5.052 -12.363  0.00  0.00     0.004 C 
BRANCH   2   3
ATOM      3  C   UNL d   1       8.378   3.805 -12.659  0.00  0.00     0.025 C 
BRANCH   3   4
ATOM      4  C   UNL d   1       7.525   3.937 -13.923  0.00  0.00     0.112 C 
BRANCH   4   5
ATOM      5  N   UNL d   1       6.897   2.657 -14.296  0.00  0.00    -0.264 N 
ATOM      6  C   UNL d   1       7.302   1.916 -15.353  0.00  0.00     0.263 A 
ATOM      7  C   UNL d   1       6.423   0.717 -15.384  0.00  0.00     0.057 A 
ATOM      8  O   UNL d   1       8.198   2.164 -16.166  0.00  0.00    -0.267 OA
ATOM      9  C   UNL d   1       6.343  -0.349 -16.302  0.00  0.00    -0.017 A 
ATOM     10  C   UNL d   1       5.568   0.812 -14.312  0.00  0.00     0.061 A 
ATOM     11  C   UNL d   1       7.286  -0.477 -17.483  0.00  0.00     0.031 C 
ATOM     12  C   UNL d   1       5.346  -1.327 -16.059  0.00  0.00    -0.004 A 
ATOM     13  C   UNL d   1       4.461  -1.209 -14.960  0.00  0.00    -0.000 A 
ATOM     14  C   UNL d   1       4.553  -0.123 -14.062  0.00  0.00     0.005 A 
ATOM     15  C   UNL d   1       5.862   2.089 -13.617  0.00  0.00     0.263 A 
ATOM     16  O   UNL d   1       5.272   2.513 -12.627  0.00  0.00    -0.267 OA
ENDBRANCH   4   5
ENDBRANCH   3   4
ENDBRANCH   2   3
ENDBRANCH   1   2
BRANCH   1  17
ATOM     17  C   UNL d   1       9.651   7.004 -10.799  0.00  0.00     0.251 C 
BRANCH  17  18
ATOM     18  N   UNL d   1       9.759   7.339  -9.394  0.00  0.00     0.142 N 
ATOM     19  C   UNL d   1       9.629   8.764  -9.135  0.00  0.00     0.255 C 
ATOM     20  C   UNL d   1       9.550   8.939  -7.609  0.00  0.00     0.061 C 
ATOM     21  C   UNL d   1      10.717   8.312  -6.866  0.00  0.00    -0.021 C 
ATOM     22  C   UNL d   1      11.378   7.320  -7.481  0.00  0.00     0.005 C 
ATOM     23  C   UNL d   1      11.024   6.838  -8.869  0.00  0.00     0.276 C 
BRANCH  21  24
ATOM     24  C   UNL d   1      11.041   8.785  -5.506  0.00  0.00     0.016 A 
ATOM     25  C   UNL d   1      11.602   8.023  -4.442  0.00  0.00     0.019 A 
ATOM     26  C   UNL d   1      11.731   8.887  -3.312  0.00  0.00     0.081 A 
ATOM     27  C   UNL d   1      11.989   6.689  -4.254  0.00  0.00     0.002 A 
ATOM     28  N   UNL d   1      11.212  10.086  -3.709  0.00  0.00    -0.244 NA
ATOM     29  C   UNL d   1      12.260   8.469  -2.085  0.00  0.00     0.019 A 
ATOM     30  C   UNL d   1      10.829  10.047  -5.038  0.00  0.00     0.099 A 
ATOM     31  C   UNL d   1      12.651   7.145  -1.961  0.00  0.00     0.002 A 
ATOM     32  C   UNL d   1      12.537   6.287  -3.038  0.00  0.00     0.000 A 
ENDBRANCH  21  24
ENDBRANCH  17  18
ENDBRANCH   1  17
TORSDOF 7
