REMARK  7 active torsions:
REMARK  status: ('A' for Active; 'I' for Inactive)
REMARK    1  A    between atoms: O_2  and  C_3 
REMARK    2  A    between atoms: C_8  and  O_9 
REMARK    3  A    between atoms: N_12  and  C_13 
REMARK    4  A    between atoms: C_13  and  C_14 
REMARK    5  A    between atoms: C_14  and  N_15 
REMARK       I    between atoms: N_15  and  C_16 
REMARK    6  A    between atoms: C_16  and  C_18 
REMARK    7  A    between atoms: C_24  and  O_25 
ROOT
ATOM      1  C   UNL d   1       8.890   4.944 -11.489  0.00  0.00     0.116 C 
ATOM      2  C   UNL d   1       9.787   3.976 -12.041  0.00  0.00     0.022 C 
ATOM      3  C   UNL d   1      10.051   3.922 -13.427  0.00  0.00    -0.020 C 
ATOM      4  C   UNL d   1       9.342   4.752 -14.297  0.00  0.00     0.009 C 
ATOM      5  C   UNL d   1       8.375   5.598 -13.773  0.00  0.00     0.024 C 
ATOM      6  C   UNL d   1       8.145   5.745 -12.394  0.00  0.00     0.116 C 
ATOM      7  C   UNL d   1       9.641   4.742 -15.793  0.00  0.00     0.277 C 
ATOM      8  N   UNL d   1      10.201   3.473 -16.252  0.00  0.00     0.144 N 
ATOM      9  C   UNL d   1      11.419   3.249 -15.478  0.00  0.00     0.255 C 
ATOM     10  C   UNL d   1      11.068   2.990 -14.023  0.00  0.00     0.061 C 
ENDROOT
BRANCH   8  11
ATOM     11  C   UNL d   1      10.529   3.553 -17.661  0.00  0.00     0.277 C 
BRANCH  11  12
ATOM     12  C   UNL d   1      10.736   2.132 -18.206  0.00  0.00     0.164 C 
BRANCH  12  13
ATOM     13  N   UNL d   1       9.458   1.472 -18.443  0.00  0.00    -0.232 NA
ATOM     14  C   UNL d   1       9.233   0.157 -18.305  0.00  0.00     0.277 C 
ATOM     15  O   UNL d   1      10.017  -0.641 -17.792  0.00  0.00    -0.266 OA
BRANCH  14  16
ATOM     16  C   UNL d   1       7.949  -0.316 -18.909  0.00  0.00     0.080 A 
ATOM     17  C   UNL d   1       6.797  -0.526 -18.112  0.00  0.00     0.099 A 
ATOM     18  C   UNL d   1       5.625  -1.033 -18.734  0.00  0.00     0.024 A 
ATOM     19  C   UNL d   1       5.610  -1.301 -20.116  0.00  0.00    -0.002 A 
ATOM     20  C   UNL d   1       6.756  -1.080 -20.901  0.00  0.00    -0.022 A 
ATOM     21  C   UNL d   1       7.922  -0.585 -20.290  0.00  0.00     0.003 A 
ATOM     22  C   UNL d   1       6.737  -1.386 -22.385  0.00  0.00     0.031 C 
BRANCH  17  23
ATOM     23  O   UNL d   1       6.866  -0.222 -16.767  0.00  0.00    -0.328 OA
ATOM     24  C   UNL d   1       5.787  -0.616 -15.932  0.00  0.00     0.181 C 
ENDBRANCH  17  23
ENDBRANCH  14  16
ENDBRANCH  12  13
ENDBRANCH  11  12
ENDBRANCH   8  11
BRANCH   6  25
ATOM     25  O   UNL d   1       7.187   6.628 -11.944  0.00  0.00    -0.326 OA
ATOM     26  C   UNL d   1       6.992   7.886 -12.604  0.00  0.00     0.181 C 
ENDBRANCH   6  25
BRANCH   1  27
ATOM     27  O   UNL d   1       8.668   5.118 -10.128  0.00  0.00    -0.326 OA
ATOM     28  C   UNL d   1       9.643   4.646  -9.192  0.00  0.00     0.181 C 
ENDBRANCH   1  27
TORSDOF 7
