REMARK  7 active torsions:
REMARK  status: ('A' for Active; 'I' for Inactive)
REMARK    1  A    between atoms: O_2  and  C_3 
REMARK    2  A    between atoms: N_15  and  C_16 
REMARK    3  A    between atoms: C_16  and  C_17 
REMARK    4  A    between atoms: C_17  and  C_18 
REMARK    5  A    between atoms: C_18  and  S_19 
REMARK    6  A    between atoms: S_19  and  C_20 
REMARK    7  A    between atoms: C_23  and  C_24 
ROOT
ATOM      1  C   UNL d   1       8.701   4.721 -13.362  0.00  0.00     0.094 A 
ATOM      2  C   UNL d   1       7.365   4.610 -12.911  0.00  0.00     0.024 A 
ATOM      3  C   UNL d   1       6.592   3.496 -13.275  0.00  0.00    -0.003 A 
ATOM      4  C   UNL d   1       7.150   2.459 -14.060  0.00  0.00    -0.026 A 
ATOM      5  C   UNL d   1       8.490   2.544 -14.502  0.00  0.00    -0.023 A 
ATOM      6  C   UNL d   1       9.246   3.719 -14.166  0.00  0.00     0.020 A 
ATOM      7  C   UNL d   1       9.151   1.447 -15.336  0.00  0.00     0.052 C 
ATOM      8  C   UNL d   1       8.331   0.140 -15.354  0.00  0.00     0.006 C 
ATOM      9  C   UNL d   1       6.828   0.384 -15.517  0.00  0.00     0.005 C 
ATOM     10  C   UNL d   1       6.296   1.233 -14.363  0.00  0.00     0.026 C 
ATOM     11  C   UNL d   1      10.601   1.157 -14.864  0.00  0.00     0.041 C 
ATOM     12  C   UNL d   1      11.480   1.670 -15.998  0.00  0.00     0.251 C 
ATOM     13  N   UNL d   1      10.643   1.494 -17.179  0.00  0.00     0.137 N 
ATOM     14  C   UNL d   1       9.297   1.940 -16.777  0.00  0.00     0.254 C 
ENDROOT
BRANCH  13  15
ATOM     15  C   UNL d   1      11.184   2.176 -18.364  0.00  0.00     0.251 C 
BRANCH  15  16
ATOM     16  C   UNL d   1      11.006   3.706 -18.299  0.00  0.00     0.047 C 
BRANCH  16  17
ATOM     17  C   UNL d   1      11.961   4.503 -19.181  0.00  0.00     0.067 C 
BRANCH  17  18
ATOM     18  S   UNL d   1      11.986   6.255 -18.687  0.00  0.00    -0.075 SA
BRANCH  18  19
ATOM     19  C   UNL d   1      10.398   6.728 -19.291  0.00  0.00     0.193 A 
ATOM     20  N   UNL d   1      10.244   7.508 -20.377  0.00  0.00    -0.287 N 
ATOM     21  C   UNL d   1       8.898   7.618 -20.456  0.00  0.00     0.191 A 
ATOM     22  C   UNL d   1      11.270   8.101 -21.220  0.00  0.00     0.134 C 
ATOM     23  N   UNL d   1       8.264   6.927 -19.503  0.00  0.00    -0.126 NA
ATOM     24  N   UNL d   1       9.248   6.369 -18.721  0.00  0.00    -0.122 NA
BRANCH  21  25
ATOM     25  C   UNL d   1       8.163   8.445 -21.414  0.00  0.00     0.151 A 
ATOM     26  C   UNL d   1       6.863   8.895 -21.443  0.00  0.00     0.087 A 
ATOM     27  N   UNL d   1       6.689   9.674 -22.577  0.00  0.00    -0.221 NA
ATOM     28  C   UNL d   1       5.741   8.659 -20.483  0.00  0.00     0.054 C 
ATOM     29  C   UNL d   1       7.877   9.662 -23.174  0.00  0.00     0.225 A 
ATOM     30  O   UNL d   1       8.820   8.945 -22.508  0.00  0.00    -0.282 OA
ENDBRANCH  21  25
ENDBRANCH  18  19
ENDBRANCH  17  18
ENDBRANCH  16  17
ENDBRANCH  15  16
ENDBRANCH  13  15
BRANCH   1  31
ATOM     31  O   UNL d   1       9.543   5.771 -13.040  0.00  0.00    -0.328 OA
ATOM     32  C   UNL d   1       9.010   6.816 -12.248  0.00  0.00     0.181 C 
ENDBRANCH   1  31
TORSDOF 7
