REMARK  4 active torsions:
REMARK  status: ('A' for Active; 'I' for Inactive)
REMARK    1  A    between atoms: C_4  and  O_5 
REMARK    2  A    between atoms: O_5  and  C_6 
REMARK    3  A    between atoms: C_6  and  C_7 
REMARK    4  A    between atoms: N_12  and  C_13 
ROOT
ATOM      1  C   UNL d   1       9.912   7.131  -7.798  0.00  0.00     0.064 C 
ATOM      2  C   UNL d   1      10.883   7.865  -8.730  0.00  0.00     0.007 C 
ATOM      3  C   UNL d   1      10.256   7.972 -10.116  0.00  0.00     0.035 C 
ATOM      4  C   UNL d   1       9.876   6.578 -10.644  0.00  0.00     0.242 C 
ATOM      5  C   UNL d   1       9.276   6.677 -12.075  0.00  0.00     0.153 C 
ATOM      6  N   UNL d   1       8.943   5.346 -12.580  0.00  0.00    -0.179 N 
ATOM      7  C   UNL d   1       8.016   4.660 -11.691  0.00  0.00     0.155 C 
ATOM      8  C   UNL d   1       8.629   4.593 -10.269  0.00  0.00     0.275 C 
ATOM      9  N   UNL d   1       8.928   5.921  -9.731  0.00  0.00     0.139 N 
ATOM     10  C   UNL d   1       9.548   5.752  -8.409  0.00  0.00     0.253 C 
ENDROOT
BRANCH   1  11
ATOM     11  C   UNL d   1      10.553   6.982  -6.418  0.00  0.00     0.151 C 
BRANCH  11  12
ATOM     12  O   UNL d   1      10.857   8.245  -5.840  0.00  0.00    -0.331 OA
BRANCH  12  13
ATOM     13  C   UNL d   1      11.451   8.227  -4.596  0.00  0.00     0.094 A 
ATOM     14  C   UNL d   1      11.884   7.029  -3.958  0.00  0.00     0.024 A 
ATOM     15  C   UNL d   1      12.436   7.067  -2.666  0.00  0.00     0.002 A 
ATOM     16  C   UNL d   1      12.574   8.293  -1.995  0.00  0.00     0.000 A 
ATOM     17  C   UNL d   1      12.145   9.474  -2.622  0.00  0.00     0.002 A 
ATOM     18  C   UNL d   1      11.590   9.451  -3.914  0.00  0.00     0.024 A 
ENDBRANCH  12  13
ENDBRANCH  11  12
ENDBRANCH   1  11
BRANCH   6  19
ATOM     19  C   UNL d   1       9.452   4.785 -13.749  0.00  0.00     0.727 A 
ATOM     20  N   UNL d   1      10.659   5.183 -14.152  0.00  0.00    -0.060 NA
ATOM     21  C   UNL d   1      11.133   4.667 -15.313  0.00  0.00     0.120 A 
ATOM     22  C   UNL d   1      10.383   3.753 -16.074  0.00  0.00     0.043 A 
ATOM     23  C   UNL d   1       9.127   3.399 -15.557  0.00  0.00     0.120 A 
ATOM     24  N   UNL d   1       8.666   3.913 -14.397  0.00  0.00    -0.060 NA
ENDBRANCH   6  19
TORSDOF 4
