REMARK  11 active torsions:
REMARK  status: ('A' for Active; 'I' for Inactive)
REMARK    1  A    between atoms: C_2  and  C_3 
REMARK    2  A    between atoms: C_3  and  N_4 
REMARK    3  A    between atoms: N_4  and  C_5 
REMARK    4  A    between atoms: N_4  and  C_8 
REMARK    5  A    between atoms: C_5  and  C_6 
REMARK    6  A    between atoms: N_19  and  C_20 
REMARK    7  A    between atoms: C_20  and  C_21 
REMARK    8  A    between atoms: C_21  and  C_22 
REMARK    9  A    between atoms: C_22  and  C_23 
REMARK   10  A    between atoms: C_23  and  N_24 
REMARK       I    between atoms: N_24  and  C_25 
REMARK   11  A    between atoms: C_25  and  C_27 
ROOT
ATOM      1  C   UNL d   1       7.323   4.149 -13.086  0.00  0.00     0.246 C 
ATOM      2  C   UNL d   1       6.231   3.168 -12.575  0.00  0.00     0.063 C 
ATOM      3  C   UNL d   1       6.050   1.949 -13.457  0.00  0.00    -0.003 A 
ATOM      4  C   UNL d   1       4.968   1.100 -13.510  0.00  0.00    -0.003 A 
ATOM      5  C   UNL d   1       4.877   0.010 -14.395  0.00  0.00     0.001 A 
ATOM      6  C   UNL d   1       5.951  -0.282 -15.279  0.00  0.00     0.019 A 
ATOM      7  C   UNL d   1       7.075   0.557 -15.206  0.00  0.00     0.080 A 
ATOM      8  C   UNL d   1       7.060   1.633 -14.345  0.00  0.00     0.076 A 
ATOM      9  N   UNL d   1       8.266   2.298 -14.508  0.00  0.00    -0.279 N 
ATOM     10  C   UNL d   1       9.028   1.597 -15.347  0.00  0.00     0.332 A 
ATOM     11  O   UNL d   1      10.205   1.860 -15.637  0.00  0.00    -0.246 OA
ATOM     12  N   UNL d   1       8.320   0.543 -15.833  0.00  0.00    -0.280 N 
ATOM     13  C   UNL d   1       8.617   3.437 -13.637  0.00  0.00     0.144 C 
ENDROOT
BRANCH  12  14
ATOM     14  C   UNL d   1       8.728  -0.441 -16.835  0.00  0.00     0.111 C 
BRANCH  14  15
ATOM     15  C   UNL d   1       8.968   0.268 -18.190  0.00  0.00     0.027 C 
BRANCH  15  16
ATOM     16  C   UNL d   1       9.819  -0.541 -19.212  0.00  0.00     0.028 C 
BRANCH  16  17
ATOM     17  C   UNL d   1      10.363   0.344 -20.369  0.00  0.00     0.129 C 
BRANCH  17  18
ATOM     18  N   UNL d   1      11.159   1.507 -19.961  0.00  0.00    -0.233 NA
ATOM     19  C   UNL d   1      10.669   2.666 -19.481  0.00  0.00     0.293 C 
ATOM     20  O   UNL d   1       9.468   2.965 -19.544  0.00  0.00    -0.264 OA
BRANCH  19  21
ATOM     21  C   UNL d   1      11.644   3.498 -18.747  0.00  0.00     0.139 A 
ATOM     22  N   UNL d   1      11.171   4.523 -17.950  0.00  0.00    -0.241 NA
ATOM     23  C   UNL d   1      12.210   5.239 -17.390  0.00  0.00     0.082 A 
ATOM     24  C   UNL d   1      13.394   4.586 -17.834  0.00  0.00     0.019 A 
ATOM     25  C   UNL d   1      12.243   6.390 -16.586  0.00  0.00     0.019 A 
ATOM     26  C   UNL d   1      13.010   3.466 -18.651  0.00  0.00     0.025 A 
ATOM     27  C   UNL d   1      14.630   5.139 -17.436  0.00  0.00     0.002 A 
ATOM     28  C   UNL d   1      14.676   6.309 -16.654  0.00  0.00     0.000 A 
ATOM     29  C   UNL d   1      13.486   6.935 -16.227  0.00  0.00     0.002 A 
ENDBRANCH  19  21
ENDBRANCH  17  18
ENDBRANCH  16  17
ENDBRANCH  15  16
ENDBRANCH  14  15
ENDBRANCH  12  14
BRANCH   1  30
ATOM     30  N   UNL d   1       7.608   5.225 -12.115  0.00  0.00     0.137 N 
BRANCH  30  31
ATOM     31  C   UNL d   1       8.352   4.790 -10.922  0.00  0.00     0.250 C 
BRANCH  31  32
ATOM     32  C   UNL d   1       8.957   5.958 -10.110  0.00  0.00     0.035 C 
ATOM     33  C   UNL d   1       9.607   5.492  -8.807  0.00  0.00     0.002 C 
ENDBRANCH  31  32
ENDBRANCH  30  31
BRANCH  30  34
ATOM     34  C   UNL d   1       6.378   5.934 -11.720  0.00  0.00     0.250 C 
BRANCH  34  35
ATOM     35  C   UNL d   1       6.030   6.999 -12.789  0.00  0.00     0.035 C 
ATOM     36  C   UNL d   1       5.323   8.261 -12.280  0.00  0.00     0.002 C 
ENDBRANCH  34  35
ENDBRANCH  30  34
ENDBRANCH   1  30
TORSDOF 11
