REMARK  8 active torsions:
REMARK  status: ('A' for Active; 'I' for Inactive)
REMARK    1  A    between atoms: S_2  and  N_4 
REMARK    2  A    between atoms: S_2  and  C_24 
REMARK    3  A    between atoms: N_4  and  C_5 
REMARK    4  A    between atoms: C_5  and  C_6 
REMARK    5  A    between atoms: C_6  and  C_7 
REMARK    6  A    between atoms: C_7  and  C_8 
REMARK    7  A    between atoms: C_8  and  N_9 
REMARK    8  A    between atoms: N_12  and  C_13 
ROOT
ATOM      1  C   UNL d   1       7.014   2.663 -13.884  0.00  0.00     0.037 C 
ENDROOT
BRANCH   1   2
ATOM      2  C   UNL d   1       7.209   1.405 -14.735  0.00  0.00     0.029 C 
BRANCH   2   3
ATOM      3  C   UNL d   1       5.948   0.540 -14.816  0.00  0.00     0.139 C 
BRANCH   3   4
ATOM      4  N   UNL d   1       6.031  -0.413 -15.930  0.00  0.00    -0.185 NA
BRANCH   4   5
ATOM      5  S   UNL d   1       4.827  -1.670 -16.032  0.00  0.00     0.283 S 
ATOM      6  O   UNL d   1       5.406  -2.809 -15.326  0.00  0.00    -0.199 OA
ATOM      7  O   UNL d   1       3.537  -1.078 -15.640  0.00  0.00    -0.199 OA
BRANCH   5   8
ATOM      8  C   UNL d   1       4.784  -1.994 -17.812  0.00  0.00     0.123 A 
ATOM      9  C   UNL d   1       5.106  -3.269 -18.367  0.00  0.00     0.100 A 
ATOM     10  C   UNL d   1       5.031  -3.389 -19.793  0.00  0.00     0.049 A 
ATOM     11  N   UNL d   1       5.512  -4.434 -17.710  0.00  0.00    -0.236 NA
ATOM     12  C   UNL d   1       4.662  -2.306 -20.607  0.00  0.00     0.008 A 
ATOM     13  S   UNL d   1       5.462  -5.024 -20.299  0.00  0.00    -0.064 SA
ATOM     14  C   UNL d   1       4.372  -1.059 -20.027  0.00  0.00     0.001 A 
ATOM     15  C   UNL d   1       4.429  -0.902 -18.633  0.00  0.00     0.015 A 
ATOM     16  C   UNL d   1       5.697  -5.417 -18.596  0.00  0.00     0.135 A 
ENDBRANCH   5   8
ENDBRANCH   4   5
ENDBRANCH   3   4
ENDBRANCH   2   3
ENDBRANCH   1   2
BRANCH   1  17
ATOM     17  C   UNL d   1       8.339   3.427 -13.738  0.00  0.00     0.251 C 
BRANCH  17  18
ATOM     18  N   UNL d   1       8.085   4.661 -13.008  0.00  0.00     0.141 N 
ATOM     19  C   UNL d   1       9.048   5.691 -13.391  0.00  0.00     0.274 C 
ATOM     20  C   UNL d   1       8.818   6.995 -12.590  0.00  0.00     0.138 C 
ATOM     21  N   UNL d   1       8.987   6.669 -11.177  0.00  0.00    -0.329 N 
ATOM     22  C   UNL d   1       8.055   5.628 -10.742  0.00  0.00     0.138 C 
ATOM     23  C   UNL d   1       8.295   4.398 -11.589  0.00  0.00     0.274 C 
BRANCH  21  24
ATOM     24  C   UNL d   1       9.754   7.476 -10.276  0.00  0.00     0.148 C 
ATOM     25  C   UNL d   1       9.749   7.357  -8.813  0.00  0.00     0.042 A 
ATOM     26  C   UNL d   1      10.744   8.245  -8.283  0.00  0.00     0.050 A 
ATOM     27  C   UNL d   1       9.009   6.606  -7.850  0.00  0.00     0.004 A 
ATOM     28  S   UNL d   1      11.450   9.137  -9.600  0.00  0.00     0.015 SA
ATOM     29  C   UNL d   1      11.037   8.350  -6.905  0.00  0.00     0.008 A 
ATOM     30  N   UNL d   1      10.506   8.428 -10.771  0.00  0.00    -0.192 NA
ATOM     31  C   UNL d   1      10.327   7.552  -5.990  0.00  0.00     0.001 A 
ATOM     32  C   UNL d   1       9.314   6.709  -6.484  0.00  0.00     0.000 A 
ENDBRANCH  21  24
ENDBRANCH  17  18
ENDBRANCH   1  17
TORSDOF 8
