REMARK  3 active torsions:
REMARK  status: ('A' for Active; 'I' for Inactive)
REMARK    1  A    between atoms: C_8  and  C_9 
REMARK    2  A    between atoms: C_9  and  N_10 
REMARK    3  A    between atoms: N_13  and  C_14 
ROOT
ATOM      1  N   UNL d   1       9.252   6.243 -11.157  0.00  0.00     0.145 N 
ATOM      2  C   UNL d   1       8.771   5.708  -9.875  0.00  0.00     0.275 C 
ATOM      3  C   UNL d   1       9.918   5.628  -8.849  0.00  0.00     0.137 C 
ATOM      4  N   UNL d   1      10.593   6.923  -8.734  0.00  0.00    -0.344 N 
ATOM      5  C   UNL d   1      11.001   7.530  -9.991  0.00  0.00     0.137 C 
ATOM      6  C   UNL d   1       9.795   7.590 -10.940  0.00  0.00     0.275 C 
ENDROOT
BRANCH   1   7
ATOM      7  C   UNL d   1       8.140   6.316 -12.109  0.00  0.00     0.277 C 
BRANCH   7   8
ATOM      8  C   UNL d   1       7.816   4.986 -12.761  0.00  0.00     0.013 A 
ATOM      9  C   UNL d   1       6.487   4.514 -12.806  0.00  0.00    -0.000 A 
ATOM     10  C   UNL d   1       6.195   3.297 -13.453  0.00  0.00     0.025 A 
ATOM     11  C   UNL d   1       7.222   2.558 -14.074  0.00  0.00     0.112 A 
ATOM     12  O   UNL d   1       6.944   1.336 -14.643  0.00  0.00    -0.319 OA
ATOM     13  C   UNL d   1       8.552   3.030 -14.023  0.00  0.00     0.106 A 
ATOM     14  C   UNL d   1       7.874   0.841 -15.619  0.00  0.00     0.238 C 
ATOM     15  C   UNL d   1       9.345   1.123 -15.261  0.00  0.00     0.286 C 
ATOM     16  O   UNL d   1      10.244   0.374 -15.638  0.00  0.00    -0.267 OA
ATOM     17  N   UNL d   1       9.588   2.231 -14.551  0.00  0.00    -0.208 NA
ATOM     18  C   UNL d   1       8.849   4.238 -13.363  0.00  0.00     0.019 A 
ENDBRANCH   7   8
ENDBRANCH   1   7
BRANCH   4  19
ATOM     19  C   UNL d   1      10.818   7.566  -7.502  0.00  0.00     0.056 A 
ATOM     20  C   UNL d   1      10.811   8.977  -7.396  0.00  0.00     0.018 A 
ATOM     21  C   UNL d   1      11.056   9.602  -6.160  0.00  0.00     0.013 A 
ATOM     22  C   UNL d   1      11.290   8.826  -5.013  0.00  0.00     0.058 A 
ATOM     23  C   UNL d   1      11.281   7.423  -5.103  0.00  0.00     0.013 A 
ATOM     24 CL   UNL d   1      11.570   9.590  -3.497  0.00  0.00    -0.082 Cl
ATOM     25  C   UNL d   1      11.062   6.805  -6.345  0.00  0.00     0.018 A 
ENDBRANCH   4  19
TORSDOF 3
