REMARK  7 active torsions:
REMARK  status: ('A' for Active; 'I' for Inactive)
REMARK    1  A    between atoms: C_4  and  C_5 
REMARK    2  A    between atoms: N_13  and  C_14 
REMARK    3  A    between atoms: C_14  and  C_15 
REMARK    4  A    between atoms: C_15  and  C_16 
REMARK    5  A    between atoms: C_16  and  S_17 
REMARK    6  A    between atoms: S_17  and  C_18 
REMARK    7  A    between atoms: C_21  and  C_22 
ROOT
ATOM      1  C   UNL d   1       9.490   2.686 -15.756  0.00  0.00     0.017 A 
ATOM      2  C   UNL d   1      10.422   3.226 -14.846  0.00  0.00     0.001 A 
ATOM      3  C   UNL d   1      11.576   3.886 -15.309  0.00  0.00    -0.004 A 
ATOM      4  C   UNL d   1      11.823   4.013 -16.694  0.00  0.00    -0.024 A 
ATOM      5  C   UNL d   1      10.896   3.471 -17.612  0.00  0.00    -0.024 A 
ATOM      6  C   UNL d   1       9.743   2.811 -17.137  0.00  0.00    -0.003 A 
ATOM      7  C   UNL d   1      11.121   3.582 -19.108  0.00  0.00     0.061 C 
ATOM      8  C   UNL d   1      12.399   2.883 -19.590  0.00  0.00     0.255 C 
ATOM      9  N   UNL d   1      13.605   3.689 -19.420  0.00  0.00     0.138 N 
ATOM     10  C   UNL d   1      14.014   3.824 -18.016  0.00  0.00     0.255 C 
ATOM     11  C   UNL d   1      13.082   4.719 -17.174  0.00  0.00     0.061 C 
ENDROOT
BRANCH   9  12
ATOM     12  C   UNL d   1      14.680   3.079 -20.205  0.00  0.00     0.251 C 
BRANCH  12  13
ATOM     13  C   UNL d   1      15.590   4.168 -20.762  0.00  0.00     0.047 C 
BRANCH  13  14
ATOM     14  C   UNL d   1      16.642   3.605 -21.745  0.00  0.00     0.067 C 
BRANCH  14  15
ATOM     15  S   UNL d   1      17.391   4.882 -22.801  0.00  0.00    -0.075 SA
BRANCH  15  16
ATOM     16  C   UNL d   1      18.509   5.605 -21.656  0.00  0.00     0.193 A 
ATOM     17  N   UNL d   1      19.651   6.214 -22.040  0.00  0.00    -0.289 N 
ATOM     18  C   UNL d   1      20.155   6.600 -20.845  0.00  0.00     0.167 A 
ATOM     19  C   UNL d   1      20.160   6.413 -23.402  0.00  0.00     0.134 C 
ATOM     20  N   UNL d   1      19.373   6.282 -19.806  0.00  0.00    -0.128 NA
ATOM     21  N   UNL d   1      18.305   5.637 -20.344  0.00  0.00    -0.122 NA
BRANCH  18  22
ATOM     22  C   UNL d   1      21.401   7.308 -20.628  0.00  0.00     0.038 A 
ATOM     23  C   UNL d   1      21.418   8.440 -19.781  0.00  0.00     0.035 A 
ATOM     24  C   UNL d   1      22.621   9.132 -19.548  0.00  0.00     0.168 A 
ATOM     25  C   UNL d   1      23.812   8.693 -20.168  0.00  0.00     0.167 A 
ATOM     26  F   UNL d   1      22.634  10.208 -18.718  0.00  0.00    -0.202 F 
ATOM     27  C   UNL d   1      23.799   7.553 -21.000  0.00  0.00     0.032 A 
ATOM     28  F   UNL d   1      24.974   9.355 -19.946  0.00  0.00    -0.202 F 
ATOM     29  C   UNL d   1      22.602   6.846 -21.210  0.00  0.00     0.005 A 
ENDBRANCH  18  22
ENDBRANCH  15  16
ENDBRANCH  14  15
ENDBRANCH  13  14
ENDBRANCH  12  13
ENDBRANCH   9  12
BRANCH   1  30
ATOM     30  C   UNL d   1       8.294   1.976 -15.303  0.00  0.00     0.079 A 
ATOM     31  C   UNL d   1       7.782   0.783 -15.728  0.00  0.00     0.035 A 
ATOM     32  C   UNL d   1       6.617   0.601 -14.932  0.00  0.00     0.081 A 
ATOM     33  C   UNL d   1       5.653  -0.549 -14.944  0.00  0.00     0.054 C 
ATOM     34  N   UNL d   1       6.411   1.614 -14.104  0.00  0.00    -0.174 NA
ATOM     35  N   UNL d   1       7.435   2.467 -14.335  0.00  0.00    -0.249 N 
ATOM     36  C   UNL d   1       7.487   3.708 -13.581  0.00  0.00     0.154 C 
ENDBRANCH   1  30
TORSDOF 7
