REMARK  9 active torsions:
REMARK  status: ('A' for Active; 'I' for Inactive)
REMARK    1  A    between atoms: C_8  and  O_9 
REMARK    2  A    between atoms: O_9  and  C_10 
REMARK    3  A    between atoms: C_10  and  C_11 
REMARK    4  A    between atoms: C_11  and  C_12 
REMARK    5  A    between atoms: C_12  and  C_13 
REMARK    6  A    between atoms: C_13  and  N_14 
REMARK    7  A    between atoms: N_14  and  C_15 
REMARK    8  A    between atoms: C_15  and  C_16 
REMARK    9  A    between atoms: C_18  and  C_19 
ROOT
ATOM      1  C   UNL d   1       9.835   7.400 -11.401  0.00  0.00     0.041 C 
ENDROOT
BRANCH   1   2
ATOM      2  C   UNL d   1       9.770   8.290 -10.171  0.00  0.00     0.035 C 
BRANCH   2   3
ATOM      3  C   UNL d   1      11.144   8.878  -9.815  0.00  0.00     0.149 C 
BRANCH   3   4
ATOM      4  O   UNL d   1      11.082   9.550  -8.567  0.00  0.00    -0.331 OA
BRANCH   4   5
ATOM      5  C   UNL d   1      11.243   8.806  -7.420  0.00  0.00     0.096 A 
ATOM      6  C   UNL d   1      11.245   7.388  -7.406  0.00  0.00     0.024 A 
ATOM      7  C   UNL d   1      11.410   6.686  -6.206  0.00  0.00     0.004 A 
ATOM      8  C   UNL d   1      11.578   7.386  -5.003  0.00  0.00     0.018 A 
ATOM      9  C   UNL d   1      11.846   6.700  -3.748  0.00  0.00     0.006 A 
ATOM     10  C   UNL d   1      11.607   8.791  -5.006  0.00  0.00     0.087 A 
ATOM     11  C   UNL d   1      12.079   7.386  -2.620  0.00  0.00     0.063 A 
ATOM     12  C   UNL d   1      12.096   8.838  -2.612  0.00  0.00     0.279 A 
ATOM     13  O   UNL d   1      12.243   9.475  -1.586  0.00  0.00    -0.265 OA
ATOM     14  N   UNL d   1      11.859   9.458  -3.784  0.00  0.00    -0.208 NA
ATOM     15  C   UNL d   1      11.431   9.508  -6.208  0.00  0.00     0.043 A 
ENDBRANCH   4   5
ENDBRANCH   3   4
ENDBRANCH   2   3
ENDBRANCH   1   2
BRANCH   1  16
ATOM     16  C   UNL d   1       8.475   6.804 -11.748  0.00  0.00     0.290 C 
BRANCH  16  17
ATOM     17  N   UNL d   1       8.614   5.883 -12.866  0.00  0.00     0.339 N 
BRANCH  17  18
ATOM     18  C   UNL d   1       7.923   4.630 -12.618  0.00  0.00     0.290 C 
BRANCH  18  19
ATOM     19  C   UNL d   1       7.713   3.920 -13.930  0.00  0.00     0.041 A 
ATOM     20  C   UNL d   1       8.194   2.495 -14.128  0.00  0.00     0.025 A 
ATOM     21  C   UNL d   1       8.870   3.620 -14.866  0.00  0.00     0.007 A 
BRANCH  20  22
ATOM     22  C   UNL d   1       7.375   1.461 -14.846  0.00  0.00    -0.011 A 
ATOM     23  C   UNL d   1       6.114   1.023 -14.375  0.00  0.00     0.064 A 
ATOM     24  C   UNL d   1       5.383   0.051 -15.114  0.00  0.00     0.068 A 
ATOM     25 CL   UNL d   1       5.429   1.666 -12.921  0.00  0.00    -0.082 Cl
ATOM     26  C   UNL d   1       5.884  -0.420 -16.339  0.00  0.00     0.012 A 
ATOM     27 CL   UNL d   1       3.848  -0.537 -14.555  0.00  0.00    -0.082 Cl
ATOM     28  C   UNL d   1       7.139   0.014 -16.804  0.00  0.00     0.001 A 
ATOM     29  C   UNL d   1       7.880   0.945 -16.049  0.00  0.00    -0.003 A 
ENDBRANCH  20  22
ENDBRANCH  18  19
ENDBRANCH  17  18
ENDBRANCH  16  17
ENDBRANCH   1  16
TORSDOF 9
