REMARK  10 active torsions:
REMARK  status: ('A' for Active; 'I' for Inactive)
REMARK    1  A    between atoms: O_2  and  C_3 
REMARK    2  A    between atoms: C_3  and  C_4 
REMARK    3  A    between atoms: C_3  and  O_32 
REMARK    4  A    between atoms: C_4  and  C_5 
REMARK    5  A    between atoms: C_5  and  C_6 
REMARK       I    between atoms: C_6  and  N_8 
REMARK    6  A    between atoms: N_8  and  C_9 
REMARK    7  A    between atoms: C_12  and  C_13 
REMARK    8  A    between atoms: C_13  and  C_14 
REMARK    9  A    between atoms: C_14  and  N_15 
REMARK   10  A    between atoms: N_18  and  C_19 
ROOT
ATOM      1  C   UNL d   1       8.214   5.200 -11.759  0.00  0.00     0.035 C 
ENDROOT
BRANCH   1   2
ATOM      2  C   UNL d   1       7.984   3.947 -12.605  0.00  0.00     0.002 C 
ATOM      3  C   UNL d   1       7.120   4.219 -13.822  0.00  0.00     0.002 C 
ATOM      4  C   UNL d   1       6.881   2.921 -14.612  0.00  0.00     0.024 C 
ATOM      5  C   UNL d   1       8.212   2.287 -15.081  0.00  0.00     0.106 C 
ATOM      6  C   UNL d   1       9.119   2.000 -13.888  0.00  0.00     0.024 C 
ATOM      7  C   UNL d   1       9.317   3.265 -13.029  0.00  0.00     0.002 C 
BRANCH   5   8
ATOM      8  N   UNL d   1       7.941   1.047 -15.804  0.00  0.00    -0.240 NA
ATOM      9  C   UNL d   1       7.616   0.976 -17.104  0.00  0.00     0.252 C 
ATOM     10  O   UNL d   1       7.642   1.941 -17.871  0.00  0.00    -0.271 OA
BRANCH   9  11
ATOM     11  C   UNL d   1       7.137  -0.379 -17.611  0.00  0.00     0.095 C 
BRANCH  11  12
ATOM     12  C   UNL d   1       5.660  -0.298 -18.071  0.00  0.00     0.071 C 
BRANCH  12  13
ATOM     13  C   UNL d   1       5.365  -1.483 -19.032  0.00  0.00     0.236 C 
BRANCH  13  14
ATOM     14  O   UNL d   1       6.129  -1.334 -20.197  0.00  0.00    -0.328 OA
ATOM     15  C   UNL d   1       5.776  -0.239 -21.039  0.00  0.00     0.177 C 
ENDBRANCH  13  14
BRANCH  13  16
ATOM     16  O   UNL d   1       5.682  -2.689 -18.396  0.00  0.00    -0.328 OA
ATOM     17  C   UNL d   1       4.795  -3.072 -17.347  0.00  0.00     0.177 C 
ENDBRANCH  13  16
ENDBRANCH  12  13
ENDBRANCH  11  12
ENDBRANCH   9  11
ENDBRANCH   5   8
ENDBRANCH   1   2
BRANCH   1  18
ATOM     18  C   UNL d   1       8.916   4.891 -10.415  0.00  0.00     0.250 C 
BRANCH  18  19
ATOM     19  N   UNL d   1       8.820   6.029  -9.525  0.00  0.00     0.141 N 
ATOM     20  C   UNL d   1       9.784   7.091  -9.867  0.00  0.00     0.274 C 
ATOM     21  C   UNL d   1       9.649   8.312  -8.914  0.00  0.00     0.138 C 
ATOM     22  N   UNL d   1       9.754   7.843  -7.531  0.00  0.00    -0.330 N 
ATOM     23  C   UNL d   1       8.843   6.768  -7.168  0.00  0.00     0.138 C 
ATOM     24  C   UNL d   1       9.037   5.600  -8.144  0.00  0.00     0.274 C 
BRANCH  22  25
ATOM     25  C   UNL d   1      10.634   8.432  -6.605  0.00  0.00     0.138 A 
ATOM     26  C   UNL d   1      11.105   7.769  -5.453  0.00  0.00     0.036 A 
ATOM     27  C   UNL d   1      12.017   8.367  -4.613  0.00  0.00     0.095 A 
ATOM     28  C   UNL d   1      10.920   6.390  -4.950  0.00  0.00     0.064 C 
ATOM     29  C   UNL d   1      12.507   9.604  -4.912  0.00  0.00     0.045 A 
ATOM     30  O   UNL d   1      12.448   7.619  -3.562  0.00  0.00    -0.331 OA
ATOM     31  C   UNL d   1      11.948  10.262  -6.027  0.00  0.00     0.103 A 
ATOM     32  N   UNL d   1      11.049   9.690  -6.862  0.00  0.00    -0.228 NA
ATOM     33  C   UNL d   1      11.709   6.418  -3.631  0.00  0.00     0.154 C 
ENDBRANCH  22  25
ENDBRANCH  18  19
ENDBRANCH   1  18
TORSDOF 10
