REMARK  1 active torsions:
REMARK  status: ('A' for Active; 'I' for Inactive)
REMARK    1  A    between atoms: C_2  and  C_4 
ROOT
ATOM      1  C   UNL d   1      11.192   8.181  -5.243  0.00  0.00     0.064 A 
ATOM      2  C   UNL d   1      11.467   9.383  -4.562  0.00  0.00     0.006 A 
ATOM      3  C   UNL d   1      11.992   9.355  -3.255  0.00  0.00     0.000 A 
ATOM      4  C   UNL d   1      12.258   8.124  -2.627  0.00  0.00     0.000 A 
ATOM      5  C   UNL d   1      11.990   6.919  -3.304  0.00  0.00     0.000 A 
ATOM      6  C   UNL d   1      11.458   6.946  -4.609  0.00  0.00     0.006 A 
ENDROOT
BRANCH   1   7
ATOM      7  C   UNL d   1      10.609   8.220  -6.626  0.00  0.00     0.211 C 
ATOM      8  O   UNL d   1      10.735   9.196  -7.360  0.00  0.00    -0.644 OA
ATOM      9  O   UNL d   1       9.847   7.139  -6.945  0.00  0.00    -0.644 OA
ENDBRANCH   1   7
TORSDOF 1
