REMARK  0 active torsions:
REMARK  status: ('A' for Active; 'I' for Inactive)
ROOT
ATOM      1  N   UNL d   1      10.287   8.104  -9.328  0.00  0.00     0.616 N 
ATOM      2  C   UNL d   1      10.990   7.968  -8.065  0.00  0.00     0.307 C 
ATOM      3  C   UNL d   1      10.645   6.633  -7.403  0.00  0.00     0.044 C 
ATOM      4  C   UNL d   1      11.455   6.458  -6.109  0.00  0.00     0.030 C 
ATOM      5  C   UNL d   1      11.457   7.683  -5.208  0.00  0.00     0.002 A 
ATOM      6  C   UNL d   1      11.866   7.553  -3.861  0.00  0.00     0.136 A 
ATOM      7  F   UNL d   1      12.263   6.360  -3.368  0.00  0.00    -0.205 F 
ATOM      8  C   UNL d   1      11.877   8.669  -3.012  0.00  0.00     0.029 A 
ATOM      9  C   UNL d   1      11.475   9.921  -3.504  0.00  0.00     0.002 A 
ATOM     10  C   UNL d   1      11.064  10.061  -4.840  0.00  0.00    -0.004 A 
ATOM     11  C   UNL d   1      11.061   8.946  -5.700  0.00  0.00    -0.022 A 
ATOM     12  C   UNL d   1      10.615   9.132  -7.141  0.00  0.00     0.065 C 
ENDROOT
TORSDOF 0
