REMARK  7 active torsions:
REMARK  status: ('A' for Active; 'I' for Inactive)
REMARK    1  A    between atoms: C_2  and  C_3 
REMARK    2  A    between atoms: C_3  and  C_4 
REMARK    3  A    between atoms: C_4  and  C_5 
REMARK    4  A    between atoms: C_5  and  O_6 
REMARK    5  A    between atoms: O_6  and  C_7 
REMARK    6  A    between atoms: C_12  and  O_13 
REMARK    7  A    between atoms: C_21  and  O_22 
ROOT
ATOM      1  C   UNL d   1       8.870   3.859 -13.535  0.00  0.00     0.116 A 
ATOM      2  C   UNL d   1      10.292   3.876 -13.618  0.00  0.00     0.026 A 
ATOM      3  C   UNL d   1      10.975   3.203 -14.630  0.00  0.00    -0.002 A 
ATOM      4  C   UNL d   1      10.255   2.500 -15.615  0.00  0.00    -0.020 A 
ATOM      5  C   UNL d   1       8.843   2.457 -15.550  0.00  0.00     0.031 A 
ATOM      6  C   UNL d   1       8.152   3.086 -14.501  0.00  0.00     0.114 A 
ATOM      7  C   UNL d   1       8.085   1.700 -16.632  0.00  0.00     0.279 C 
ATOM      8  N   UNL d   1       8.861   1.479 -17.854  0.00  0.00     0.144 N 
ATOM      9  C   UNL d   1       8.072   0.667 -18.773  0.00  0.00     0.256 C 
ATOM     10  C   UNL d   1       8.793   0.619 -20.128  0.00  0.00     0.061 C 
ATOM     11  C   UNL d   1      10.233   0.158 -19.992  0.00  0.00    -0.020 A 
ATOM     12  C   UNL d   1      10.915  -0.353 -21.116  0.00  0.00     0.022 A 
ATOM     13  C   UNL d   1      12.261  -0.801 -20.999  0.00  0.00     0.119 A 
ATOM     14  C   UNL d   1      12.884  -0.731 -19.741  0.00  0.00     0.153 A 
ATOM     15  O   UNL d   1      14.165  -1.188 -19.599  0.00  0.00    -0.188 OA
ATOM     16  C   UNL d   1      12.203  -0.217 -18.621  0.00  0.00     0.027 A 
ATOM     17  C   UNL d   1      10.874   0.253 -18.742  0.00  0.00     0.007 A 
ATOM     18  C   UNL d   1      10.129   0.805 -17.522  0.00  0.00     0.246 C 
ATOM     19  C   UNL d   1      10.995   1.825 -16.747  0.00  0.00     0.064 C 
ENDROOT
BRANCH   1  20
ATOM     20  O   UNL d   1       8.140   4.569 -12.608  0.00  0.00    -0.329 OA
BRANCH  20  21
ATOM     21  C   UNL d   1       8.782   5.370 -11.627  0.00  0.00     0.149 C 
BRANCH  21  22
ATOM     22  C   UNL d   1       7.895   5.405 -10.377  0.00  0.00     0.033 C 
BRANCH  22  23
ATOM     23  C   UNL d   1       8.575   5.981  -9.113  0.00  0.00     0.003 C 
BRANCH  23  24
ATOM     24  C   UNL d   1       9.901   5.308  -8.707  0.00  0.00     0.000 C 
ATOM     25  C   UNL d   1       9.914   3.784  -8.986  0.00  0.00     0.000 C 
ENDBRANCH  23  24
ENDBRANCH  22  23
ENDBRANCH  21  22
ENDBRANCH  20  21
ENDBRANCH   1  20
BRANCH   6  26
ATOM     26  O   UNL d   1       6.776   3.033 -14.461  0.00  0.00    -0.326 OA
ATOM     27  C   UNL d   1       6.217   2.342 -13.353  0.00  0.00     0.181 C 
ENDBRANCH   6  26
BRANCH  13  28
ATOM     28  O   UNL d   1      12.990  -1.327 -22.044  0.00  0.00    -0.326 OA
ATOM     29  C   UNL d   1      12.362  -1.434 -23.312  0.00  0.00     0.181 C 
ENDBRANCH  13  28
TORSDOF 7
