REMARK  5 active torsions:
REMARK  status: ('A' for Active; 'I' for Inactive)
REMARK    1  A    between atoms: N_2  and  C_4 
REMARK    2  A    between atoms: C_4  and  C_5 
REMARK    3  A    between atoms: C_5  and  C_6 
REMARK    4  A    between atoms: C_6  and  C_7 
REMARK    5  A    between atoms: C_7  and  C_8 
ROOT
ATOM      1  C   UNL d   1       9.416   4.098 -13.817  0.00  0.00     0.130 C 
ATOM      2  O   UNL d   1       9.834   5.320 -14.421  0.00  0.00    -0.346 OA
ATOM      3  C   UNL d   1      10.177   5.113 -15.810  0.00  0.00     0.169 C 
ATOM      4  C   UNL d   1      10.387   3.636 -15.931  0.00  0.00     0.006 A 
ATOM      5  C   UNL d   1      10.873   2.876 -17.014  0.00  0.00     0.008 A 
ATOM      6  C   UNL d   1      10.935   1.478 -16.832  0.00  0.00     0.068 A 
ATOM      7  C   UNL d   1      11.430   0.621 -17.908  0.00  0.00     0.101 C 
ATOM      8  N   UNL d   1      11.820  -0.055 -18.745  0.00  0.00    -0.191 NA
ATOM      9  C   UNL d   1      10.539   0.881 -15.618  0.00  0.00     0.010 A 
ATOM     10  C   UNL d   1      10.076   1.677 -14.562  0.00  0.00    -0.001 A 
ATOM     11  C   UNL d   1       9.977   3.054 -14.756  0.00  0.00     0.004 A 
ENDROOT
BRANCH   1  12
ATOM     12  C   UNL d   1      10.090   3.956 -12.445  0.00  0.00     0.038 C 
BRANCH  12  13
ATOM     13  C   UNL d   1       9.820   5.065 -11.405  0.00  0.00     0.038 C 
BRANCH  13  14
ATOM     14  C   UNL d   1       9.662   4.558  -9.938  0.00  0.00     0.251 C 
BRANCH  14  15
ATOM     15  N   UNL d   1       9.718   5.609  -8.914  0.00  0.00     0.141 N 
ATOM     16  C   UNL d   1      10.461   6.787  -9.343  0.00  0.00     0.285 C 
ATOM     17  C   UNL d   1       8.360   6.027  -8.579  0.00  0.00     0.285 C 
ENDBRANCH  14  15
ENDBRANCH  13  14
ENDBRANCH  12  13
ENDBRANCH   1  12
BRANCH   1  18
ATOM     18  C   UNL d   1       7.894   4.006 -13.670  0.00  0.00     0.006 A 
ATOM     19  C   UNL d   1       7.135   5.055 -13.079  0.00  0.00     0.001 A 
ATOM     20  C   UNL d   1       5.778   4.875 -12.786  0.00  0.00     0.029 A 
ATOM     21  C   UNL d   1       5.137   3.697 -13.192  0.00  0.00     0.140 A 
ATOM     22  C   UNL d   1       5.860   2.674 -13.813  0.00  0.00     0.029 A 
ATOM     23  F   UNL d   1       3.796   3.589 -13.066  0.00  0.00    -0.204 F 
ATOM     24  C   UNL d   1       7.225   2.834 -14.063  0.00  0.00     0.001 A 
ENDBRANCH   1  18
TORSDOF 5
