REMARK  7 active torsions:
REMARK  status: ('A' for Active; 'I' for Inactive)
REMARK    1  A    between atoms: C_3  and  S_4 
REMARK    2  A    between atoms: S_4  and  C_5 
REMARK    3  A    between atoms: C_5  and  C_6 
REMARK    4  A    between atoms: C_6  and  C_7 
REMARK    5  A    between atoms: C_7  and  N_8 
REMARK    6  A    between atoms: N_13  and  C_14 
REMARK    7  A    between atoms: C_27  and  C_28 
ROOT
ATOM      1  N   UNL d   1       9.499   3.056 -13.683  0.00  0.00     0.138 N 
ATOM      2  C   UNL d   1       8.655   3.786 -14.620  0.00  0.00     0.252 C 
ATOM      3  C   UNL d   1       8.198   4.998 -13.812  0.00  0.00     0.052 C 
ATOM      4  C   UNL d   1       6.928   4.799 -12.969  0.00  0.00     0.021 C 
ATOM      5  C   UNL d   1       7.264   5.545 -11.679  0.00  0.00     0.077 C 
ATOM      6  N   UNL d   1       8.690   5.334 -11.494  0.00  0.00    -0.248 NA
ATOM      7  C   UNL d   1       9.308   5.255 -12.814  0.00  0.00     0.097 C 
ATOM      8  C   UNL d   1      10.259   4.073 -12.971  0.00  0.00     0.266 C 
ENDROOT
BRANCH   1   9
ATOM      9  C   UNL d   1      10.372   2.095 -14.338  0.00  0.00     0.251 C 
BRANCH   9  10
ATOM     10  C   UNL d   1       9.583   0.878 -14.861  0.00  0.00     0.047 C 
BRANCH  10  11
ATOM     11  C   UNL d   1      10.309   0.203 -16.025  0.00  0.00     0.067 C 
BRANCH  11  12
ATOM     12  S   UNL d   1      10.265   1.265 -17.498  0.00  0.00    -0.075 SA
BRANCH  12  13
ATOM     13  C   UNL d   1      11.615   0.575 -18.398  0.00  0.00     0.193 A 
ATOM     14  N   UNL d   1      12.485   1.327 -19.105  0.00  0.00    -0.287 N 
ATOM     15  C   UNL d   1      12.494   2.775 -19.270  0.00  0.00     0.134 C 
ATOM     16  C   UNL d   1      13.332   0.393 -19.619  0.00  0.00     0.186 A 
ATOM     17  N   UNL d   1      12.980  -0.846 -19.249  0.00  0.00    -0.127 NA
ATOM     18  N   UNL d   1      11.869  -0.731 -18.453  0.00  0.00    -0.122 NA
BRANCH  16  19
ATOM     19  C   UNL d   1      14.506   0.627 -20.479  0.00  0.00     0.136 A 
ATOM     20  N   UNL d   1      14.918   1.901 -20.708  0.00  0.00    -0.238 NA
ATOM     21  C   UNL d   1      15.985   2.075 -21.516  0.00  0.00     0.120 A 
ATOM     22  C   UNL d   1      16.657   0.984 -22.103  0.00  0.00     0.120 A 
ATOM     23  N   UNL d   1      16.259  -0.288 -21.885  0.00  0.00    -0.239 NA
ATOM     24  C   UNL d   1      15.186  -0.461 -21.080  0.00  0.00     0.121 A 
ENDBRANCH  16  19
ENDBRANCH  12  13
ENDBRANCH  11  12
ENDBRANCH  10  11
ENDBRANCH   9  10
ENDBRANCH   1   9
BRANCH   6  25
ATOM     25  C   UNL d   1       9.281   6.160 -10.521  0.00  0.00     0.092 A 
ATOM     26  C   UNL d   1       9.503   5.632  -9.227  0.00  0.00     0.155 A 
ATOM     27  C   UNL d   1      10.126   6.410  -8.233  0.00  0.00     0.060 A 
ATOM     28  F   UNL d   1       9.138   4.362  -8.935  0.00  0.00    -0.203 F 
ATOM     29  C   UNL d   1      10.521   7.729  -8.512  0.00  0.00     0.145 A 
ATOM     30  C   UNL d   1      10.281   8.274  -9.790  0.00  0.00     0.060 A 
ATOM     31  F   UNL d   1      11.138   8.467  -7.558  0.00  0.00    -0.204 F 
ATOM     32  C   UNL d   1       9.650   7.503 -10.785  0.00  0.00     0.155 A 
ATOM     33  F   UNL d   1       9.392   8.071 -11.990  0.00  0.00    -0.203 F 
ENDBRANCH   6  25
TORSDOF 7
