REMARK  14 active torsions:
REMARK  status: ('A' for Active; 'I' for Inactive)
REMARK    1  A    between atoms: C_2  and  O_3 
REMARK    2  A    between atoms: O_3  and  C_4 
REMARK    3  A    between atoms: C_4  and  C_5 
REMARK    4  A    between atoms: C_5  and  O_6 
REMARK    5  A    between atoms: O_6  and  C_7 
REMARK    6  A    between atoms: C_7  and  C_8 
REMARK    7  A    between atoms: C_11  and  C_12 
REMARK       I    between atoms: C_12  and  N_14 
REMARK    8  A    between atoms: N_14  and  C_15 
REMARK    9  A    between atoms: C_15  and  C_16 
REMARK   10  A    between atoms: C_16  and  C_17 
REMARK   11  A    between atoms: C_17  and  C_18 
REMARK   12  A    between atoms: C_18  and  N_19 
REMARK   13  A    between atoms: N_22  and  C_23 
REMARK   14  A    between atoms: C_28  and  O_29 
ROOT
ATOM      1  C   UNL d   1       7.525   4.881 -11.082  0.00  0.00     0.129 C 
ENDROOT
BRANCH   1   2
ATOM      2  N   UNL d   1       8.368   5.839 -10.375  0.00  0.00    -0.234 NA
ATOM      3  C   UNL d   1       9.252   5.532  -9.421  0.00  0.00     0.275 C 
ATOM      4  O   UNL d   1       9.578   4.386  -9.118  0.00  0.00    -0.266 OA
BRANCH   3   5
ATOM      5  C   UNL d   1       9.825   6.699  -8.685  0.00  0.00     0.058 A 
ATOM      6  C   UNL d   1       9.152   7.235  -7.568  0.00  0.00     0.004 A 
ATOM      7  C   UNL d   1       9.702   8.334  -6.872  0.00  0.00    -0.002 A 
ATOM      8  C   UNL d   1      10.941   8.885  -7.267  0.00  0.00     0.007 A 
ATOM      9  C   UNL d   1      11.610   8.345  -8.383  0.00  0.00    -0.002 A 
ATOM     10  C   UNL d   1      11.043   7.264  -9.093  0.00  0.00     0.004 A 
BRANCH   8  11
ATOM     11  C   UNL d   1      11.536  10.092  -6.551  0.00  0.00     0.169 C 
BRANCH  11  12
ATOM     12  O   UNL d   1      11.478  10.025  -5.142  0.00  0.00    -0.347 OA
BRANCH  12  13
ATOM     13  C   UNL d   1      12.538   9.229  -4.620  0.00  0.00     0.175 C 
BRANCH  13  14
ATOM     14  C   UNL d   1      12.416   9.258  -3.081  0.00  0.00     0.174 C 
BRANCH  14  15
ATOM     15  O   UNL d   1      11.468   8.323  -2.566  0.00  0.00    -0.352 OA
BRANCH  15  16
ATOM     16  C   UNL d   1      11.477   6.952  -2.995  0.00  0.00     0.142 C 
ATOM     17  C   UNL d   1      12.871   6.371  -2.725  0.00  0.00     0.035 C 
ENDBRANCH  15  16
ENDBRANCH  14  15
ENDBRANCH  13  14
ENDBRANCH  12  13
ENDBRANCH  11  12
ENDBRANCH   8  11
ENDBRANCH   3   5
ENDBRANCH   1   2
BRANCH   1  18
ATOM     18  C   UNL d   1       8.162   4.424 -12.396  0.00  0.00     0.029 C 
BRANCH  18  19
ATOM     19  C   UNL d   1       7.197   3.640 -13.300  0.00  0.00     0.037 C 
BRANCH  19  20
ATOM     20  C   UNL d   1       7.962   2.899 -14.416  0.00  0.00     0.251 C 
BRANCH  20  21
ATOM     21  N   UNL d   1       7.053   2.208 -15.314  0.00  0.00     0.141 N 
ATOM     22  C   UNL d   1       7.712   1.954 -16.607  0.00  0.00     0.274 C 
ATOM     23  C   UNL d   1       6.725   1.291 -17.593  0.00  0.00     0.137 C 
ATOM     24  N   UNL d   1       6.209   0.068 -17.010  0.00  0.00    -0.343 N 
ATOM     25  C   UNL d   1       5.621   0.214 -15.689  0.00  0.00     0.137 C 
ATOM     26  C   UNL d   1       6.612   0.923 -14.743  0.00  0.00     0.274 C 
BRANCH  24  27
ATOM     27  C   UNL d   1       6.247  -1.191 -17.664  0.00  0.00     0.079 A 
ATOM     28  C   UNL d   1       7.384  -1.615 -18.401  0.00  0.00     0.110 A 
ATOM     29  C   UNL d   1       7.358  -2.903 -19.003  0.00  0.00     0.026 A 
ATOM     30  C   UNL d   1       6.242  -3.748 -18.863  0.00  0.00     0.002 A 
ATOM     31  C   UNL d   1       5.131  -3.323 -18.125  0.00  0.00     0.002 A 
ATOM     32  C   UNL d   1       5.131  -2.049 -17.535  0.00  0.00     0.019 A 
BRANCH  28  33
ATOM     33  O   UNL d   1       8.482  -0.780 -18.467  0.00  0.00    -0.327 OA
ATOM     34  C   UNL d   1       9.761  -1.335 -18.728  0.00  0.00     0.181 C 
ENDBRANCH  28  33
ENDBRANCH  24  27
ENDBRANCH  20  21
ENDBRANCH  19  20
ENDBRANCH  18  19
ENDBRANCH   1  18
TORSDOF 14
