REMARK  6 active torsions:
REMARK  status: ('A' for Active; 'I' for Inactive)
REMARK    1  A    between atoms: O_2  and  C_3 
REMARK    2  A    between atoms: C_6  and  O_7 
REMARK    3  A    between atoms: O_7  and  C_8 
REMARK    4  A    between atoms: C_8  and  C_9 
REMARK    5  A    between atoms: C_9  and  N_10 
REMARK       I    between atoms: N_13  and  C_14 
REMARK    6  A    between atoms: C_14  and  C_16 
ROOT
ATOM      1  N   UNL d   1       8.622   4.175 -12.611  0.00  0.00     0.144 N 
ATOM      2  C   UNL d   1       9.680   4.091 -11.622  0.00  0.00     0.274 C 
ATOM      3  C   UNL d   1       9.354   4.942 -10.396  0.00  0.00     0.140 C 
ATOM      4  N   UNL d   1       9.169   6.339 -10.798  0.00  0.00    -0.311 N 
ATOM      5  C   UNL d   1       9.835   7.408 -10.282  0.00  0.00     0.275 C 
ATOM      6  O   UNL d   1       9.922   8.468 -10.918  0.00  0.00    -0.266 OA
ATOM      7  C   UNL d   1       8.126   6.471 -11.816  0.00  0.00     0.140 C 
ATOM      8  C   UNL d   1       8.440   5.571 -13.023  0.00  0.00     0.274 C 
ENDROOT
BRANCH   5   9
ATOM      9  C   UNL d   1      10.259   7.405  -8.851  0.00  0.00     0.137 A 
ATOM     10  N   UNL d   1      10.731   8.598  -8.322  0.00  0.00    -0.240 NA
ATOM     11  C   UNL d   1      11.072   8.457  -6.981  0.00  0.00     0.092 A 
ATOM     12  C   UNL d   1      10.811   7.107  -6.673  0.00  0.00     0.020 A 
ATOM     13  C   UNL d   1      11.575   9.327  -6.009  0.00  0.00     0.075 A 
ATOM     14  C   UNL d   1      10.263   6.470  -7.829  0.00  0.00     0.025 A 
ATOM     15  C   UNL d   1      11.121   6.672  -5.362  0.00  0.00     0.002 A 
ATOM     16  C   UNL d   1      11.644   7.527  -4.383  0.00  0.00     0.001 A 
ATOM     17  C   UNL d   1      11.861   8.877  -4.702  0.00  0.00     0.013 A 
ATOM     18 CL   UNL d   1      11.846  10.955  -6.396  0.00  0.00    -0.081 Cl
ENDBRANCH   5   9
BRANCH   1  19
ATOM     19  C   UNL d   1       8.929   3.272 -13.722  0.00  0.00     0.283 C 
BRANCH  19  20
ATOM     20  C   UNL d   1      10.083   3.768 -14.618  0.00  0.00     0.184 C 
BRANCH  20  21
ATOM     21  O   UNL d   1      10.419   2.766 -15.537  0.00  0.00    -0.329 OA
BRANCH  21  22
ATOM     22  C   UNL d   1      11.446   3.062 -16.396  0.00  0.00     0.094 A 
ATOM     23  C   UNL d   1      11.790   2.021 -17.257  0.00  0.00     0.026 A 
ATOM     24  C   UNL d   1      12.806   2.184 -18.209  0.00  0.00     0.026 A 
ATOM     25  C   UNL d   1      13.518   3.413 -18.307  0.00  0.00     0.094 A 
ATOM     26  C   UNL d   1      13.171   4.463 -17.436  0.00  0.00     0.026 A 
ATOM     27  C   UNL d   1      12.149   4.297 -16.480  0.00  0.00     0.026 A 
BRANCH  25  28
ATOM     28  O   UNL d   1      14.541   3.633 -19.208  0.00  0.00    -0.328 OA
ATOM     29  C   UNL d   1      14.947   2.529 -20.009  0.00  0.00     0.181 C 
ENDBRANCH  25  28
ENDBRANCH  21  22
ENDBRANCH  20  21
ENDBRANCH  19  20
ENDBRANCH   1  19
TORSDOF 6
