REMARK  6 active torsions:
REMARK  status: ('A' for Active; 'I' for Inactive)
REMARK    1  A    between atoms: C_2  and  C_3 
REMARK    2  A    between atoms: C_3  and  N_4 
REMARK    3  A    between atoms: N_4  and  C_5 
REMARK    4  A    between atoms: N_4  and  C_8 
REMARK    5  A    between atoms: C_5  and  C_6 
REMARK    6  A    between atoms: C_16  and  C_17 
ROOT
ATOM      1  C   UNL d   1      10.670   3.514 -15.420  0.00  0.00     0.253 C 
ATOM      2  C   UNL d   1      10.927   4.836 -14.668  0.00  0.00     0.182 C 
ATOM      3  O   UNL d   1      10.380   4.824 -13.363  0.00  0.00    -0.329 OA
ATOM      4  C   UNL d   1       9.067   4.434 -13.257  0.00  0.00     0.090 A 
ATOM      5  C   UNL d   1       8.434   3.600 -14.226  0.00  0.00     0.002 A 
ATOM      6  C   UNL d   1       7.096   3.201 -14.043  0.00  0.00    -0.002 A 
ATOM      7  C   UNL d   1       6.392   3.596 -12.892  0.00  0.00    -0.000 A 
ATOM      8  C   UNL d   1       7.037   4.402 -11.935  0.00  0.00     0.002 A 
ATOM      9  C   UNL d   1       8.356   4.836 -12.109  0.00  0.00     0.022 A 
ATOM     10  C   UNL d   1       9.171   3.148 -15.481  0.00  0.00     0.064 C 
ENDROOT
BRANCH   1  11
ATOM     11  N   UNL d   1      11.287   3.463 -16.760  0.00  0.00     0.138 N 
BRANCH  11  12
ATOM     12  C   UNL d   1      12.638   2.904 -16.668  0.00  0.00     0.250 C 
BRANCH  12  13
ATOM     13  C   UNL d   1      13.267   2.565 -18.048  0.00  0.00     0.035 C 
ATOM     14  C   UNL d   1      12.648   1.298 -18.659  0.00  0.00     0.002 C 
ENDBRANCH  12  13
ENDBRANCH  11  12
BRANCH  11  15
ATOM     15  C   UNL d   1      11.307   4.739 -17.506  0.00  0.00     0.250 C 
BRANCH  15  16
ATOM     16  C   UNL d   1       9.902   5.307 -17.825  0.00  0.00     0.035 C 
ATOM     17  C   UNL d   1       9.244   4.462 -18.918  0.00  0.00     0.002 C 
ENDBRANCH  15  16
ENDBRANCH  11  15
ENDBRANCH   1  11
BRANCH   9  18
ATOM     18  C   UNL d   1       8.983   5.683 -11.081  0.00  0.00     0.002 A 
ATOM     19  C   UNL d   1       9.407   6.993 -11.386  0.00  0.00     0.000 A 
ATOM     20  C   UNL d   1      10.066   7.784 -10.423  0.00  0.00     0.000 A 
ATOM     21  C   UNL d   1      10.284   7.283  -9.125  0.00  0.00     0.000 A 
ATOM     22  C   UNL d   1       9.854   5.984  -8.800  0.00  0.00     0.000 A 
ATOM     23  C   UNL d   1       9.198   5.197  -9.774  0.00  0.00     0.000 A 
ENDBRANCH   9  18
TORSDOF 6
