REMARK  7 active torsions:
REMARK  status: ('A' for Active; 'I' for Inactive)
REMARK    1  A    between atoms: O_2  and  C_3 
REMARK    2  A    between atoms: C_8  and  N_9 
REMARK    3  A    between atoms: N_12  and  C_13 
REMARK    4  A    between atoms: C_13  and  C_14 
REMARK    5  A    between atoms: C_14  and  C_15 
REMARK    6  A    between atoms: C_15  and  C_16 
REMARK    7  A    between atoms: C_21  and  O_22 
ROOT
ATOM      1  C   UNL d   1       9.379   8.050 -11.138  0.00  0.00     0.250 C 
ENDROOT
BRANCH   1   2
ATOM      2  N   UNL d   1      10.230   7.473 -10.096  0.00  0.00     0.141 N 
ATOM      3  C   UNL d   1       9.426   6.938  -8.985  0.00  0.00     0.274 C 
ATOM      4  C   UNL d   1      10.326   6.292  -7.919  0.00  0.00     0.137 C 
ATOM      5  N   UNL d   1      11.317   7.261  -7.465  0.00  0.00    -0.343 N 
ATOM      6  C   UNL d   1      12.066   7.954  -8.516  0.00  0.00     0.137 C 
ATOM      7  C   UNL d   1      11.106   8.529  -9.571  0.00  0.00     0.274 C 
BRANCH   5   8
ATOM      8  C   UNL d   1      11.419   7.614  -6.110  0.00  0.00     0.079 A 
ATOM      9  C   UNL d   1      11.456   8.964  -5.663  0.00  0.00     0.110 A 
ATOM     10  C   UNL d   1      11.673   9.232  -4.283  0.00  0.00     0.026 A 
ATOM     11  C   UNL d   1      11.858   8.189  -3.353  0.00  0.00     0.002 A 
ATOM     12  C   UNL d   1      11.806   6.855  -3.798  0.00  0.00     0.002 A 
ATOM     13  C   UNL d   1      11.576   6.592  -5.157  0.00  0.00     0.019 A 
BRANCH   9  14
ATOM     14  O   UNL d   1      11.225   9.932  -6.611  0.00  0.00    -0.327 OA
ATOM     15  C   UNL d   1      11.856  11.165  -6.402  0.00  0.00     0.181 C 
ENDBRANCH   9  14
ENDBRANCH   5   8
ENDBRANCH   1   2
BRANCH   1  16
ATOM     16  C   UNL d   1       8.556   6.988 -11.905  0.00  0.00     0.036 C 
BRANCH  16  17
ATOM     17  C   UNL d   1       9.458   5.976 -12.608  0.00  0.00     0.006 C 
BRANCH  17  18
ATOM     18  C   UNL d   1       8.741   5.053 -13.609  0.00  0.00     0.022 C 
ATOM     19  C   UNL d   1       9.717   4.275 -14.517  0.00  0.00    -0.025 A 
ATOM     20  C   UNL d   1       9.439   2.926 -14.898  0.00  0.00    -0.004 A 
ATOM     21  C   UNL d   1      10.854   4.903 -15.064  0.00  0.00    -0.004 A 
ATOM     22  C   UNL d   1       8.182   2.213 -14.425  0.00  0.00     0.028 C 
ATOM     23  C   UNL d   1      10.355   2.223 -15.749  0.00  0.00     0.090 A 
ATOM     24  C   UNL d   1       7.110   3.110 -13.809  0.00  0.00     0.005 C 
ATOM     25  C   UNL d   1       7.747   4.139 -12.879  0.00  0.00     0.005 C 
ATOM     26  C   UNL d   1      11.486   2.885 -16.252  0.00  0.00     0.024 A 
ATOM     27  C   UNL d   1      11.752   4.216 -15.907  0.00  0.00     0.002 A 
BRANCH  23  28
ATOM     28  O   UNL d   1      10.103   0.946 -16.189  0.00  0.00    -0.328 OA
ATOM     29  C   UNL d   1      10.362  -0.062 -15.223  0.00  0.00     0.181 C 
ENDBRANCH  23  28
ENDBRANCH  17  18
ENDBRANCH  16  17
ENDBRANCH   1  16
TORSDOF 7
