REMARK  9 active torsions:
REMARK  status: ('A' for Active; 'I' for Inactive)
REMARK    1  A    between atoms: C_2  and  C_3 
REMARK    2  A    between atoms: C_3  and  C_4 
REMARK    3  A    between atoms: C_4  and  N_5 
REMARK    4  A    between atoms: N_5  and  C_6 
REMARK    5  A    between atoms: C_9  and  C_10 
REMARK    6  A    between atoms: C_10  and  O_12 
REMARK    7  A    between atoms: O_12  and  C_13 
REMARK    8  A    between atoms: C_13  and  C_14 
REMARK    9  A    between atoms: C_14  and  N_15 
ROOT
ATOM      1  C   UNL d   1      10.782   8.926  -6.801  0.00  0.00     0.076 A 
ATOM      2  C   UNL d   1      10.302   7.731  -6.219  0.00  0.00     0.019 A 
ATOM      3  C   UNL d   1       9.739   6.735  -7.026  0.00  0.00     0.007 A 
ATOM      4  C   UNL d   1       9.683   6.874  -8.422  0.00  0.00     0.063 A 
ATOM      5  C   UNL d   1      10.175   8.061  -9.013  0.00  0.00     0.007 A 
ATOM      6  C   UNL d   1      10.720   9.076  -8.203  0.00  0.00     0.019 A 
ENDROOT
BRANCH   4   7
ATOM      7  C   UNL d   1       9.085   5.771  -9.216  0.00  0.00     0.296 C 
ATOM      8  O   UNL d   1       8.668   4.724  -8.719  0.00  0.00    -0.259 OA
BRANCH   7   9
ATOM      9  O   UNL d   1       9.083   6.040 -10.533  0.00  0.00    -0.296 OA
BRANCH   9  10
ATOM     10  C   UNL d   1       8.492   5.136 -11.442  0.00  0.00     0.188 C 
BRANCH  10  11
ATOM     11  C   UNL d   1       7.205   5.738 -12.042  0.00  0.00     0.283 C 
BRANCH  11  12
ATOM     12  N   UNL d   1       6.452   4.761 -12.834  0.00  0.00     0.144 N 
ATOM     13  C   UNL d   1       7.288   4.055 -13.798  0.00  0.00     0.286 C 
ATOM     14  C   UNL d   1       5.763   3.808 -11.975  0.00  0.00     0.286 C 
ENDBRANCH  11  12
ENDBRANCH  10  11
ENDBRANCH   9  10
ENDBRANCH   7   9
ENDBRANCH   4   7
BRANCH   1  15
ATOM     15  N   UNL d   1      11.290   9.980  -6.027  0.00  0.00    -0.271 NA
BRANCH  15  16
ATOM     16  C   UNL d   1      11.315   9.902  -4.575  0.00  0.00     0.126 C 
BRANCH  16  17
ATOM     17  C   UNL d   1      12.629   9.293  -4.060  0.00  0.00     0.026 C 
BRANCH  17  18
ATOM     18  C   UNL d   1      12.575   8.937  -2.569  0.00  0.00     0.002 C 
ATOM     19  C   UNL d   1      12.286   7.450  -2.342  0.00  0.00     0.000 C 
ENDBRANCH  17  18
ENDBRANCH  16  17
ENDBRANCH  15  16
ENDBRANCH   1  15
TORSDOF 9
