REMARK  4 active torsions:
REMARK  status: ('A' for Active; 'I' for Inactive)
REMARK    1  A    between atoms: C_8  and  N_9 
REMARK    2  A    between atoms: N_9  and  C_10 
REMARK    3  A    between atoms: C_10  and  C_11 
REMARK    4  A    between atoms: C_11  and  N_12 
ROOT
ATOM      1  C   UNL d   1       5.731   7.842 -12.294  0.00  0.00     0.031 C 
ATOM      2  C   UNL d   1       6.868   6.850 -12.432  0.00  0.00    -0.022 A 
ATOM      3  C   UNL d   1       8.194   7.185 -12.101  0.00  0.00    -0.003 A 
ATOM      4  C   UNL d   1       9.217   6.234 -12.204  0.00  0.00     0.019 A 
ATOM      5  C   UNL d   1       8.939   4.953 -12.699  0.00  0.00     0.086 A 
ATOM      6  C   UNL d   1       7.603   4.602 -13.028  0.00  0.00     0.053 A 
ATOM      7  C   UNL d   1       6.574   5.542 -12.817  0.00  0.00     0.000 A 
ATOM      8  C   UNL d   1       7.180   3.254 -13.489  0.00  0.00     0.160 C 
ATOM      9  N   UNL d   1       7.838   2.503 -14.315  0.00  0.00    -0.224 NA
ATOM     10  C   UNL d   1       9.136   2.751 -14.791  0.00  0.00     0.119 A 
ATOM     11  C   UNL d   1       9.473   2.128 -16.006  0.00  0.00     0.024 A 
ATOM     12  C   UNL d   1      10.763   2.281 -16.546  0.00  0.00     0.022 A 
ATOM     13  C   UNL d   1      11.707   3.020 -15.816  0.00  0.00     0.101 A 
ATOM     14  N   UNL d   1      11.435   3.577 -14.619  0.00  0.00    -0.224 NA
ATOM     15  C   UNL d   1      10.184   3.446 -14.121  0.00  0.00     0.180 A 
ATOM     16  N   UNL d   1      10.007   4.088 -12.906  0.00  0.00    -0.225 NA
ENDROOT
BRANCH   8  17
ATOM     17  N   UNL d   1       6.007   2.828 -12.858  0.00  0.00    -0.251 NA
BRANCH  17  18
ATOM     18  C   UNL d   1       5.171   1.774 -13.383  0.00  0.00     0.163 C 
BRANCH  18  19
ATOM     19  C   UNL d   1       5.584   0.333 -13.064  0.00  0.00     0.277 C 
BRANCH  19  20
ATOM     20  N   UNL d   1       5.104  -0.649 -14.046  0.00  0.00     0.144 N 
ATOM     21  C   UNL d   1       6.024  -0.808 -15.169  0.00  0.00     0.282 C 
ATOM     22  C   UNL d   1       5.536  -1.865 -16.180  0.00  0.00     0.178 C 
ATOM     23  O   UNL d   1       4.249  -1.498 -16.654  0.00  0.00    -0.350 OA
ATOM     24  C   UNL d   1       3.294  -1.446 -15.601  0.00  0.00     0.178 C 
ATOM     25  C   UNL d   1       3.742  -0.418 -14.556  0.00  0.00     0.282 C 
ENDBRANCH  19  20
ENDBRANCH  18  19
ENDBRANCH  17  18
ENDBRANCH   8  17
TORSDOF 4
