REMARK  5 active torsions:
REMARK  status: ('A' for Active; 'I' for Inactive)
REMARK    1  A    between atoms: C_2  and  C_3 
REMARK       I    between atoms: C_2  and  N_12 
REMARK    2  A    between atoms: N_15  and  C_16 
REMARK    3  A    between atoms: C_16  and  C_17 
REMARK    4  A    between atoms: C_17  and  O_18 
REMARK    5  A    between atoms: O_18  and  C_19 
ROOT
ATOM      1  O   UNL d   1      11.821   9.136  -9.142  0.00  0.00    -0.266 OA
ATOM      2  C   UNL d   1      11.090   8.306  -8.617  0.00  0.00     0.275 C 
ATOM      3  N   UNL d   1      10.091   7.697  -9.269  0.00  0.00    -0.311 N 
ATOM      4  C   UNL d   1       9.695   8.099 -10.655  0.00  0.00     0.140 C 
ATOM      5  C   UNL d   1       9.618   6.854 -11.541  0.00  0.00     0.274 C 
ATOM      6  N   UNL d   1       8.698   5.849 -10.997  0.00  0.00     0.144 N 
ATOM      7  C   UNL d   1       9.218   5.441  -9.685  0.00  0.00     0.274 C 
ATOM      8  C   UNL d   1       9.216   6.632  -8.732  0.00  0.00     0.140 C 
ENDROOT
BRANCH   2   9
ATOM      9  C   UNL d   1      11.299   8.048  -7.152  0.00  0.00     0.137 A 
ATOM     10  N   UNL d   1      11.706   9.111  -6.344  0.00  0.00    -0.241 NA
ATOM     11  C   UNL d   1      11.828   8.706  -5.026  0.00  0.00     0.082 A 
ATOM     12  C   UNL d   1      11.458   7.336  -5.022  0.00  0.00     0.019 A 
ATOM     13  C   UNL d   1      12.218   9.351  -3.835  0.00  0.00     0.019 A 
ATOM     14  C   UNL d   1      11.200   6.943  -6.352  0.00  0.00     0.025 A 
ATOM     15  C   UNL d   1      11.490   6.659  -3.789  0.00  0.00     0.002 A 
ATOM     16  C   UNL d   1      11.881   7.288  -2.595  0.00  0.00     0.000 A 
ATOM     17  C   UNL d   1      12.258   8.639  -2.625  0.00  0.00     0.002 A 
ENDBRANCH   2   9
BRANCH   6  18
ATOM     18  C   UNL d   1       8.688   4.669 -11.840  0.00  0.00     0.283 C 
BRANCH  18  19
ATOM     19  C   UNL d   1       7.695   4.824 -13.021  0.00  0.00     0.184 C 
BRANCH  19  20
ATOM     20  O   UNL d   1       7.610   3.599 -13.761  0.00  0.00    -0.327 OA
BRANCH  20  21
ATOM     21  C   UNL d   1       8.752   3.169 -14.410  0.00  0.00     0.114 A 
ATOM     22  C   UNL d   1       8.795   1.868 -14.989  0.00  0.00     0.039 A 
ATOM     23  C   UNL d   1      10.003   1.449 -15.595  0.00  0.00     0.079 A 
ATOM     24  C   UNL d   1      11.112   2.309 -15.581  0.00  0.00     0.111 A 
ATOM     25 CL   UNL d   1      10.132  -0.085 -16.360  0.00  0.00    -0.081 Cl
ATOM     26  N   UNL d   1      11.076   3.545 -15.044  0.00  0.00    -0.240 NA
ATOM     27  C   UNL d   1       9.925   3.951 -14.517  0.00  0.00     0.123 A 
ENDBRANCH  20  21
ENDBRANCH  19  20
ENDBRANCH  18  19
ENDBRANCH   6  18
TORSDOF 5
