REMARK  9 active torsions:
REMARK  status: ('A' for Active; 'I' for Inactive)
REMARK    1  A    between atoms: O_2  and  C_3 
REMARK    2  A    between atoms: C_6  and  O_7 
REMARK    3  A    between atoms: C_9  and  N_10 
REMARK    4  A    between atoms: N_13  and  C_14 
REMARK    5  A    between atoms: C_14  and  C_15 
REMARK    6  A    between atoms: C_15  and  C_16 
REMARK    7  A    between atoms: C_16  and  C_17 
REMARK    8  A    between atoms: C_17  and  N_18 
REMARK       I    between atoms: N_18  and  C_19 
REMARK    9  A    between atoms: C_19  and  C_21 
ROOT
ATOM      1  N   UNL d   1       9.681   2.680 -14.859  0.00  0.00    -0.343 N 
ATOM      2  C   UNL d   1       8.916   2.475 -13.639  0.00  0.00     0.137 C 
ATOM      3  C   UNL d   1       8.054   3.719 -13.314  0.00  0.00     0.274 C 
ATOM      4  N   UNL d   1       8.959   4.859 -13.137  0.00  0.00     0.141 N 
ATOM      5  C   UNL d   1       9.649   5.084 -14.416  0.00  0.00     0.274 C 
ATOM      6  C   UNL d   1      10.515   3.877 -14.805  0.00  0.00     0.137 C 
ENDROOT
BRANCH   4   7
ATOM      7  C   UNL d   1       8.159   6.013 -12.722  0.00  0.00     0.251 C 
BRANCH   7   8
ATOM      8  C   UNL d   1       9.022   7.176 -12.200  0.00  0.00     0.037 C 
BRANCH   8   9
ATOM      9  C   UNL d   1       9.526   6.898 -10.780  0.00  0.00     0.029 C 
BRANCH   9  10
ATOM     10  C   UNL d   1      10.409   8.032 -10.251  0.00  0.00     0.129 C 
BRANCH  10  11
ATOM     11  N   UNL d   1      10.715   7.842  -8.840  0.00  0.00    -0.234 NA
ATOM     12  C   UNL d   1      10.068   8.488  -7.859  0.00  0.00     0.275 C 
ATOM     13  O   UNL d   1       9.064   9.182  -8.033  0.00  0.00    -0.266 OA
BRANCH  12  14
ATOM     14  C   UNL d   1      10.700   8.377  -6.509  0.00  0.00     0.058 A 
ATOM     15  C   UNL d   1      10.918   9.536  -5.730  0.00  0.00     0.005 A 
ATOM     16  C   UNL d   1      11.485   9.432  -4.446  0.00  0.00     0.007 A 
ATOM     17  C   UNL d   1      11.832   8.168  -3.936  0.00  0.00     0.035 A 
ATOM     18  C   UNL d   1      11.607   7.005  -4.699  0.00  0.00     0.007 A 
ATOM     19 BR   UNL d   1      12.514   8.047  -2.170  0.00  0.00    -0.049 Br
ATOM     20  C   UNL d   1      11.046   7.110  -5.988  0.00  0.00     0.005 A 
ENDBRANCH  12  14
ENDBRANCH  10  11
ENDBRANCH   9  10
ENDBRANCH   8   9
ENDBRANCH   7   8
ENDBRANCH   4   7
BRANCH   1  21
ATOM     21  C   UNL d   1       9.623   1.863 -15.992  0.00  0.00     0.081 A 
ATOM     22  C   UNL d   1       8.404   1.268 -16.424  0.00  0.00     0.110 A 
ATOM     23  C   UNL d   1       8.418   0.384 -17.530  0.00  0.00     0.028 A 
ATOM     24  C   UNL d   1       9.605   0.148 -18.250  0.00  0.00     0.026 A 
ATOM     25  C   UNL d   1      10.804   0.780 -17.875  0.00  0.00     0.096 A 
ATOM     26  C   UNL d   1      10.809   1.616 -16.736  0.00  0.00     0.043 A 
BRANCH  22  27
ATOM     27  O   UNL d   1       7.239   1.612 -15.770  0.00  0.00    -0.327 OA
ATOM     28  C   UNL d   1       6.129   0.735 -15.895  0.00  0.00     0.181 C 
ENDBRANCH  22  27
BRANCH  25  29
ATOM     29  O   UNL d   1      11.916   0.512 -18.648  0.00  0.00    -0.328 OA
ATOM     30  C   UNL d   1      13.003   1.430 -18.619  0.00  0.00     0.181 C 
ENDBRANCH  25  29
ENDBRANCH   1  21
TORSDOF 9
