REMARK  5 active torsions:
REMARK  status: ('A' for Active; 'I' for Inactive)
REMARK    1  A    between atoms: C_4  and  C_5 
REMARK    2  A    between atoms: C_5  and  C_6 
REMARK    3  A    between atoms: C_6  and  C_7 
REMARK    4  A    between atoms: N_9  and  C_10 
REMARK    5  A    between atoms: C_10  and  C_11 
ROOT
ATOM      1  C   UNL d   1      10.561   8.445  -7.669  0.00  0.00     0.149 C 
ATOM      2  C   UNL d   1      10.918   7.235  -8.536  0.00  0.00     0.280 C 
ATOM      3  N   UNL d   1       9.826   6.924  -9.448  0.00  0.00     0.150 N 
ATOM      4  C   UNL d   1       9.548   8.096 -10.264  0.00  0.00     0.283 C 
ATOM      5  C   UNL d   1       9.234   9.283  -9.369  0.00  0.00     0.178 C 
ATOM      6  O   UNL d   1      10.361   9.521  -8.552  0.00  0.00    -0.352 OA
ENDROOT
BRANCH   3   7
ATOM      7  C   UNL d   1      10.173   5.808 -10.280  0.00  0.00     0.315 C 
BRANCH   7   8
ATOM      8  C   UNL d   1       9.087   5.247 -11.119  0.00  0.00     0.173 A 
ATOM      9  N   UNL d   1       7.822   5.575 -10.877  0.00  0.00    -0.227 NA
ATOM     10  C   UNL d   1       7.056   4.934 -11.812  0.00  0.00     0.100 A 
ATOM     11  C   UNL d   1       7.992   4.220 -12.612  0.00  0.00     0.100 A 
ATOM     12  C   UNL d   1       5.681   4.882 -12.049  0.00  0.00     0.021 A 
ATOM     13  N   UNL d   1       9.284   4.431 -12.160  0.00  0.00    -0.227 NA
ATOM     14  C   UNL d   1       7.480   3.416 -13.657  0.00  0.00     0.021 A 
ATOM     15  C   UNL d   1       6.092   3.336 -13.879  0.00  0.00     0.002 A 
ATOM     16  C   UNL d   1       5.185   4.078 -13.090  0.00  0.00     0.002 A 
ENDBRANCH   7   8
ENDBRANCH   3   7
BRANCH   1  17
ATOM     17  C   UNL d   1      11.711   8.870  -6.758  0.00  0.00     0.036 C 
BRANCH  17  18
ATOM     18  C   UNL d   1      11.235   9.508  -5.429  0.00  0.00     0.029 C 
BRANCH  18  19
ATOM     19  C   UNL d   1      11.721   8.754  -4.203  0.00  0.00    -0.022 A 
ATOM     20  C   UNL d   1      12.085   9.471  -3.046  0.00  0.00    -0.004 A 
ATOM     21  C   UNL d   1      12.558   8.787  -1.910  0.00  0.00    -0.000 A 
ATOM     22  C   UNL d   1      12.654   7.393  -1.922  0.00  0.00    -0.000 A 
ATOM     23  C   UNL d   1      12.251   6.662  -3.049  0.00  0.00    -0.000 A 
ATOM     24  C   UNL d   1      11.776   7.337  -4.183  0.00  0.00    -0.004 A 
ENDBRANCH  18  19
ENDBRANCH  17  18
ENDBRANCH   1  17
TORSDOF 5
