REMARK  6 active torsions:
REMARK  status: ('A' for Active; 'I' for Inactive)
REMARK    1  A    between atoms: N_9  and  C_10 
REMARK    2  A    between atoms: C_10  and  C_11 
REMARK    3  A    between atoms: C_11  and  C_12 
REMARK    4  A    between atoms: C_12  and  S_13 
REMARK    5  A    between atoms: S_13  and  C_14 
REMARK    6  A    between atoms: C_17  and  C_18 
ROOT
ATOM      1  C   UNL d   1       9.908   0.032 -20.680  0.00  0.00     0.067 C 
ENDROOT
BRANCH   1   2
ATOM      2  C   UNL d   1      10.440   1.332 -20.049  0.00  0.00     0.047 C 
BRANCH   2   3
ATOM      3  C   UNL d   1      11.383   2.160 -20.922  0.00  0.00     0.251 C 
BRANCH   3   4
ATOM      4  N   UNL d   1      11.961   3.265 -20.140  0.00  0.00     0.138 N 
ATOM      5  C   UNL d   1      13.072   2.776 -19.305  0.00  0.00     0.255 C 
ATOM      6  C   UNL d   1      13.431   3.724 -18.148  0.00  0.00     0.061 C 
ATOM      7  C   UNL d   1      14.386   4.831 -18.547  0.00  0.00    -0.027 C 
ATOM      8  C   UNL d   1      15.450   5.138 -17.767  0.00  0.00    -0.004 C 
ATOM      9  C   UNL d   1      14.167   5.593 -19.793  0.00  0.00    -0.026 C 
ATOM     10  C   UNL d   1      16.349   6.269 -18.197  0.00  0.00     0.159 C 
ATOM     11  N   UNL d   1      17.676   6.427 -17.681  0.00  0.00    -0.247 NA
ATOM     12  C   UNL d   1      16.561   6.160 -19.693  0.00  0.00     0.171 C 
ATOM     13  C   UNL d   1      18.238   7.062 -18.633  0.00  0.00     0.150 C 
ATOM     14  C   UNL d   1      19.618   7.670 -18.655  0.00  0.00     0.080 C 
ATOM     15  O   UNL d   1      17.535   7.170 -19.808  0.00  0.00    -0.314 OA
ATOM     16  C   UNL d   1      15.207   6.261 -20.354  0.00  0.00     0.001 C 
ATOM     17  C   UNL d   1      12.792   5.635 -20.424  0.00  0.00     0.061 C 
ATOM     18  C   UNL d   1      12.400   4.301 -21.079  0.00  0.00     0.255 C 
ENDBRANCH   3   4
ENDBRANCH   2   3
ENDBRANCH   1   2
BRANCH   1  19
ATOM     19  S   UNL d   1       8.609  -0.742 -19.627  0.00  0.00    -0.075 SA
BRANCH  19  20
ATOM     20  C   UNL d   1       9.176  -0.280 -18.013  0.00  0.00     0.193 A 
ATOM     21  N   UNL d   1       8.977   0.949 -17.479  0.00  0.00    -0.289 N 
ATOM     22  C   UNL d   1       9.702   0.868 -16.351  0.00  0.00     0.167 A 
ATOM     23  C   UNL d   1       8.249   2.117 -17.979  0.00  0.00     0.134 C 
ATOM     24  N   UNL d   1      10.259  -0.332 -16.157  0.00  0.00    -0.128 NA
ATOM     25  N   UNL d   1       9.919  -1.077 -17.259  0.00  0.00    -0.122 NA
BRANCH  22  26
ATOM     26  C   UNL d   1       9.901   1.974 -15.433  0.00  0.00     0.037 A 
ATOM     27  C   UNL d   1       8.818   2.498 -14.681  0.00  0.00     0.021 A 
ATOM     28  C   UNL d   1       9.029   3.588 -13.798  0.00  0.00     0.081 A 
ATOM     29  C   UNL d   1       7.514   1.963 -14.788  0.00  0.00     0.003 A 
ATOM     30  C   UNL d   1      10.323   4.125 -13.678  0.00  0.00     0.019 A 
ATOM     31  N   UNL d   1       8.017   4.122 -13.070  0.00  0.00    -0.250 NA
ATOM     32  C   UNL d   1      11.400   3.617 -14.437  0.00  0.00     0.002 A 
ATOM     33  C   UNL d   1      11.185   2.546 -15.316  0.00  0.00     0.003 A 
ATOM     34  C   UNL d   1       6.779   3.605 -13.188  0.00  0.00     0.059 A 
ATOM     35  C   UNL d   1       5.707   4.225 -12.319  0.00  0.00     0.052 C 
ATOM     36  C   UNL d   1       6.473   2.528 -14.035  0.00  0.00     0.015 A 
ENDBRANCH  22  26
ENDBRANCH  19  20
ENDBRANCH   1  19
TORSDOF 6
