REMARK  7 active torsions:
REMARK  status: ('A' for Active; 'I' for Inactive)
REMARK       I    between atoms: C_2  and  N_3 
REMARK    1  A    between atoms: C_2  and  C_25 
REMARK    2  A    between atoms: N_3  and  C_4 
REMARK    3  A    between atoms: C_4  and  C_5 
REMARK    4  A    between atoms: C_5  and  C_6 
REMARK    5  A    between atoms: C_6  and  C_7 
REMARK    6  A    between atoms: C_7  and  N_8 
REMARK    7  A    between atoms: N_11  and  C_12 
ROOT
ATOM      1  N   UNL d   1       9.107   5.916 -10.403  0.00  0.00     0.141 N 
ATOM      2  C   UNL d   1       9.840   7.164 -10.690  0.00  0.00     0.274 C 
ATOM      3  C   UNL d   1      11.071   7.301  -9.786  0.00  0.00     0.137 C 
ATOM      4  N   UNL d   1      10.668   7.216  -8.384  0.00  0.00    -0.344 N 
ATOM      5  C   UNL d   1       9.790   6.096  -8.051  0.00  0.00     0.137 C 
ATOM      6  C   UNL d   1       8.632   5.982  -9.013  0.00  0.00     0.274 C 
ENDROOT
BRANCH   1   7
ATOM      7  C   UNL d   1       7.954   5.826 -11.286  0.00  0.00     0.251 C 
BRANCH   7   8
ATOM      8  C   UNL d   1       7.502   4.377 -11.451  0.00  0.00     0.037 C 
BRANCH   8   9
ATOM      9  C   UNL d   1       6.126   4.285 -12.144  0.00  0.00     0.029 C 
BRANCH   9  10
ATOM     10  C   UNL d   1       5.758   2.878 -12.621  0.00  0.00     0.129 C 
BRANCH  10  11
ATOM     11  N   UNL d   1       6.603   2.467 -13.739  0.00  0.00    -0.233 NA
ATOM     12  C   UNL d   1       6.495   1.286 -14.358  0.00  0.00     0.294 C 
ATOM     13  O   UNL d   1       5.565   0.501 -14.156  0.00  0.00    -0.264 OA
BRANCH  12  14
ATOM     14  C   UNL d   1       7.612   0.999 -15.298  0.00  0.00     0.158 A 
ATOM     15  N   UNL d   1       7.428   0.416 -16.546  0.00  0.00    -0.222 NA
ATOM     16  C   UNL d   1       8.639   0.297 -17.083  0.00  0.00     0.148 A 
ATOM     17  N   UNL d   1       9.626   0.787 -16.193  0.00  0.00    -0.288 N 
ATOM     18  C   UNL d   1       9.074  -0.209 -18.336  0.00  0.00     0.037 A 
ATOM     19  C   UNL d   1       8.948   1.214 -15.060  0.00  0.00     0.106 A 
ATOM     20  C   UNL d   1      10.953   0.791 -16.509  0.00  0.00     0.082 A 
ATOM     21  C   UNL d   1      11.360   0.308 -17.733  0.00  0.00     0.019 A 
ATOM     22  C   UNL d   1      10.412  -0.199 -18.654  0.00  0.00     0.005 A 
ENDBRANCH  12  14
ENDBRANCH  10  11
ENDBRANCH   9  10
ENDBRANCH   8   9
ENDBRANCH   7   8
ENDBRANCH   1   7
BRANCH   4  23
ATOM     23  C   UNL d   1      11.020   8.186  -7.415  0.00  0.00     0.059 A 
ATOM     24  C   UNL d   1      11.360   7.895  -6.076  0.00  0.00     0.033 A 
ATOM     25  C   UNL d   1      11.727   8.961  -5.165  0.00  0.00     0.084 A 
ATOM     26  C   UNL d   1      11.478   6.585  -5.633  0.00  0.00     0.004 A 
ATOM     27  N   UNL d   1      11.747  10.227  -5.544  0.00  0.00    -0.244 NA
ATOM     28  C   UNL d   1      12.122   8.704  -3.856  0.00  0.00     0.031 A 
ATOM     29  C   UNL d   1      11.458  10.478  -6.798  0.00  0.00     0.100 A 
ATOM     30  C   UNL d   1      11.070   9.540  -7.758  0.00  0.00     0.038 A 
ATOM     31  C   UNL d   1      12.166   7.383  -3.446  0.00  0.00     0.059 A 
ATOM     32 CL   UNL d   1      12.656   6.878  -1.924  0.00  0.00    -0.082 Cl
ATOM     33  C   UNL d   1      11.859   6.384  -4.337  0.00  0.00     0.012 A 
ENDBRANCH   4  23
TORSDOF 7
