REMARK  3 active torsions:
REMARK  status: ('A' for Active; 'I' for Inactive)
REMARK    1  A    between atoms: C_5  and  C_6 
REMARK    2  A    between atoms: N_8  and  C_9 
REMARK    3  A    between atoms: C_18  and  C_19 
ROOT
ATOM      1  C   UNL d   1       8.937   1.511 -15.410  0.00  0.00    -0.003 A 
ATOM      2  C   UNL d   1       7.929   0.622 -15.695  0.00  0.00     0.076 A 
ATOM      3  N   UNL d   1       6.767   0.940 -15.007  0.00  0.00    -0.305 N 
ATOM      4  C   UNL d   1       6.996   2.110 -14.268  0.00  0.00     0.064 A 
ATOM      5  C   UNL d   1       6.171   2.897 -13.428  0.00  0.00     0.018 A 
ATOM      6  C   UNL d   1       6.715   3.993 -12.730  0.00  0.00     0.002 A 
ATOM      7  C   UNL d   1       8.072   4.329 -12.890  0.00  0.00     0.002 A 
ATOM      8  C   UNL d   1       8.885   3.562 -13.746  0.00  0.00     0.001 A 
ATOM      9  C   UNL d   1       8.377   2.444 -14.464  0.00  0.00     0.014 A 
ENDROOT
BRANCH   1  10
ATOM     10  C   UNL d   1      10.334   1.493 -15.997  0.00  0.00     0.028 C 
ATOM     11  C   UNL d   1      10.759   2.892 -16.482  0.00  0.00     0.040 C 
ATOM     12  C   UNL d   1      12.119   2.872 -17.179  0.00  0.00     0.251 C 
ATOM     13  N   UNL d   1      12.081   1.973 -18.329  0.00  0.00     0.139 N 
ATOM     14  C   UNL d   1      13.358   2.031 -19.019  0.00  0.00     0.285 C 
ATOM     15  C   UNL d   1      11.828   0.606 -17.875  0.00  0.00     0.251 C 
ATOM     16  C   UNL d   1      10.458   0.514 -17.187  0.00  0.00     0.040 C 
ENDBRANCH   1  10
BRANCH   3  17
ATOM     17  C   UNL d   1       5.564   0.184 -15.089  0.00  0.00     0.067 A 
ATOM     18  C   UNL d   1       5.223  -0.520 -16.273  0.00  0.00     0.038 A 
ATOM     19  C   UNL d   1       4.001  -1.216 -16.319  0.00  0.00     0.101 A 
ATOM     20  N   UNL d   1       3.117  -1.200 -15.305  0.00  0.00    -0.242 NA
ATOM     21  C   UNL d   1       3.452  -0.556 -14.172  0.00  0.00     0.101 A 
ATOM     22  C   UNL d   1       4.670   0.112 -14.000  0.00  0.00     0.038 A 
ENDBRANCH   3  17
BRANCH   7  23
ATOM     23  C   UNL d   1       8.627   5.479 -12.179  0.00  0.00     0.019 A 
ATOM     24  C   UNL d   1       9.320   5.340 -10.959  0.00  0.00     0.099 A 
ATOM     25  N   UNL d   1       9.861   6.374 -10.281  0.00  0.00    -0.242 NA
ATOM     26  C   UNL d   1       9.724   7.609 -10.809  0.00  0.00     0.099 A 
ATOM     27  C   UNL d   1       9.058   7.865 -12.027  0.00  0.00     0.021 A 
ATOM     28  C   UNL d   1       8.472   6.778 -12.695  0.00  0.00     0.003 A 
ENDBRANCH   7  23
TORSDOF 3
