REMARK  1 active torsions:
REMARK  status: ('A' for Active; 'I' for Inactive)
REMARK    1  A    between atoms: O_2  and  C_3 
ROOT
ATOM      1  C   UNL d   1       9.009   5.869 -11.843  0.00  0.00     0.119 A 
ATOM      2  C   UNL d   1       9.419   4.769 -11.069  0.00  0.00     0.026 A 
ATOM      3  C   UNL d   1       9.845   4.932  -9.734  0.00  0.00    -0.002 A 
ATOM      4  C   UNL d   1       9.861   6.203  -9.146  0.00  0.00    -0.020 A 
ATOM      5  C   UNL d   1       9.466   7.316  -9.904  0.00  0.00     0.034 A 
ATOM      6  C   UNL d   1       9.073   7.150 -11.254  0.00  0.00     0.151 A 
ATOM      7  O   UNL d   1       8.645   8.230 -11.988  0.00  0.00    -0.188 OA
ATOM      8  C   UNL d   1       9.424   8.674  -9.204  0.00  0.00     0.279 C 
ATOM      9  N   UNL d   1      10.260   8.834  -8.036  0.00  0.00     0.144 N 
ATOM     10  C   UNL d   1      11.642   9.069  -8.381  0.00  0.00     0.256 C 
ATOM     11  C   UNL d   1      12.342   9.594  -7.112  0.00  0.00     0.061 C 
ATOM     12  C   UNL d   1      11.984   8.873  -5.841  0.00  0.00    -0.020 A 
ATOM     13  C   UNL d   1      12.733   9.103  -4.675  0.00  0.00     0.025 A 
ATOM     14  C   UNL d   1      12.460   8.332  -3.526  0.00  0.00     0.156 A 
ATOM     15  O   UNL d   1      13.058   8.578  -2.337  0.00  0.00    -0.188 OA
ATOM     16  C   UNL d   1      11.508   7.312  -3.586  0.00  0.00     0.156 A 
ATOM     17  O   UNL d   1      11.206   6.666  -2.413  0.00  0.00    -0.188 OA
ATOM     18  C   UNL d   1      10.782   7.073  -4.764  0.00  0.00     0.027 A 
ATOM     19  C   UNL d   1      10.962   7.905  -5.875  0.00  0.00     0.007 A 
ATOM     20  C   UNL d   1      10.105   7.719  -7.101  0.00  0.00     0.246 C 
ATOM     21  C   UNL d   1      10.437   6.378  -7.756  0.00  0.00     0.064 C 
ENDROOT
BRANCH   1  22
ATOM     22  O   UNL d   1       8.617   5.791 -13.159  0.00  0.00    -0.326 OA
ATOM     23  C   UNL d   1       8.760   4.547 -13.824  0.00  0.00     0.181 C 
ENDBRANCH   1  22
TORSDOF 1
