REMARK  6 active torsions:
REMARK  status: ('A' for Active; 'I' for Inactive)
REMARK    1  A    between atoms: C_8  and  O_9 
REMARK    2  A    between atoms: O_9  and  C_10 
REMARK    3  A    between atoms: C_10  and  C_11 
REMARK    4  A    between atoms: C_11  and  C_12 
REMARK    5  A    between atoms: C_12  and  N_13 
REMARK    6  A    between atoms: N_16  and  C_17 
ROOT
ATOM      1  N   UNL d   1       9.719   5.885  -9.507  0.00  0.00     0.141 N 
ATOM      2  C   UNL d   1      10.136   7.293  -9.686  0.00  0.00     0.274 C 
ATOM      3  C   UNL d   1      11.301   7.674  -8.759  0.00  0.00     0.137 C 
ATOM      4  N   UNL d   1      11.002   7.298  -7.379  0.00  0.00    -0.343 N 
ATOM      5  C   UNL d   1      10.389   6.004  -7.142  0.00  0.00     0.137 C 
ATOM      6  C   UNL d   1       9.239   5.739  -8.131  0.00  0.00     0.274 C 
ENDROOT
BRANCH   1   7
ATOM      7  C   UNL d   1       8.628   5.564 -10.426  0.00  0.00     0.253 C 
BRANCH   7   8
ATOM      8  C   UNL d   1       9.148   5.241 -11.838  0.00  0.00     0.068 C 
BRANCH   8   9
ATOM      9  C   UNL d   1       8.101   5.584 -12.919  0.00  0.00     0.151 C 
BRANCH   9  10
ATOM     10  O   UNL d   1       6.956   4.735 -12.821  0.00  0.00    -0.331 OA
BRANCH  10  11
ATOM     11  C   UNL d   1       6.987   3.481 -13.397  0.00  0.00     0.096 A 
ATOM     12  C   UNL d   1       8.079   2.992 -14.166  0.00  0.00     0.024 A 
ATOM     13  C   UNL d   1       8.029   1.719 -14.754  0.00  0.00    -0.001 A 
ATOM     14  C   UNL d   1       6.912   0.906 -14.557  0.00  0.00    -0.004 A 
ATOM     15  C   UNL d   1       6.852  -0.474 -15.151  0.00  0.00     0.038 C 
ATOM     16  C   UNL d   1       5.844   1.352 -13.762  0.00  0.00     0.082 A 
ATOM     17  C   UNL d   1       5.414  -0.929 -15.461  0.00  0.00     0.095 C 
ATOM     18  C   UNL d   1       4.439  -0.557 -14.330  0.00  0.00     0.256 C 
ATOM     19  O   UNL d   1       3.407  -1.179 -14.142  0.00  0.00    -0.270 OA
ATOM     20  N   UNL d   1       4.732   0.506 -13.571  0.00  0.00    -0.212 NA
ATOM     21  C   UNL d   1       5.865   2.638 -13.186  0.00  0.00     0.043 A 
ENDBRANCH  10  11
ENDBRANCH   9  10
ENDBRANCH   8   9
ENDBRANCH   7   8
ENDBRANCH   1   7
BRANCH   4  22
ATOM     22  C   UNL d   1      11.098   8.174  -6.327  0.00  0.00     0.081 A 
ATOM     23  C   UNL d   1      11.462   7.814  -4.988  0.00  0.00     0.138 A 
ATOM     24  C   UNL d   1      11.574   8.763  -4.010  0.00  0.00     0.111 A 
ATOM     25  O   UNL d   1      11.843   6.620  -4.418  0.00  0.00    -0.255 OA
ATOM     26  C   UNL d   1      11.325  10.080  -4.217  0.00  0.00     0.021 A 
ATOM     27  N   UNL d   1      12.022   8.181  -2.858  0.00  0.00    -0.184 NA
ATOM     28  C   UNL d   1      11.018  10.487  -5.503  0.00  0.00     0.003 A 
ATOM     29  C   UNL d   1      10.852   9.559  -6.557  0.00  0.00     0.019 A 
ATOM     30  C   UNL d   1      12.225   6.852  -3.096  0.00  0.00     0.392 A 
ATOM     31  O   UNL d   1      12.658   6.031  -2.300  0.00  0.00    -0.236 OA
ENDBRANCH   4  22
TORSDOF 6
