REMARK  6 active torsions:
REMARK  status: ('A' for Active; 'I' for Inactive)
REMARK    1  A    between atoms: C_4  and  C_5 
REMARK    2  A    between atoms: C_5  and  C_6 
REMARK    3  A    between atoms: C_11  and  O_12 
REMARK    4  A    between atoms: O_12  and  C_13 
REMARK    5  A    between atoms: C_13  and  C_14 
REMARK    6  A    between atoms: C_14  and  N_15 
ROOT
ATOM      1  C   UNL d   1       7.551   3.799 -12.653  0.00  0.00     0.004 A 
ATOM      2  C   UNL d   1       6.251   3.300 -12.548  0.00  0.00    -0.002 A 
ATOM      3  C   UNL d   1       5.766   2.406 -13.517  0.00  0.00    -0.000 A 
ATOM      4  C   UNL d   1       6.557   2.058 -14.614  0.00  0.00     0.002 A 
ATOM      5  C   UNL d   1       7.861   2.545 -14.719  0.00  0.00     0.024 A 
ATOM      6  C   UNL d   1       8.381   3.431 -13.736  0.00  0.00     0.090 A 
ENDROOT
BRANCH   6   7
ATOM      7  O   UNL d   1       9.654   3.934 -13.723  0.00  0.00    -0.329 OA
BRANCH   7   8
ATOM      8  C   UNL d   1      10.523   3.521 -14.753  0.00  0.00     0.184 C 
BRANCH   8   9
ATOM      9  C   UNL d   1      10.171   4.244 -16.091  0.00  0.00     0.283 C 
BRANCH   9  10
ATOM     10  N   UNL d   1      11.011   3.838 -17.215  0.00  0.00     0.140 N 
ATOM     11  C   UNL d   1      11.051   2.380 -17.412  0.00  0.00     0.250 C 
ATOM     12  C   UNL d   1      11.863   2.008 -18.656  0.00  0.00     0.035 C 
ATOM     13  C   UNL d   1      13.276   2.595 -18.552  0.00  0.00     0.004 C 
ATOM     14  C   UNL d   1      13.197   4.108 -18.306  0.00  0.00     0.035 C 
ATOM     15  C   UNL d   1      12.347   4.410 -17.069  0.00  0.00     0.250 C 
ENDBRANCH   9  10
ENDBRANCH   8   9
ENDBRANCH   7   8
ENDBRANCH   6   7
BRANCH   1  16
ATOM     16  C   UNL d   1       8.147   4.561 -11.485  0.00  0.00     0.055 C 
BRANCH  16  17
ATOM     17  C   UNL d   1       8.168   6.029 -11.765  0.00  0.00    -0.018 A 
ATOM     18  C   UNL d   1       7.068   6.582 -12.461  0.00  0.00    -0.004 A 
ATOM     19  C   UNL d   1       7.053   7.943 -12.796  0.00  0.00    -0.000 A 
ATOM     20  C   UNL d   1       8.181   8.718 -12.434  0.00  0.00    -0.000 A 
ATOM     21  C   UNL d   1       9.256   8.177 -11.703  0.00  0.00    -0.000 A 
ATOM     22  C   UNL d   1       9.258   6.818 -11.371  0.00  0.00    -0.004 A 
ENDBRANCH  16  17
ENDBRANCH   1  16
TORSDOF 6
