REMARK  6 active torsions:
REMARK  status: ('A' for Active; 'I' for Inactive)
REMARK       I    between atoms: C_2  and  N_3 
REMARK    1  A    between atoms: C_2  and  C_25 
REMARK    2  A    between atoms: N_3  and  C_4 
REMARK    3  A    between atoms: C_8  and  C_9 
REMARK    4  A    between atoms: C_9  and  N_10 
REMARK    5  A    between atoms: C_13  and  N_14 
REMARK    6  A    between atoms: C_28  and  C_29 
ROOT
ATOM      1  C   UNL d   1       6.565   2.745 -13.675  0.00  0.00     0.084 A 
ATOM      2  C   UNL d   1       5.495   1.989 -13.145  0.00  0.00     0.019 A 
ATOM      3  C   UNL d   1       5.100   0.782 -13.756  0.00  0.00     0.001 A 
ATOM      4  C   UNL d   1       5.763   0.319 -14.909  0.00  0.00    -0.002 A 
ATOM      5  C   UNL d   1       6.856   1.034 -15.436  0.00  0.00     0.004 A 
ATOM      6  C   UNL d   1       7.253   2.240 -14.807  0.00  0.00     0.017 A 
ENDROOT
BRANCH   1   7
ATOM      7  N   UNL d   1       6.959   3.918 -12.968  0.00  0.00    -0.208 NA
ATOM      8  C   UNL d   1       8.088   4.639 -13.119  0.00  0.00     0.279 C 
ATOM      9  O   UNL d   1       8.702   4.776 -14.179  0.00  0.00    -0.265 OA
BRANCH   8  10
ATOM     10  C   UNL d   1       8.540   5.370 -11.887  0.00  0.00     0.058 A 
ATOM     11  C   UNL d   1       8.246   4.876 -10.600  0.00  0.00     0.005 A 
ATOM     12  C   UNL d   1       8.715   5.539  -9.452  0.00  0.00     0.000 A 
ATOM     13  C   UNL d   1       9.540   6.691  -9.543  0.00  0.00     0.000 A 
ATOM     14  C   UNL d   1       9.855   7.147 -10.841  0.00  0.00     0.000 A 
ATOM     15  C   UNL d   1       9.370   6.502 -11.993  0.00  0.00     0.005 A 
BRANCH  13  16
ATOM     16  C   UNL d   1      10.039   7.401  -8.330  0.00  0.00     0.000 A 
ATOM     17  C   UNL d   1      10.001   6.788  -7.054  0.00  0.00     0.000 A 
ATOM     18  C   UNL d   1      10.463   7.448  -5.899  0.00  0.00     0.000 A 
ATOM     19  C   UNL d   1      10.984   8.751  -5.988  0.00  0.00     0.000 A 
ATOM     20  C   UNL d   1      11.041   9.382  -7.241  0.00  0.00     0.000 A 
ATOM     21  C   UNL d   1      10.560   8.723  -8.393  0.00  0.00     0.000 A 
ENDBRANCH  13  16
ENDBRANCH   8  10
ENDBRANCH   1   7
BRANCH   5  22
ATOM     22  C   UNL d   1       7.558   0.486 -16.679  0.00  0.00     0.157 C 
BRANCH  22  23
ATOM     23  N   UNL d   1       8.777   1.198 -17.093  0.00  0.00    -0.211 N 
ATOM     24  C   UNL d   1       8.808   1.935 -18.243  0.00  0.00     0.289 A 
ATOM     25  C   UNL d   1      10.080   2.637 -18.480  0.00  0.00     0.132 A 
ATOM     26  O   UNL d   1       7.847   2.001 -19.011  0.00  0.00    -0.265 OA
ATOM     27  C   UNL d   1      11.126   2.553 -17.614  0.00  0.00     0.093 A 
ATOM     28 CL   UNL d   1      10.152   3.612 -19.910  0.00  0.00    -0.076 Cl
ATOM     29  C   UNL d   1      10.919   1.734 -16.429  0.00  0.00     0.138 A 
ATOM     30  N   UNL d   1       9.832   1.074 -16.213  0.00  0.00    -0.164 NA
BRANCH  27  31
ATOM     31  N   UNL d   1      12.340   3.197 -17.816  0.00  0.00    -0.342 N 
ATOM     32  C   UNL d   1      12.980   4.067 -16.837  0.00  0.00     0.140 C 
ATOM     33  C   UNL d   1      13.357   5.420 -17.475  0.00  0.00     0.314 C 
ATOM     34  N   UNL d   1      14.239   5.208 -18.627  0.00  0.00     0.343 N 
ATOM     35  C   UNL d   1      13.523   4.402 -19.614  0.00  0.00     0.314 C 
ATOM     36  C   UNL d   1      13.159   3.032 -19.011  0.00  0.00     0.140 C 
ENDBRANCH  27  31
ENDBRANCH  22  23
ENDBRANCH   5  22
TORSDOF 6
