REMARK  8 active torsions:
REMARK  status: ('A' for Active; 'I' for Inactive)
REMARK    1  A    between atoms: C_2  and  C_3 
REMARK    2  A    between atoms: C_3  and  C_4 
REMARK    3  A    between atoms: C_4  and  O_5 
REMARK    4  A    between atoms: O_5  and  C_6 
REMARK    5  A    between atoms: C_9  and  C_10 
REMARK    6  A    between atoms: C_10  and  N_11 
REMARK    7  A    between atoms: N_14  and  C_15 
REMARK    8  A    between atoms: C_15  and  C_16 
ROOT
ATOM      1  N   UNL d   1       9.498   3.985 -13.790  0.00  0.00     0.146 N 
ATOM      2  C   UNL d   1       9.591   3.733 -12.346  0.00  0.00     0.286 C 
ATOM      3  C   UNL d   1       9.045   4.889 -11.485  0.00  0.00     0.286 C 
ATOM      4  N   UNL d   1       9.804   6.096 -11.767  0.00  0.00     0.148 N 
ATOM      5  C   UNL d   1       9.678   6.362 -13.192  0.00  0.00     0.286 C 
ATOM      6  C   UNL d   1      10.217   5.205 -14.069  0.00  0.00     0.286 C 
ENDROOT
BRANCH   1   7
ATOM      7  C   UNL d   1      10.018   2.844 -14.545  0.00  0.00     0.277 C 
BRANCH   7   8
ATOM      8  C   UNL d   1       8.904   2.019 -15.149  0.00  0.00     0.011 A 
ATOM      9  C   UNL d   1       8.345   0.947 -14.433  0.00  0.00    -0.000 A 
ATOM     10  C   UNL d   1       7.306   0.178 -14.971  0.00  0.00     0.024 A 
ATOM     11  C   UNL d   1       6.807   0.464 -16.263  0.00  0.00     0.094 A 
ATOM     12  C   UNL d   1       7.386   1.533 -16.988  0.00  0.00     0.024 A 
ATOM     13  C   UNL d   1       8.422   2.318 -16.437  0.00  0.00    -0.000 A 
BRANCH  11  14
ATOM     14  O   UNL d   1       5.788  -0.231 -16.884  0.00  0.00    -0.331 OA
BRANCH  14  15
ATOM     15  C   UNL d   1       5.103  -1.312 -16.241  0.00  0.00     0.152 C 
BRANCH  15  16
ATOM     16  C   UNL d   1       5.155  -2.545 -17.148  0.00  0.00     0.071 C 
BRANCH  16  17
ATOM     17  C   UNL d   1       4.246  -2.447 -18.376  0.00  0.00     0.196 C 
ATOM     18  F   UNL d   1       4.686  -1.514 -19.223  0.00  0.00    -0.234 F 
ENDBRANCH  16  17
ENDBRANCH  15  16
ENDBRANCH  14  15
ENDBRANCH  11  14
ENDBRANCH   7   8
ENDBRANCH   1   7
BRANCH   4  19
ATOM     19  C   UNL d   1       9.344   7.264 -11.013  0.00  0.00     0.301 C 
BRANCH  19  20
ATOM     20  C   UNL d   1       9.857   7.344  -9.603  0.00  0.00     0.111 A 
ATOM     21  O   UNL d   1       9.908   8.586  -9.013  0.00  0.00    -0.309 OA
ATOM     22  C   UNL d   1      10.407   8.404  -7.736  0.00  0.00     0.100 A 
ATOM     23  C   UNL d   1      10.684   7.034  -7.543  0.00  0.00     0.025 A 
ATOM     24  C   UNL d   1      10.658   9.360  -6.732  0.00  0.00     0.025 A 
ATOM     25  C   UNL d   1      10.337   6.373  -8.755  0.00  0.00     0.024 A 
ATOM     26  C   UNL d   1      11.233   6.650  -6.301  0.00  0.00     0.002 A 
ATOM     27  C   UNL d   1      11.459   7.588  -5.269  0.00  0.00     0.000 A 
ATOM     28  C   UNL d   1      11.174   8.950  -5.493  0.00  0.00     0.002 A 
ENDBRANCH  19  20
ENDBRANCH   4  19
TORSDOF 8
