REMARK  10 active torsions:
REMARK  status: ('A' for Active; 'I' for Inactive)
REMARK    1  A    between atoms: C_2  and  C_4 
REMARK    2  A    between atoms: C_9  and  O_10 
REMARK    3  A    between atoms: O_10  and  C_11 
REMARK    4  A    between atoms: C_11  and  C_12 
REMARK    5  A    between atoms: C_12  and  C_13 
REMARK    6  A    between atoms: C_13  and  C_14 
REMARK    7  A    between atoms: C_14  and  N_15 
REMARK    8  A    between atoms: N_18  and  C_19 
REMARK    9  A    between atoms: N_27  and  S_28 
REMARK   10  A    between atoms: S_28  and  C_31 
ROOT
ATOM      1  N   UNL d   1       6.641   3.348 -13.047  0.00  0.00     0.141 N 
ATOM      2  C   UNL d   1       5.449   2.562 -12.693  0.00  0.00     0.274 C 
ATOM      3  C   UNL d   1       5.634   1.058 -13.031  0.00  0.00     0.137 C 
ATOM      4  N   UNL d   1       6.008   0.908 -14.433  0.00  0.00    -0.344 N 
ATOM      5  C   UNL d   1       7.129   1.737 -14.857  0.00  0.00     0.137 C 
ATOM      6  C   UNL d   1       6.877   3.186 -14.473  0.00  0.00     0.274 C 
ENDROOT
BRANCH   4   7
ATOM      7  C   UNL d   1       5.376  -0.000 -15.309  0.00  0.00     0.058 A 
ATOM      8  C   UNL d   1       6.022  -0.455 -16.495  0.00  0.00     0.034 A 
ATOM      9  C   UNL d   1       5.262  -1.269 -17.399  0.00  0.00     0.076 A 
ATOM     10  C   UNL d   1       7.334  -0.301 -17.079  0.00  0.00     0.023 A 
ATOM     11  C   UNL d   1       3.930  -1.624 -17.115  0.00  0.00     0.018 A 
ATOM     12  N   UNL d   1       6.107  -1.573 -18.456  0.00  0.00    -0.231 N 
ATOM     13  C   UNL d   1       3.347  -1.213 -15.915  0.00  0.00     0.003 A 
ATOM     14  C   UNL d   1       4.054  -0.413 -15.023  0.00  0.00     0.017 A 
ATOM     15  C   UNL d   1       7.344  -0.980 -18.260  0.00  0.00     0.092 A 
BRANCH  12  16
ATOM     16  S   UNL d   1       5.747  -2.561 -19.808  0.00  0.00     0.271 S 
ATOM     17  O   UNL d   1       4.326  -2.313 -20.128  0.00  0.00    -0.200 OA
ATOM     18  O   UNL d   1       6.809  -2.276 -20.779  0.00  0.00    -0.200 OA
BRANCH  16  19
ATOM     19  C   UNL d   1       5.943  -4.227 -19.172  0.00  0.00     0.104 A 
ATOM     20  C   UNL d   1       5.064  -4.724 -18.189  0.00  0.00     0.013 A 
ATOM     21  C   UNL d   1       5.224  -6.026 -17.693  0.00  0.00     0.001 A 
ATOM     22  C   UNL d   1       6.262  -6.840 -18.187  0.00  0.00     0.000 A 
ATOM     23  C   UNL d   1       7.141  -6.343 -19.173  0.00  0.00     0.001 A 
ATOM     24  C   UNL d   1       6.989  -5.033 -19.666  0.00  0.00     0.013 A 
ENDBRANCH  16  19
ENDBRANCH  12  16
ENDBRANCH   4   7
BRANCH   1  25
ATOM     25  C   UNL d   1       6.444   4.771 -12.770  0.00  0.00     0.251 C 
BRANCH  25  26
ATOM     26  C   UNL d   1       7.780   5.561 -12.960  0.00  0.00     0.038 C 
BRANCH  26  27
ATOM     27  C   UNL d   1       7.600   7.017 -12.467  0.00  0.00     0.035 C 
BRANCH  27  28
ATOM     28  C   UNL d   1       8.906   7.724 -12.039  0.00  0.00     0.149 C 
BRANCH  28  29
ATOM     29  O   UNL d   1       9.709   6.859 -11.235  0.00  0.00    -0.331 OA
BRANCH  29  30
ATOM     30  C   UNL d   1       9.931   7.210  -9.930  0.00  0.00     0.099 A 
ATOM     31  C   UNL d   1       9.577   6.308  -8.878  0.00  0.00     0.082 A 
ATOM     32  C   UNL d   1       9.868   6.664  -7.546  0.00  0.00     0.007 A 
ATOM     33  C   UNL d   1      10.493   7.894  -7.246  0.00  0.00     0.000 A 
ATOM     34  C   UNL d   1      10.840   8.778  -8.290  0.00  0.00     0.002 A 
ATOM     35  C   UNL d   1      10.556   8.436  -9.621  0.00  0.00     0.024 A 
BRANCH  31  36
ATOM     36  C   UNL d   1       8.943   4.971  -9.195  0.00  0.00     0.299 C 
ATOM     37  N   UNL d   1       8.201   4.902 -10.225  0.00  0.00    -0.102 N 
ATOM     38  O   UNL d   1       9.057   3.955  -8.531  0.00  0.00    -0.264 OA
ENDBRANCH  31  36
ENDBRANCH  29  30
ENDBRANCH  28  29
ENDBRANCH  27  28
ENDBRANCH  26  27
ENDBRANCH  25  26
ENDBRANCH   1  25
TORSDOF 10
