REMARK  7 active torsions:
REMARK  status: ('A' for Active; 'I' for Inactive)
REMARK    1  A    between atoms: O_2  and  C_3 
REMARK    2  A    between atoms: C_8  and  C_9 
REMARK       I    between atoms: C_9  and  N_11 
REMARK    3  A    between atoms: N_11  and  C_12 
REMARK    4  A    between atoms: C_12  and  C_13 
REMARK    5  A    between atoms: C_13  and  C_14 
REMARK    6  A    between atoms: C_14  and  C_15 
REMARK    7  A    between atoms: C_15  and  N_16 
ROOT
ATOM      1  C   UNL d   1       9.720   5.810  -9.481  0.00  0.00     0.251 C 
ENDROOT
BRANCH   1   2
ATOM      2  C   UNL d   1       8.777   5.847 -10.691  0.00  0.00     0.037 C 
BRANCH   2   3
ATOM      3  C   UNL d   1       8.528   4.481 -11.218  0.00  0.00     0.029 C 
BRANCH   3   4
ATOM      4  C   UNL d   1       7.368   4.357 -12.184  0.00  0.00     0.129 C 
BRANCH   4   5
ATOM      5  N   UNL d   1       7.680   5.104 -13.376  0.00  0.00    -0.234 NA
ATOM      6  C   UNL d   1       8.492   4.734 -14.382  0.00  0.00     0.277 C 
ATOM      7  O   UNL d   1       8.734   5.459 -15.303  0.00  0.00    -0.266 OA
BRANCH   6   8
ATOM      8  C   UNL d   1       8.998   3.323 -14.440  0.00  0.00     0.080 C 
ATOM      9  C   UNL d   1      10.369   3.091 -14.679  0.00  0.00     0.099 C 
ATOM     10  C   UNL d   1      10.794   1.729 -14.703  0.00  0.00     0.024 C 
ATOM     11  C   UNL d   1       9.887   0.684 -14.480  0.00  0.00     0.002 C 
ATOM     12  C   UNL d   1       8.527   0.942 -14.286  0.00  0.00     0.000 C 
ATOM     13  C   UNL d   1       8.081   2.274 -14.341  0.00  0.00     0.007 C 
BRANCH   9  14
ATOM     14  O   UNL d   1      11.217   4.156 -14.875  0.00  0.00    -0.328 OA
ATOM     15  C   UNL d   1      12.595   3.901 -15.075  0.00  0.00     0.181 C 
ENDBRANCH   9  14
ENDBRANCH   6   8
ENDBRANCH   4   5
ENDBRANCH   3   4
ENDBRANCH   2   3
ENDBRANCH   1   2
BRANCH   1  16
ATOM     16  N   UNL d   1       9.978   7.134  -8.924  0.00  0.00     0.143 N 
ATOM     17  C   UNL d   1      10.542   7.144  -7.571  0.00  0.00     0.280 C 
ATOM     18  C   UNL d   1      10.761   8.583  -7.072  0.00  0.00     0.173 C 
ATOM     19  C   UNL d   1       9.710   6.460  -6.500  0.00  0.00     0.185 C 
ATOM     20  O   UNL d   1      11.686   9.202  -7.960  0.00  0.00    -0.348 OA
ATOM     21  C   UNL d   1      11.259   8.618  -5.651  0.00  0.00     0.029 A 
ATOM     22  C   UNL d   1      11.189   9.264  -9.289  0.00  0.00     0.178 C 
ATOM     23  C   UNL d   1      10.895   7.857  -9.800  0.00  0.00     0.282 C 
ATOM     24  C   UNL d   1      11.082   7.492  -4.815  0.00  0.00     0.092 A 
ATOM     25  C   UNL d   1      11.854   9.757  -5.088  0.00  0.00     0.000 A 
ATOM     26  C   UNL d   1      11.487   7.474  -3.482  0.00  0.00     0.024 A 
ATOM     27  O   UNL d   1      10.394   6.414  -5.261  0.00  0.00    -0.329 OA
ATOM     28  C   UNL d   1      12.080   8.603  -2.914  0.00  0.00     0.002 A 
ATOM     29  C   UNL d   1      12.225   9.698  -3.740  0.00  0.00    -0.000 A 
ENDBRANCH   1  16
TORSDOF 7
