REMARK  3 active torsions:
REMARK  status: ('A' for Active; 'I' for Inactive)
REMARK    1  A    between atoms: C_2  and  C_3 
REMARK    2  A    between atoms: C_3  and  N_4 
REMARK    3  A    between atoms: C_7  and  C_8 
ROOT
ATOM      1  N   UNL d   1       8.450   5.958 -10.926  0.00  0.00     0.137 N 
ATOM      2  C   UNL d   1       9.153   7.221 -11.144  0.00  0.00     0.251 C 
ATOM      3  C   UNL d   1       9.619   7.840  -9.811  0.00  0.00     0.040 C 
ATOM      4  C   UNL d   1      10.514   6.900  -8.997  0.00  0.00     0.032 C 
ATOM      5  C   UNL d   1       9.793   5.538  -8.899  0.00  0.00     0.040 C 
ATOM      6  C   UNL d   1       9.345   5.012 -10.270  0.00  0.00     0.251 C 
ENDROOT
BRANCH   4   7
ATOM      7  C   UNL d   1      10.839   7.460  -7.635  0.00  0.00     0.007 A 
ATOM      8  S   UNL d   1      10.695   9.168  -7.307  0.00  0.00    -0.091 SA
ATOM      9  C   UNL d   1      11.174   8.940  -5.642  0.00  0.00     0.029 A 
ATOM     10  C   UNL d   1      11.449   7.566  -5.372  0.00  0.00     0.006 A 
ATOM     11  C   UNL d   1      11.298   9.934  -4.663  0.00  0.00     0.006 A 
ATOM     12  C   UNL d   1      11.255   6.742  -6.540  0.00  0.00     0.003 A 
ATOM     13  C   UNL d   1      11.860   7.242  -4.057  0.00  0.00     0.001 A 
ATOM     14  C   UNL d   1      12.016   8.240  -3.069  0.00  0.00     0.000 A 
ATOM     15  C   UNL d   1      11.742   9.585  -3.375  0.00  0.00     0.001 A 
ENDBRANCH   4   7
BRANCH   1  16
ATOM     16  C   UNL d   1       7.979   5.423 -12.202  0.00  0.00     0.250 C 
BRANCH  16  17
ATOM     17  C   UNL d   1       6.811   4.441 -12.005  0.00  0.00     0.035 C 
ATOM     18  C   UNL d   1       6.459   3.708 -13.303  0.00  0.00     0.002 C 
ENDBRANCH  16  17
ENDBRANCH   1  16
TORSDOF 3
