REMARK  5 active torsions:
REMARK  status: ('A' for Active; 'I' for Inactive)
REMARK    1  A    between atoms: C_2  and  N_3 
REMARK    2  A    between atoms: C_7  and  C_8 
REMARK    3  A    between atoms: C_8  and  N_9 
REMARK       I    between atoms: N_9  and  C_10 
REMARK    4  A    between atoms: C_10  and  C_12 
REMARK    5  A    between atoms: C_20  and  O_21 
ROOT
ATOM      1  C   UNL d   1       9.871   6.810  -9.073  0.00  0.00     0.110 A 
ATOM      2  C   UNL d   1      10.088   6.886  -7.678  0.00  0.00     0.153 A 
ATOM      3  F   UNL d   1       9.504   6.007  -6.829  0.00  0.00    -0.203 F 
ATOM      4  C   UNL d   1      10.808   7.928  -7.096  0.00  0.00     0.064 A 
ATOM      5 BR   UNL d   1      11.066   7.920  -5.220  0.00  0.00    -0.047 Br
ATOM      6  C   UNL d   1      11.284   8.980  -7.881  0.00  0.00     0.038 A 
ATOM      7  C   UNL d   1      11.033   8.913  -9.259  0.00  0.00     0.154 A 
ATOM      8  O   UNL d   1      11.473   9.890 -10.055  0.00  0.00    -0.188 OA
ATOM      9  C   UNL d   1      10.340   7.876  -9.879  0.00  0.00     0.126 A 
ENDROOT
BRANCH   1  10
ATOM     10  C   UNL d   1       9.165   5.624  -9.646  0.00  0.00     0.279 C 
ATOM     11  N   UNL d   1       9.557   5.314 -10.888  0.00  0.00    -0.232 NA
ATOM     12  O   UNL d   1       8.370   4.953  -8.996  0.00  0.00    -0.265 OA
BRANCH  11  13
ATOM     13  C   UNL d   1       8.934   4.413 -11.821  0.00  0.00     0.162 C 
BRANCH  13  14
ATOM     14  C   UNL d   1       8.094   5.252 -12.833  0.00  0.00     0.243 C 
ATOM     15  N   UNL d   1       7.678   4.436 -13.976  0.00  0.00     0.137 N 
ATOM     16  C   UNL d   1       6.528   3.670 -13.527  0.00  0.00     0.250 C 
ATOM     17  C   UNL d   1       5.738   4.655 -12.664  0.00  0.00     0.037 C 
ATOM     18  C   UNL d   1       6.735   5.724 -12.244  0.00  0.00     0.037 C 
BRANCH  15  19
ATOM     19  C   UNL d   1       8.680   3.662 -14.720  0.00  0.00     0.250 C 
ATOM     20  C   UNL d   1       9.779   4.616 -15.262  0.00  0.00     0.037 C 
ENDBRANCH  15  19
ENDBRANCH  13  14
ENDBRANCH  11  13
ENDBRANCH   1  10
BRANCH   9  21
ATOM     21  O   UNL d   1      10.178   7.960 -11.241  0.00  0.00    -0.326 OA
ATOM     22  C   UNL d   1       8.982   8.583 -11.665  0.00  0.00     0.181 C 
ENDBRANCH   9  21
TORSDOF 5
