REMARK  2 active torsions:
REMARK  status: ('A' for Active; 'I' for Inactive)
REMARK    1  A    between atoms: N_10  and  C_11 
REMARK    2  A    between atoms: C_14  and  C_15 
ROOT
ATOM      1  O   UNL d   1       9.567   6.254 -10.509  0.00  0.00    -0.263 OA
ATOM      2  C   UNL d   1       9.610   6.588  -9.327  0.00  0.00     0.301 A 
ATOM      3  N   UNL d   1       8.685   6.219  -8.412  0.00  0.00    -0.184 NA
ATOM      4  C   UNL d   1       8.699   6.640  -7.061  0.00  0.00     0.203 A 
ATOM      5  N   UNL d   1       9.624   7.370  -6.505  0.00  0.00    -0.205 NA
ATOM      6  C   UNL d   1      10.588   7.749  -7.408  0.00  0.00     0.171 A 
ATOM      7  C   UNL d   1      10.676   7.438  -8.744  0.00  0.00     0.175 A 
ATOM      8  N   UNL d   1      11.811   7.992  -9.314  0.00  0.00    -0.217 NA
ATOM      9  C   UNL d   1      12.368   8.620  -8.277  0.00  0.00     0.182 A 
ATOM     10  N   UNL d   1      11.689   8.544  -7.117  0.00  0.00    -0.272 N 
ENDROOT
BRANCH  10  11
ATOM     11  C   UNL d   1      12.081   9.154  -5.811  0.00  0.00     0.207 C 
ATOM     12  O   UNL d   1      12.146   8.155  -4.841  0.00  0.00    -0.336 OA
ATOM     13  C   UNL d   1      12.234   8.845  -3.612  0.00  0.00     0.150 C 
ATOM     14  C   UNL d   1      11.199   9.945  -3.780  0.00  0.00     0.037 C 
ATOM     15  C   UNL d   1      11.059  10.153  -5.284  0.00  0.00     0.057 C 
BRANCH  13  16
ATOM     16  C   UNL d   1      11.989   7.899  -2.421  0.00  0.00     0.212 C 
ATOM     17  O   UNL d   1      12.691   8.386  -1.309  0.00  0.00    -0.218 OA
ENDBRANCH  13  16
ENDBRANCH  10  11
TORSDOF 2
