REMARK  4 active torsions:
REMARK  status: ('A' for Active; 'I' for Inactive)
REMARK       I    between atoms: C_2  and  N_3 
REMARK    1  A    between atoms: C_2  and  C_26 
REMARK    2  A    between atoms: N_3  and  C_4 
REMARK    3  A    between atoms: C_10  and  S_11 
REMARK    4  A    between atoms: S_11  and  C_14 
ROOT
ATOM      1  C   UNL d   1       7.765   4.940 -11.928  0.00  0.00     0.085 A 
ATOM      2  C   UNL d   1       6.400   4.596 -12.039  0.00  0.00     0.021 A 
ATOM      3  C   UNL d   1       5.953   3.659 -13.004  0.00  0.00     0.022 A 
ATOM      4  C   UNL d   1       6.915   3.181 -13.912  0.00  0.00     0.105 A 
ATOM      5  N   UNL d   1       6.668   2.328 -14.930  0.00  0.00    -0.147 NA
ATOM      6  N   UNL d   1       7.878   2.191 -15.554  0.00  0.00    -0.136 NA
ATOM      7  C   UNL d   1       8.849   2.891 -14.878  0.00  0.00     0.192 A 
ATOM      8  C   UNL d   1       8.237   3.563 -13.846  0.00  0.00     0.051 A 
ATOM      9  C   UNL d   1       8.713   4.455 -12.879  0.00  0.00     0.023 A 
ENDROOT
BRANCH   7  10
ATOM     10  S   UNL d   1      10.575   2.999 -15.302  0.00  0.00     0.228 S 
ATOM     11  O   UNL d   1      10.707   4.341 -15.891  0.00  0.00    -0.216 OA
ATOM     12  O   UNL d   1      11.300   2.655 -14.062  0.00  0.00    -0.216 OA
BRANCH  10  13
ATOM     13  C   UNL d   1      10.903   1.689 -16.518  0.00  0.00     0.089 C 
ATOM     14  C   UNL d   1      11.854   1.823 -17.567  0.00  0.00     0.011 A 
ATOM     15  C   UNL d   1      12.004   0.750 -18.497  0.00  0.00     0.001 A 
ATOM     16  C   UNL d   1      12.700   2.956 -17.724  0.00  0.00     0.001 A 
ATOM     17  C   UNL d   1      11.213  -0.412 -18.389  0.00  0.00     0.000 C 
ATOM     18  C   UNL d   1      12.941   0.822 -19.547  0.00  0.00     0.000 A 
ATOM     19  C   UNL d   1      10.309  -0.552 -17.329  0.00  0.00     0.001 C 
ATOM     20  C   UNL d   1      10.219   0.456 -16.352  0.00  0.00     0.011 C 
ATOM     21  C   UNL d   1      13.749   1.968 -19.697  0.00  0.00     0.000 A 
ATOM     22  C   UNL d   1      13.619   3.034 -18.785  0.00  0.00     0.000 A 
ENDBRANCH  10  13
ENDBRANCH   7  10
BRANCH   1  23
ATOM     23  N   UNL d   1       8.155   5.871 -10.945  0.00  0.00    -0.212 NA
ATOM     24  C   UNL d   1       9.037   5.588  -9.985  0.00  0.00     0.255 C 
ATOM     25  O   UNL d   1       9.450   4.446  -9.742  0.00  0.00    -0.270 OA
BRANCH  24  26
ATOM     26  C   UNL d   1       9.535   6.766  -9.127  0.00  0.00     0.085 C 
ATOM     27  C   UNL d   1       9.956   6.391  -7.692  0.00  0.00     0.048 C 
ATOM     28  C   UNL d   1      10.502   7.613  -6.940  0.00  0.00     0.291 C 
ATOM     29  N   UNL d   1      11.637   8.182  -7.651  0.00  0.00     0.339 N 
ATOM     30  C   UNL d   1      11.229   8.655  -8.968  0.00  0.00     0.291 C 
ATOM     31  C   UNL d   1      10.706   7.486  -9.824  0.00  0.00     0.048 C 
ENDBRANCH  24  26
ENDBRANCH   1  23
TORSDOF 4
