REMARK  8 active torsions:
REMARK  status: ('A' for Active; 'I' for Inactive)
REMARK    1  A    between atoms: C_2  and  C_3 
REMARK    2  A    between atoms: C_3  and  C_4 
REMARK    3  A    between atoms: C_4  and  C_5 
REMARK    4  A    between atoms: C_5  and  C_6 
REMARK    5  A    between atoms: C_6  and  O_8 
REMARK    6  A    between atoms: O_8  and  C_9 
REMARK    7  A    between atoms: N_23  and  C_24 
REMARK    8  A    between atoms: C_24  and  C_25 
ROOT
ATOM      1  C   UNL d   1       8.298   5.578 -12.619  0.00  0.00     0.103 A 
ATOM      2  C   UNL d   1       7.094   6.006 -12.040  0.00  0.00     0.025 A 
ATOM      3  C   UNL d   1       5.922   5.348 -12.269  0.00  0.00     0.002 A 
ATOM      4  C   UNL d   1       5.871   4.230 -13.124  0.00  0.00    -0.004 A 
ATOM      5  C   UNL d   1       7.055   3.810 -13.747  0.00  0.00    -0.018 A 
ATOM      6  C   UNL d   1       8.282   4.497 -13.552  0.00  0.00     0.019 A 
ATOM      7  C   UNL d   1       9.483   4.002 -14.294  0.00  0.00    -0.001 A 
ATOM      8  C   UNL d   1      10.619   4.810 -14.601  0.00  0.00    -0.000 A 
ATOM      9  C   UNL d   1      11.730   4.356 -15.341  0.00  0.00    -0.000 A 
ATOM     10  C   UNL d   1      11.759   3.039 -15.819  0.00  0.00    -0.004 A 
ATOM     11  C   UNL d   1      10.673   2.184 -15.571  0.00  0.00    -0.022 A 
ATOM     12  C   UNL d   1       9.564   2.683 -14.831  0.00  0.00     0.005 A 
ATOM     13  C   UNL d   1       8.355   1.760 -14.544  0.00  0.00     0.245 C 
ATOM     14  C   UNL d   1       7.024   2.550 -14.609  0.00  0.00     0.064 C 
ATOM     15  N   UNL d   1       8.238   0.587 -15.397  0.00  0.00     0.140 N 
ATOM     16  C   UNL d   1       9.522  -0.092 -15.350  0.00  0.00     0.255 C 
ATOM     17  C   UNL d   1      10.541   0.768 -16.091  0.00  0.00     0.061 C 
ENDROOT
BRANCH   1  18
ATOM     18  O   UNL d   1       9.450   6.193 -12.211  0.00  0.00    -0.276 OA
BRANCH  18  19
ATOM     19  C   UNL d   1       9.765   6.336 -10.861  0.00  0.00     0.276 C 
ATOM     20  O   UNL d   1      10.646   7.079 -10.442  0.00  0.00    -0.264 OA
BRANCH  19  21
ATOM     21  C   UNL d   1       8.990   5.420  -9.899  0.00  0.00     0.096 C 
BRANCH  21  22
ATOM     22  C   UNL d   1       9.473   5.535  -8.441  0.00  0.00     0.010 C 
BRANCH  22  23
ATOM     23  C   UNL d   1       9.431   6.975  -7.861  0.00  0.00     0.001 C 
BRANCH  23  24
ATOM     24  C   UNL d   1      10.054   7.048  -6.473  0.00  0.00     0.000 C 
ATOM     25  C   UNL d   1      10.226   8.510  -6.038  0.00  0.00     0.000 C 
ENDBRANCH  23  24
ENDBRANCH  22  23
ENDBRANCH  21  22
ENDBRANCH  19  21
ENDBRANCH  18  19
ENDBRANCH   1  18
BRANCH  15  26
ATOM     26  C   UNL d   1       7.177  -0.326 -14.946  0.00  0.00     0.251 C 
BRANCH  26  27
ATOM     27  C   UNL d   1       6.379  -0.810 -16.161  0.00  0.00     0.035 C 
ATOM     28  C   UNL d   1       5.362   0.221 -16.656  0.00  0.00     0.002 C 
ENDBRANCH  26  27
ENDBRANCH  15  26
TORSDOF 8
