REMARK  5 active torsions:
REMARK  status: ('A' for Active; 'I' for Inactive)
REMARK    1  A    between atoms: C_2  and  C_3 
REMARK    2  A    between atoms: C_3  and  N_4 
REMARK    3  A    between atoms: N_4  and  C_5 
REMARK    4  A    between atoms: N_4  and  C_8 
REMARK    5  A    between atoms: C_5  and  C_6 
ROOT
ATOM      1  C   UNL d   1       8.553   4.014 -13.703  0.00  0.00     0.224 C 
ATOM      2  C   UNL d   1       9.587   2.858 -13.463  0.00  0.00     0.060 C 
ATOM      3  C   UNL d   1      10.598   2.724 -14.546  0.00  0.00    -0.018 C 
ATOM      4  C   UNL d   1      10.719   3.600 -15.579  0.00  0.00     0.042 C 
ATOM      5  C   UNL d   1      11.769   3.399 -16.576  0.00  0.00     0.096 C 
ATOM      6  N   UNL d   1      12.560   3.231 -17.350  0.00  0.00    -0.192 NA
ATOM      7  C   UNL d   1       9.866   4.840 -15.715  0.00  0.00     0.038 C 
ATOM      8  C   UNL d   1       9.183   5.189 -14.411  0.00  0.00     0.039 C 
ENDROOT
BRANCH   1   9
ATOM      9  N   UNL d   1       7.739   4.343 -12.527  0.00  0.00     0.135 N 
BRANCH   9  10
ATOM     10  C   UNL d   1       6.281   4.407 -12.804  0.00  0.00     0.250 C 
BRANCH  10  11
ATOM     11  C   UNL d   1       5.578   3.035 -12.963  0.00  0.00     0.035 C 
ATOM     12  C   UNL d   1       6.098   2.083 -14.048  0.00  0.00     0.002 C 
ENDBRANCH  10  11
ENDBRANCH   9  10
BRANCH   9  13
ATOM     13  C   UNL d   1       8.154   5.537 -11.746  0.00  0.00     0.250 C 
BRANCH  13  14
ATOM     14  C   UNL d   1       9.401   5.256 -10.893  0.00  0.00     0.035 C 
ATOM     15  C   UNL d   1       9.051   5.091  -9.423  0.00  0.00     0.002 C 
ENDBRANCH  13  14
ENDBRANCH   9  13
ENDBRANCH   1   9
TORSDOF 5
