REMARK  5 active torsions:
REMARK  status: ('A' for Active; 'I' for Inactive)
REMARK    1  A    between atoms: C_6  and  N_7 
REMARK    2  A    between atoms: N_10  and  C_11 
REMARK    3  A    between atoms: C_11  and  C_12 
REMARK    4  A    between atoms: C_12  and  C_13 
REMARK    5  A    between atoms: C_17  and  N_18 
ROOT
ATOM      1  N   UNL d   1       8.572   4.594 -12.656  0.00  0.00    -0.344 N 
ATOM      2  C   UNL d   1       8.330   6.009 -12.778  0.00  0.00     0.137 C 
ATOM      3  C   UNL d   1       8.383   6.695 -11.408  0.00  0.00     0.274 C 
ATOM      4  N   UNL d   1       9.593   6.342 -10.661  0.00  0.00     0.141 N 
ATOM      5  C   UNL d   1       9.589   4.900 -10.446  0.00  0.00     0.274 C 
ATOM      6  C   UNL d   1       9.689   4.199 -11.829  0.00  0.00     0.137 C 
ENDROOT
BRANCH   4   7
ATOM      7  C   UNL d   1       9.569   7.064  -9.398  0.00  0.00     0.255 C 
BRANCH   7   8
ATOM      8  C   UNL d   1      10.919   6.936  -8.647  0.00  0.00     0.062 C 
BRANCH   8   9
ATOM      9  C   UNL d   1      11.054   7.844  -7.446  0.00  0.00    -0.019 A 
ATOM     10  C   UNL d   1      11.367   7.357  -6.163  0.00  0.00     0.015 A 
ATOM     11  C   UNL d   1      11.493   8.294  -5.106  0.00  0.00     0.083 A 
ATOM     12  C   UNL d   1      11.338   9.672  -5.330  0.00  0.00     0.019 A 
ATOM     13  C   UNL d   1      11.104  10.137  -6.624  0.00  0.00     0.001 A 
ATOM     14  C   UNL d   1      10.954   9.219  -7.667  0.00  0.00    -0.004 A 
BRANCH  11  15
ATOM     15  N   UNL d   1      11.854   7.862  -3.820  0.00  0.00    -0.228 N 
ATOM     16  N   UNL d   1      12.203   8.736  -2.855  0.00  0.00    -0.164 NA
ATOM     17  C   UNL d   1      12.443   7.999  -1.790  0.00  0.00     0.122 A 
ATOM     18  C   UNL d   1      12.272   6.614  -2.055  0.00  0.00     0.043 A 
ATOM     19  C   UNL d   1      11.887   6.568  -3.358  0.00  0.00     0.102 A 
ENDBRANCH  11  15
ENDBRANCH   8   9
ENDBRANCH   7   8
ENDBRANCH   4   7
BRANCH   1  20
ATOM     20  C   UNL d   1       7.706   3.667 -13.221  0.00  0.00     0.058 A 
ATOM     21  C   UNL d   1       8.132   2.750 -14.216  0.00  0.00     0.033 A 
ATOM     22  C   UNL d   1       9.458   2.787 -14.725  0.00  0.00     0.004 A 
ATOM     23  C   UNL d   1       7.236   1.776 -14.727  0.00  0.00     0.082 A 
ATOM     24  C   UNL d   1       9.824   1.866 -15.708  0.00  0.00     0.015 A 
ATOM     25  C   UNL d   1       8.867   0.957 -16.175  0.00  0.00     0.059 A 
ATOM     26  C   UNL d   1       9.197  -0.014 -17.278  0.00  0.00     0.052 C 
ATOM     27  N   UNL d   1       7.606   0.895 -15.688  0.00  0.00    -0.250 NA
ATOM     28  C   UNL d   1       5.943   1.700 -14.178  0.00  0.00     0.019 A 
ATOM     29  C   UNL d   1       5.497   2.610 -13.200  0.00  0.00     0.003 A 
ATOM     30  C   UNL d   1       6.379   3.614 -12.741  0.00  0.00     0.017 A 
ENDBRANCH   1  20
TORSDOF 5
