REMARK  10 active torsions:
REMARK  status: ('A' for Active; 'I' for Inactive)
REMARK    1  A    between atoms: C_4  and  S_5 
REMARK    2  A    between atoms: S_5  and  N_8 
REMARK    3  A    between atoms: N_8  and  C_9 
REMARK    4  A    between atoms: N_8  and  C_13 
REMARK    5  A    between atoms: C_9  and  C_10 
REMARK    6  A    between atoms: N_16  and  C_17 
REMARK    7  A    between atoms: C_17  and  C_18 
REMARK    8  A    between atoms: C_18  and  O_19 
REMARK    9  A    between atoms: O_19  and  C_20 
REMARK   10  A    between atoms: C_25  and  C_26 
ROOT
ATOM      1  C   UNL d   1      10.313   2.923 -16.637  0.00  0.00     0.096 C 
ATOM      2  C   UNL d   1       9.058   3.616 -16.100  0.00  0.00     0.058 C 
ATOM      3  C   UNL d   1       9.141   3.924 -14.615  0.00  0.00     0.252 C 
ATOM      4  N   UNL d   1      10.355   4.695 -14.371  0.00  0.00     0.140 N 
ATOM      5  C   UNL d   1      11.552   3.883 -14.700  0.00  0.00     0.252 C 
ATOM      6  C   UNL d   1      11.631   3.589 -16.203  0.00  0.00     0.058 C 
ENDROOT
BRANCH   1   7
ATOM      7  N   UNL d   1      10.184   2.790 -18.106  0.00  0.00    -0.276 N 
BRANCH   7   8
ATOM      8  S   UNL d   1       9.914   1.210 -18.808  0.00  0.00     0.267 S 
ATOM      9  O   UNL d   1       9.001   1.334 -19.950  0.00  0.00    -0.200 OA
ATOM     10  O   UNL d   1       9.648   0.227 -17.736  0.00  0.00    -0.200 OA
BRANCH   8  11
ATOM     11  C   UNL d   1      11.487   0.667 -19.518  0.00  0.00     0.143 A 
ATOM     12  C   UNL d   1      12.067  -0.551 -19.358  0.00  0.00     0.110 A 
ATOM     13  N   UNL d   1      13.232  -0.501 -20.103  0.00  0.00    -0.247 N 
ATOM     14  C   UNL d   1      14.218  -1.539 -20.294  0.00  0.00     0.154 C 
ATOM     15  N   UNL d   1      13.408   0.698 -20.711  0.00  0.00    -0.167 NA
ATOM     16  C   UNL d   1      12.348   1.416 -20.360  0.00  0.00     0.135 A 
ENDBRANCH   8  11
ENDBRANCH   7   8
BRANCH   7  17
ATOM     17  C   UNL d   1      10.448   3.966 -18.974  0.00  0.00     0.113 C 
BRANCH  17  18
ATOM     18  C   UNL d   1      10.030   5.324 -18.404  0.00  0.00     0.023 A 
ATOM     19  C   UNL d   1      10.111   6.604 -19.176  0.00  0.00     0.002 A 
ATOM     20  C   UNL d   1       8.754   6.011 -18.861  0.00  0.00     0.002 A 
ENDBRANCH  17  18
ENDBRANCH   7  17
ENDBRANCH   1   7
BRANCH   4  21
ATOM     21  C   UNL d   1      10.371   4.983 -12.948  0.00  0.00     0.283 C 
BRANCH  21  22
ATOM     22  C   UNL d   1       9.757   6.356 -12.531  0.00  0.00     0.184 C 
BRANCH  22  23
ATOM     23  O   UNL d   1      10.229   6.824 -11.248  0.00  0.00    -0.329 OA
BRANCH  23  24
ATOM     24  C   UNL d   1       9.665   6.391 -10.104  0.00  0.00     0.090 C 
ATOM     25  C   UNL d   1       9.890   7.158  -8.918  0.00  0.00    -0.001 C 
ATOM     26  C   UNL d   1       9.247   6.734  -7.722  0.00  0.00    -0.002 C 
ATOM     27  C   UNL d   1       8.424   5.618  -7.763  0.00  0.00    -0.000 C 
ATOM     28  C   UNL d   1       8.296   4.837  -8.896  0.00  0.00     0.002 C 
ATOM     29  C   UNL d   1       8.866   5.235 -10.086  0.00  0.00     0.024 C 
BRANCH  25  30
ATOM     30  C   UNL d   1      10.787   8.405  -8.904  0.00  0.00     0.021 C 
ATOM     31  C   UNL d   1      10.693   9.195  -7.580  0.00  0.00     0.004 C 
ATOM     32  C   UNL d   1      10.410   9.399 -10.012  0.00  0.00     0.004 C 
ATOM     33  C   UNL d   1      12.259   7.992  -9.072  0.00  0.00     0.004 C 
ENDBRANCH  25  30
ENDBRANCH  23  24
ENDBRANCH  22  23
ENDBRANCH  21  22
ENDBRANCH   4  21
TORSDOF 10
