REMARK  6 active torsions:
REMARK  status: ('A' for Active; 'I' for Inactive)
REMARK    1  A    between atoms: C_2  and  C_5 
REMARK    2  A    between atoms: C_9  and  N_10 
REMARK    3  A    between atoms: N_13  and  C_14 
REMARK    4  A    between atoms: C_14  and  C_15 
REMARK    5  A    between atoms: C_15  and  O_16 
REMARK    6  A    between atoms: O_16  and  C_17 
ROOT
ATOM      1  N   UNL d   1      11.032   7.322  -7.439  0.00  0.00    -0.344 N 
ATOM      2  C   UNL d   1      10.613   5.938  -7.390  0.00  0.00     0.137 C 
ATOM      3  C   UNL d   1       9.424   5.689  -8.336  0.00  0.00     0.274 C 
ATOM      4  N   UNL d   1       9.760   6.105  -9.703  0.00  0.00     0.144 N 
ATOM      5  C   UNL d   1      10.050   7.549  -9.670  0.00  0.00     0.274 C 
ATOM      6  C   UNL d   1      11.263   7.849  -8.773  0.00  0.00     0.137 C 
ENDROOT
BRANCH   4   7
ATOM      7  C   UNL d   1       8.617   5.805 -10.564  0.00  0.00     0.283 C 
BRANCH   7   8
ATOM      8  C   UNL d   1       8.904   6.088 -12.056  0.00  0.00     0.184 C 
BRANCH   8   9
ATOM      9  O   UNL d   1       7.715   5.978 -12.823  0.00  0.00    -0.329 OA
BRANCH   9  10
ATOM     10  C   UNL d   1       7.279   4.710 -13.087  0.00  0.00     0.096 A 
ATOM     11  C   UNL d   1       5.989   4.348 -12.635  0.00  0.00     0.026 A 
ATOM     12  C   UNL d   1       5.464   3.069 -12.918  0.00  0.00     0.025 A 
ATOM     13  C   UNL d   1       6.258   2.191 -13.677  0.00  0.00     0.124 A 
ATOM     14  N   UNL d   1       5.953   0.951 -14.042  0.00  0.00    -0.127 NA
ATOM     15  C   UNL d   1       7.512   2.546 -14.131  0.00  0.00     0.126 A 
ATOM     16  N   UNL d   1       7.089   0.607 -14.736  0.00  0.00    -0.042 NA
ATOM     17  N   UNL d   1       8.072   1.561 -14.827  0.00  0.00    -0.127 NA
ATOM     18  C   UNL d   1       8.062   3.806 -13.845  0.00  0.00     0.047 A 
ENDBRANCH   9  10
ENDBRANCH   8   9
ENDBRANCH   7   8
ENDBRANCH   4   7
BRANCH   1  19
ATOM     19  C   UNL d   1      11.155   8.088  -6.261  0.00  0.00     0.056 A 
ATOM     20  C   UNL d   1      10.916   9.475  -6.278  0.00  0.00     0.017 A 
ATOM     21  C   UNL d   1      11.060  10.231  -5.103  0.00  0.00     0.001 A 
ATOM     22  C   UNL d   1      11.461   9.612  -3.901  0.00  0.00     0.004 A 
ATOM     23  C   UNL d   1      11.706   8.231  -3.869  0.00  0.00     0.073 A 
ATOM     24  C   UNL d   1      11.525   7.471  -5.043  0.00  0.00     0.021 A 
BRANCH  23  25
ATOM     25  C   UNL d   1      12.129   7.541  -2.583  0.00  0.00     0.419 C 
ATOM     26  F   UNL d   1      12.646   8.404  -1.708  0.00  0.00    -0.166 F 
ATOM     27  F   UNL d   1      13.045   6.616  -2.839  0.00  0.00    -0.166 F 
ATOM     28  F   UNL d   1      11.073   6.944  -2.038  0.00  0.00    -0.166 F 
ENDBRANCH  23  25
ENDBRANCH   1  19
TORSDOF 6
