REMARK  7 active torsions:
REMARK  status: ('A' for Active; 'I' for Inactive)
REMARK    1  A    between atoms: C_2  and  C_3 
REMARK    2  A    between atoms: C_3  and  C_4 
REMARK    3  A    between atoms: C_4  and  C_5 
REMARK    4  A    between atoms: C_5  and  O_6 
REMARK    5  A    between atoms: C_5  and  C_15 
REMARK    6  A    between atoms: O_6  and  C_7 
REMARK    7  A    between atoms: C_20  and  N_21 
ROOT
ATOM      1  C   UNL d   1       9.496   4.333 -13.794  0.00  0.00     0.188 A 
ATOM      2  N   UNL d   1      10.512   5.154 -14.071  0.00  0.00    -0.196 NA
ATOM      3  C   UNL d   1      11.385   4.613 -14.915  0.00  0.00     0.256 A 
ATOM      4  N   UNL d   1      12.434   5.438 -15.272  0.00  0.00    -0.059 NA
ATOM      5  N   UNL d   1      11.382   3.411 -15.449  0.00  0.00    -0.028 NA
ATOM      6  C   UNL d   1      10.319   2.693 -15.063  0.00  0.00     0.731 A 
ATOM      7  N   UNL d   1       9.336   3.082 -14.254  0.00  0.00    -0.044 NA
ENDROOT
BRANCH   1   8
ATOM      8  C   UNL d   1       8.411   4.861 -12.906  0.00  0.00     0.180 C 
BRANCH   8   9
ATOM      9  C   UNL d   1       7.003   4.245 -13.172  0.00  0.00     0.038 C 
BRANCH   9  10
ATOM     10  C   UNL d   1       5.872   4.630 -12.193  0.00  0.00     0.003 C 
BRANCH  10  11
ATOM     11  C   UNL d   1       5.971   6.061 -11.580  0.00  0.00     0.000 C 
ATOM     12  C   UNL d   1       6.138   7.221 -12.612  0.00  0.00     0.000 C 
ENDBRANCH  10  11
ENDBRANCH   9  10
ENDBRANCH   8   9
BRANCH   8  13
ATOM     13  O   UNL d   1       8.824   4.778 -11.568  0.00  0.00    -0.325 OA
BRANCH  13  14
ATOM     14  C   UNL d   1       9.179   5.929 -10.853  0.00  0.00     0.106 A 
ATOM     15  C   UNL d   1       9.226   5.841  -9.464  0.00  0.00     0.090 A 
ATOM     16  C   UNL d   1       9.639   6.942  -8.672  0.00  0.00     0.070 A 
ATOM     17 CL   UNL d   1       8.679   4.388  -8.725  0.00  0.00    -0.079 Cl
ATOM     18  C   UNL d   1      10.005   8.155  -9.282  0.00  0.00     0.012 A 
ATOM     19 CL   UNL d   1       9.703   6.835  -6.951  0.00  0.00    -0.081 Cl
ATOM     20  C   UNL d   1       9.917   8.253 -10.690  0.00  0.00     0.003 A 
ATOM     21  C   UNL d   1       9.561   7.163 -11.465  0.00  0.00     0.025 A 
ENDBRANCH  13  14
ENDBRANCH   8  13
ENDBRANCH   1   8
BRANCH   6  22
ATOM     22  N   UNL d   1      10.168   1.391 -15.546  0.00  0.00    -0.179 N 
ATOM     23  C   UNL d   1      11.178   0.765 -16.373  0.00  0.00     0.155 C 
ATOM     24  C   UNL d   1      10.537   0.194 -17.633  0.00  0.00     0.275 C 
ATOM     25  N   UNL d   1       9.465  -0.741 -17.283  0.00  0.00     0.143 N 
ATOM     26  C   UNL d   1       8.427  -0.013 -16.537  0.00  0.00     0.275 C 
ATOM     27  C   UNL d   1       8.889  -1.294 -18.490  0.00  0.00     0.286 C 
ATOM     28  C   UNL d   1       9.021   0.542 -15.239  0.00  0.00     0.155 C 
ENDBRANCH   6  22
TORSDOF 7
