REMARK  1 active torsions:
REMARK  status: ('A' for Active; 'I' for Inactive)
REMARK    1  A    between atoms: C_2  and  C_3 
REMARK       I    between atoms: C_2  and  N_9 
ROOT
ATOM      1  O   UNL d   1      11.249   5.185 -14.499  0.00  0.00    -0.272 OA
ATOM      2  C   UNL d   1      10.814   4.078 -14.826  0.00  0.00     0.234 C 
ATOM      3  N   UNL d   1       9.960   3.388 -14.029  0.00  0.00    -0.309 N 
ATOM      4  C   UNL d   1       9.640   3.895 -12.697  0.00  0.00     0.193 C 
ATOM      5  C   UNL d   1       8.156   4.190 -12.525  0.00  0.00     0.257 C 
ATOM      6  O   UNL d   1       7.819   4.922 -11.590  0.00  0.00    -0.270 OA
ATOM      7  N   UNL d   1       7.273   3.614 -13.370  0.00  0.00    -0.314 N 
ATOM      8  C   UNL d   1       5.835   3.843 -13.246  0.00  0.00     0.109 C 
ATOM      9  C   UNL d   1       5.153   2.544 -12.793  0.00  0.00     0.050 C 
ATOM     10  C   UNL d   1       5.545   1.351 -13.652  0.00  0.00    -0.022 A 
ATOM     11  C   UNL d   1       4.663   0.248 -13.751  0.00  0.00    -0.004 A 
ATOM     12  C   UNL d   1       4.960  -0.820 -14.610  0.00  0.00    -0.000 A 
ATOM     13  C   UNL d   1       6.093  -0.761 -15.426  0.00  0.00    -0.000 A 
ATOM     14  C   UNL d   1       6.975   0.332 -15.342  0.00  0.00    -0.003 A 
ATOM     15  C   UNL d   1       6.717   1.396 -14.445  0.00  0.00    -0.004 A 
ATOM     16  C   UNL d   1       7.636   2.621 -14.402  0.00  0.00     0.128 C 
ATOM     17  C   UNL d   1       9.137   2.242 -14.422  0.00  0.00     0.131 C 
ENDROOT
BRANCH   2  18
ATOM     18  C   UNL d   1      11.334   3.449 -16.140  0.00  0.00     0.079 C 
ATOM     19  C   UNL d   1      10.360   3.719 -17.312  0.00  0.00     0.009 C 
ATOM     20  C   UNL d   1      10.901   3.138 -18.627  0.00  0.00     0.001 C 
ATOM     21  C   UNL d   1      12.295   3.694 -18.945  0.00  0.00     0.000 C 
ATOM     22  C   UNL d   1      13.278   3.425 -17.797  0.00  0.00     0.001 C 
ATOM     23  C   UNL d   1      12.742   3.993 -16.479  0.00  0.00     0.009 C 
ENDBRANCH   2  18
TORSDOF 1
