REMARK  11 active torsions:
REMARK  status: ('A' for Active; 'I' for Inactive)
REMARK    1  A    between atoms: C_5  and  C_6 
REMARK    2  A    between atoms: C_9  and  C_10 
REMARK    3  A    between atoms: C_13  and  C_14 
REMARK       I    between atoms: C_14  and  N_16 
REMARK    4  A    between atoms: N_16  and  C_17 
REMARK    5  A    between atoms: C_17  and  C_18 
REMARK    6  A    between atoms: C_18  and  C_19 
REMARK    7  A    between atoms: C_19  and  C_20 
REMARK    8  A    between atoms: C_20  and  N_21 
REMARK    9  A    between atoms: C_27  and  O_28 
REMARK   10  A    between atoms: O_28  and  S_29 
REMARK   11  A    between atoms: S_29  and  C_32 
ROOT
ATOM      1  C   UNL d   1       6.681  -1.124 -22.651  0.00  0.00     0.129 C 
ENDROOT
BRANCH   1   2
ATOM      2  N   UNL d   1       7.758  -0.300 -22.091  0.00  0.00    -0.234 NA
ATOM      3  C   UNL d   1       7.696   1.016 -21.811  0.00  0.00     0.275 C 
ATOM      4  O   UNL d   1       6.707   1.732 -22.058  0.00  0.00    -0.266 OA
BRANCH   3   5
ATOM      5  C   UNL d   1       8.895   1.646 -21.205  0.00  0.00     0.058 A 
ATOM      6  C   UNL d   1       9.100   3.016 -21.415  0.00  0.00     0.005 A 
ATOM      7  C   UNL d   1      10.227   3.662 -20.893  0.00  0.00     0.000 A 
ATOM      8  C   UNL d   1      11.168   2.944 -20.119  0.00  0.00     0.000 A 
ATOM      9  C   UNL d   1      10.926   1.573 -19.855  0.00  0.00     0.000 A 
ATOM     10  C   UNL d   1       9.786   0.921 -20.376  0.00  0.00     0.005 A 
BRANCH   8  11
ATOM     11  C   UNL d   1      12.354   3.621 -19.601  0.00  0.00     0.000 A 
ATOM     12  C   UNL d   1      12.861   3.303 -18.325  0.00  0.00     0.000 A 
ATOM     13  C   UNL d   1      14.003   3.953 -17.822  0.00  0.00     0.004 A 
ATOM     14  C   UNL d   1      14.665   4.936 -18.586  0.00  0.00     0.043 A 
ATOM     15  C   UNL d   1      14.164   5.254 -19.866  0.00  0.00     0.004 A 
ATOM     16  C   UNL d   1      13.018   4.606 -20.364  0.00  0.00     0.000 A 
BRANCH  14  17
ATOM     17  C   UNL d   1      15.861   5.604 -18.071  0.00  0.00     0.204 A 
ATOM     18  N   UNL d   1      16.359   5.597 -16.830  0.00  0.00    -0.121 NA
ATOM     19  N   UNL d   1      17.503   6.356 -16.861  0.00  0.00    -0.126 NA
ATOM     20  C   UNL d   1      17.610   6.789 -18.117  0.00  0.00     0.182 A 
ATOM     21  C   UNL d   1      18.666   7.673 -18.685  0.00  0.00     0.082 C 
ATOM     22  O   UNL d   1      16.621   6.336 -18.931  0.00  0.00    -0.272 OA
ENDBRANCH  14  17
ENDBRANCH   8  11
ENDBRANCH   3   5
ENDBRANCH   1   2
BRANCH   1  23
ATOM     23  C   UNL d   1       5.539  -1.501 -21.663  0.00  0.00     0.029 C 
BRANCH  23  24
ATOM     24  C   UNL d   1       5.108  -0.360 -20.774  0.00  0.00     0.037 C 
BRANCH  24  25
ATOM     25  C   UNL d   1       3.965  -0.566 -19.834  0.00  0.00     0.251 C 
BRANCH  25  26
ATOM     26  N   UNL d   1       4.287  -0.537 -18.404  0.00  0.00     0.142 N 
ATOM     27  C   UNL d   1       5.369   0.383 -18.050  0.00  0.00     0.277 C 
ATOM     28  C   UNL d   1       5.812   0.342 -16.649  0.00  0.00     0.009 A 
ATOM     29  C   UNL d   1       5.480  -0.750 -15.836  0.00  0.00    -0.022 A 
ATOM     30  C   UNL d   1       6.589   1.388 -16.165  0.00  0.00     0.023 A 
ATOM     31  C   UNL d   1       4.652  -1.902 -16.411  0.00  0.00     0.061 C 
ATOM     32  C   UNL d   1       5.914  -0.793 -14.500  0.00  0.00    -0.002 A 
ATOM     33  C   UNL d   1       4.580  -1.891 -17.949  0.00  0.00     0.255 C 
ATOM     34  C   UNL d   1       6.667   0.277 -14.002  0.00  0.00     0.025 A 
ATOM     35  C   UNL d   1       7.069   1.351 -14.832  0.00  0.00     0.113 A 
BRANCH  35  36
ATOM     36  O   UNL d   1       7.883   2.348 -14.331  0.00  0.00    -0.224 OA
BRANCH  36  37
ATOM     37  S   UNL d   1       9.443   2.480 -14.969  0.00  0.00     0.374 S 
ATOM     38  O   UNL d   1       9.322   2.893 -16.391  0.00  0.00    -0.189 OA
ATOM     39  O   UNL d   1      10.197   3.324 -14.048  0.00  0.00    -0.189 OA
BRANCH  37  40
ATOM     40  C   UNL d   1      10.090   0.717 -14.906  0.00  0.00     0.524 C 
ATOM     41  F   UNL d   1       9.227  -0.139 -14.440  0.00  0.00    -0.155 F 
ATOM     42  F   UNL d   1      10.474   0.348 -16.137  0.00  0.00    -0.155 F 
ATOM     43  F   UNL d   1      11.113   0.725 -14.070  0.00  0.00    -0.155 F 
ENDBRANCH  37  40
ENDBRANCH  36  37
ENDBRANCH  35  36
ENDBRANCH  25  26
ENDBRANCH  24  25
ENDBRANCH  23  24
ENDBRANCH   1  23
TORSDOF 11
