REMARK  7 active torsions:
REMARK  status: ('A' for Active; 'I' for Inactive)
REMARK    1  A    between atoms: C_17  and  C_18 
REMARK    2  A    between atoms: C_19  and  O_20 
REMARK    3  A    between atoms: O_20  and  S_21 
REMARK    4  A    between atoms: S_21  and  C_24 
REMARK    5  A    between atoms: C_31  and  O_32 
REMARK    6  A    between atoms: O_32  and  S_33 
REMARK    7  A    between atoms: S_33  and  C_36 
ROOT
ATOM      1  C   UNL d   1      10.776   4.744 -19.652  0.00  0.00     0.047 A 
ATOM      2  C   UNL d   1      10.286   4.938 -20.974  0.00  0.00     0.115 A 
ATOM      3  C   UNL d   1       9.190   5.782 -21.218  0.00  0.00     0.026 A 
ATOM      4  C   UNL d   1       8.585   6.481 -20.157  0.00  0.00     0.004 A 
ATOM      5  C   UNL d   1       9.066   6.303 -18.840  0.00  0.00     0.026 A 
ATOM      6  C   UNL d   1      10.136   5.423 -18.578  0.00  0.00     0.115 A 
ENDROOT
BRANCH   1   7
ATOM      7  C   UNL d   1      11.921   3.848 -19.395  0.00  0.00     0.004 A 
ATOM      8  C   UNL d   1      13.052   4.455 -18.820  0.00  0.00     0.000 A 
ATOM      9  C   UNL d   1      14.251   3.728 -18.625  0.00  0.00    -0.000 A 
ATOM     10  C   UNL d   1      14.315   2.400 -19.041  0.00  0.00    -0.004 A 
ATOM     11  C   UNL d   1      13.191   1.770 -19.616  0.00  0.00    -0.020 A 
ATOM     12  C   UNL d   1      13.326   0.349 -20.131  0.00  0.00     0.064 C 
ATOM     13  C   UNL d   1      11.967   2.462 -19.771  0.00  0.00    -0.004 A 
ATOM     14  C   UNL d   1      12.483   0.144 -21.419  0.00  0.00     0.246 C 
ATOM     15  N   UNL d   1      12.677  -1.201 -21.985  0.00  0.00     0.142 N 
ATOM     16  C   UNL d   1      11.018   0.531 -21.140  0.00  0.00     0.005 A 
ATOM     17  C   UNL d   1      14.047  -1.382 -22.463  0.00  0.00     0.286 C 
ATOM     18  C   UNL d   1      11.800  -1.305 -23.141  0.00  0.00     0.255 C 
ATOM     19  C   UNL d   1      10.366  -1.364 -22.623  0.00  0.00     0.061 C 
ATOM     20  C   UNL d   1       9.957  -0.202 -21.738  0.00  0.00    -0.022 A 
ATOM     21  C   UNL d   1       8.632   0.154 -21.442  0.00  0.00    -0.004 A 
ATOM     22  C   UNL d   1       8.388   1.228 -20.573  0.00  0.00    -0.000 A 
ATOM     23  C   UNL d   1       9.461   1.977 -20.041  0.00  0.00    -0.000 A 
ATOM     24  C   UNL d   1      10.820   1.680 -20.319  0.00  0.00    -0.003 A 
ENDBRANCH   1   7
BRANCH   6  25
ATOM     25  O   UNL d   1      10.597   5.269 -17.284  0.00  0.00    -0.224 OA
BRANCH  25  26
ATOM     26  S   UNL d   1       9.950   4.040 -16.304  0.00  0.00     0.374 S 
ATOM     27  O   UNL d   1       9.471   4.681 -15.069  0.00  0.00    -0.189 OA
ATOM     28  O   UNL d   1       9.063   3.233 -17.141  0.00  0.00    -0.189 OA
BRANCH  26  29
ATOM     29  C   UNL d   1      11.504   3.084 -15.951  0.00  0.00     0.524 C 
ATOM     30  F   UNL d   1      11.392   1.887 -16.527  0.00  0.00    -0.155 F 
ATOM     31  F   UNL d   1      12.561   3.737 -16.456  0.00  0.00    -0.155 F 
ATOM     32  F   UNL d   1      11.555   2.870 -14.617  0.00  0.00    -0.155 F 
ENDBRANCH  26  29
ENDBRANCH  25  26
ENDBRANCH   6  25
BRANCH   2  33
ATOM     33  O   UNL d   1      10.862   4.252 -22.012  0.00  0.00    -0.224 OA
BRANCH  33  34
ATOM     34  S   UNL d   1      12.141   5.008 -22.815  0.00  0.00     0.374 S 
ATOM     35  O   UNL d   1      11.584   5.655 -24.010  0.00  0.00    -0.189 OA
ATOM     36  O   UNL d   1      12.920   5.771 -21.827  0.00  0.00    -0.189 OA
BRANCH  34  37
ATOM     37  C   UNL d   1      13.117   3.518 -23.287  0.00  0.00     0.524 C 
ATOM     38  F   UNL d   1      12.325   2.665 -23.934  0.00  0.00    -0.155 F 
ATOM     39  F   UNL d   1      14.120   3.902 -24.084  0.00  0.00    -0.155 F 
ATOM     40  F   UNL d   1      13.601   2.944 -22.185  0.00  0.00    -0.155 F 
ENDBRANCH  34  37
ENDBRANCH  33  34
ENDBRANCH   2  33
TORSDOF 7
