REMARK  6 active torsions:
REMARK  status: ('A' for Active; 'I' for Inactive)
REMARK    1  A    between atoms: S_2  and  C_4 
REMARK    2  A    between atoms: S_2  and  N_14 
REMARK    3  A    between atoms: C_17  and  C_18 
REMARK    4  A    between atoms: C_18  and  C_19 
REMARK    5  A    between atoms: C_19  and  N_20 
REMARK    6  A    between atoms: N_23  and  C_24 
ROOT
ATOM      1  N   UNL d   1       7.174   2.948 -13.844  0.00  0.00    -0.275 N 
ATOM      2  C   UNL d   1       6.373   3.869 -12.994  0.00  0.00     0.113 C 
ATOM      3  C   UNL d   1       7.210   4.413 -11.822  0.00  0.00     0.025 C 
ATOM      4  C   UNL d   1       8.549   5.004 -12.280  0.00  0.00     0.006 C 
ATOM      5  C   UNL d   1       9.327   3.931 -13.043  0.00  0.00     0.025 C 
ATOM      6  C   UNL d   1       8.527   3.411 -14.200  0.00  0.00     0.113 C 
ENDROOT
BRANCH   4   7
ATOM      7  C   UNL d   1       9.425   5.481 -11.132  0.00  0.00     0.035 C 
BRANCH   7   8
ATOM      8  C   UNL d   1       8.889   6.688 -10.369  0.00  0.00     0.250 C 
BRANCH   8   9
ATOM      9  N   UNL d   1       9.912   7.377  -9.577  0.00  0.00     0.141 N 
ATOM     10  C   UNL d   1      10.589   6.458  -8.670  0.00  0.00     0.274 C 
ATOM     11  C   UNL d   1      11.698   7.193  -7.909  0.00  0.00     0.137 C 
ATOM     12  N   UNL d   1      11.109   8.264  -7.139  0.00  0.00    -0.344 N 
ATOM     13  C   UNL d   1      10.316   9.187  -7.936  0.00  0.00     0.137 C 
ATOM     14  C   UNL d   1       9.271   8.409  -8.748  0.00  0.00     0.274 C 
BRANCH  12  15
ATOM     15  C   UNL d   1      11.295   8.392  -5.747  0.00  0.00     0.058 A 
ATOM     16  C   UNL d   1      11.589   7.269  -4.933  0.00  0.00     0.046 A 
ATOM     17  C   UNL d   1      11.865   7.433  -3.558  0.00  0.00     0.142 A 
ATOM     18  C   UNL d   1      11.793   8.705  -2.978  0.00  0.00     0.030 A 
ATOM     19  F   UNL d   1      12.131   6.361  -2.783  0.00  0.00    -0.204 F 
ATOM     20  C   UNL d   1      11.464   9.815  -3.768  0.00  0.00     0.004 A 
ATOM     21  C   UNL d   1      11.233   9.667  -5.147  0.00  0.00     0.017 A 
ENDBRANCH  12  15
ENDBRANCH   8   9
ENDBRANCH   7   8
ENDBRANCH   4   7
BRANCH   1  22
ATOM     22  S   UNL d   1       6.663   1.301 -14.170  0.00  0.00     0.266 S 
ATOM     23  O   UNL d   1       5.305   1.175 -13.627  0.00  0.00    -0.200 OA
ATOM     24  O   UNL d   1       7.701   0.369 -13.706  0.00  0.00    -0.200 OA
BRANCH  22  25
ATOM     25  C   UNL d   1       6.645   1.182 -15.981  0.00  0.00     0.122 A 
ATOM     26  C   UNL d   1       5.775   0.273 -16.665  0.00  0.00     0.015 A 
ATOM     27  C   UNL d   1       5.839   0.246 -18.086  0.00  0.00     0.020 A 
ATOM     28  C   UNL d   1       4.842  -0.591 -16.026  0.00  0.00     0.001 A 
ATOM     29  C   UNL d   1       6.750   1.079 -18.756  0.00  0.00     0.099 A 
ATOM     30  C   UNL d   1       5.008  -0.585 -18.851  0.00  0.00     0.002 A 
ATOM     31  N   UNL d   1       7.561   1.939 -18.107  0.00  0.00    -0.242 NA
ATOM     32  C   UNL d   1       7.521   1.990 -16.757  0.00  0.00     0.112 A 
ATOM     33  C   UNL d   1       4.087  -1.421 -18.204  0.00  0.00     0.000 A 
ATOM     34  C   UNL d   1       4.002  -1.417 -16.799  0.00  0.00     0.000 A 
ENDBRANCH  22  25
ENDBRANCH   1  22
TORSDOF 6
