REMARK  6 active torsions:
REMARK  status: ('A' for Active; 'I' for Inactive)
REMARK    1  A    between atoms: C_2  and  O_5 
REMARK    2  A    between atoms: O_5  and  C_6 
REMARK       I    between atoms: C_6  and  N_8 
REMARK    3  A    between atoms: N_8  and  C_9 
REMARK    4  A    between atoms: C_9  and  C_10 
REMARK    5  A    between atoms: C_10  and  N_11 
REMARK    6  A    between atoms: C_14  and  C_16 
ROOT
ATOM      1  N   UNL d   1       9.960   6.376  -9.955  0.00  0.00     0.139 N 
ATOM      2  C   UNL d   1       8.914   6.153  -8.968  0.00  0.00     0.253 C 
ATOM      3  C   UNL d   1       9.448   6.434  -7.569  0.00  0.00     0.070 C 
ATOM      4  C   UNL d   1      10.023   7.858  -7.414  0.00  0.00     0.149 C 
ATOM      5  O   UNL d   1       8.958   8.771  -7.594  0.00  0.00    -0.221 OA
ATOM      6  C   UNL d   1      11.007   8.132  -8.558  0.00  0.00     0.070 C 
ATOM      7  C   UNL d   1      10.400   7.772  -9.935  0.00  0.00     0.253 C 
ENDROOT
BRANCH   1   8
ATOM      8  C   UNL d   1       9.455   6.071 -11.297  0.00  0.00     0.277 C 
BRANCH   8   9
ATOM      9  C   UNL d   1       9.110   4.577 -11.469  0.00  0.00     0.166 C 
BRANCH   9  10
ATOM     10  N   UNL d   1       8.897   4.191 -12.857  0.00  0.00    -0.210 NA
ATOM     11  C   UNL d   1       9.906   4.251 -13.810  0.00  0.00     0.383 C 
ATOM     12  O   UNL d   1      11.003   4.771 -13.637  0.00  0.00    -0.236 OA
BRANCH  11  13
ATOM     13  O   UNL d   1       9.482   3.675 -14.964  0.00  0.00    -0.289 OA
BRANCH  13  14
ATOM     14  C   UNL d   1      10.264   3.711 -16.168  0.00  0.00     0.103 C 
ATOM     15  C   UNL d   1       9.493   2.849 -17.176  0.00  0.00     0.030 C 
ATOM     16  C   UNL d   1      11.676   3.090 -15.977  0.00  0.00     0.030 C 
ATOM     17  C   UNL d   1      10.342   5.156 -16.709  0.00  0.00     0.030 C 
ENDBRANCH  13  14
ENDBRANCH  11  13
ENDBRANCH   9  10
ENDBRANCH   8   9
ENDBRANCH   1   8
BRANCH   4  18
ATOM     18  C   UNL d   1      10.718   8.079  -6.050  0.00  0.00     0.005 A 
ATOM     19  C   UNL d   1      10.830   9.379  -5.518  0.00  0.00    -0.001 A 
ATOM     20  C   UNL d   1      11.426   9.585  -4.255  0.00  0.00     0.011 A 
ATOM     21  C   UNL d   1      11.943   8.499  -3.531  0.00  0.00     0.058 A 
ATOM     22  C   UNL d   1      11.861   7.208  -4.059  0.00  0.00     0.011 A 
ATOM     23 CL   UNL d   1      12.658   8.743  -1.980  0.00  0.00    -0.082 Cl
ATOM     24  C   UNL d   1      11.255   6.999  -5.309  0.00  0.00    -0.001 A 
ENDBRANCH   4  18
TORSDOF 6
