REMARK  8 active torsions:
REMARK  status: ('A' for Active; 'I' for Inactive)
REMARK    1  A    between atoms: O_2  and  C_3 
REMARK    2  A    between atoms: C_8  and  N_9 
REMARK    3  A    between atoms: N_12  and  C_13 
REMARK    4  A    between atoms: C_13  and  C_14 
REMARK    5  A    between atoms: C_14  and  C_16 
REMARK    6  A    between atoms: C_16  and  C_17 
REMARK    7  A    between atoms: C_17  and  N_18 
REMARK       I    between atoms: N_18  and  C_19 
REMARK    8  A    between atoms: C_19  and  C_21 
ROOT
ATOM      1  C   UNL d   1       9.195   7.651 -12.252  0.00  0.00     0.196 C 
ATOM      2  F   UNL d   1       8.362   8.672 -12.431  0.00  0.00    -0.235 F 
ENDROOT
BRANCH   1   3
ATOM      3  C   UNL d   1       8.503   6.384 -12.772  0.00  0.00     0.285 C 
BRANCH   3   4
ATOM      4  N   UNL d   1       9.436   5.278 -12.965  0.00  0.00     0.144 N 
ATOM      5  C   UNL d   1       8.635   4.049 -12.986  0.00  0.00     0.274 C 
ATOM      6  C   UNL d   1       9.583   2.847 -13.233  0.00  0.00     0.137 C 
ATOM      7  N   UNL d   1      10.379   3.011 -14.446  0.00  0.00    -0.343 N 
ATOM      8  C   UNL d   1      11.106   4.273 -14.512  0.00  0.00     0.137 C 
ATOM      9  C   UNL d   1      10.116   5.418 -14.265  0.00  0.00     0.274 C 
BRANCH   7  10
ATOM     10  C   UNL d   1      10.469   2.053 -15.491  0.00  0.00     0.079 A 
ATOM     11  C   UNL d   1       9.422   1.140 -15.818  0.00  0.00     0.110 A 
ATOM     12  C   UNL d   1       9.617   0.216 -16.875  0.00  0.00     0.026 A 
ATOM     13  C   UNL d   1      10.815   0.189 -17.603  0.00  0.00     0.002 A 
ATOM     14  C   UNL d   1      11.845   1.077 -17.287  0.00  0.00     0.002 A 
ATOM     15  C   UNL d   1      11.674   2.000 -16.231  0.00  0.00     0.019 A 
BRANCH  11  16
ATOM     16  O   UNL d   1       8.203   1.117 -15.188  0.00  0.00    -0.327 OA
ATOM     17  C   UNL d   1       7.389   2.270 -15.390  0.00  0.00     0.181 C 
ENDBRANCH  11  16
ENDBRANCH   7  10
ENDBRANCH   3   4
ENDBRANCH   1   3
BRANCH   1  18
ATOM     18  C   UNL d   1       9.530   7.514 -10.758  0.00  0.00     0.064 C 
BRANCH  18  19
ATOM     19  C   UNL d   1       9.723   8.874 -10.071  0.00  0.00     0.132 C 
BRANCH  19  20
ATOM     20  N   UNL d   1      10.097   8.725  -8.678  0.00  0.00    -0.234 NA
ATOM     21  C   UNL d   1      11.301   8.315  -8.263  0.00  0.00     0.281 C 
ATOM     22  O   UNL d   1      12.231   8.021  -9.011  0.00  0.00    -0.265 OA
BRANCH  21  23
ATOM     23  C   UNL d   1      11.450   8.210  -6.814  0.00  0.00     0.087 A 
ATOM     24  S   UNL d   1      11.748   9.711  -5.988  0.00  0.00    -0.082 SA
ATOM     25  C   UNL d   1      11.866   8.866  -4.455  0.00  0.00     0.030 A 
ATOM     26  C   UNL d   1      11.672   7.461  -4.628  0.00  0.00     0.007 A 
ATOM     27  C   UNL d   1      12.120   9.417  -3.189  0.00  0.00     0.006 A 
ATOM     28  C   UNL d   1      11.431   7.103  -6.009  0.00  0.00     0.012 A 
ATOM     29  C   UNL d   1      11.755   6.666  -3.473  0.00  0.00     0.001 A 
ATOM     30  C   UNL d   1      12.013   7.205  -2.205  0.00  0.00     0.000 A 
ATOM     31  C   UNL d   1      12.203   8.584  -2.065  0.00  0.00     0.001 A 
ENDBRANCH  21  23
ENDBRANCH  19  20
ENDBRANCH  18  19
ENDBRANCH   1  18
TORSDOF 8
