REMARK  1 active torsions:
REMARK  status: ('A' for Active; 'I' for Inactive)
REMARK    1  A    between atoms: C_4  and  C_5 
ROOT
ATOM      1  C   UNL d   1      10.067   6.470 -10.382  0.00  0.00     0.058 C 
ATOM      2  C   UNL d   1       9.973   6.070  -8.900  0.00  0.00     0.046 C 
ATOM      3  C   UNL d   1       9.725   7.388  -8.169  0.00  0.00     0.259 C 
ATOM      4  C   UNL d   1      10.419   7.494  -6.841  0.00  0.00     0.086 C 
ATOM      5  N   UNL d   1      10.166   6.790  -5.695  0.00  0.00    -0.248 NA
ATOM      6  C   UNL d   1      11.062   7.115  -4.705  0.00  0.00     0.081 A 
ATOM      7  C   UNL d   1      11.255   6.644  -3.399  0.00  0.00     0.019 A 
ATOM      8  C   UNL d   1      12.114   7.265  -2.518  0.00  0.00     0.002 A 
ATOM      9  C   UNL d   1      12.792   8.399  -2.938  0.00  0.00     0.000 A 
ATOM     10  C   UNL d   1      12.659   8.868  -4.273  0.00  0.00     0.001 A 
ATOM     11  C   UNL d   1      11.791   8.222  -5.189  0.00  0.00     0.015 A 
ATOM     12  C   UNL d   1      11.453   8.313  -6.569  0.00  0.00    -0.003 C 
ATOM     13  C   UNL d   1      11.992   9.180  -7.608  0.00  0.00     0.063 C 
ATOM     14  C   UNL d   1      11.614   8.681  -9.033  0.00  0.00     0.255 C 
ATOM     15  N   UNL d   1      10.173   8.448  -9.103  0.00  0.00     0.141 N 
ATOM     16  C   UNL d   1       9.808   7.968 -10.433  0.00  0.00     0.255 C 
ENDROOT
BRANCH   1  17
ATOM     17  C   UNL d   1       9.238   5.634 -11.358  0.00  0.00    -0.021 A 
ATOM     18  C   UNL d   1       9.805   5.054 -12.514  0.00  0.00    -0.004 A 
ATOM     19  C   UNL d   1       9.037   4.261 -13.382  0.00  0.00    -0.000 A 
ATOM     20  C   UNL d   1       7.668   4.066 -13.126  0.00  0.00    -0.000 A 
ATOM     21  C   UNL d   1       7.083   4.656 -11.989  0.00  0.00    -0.000 A 
ATOM     22  C   UNL d   1       7.864   5.439 -11.117  0.00  0.00    -0.004 A 
ENDBRANCH   1  17
TORSDOF 1
