REMARK  4 active torsions:
REMARK  status: ('A' for Active; 'I' for Inactive)
REMARK    1  A    between atoms: N_5  and  C_6 
REMARK    2  A    between atoms: C_10  and  N_11 
REMARK    3  A    between atoms: N_11  and  S_12 
REMARK    4  A    between atoms: S_12  and  C_15 
ROOT
ATOM      1  N   UNL d   1       9.795   7.086  -8.826  0.00  0.00    -0.158 NA
ENDROOT
BRANCH   1   2
ATOM      2  C   UNL d   1       9.470   6.900 -10.163  0.00  0.00     0.095 A 
ATOM      3  C   UNL d   1       9.585   7.974 -11.080  0.00  0.00     0.020 A 
ATOM      4  C   UNL d   1       9.274   7.740 -12.422  0.00  0.00     0.003 A 
ATOM      5  C   UNL d   1       8.775   6.491 -12.815  0.00  0.00     0.017 A 
ATOM      6  C   UNL d   1       8.686   5.421 -11.931  0.00  0.00     0.058 A 
ATOM      7  C   UNL d   1       9.031   5.611 -10.574  0.00  0.00     0.037 A 
BRANCH   6   8
ATOM      8  N   UNL d   1       8.268   4.173 -12.430  0.00  0.00    -0.344 N 
ATOM      9  C   UNL d   1       6.833   3.915 -12.505  0.00  0.00     0.137 C 
ATOM     10  C   UNL d   1       6.428   3.408 -13.912  0.00  0.00     0.274 C 
ATOM     11  N   UNL d   1       7.332   2.343 -14.407  0.00  0.00     0.143 N 
ATOM     12  C   UNL d   1       6.904   1.851 -15.715  0.00  0.00     0.286 C 
ATOM     13  C   UNL d   1       8.714   2.850 -14.511  0.00  0.00     0.274 C 
ATOM     14  C   UNL d   1       9.235   3.314 -13.135  0.00  0.00     0.137 C 
ENDBRANCH   6   8
ENDBRANCH   1   2
BRANCH   1  15
ATOM     15  S   UNL d   1      10.062   8.588  -8.007  0.00  0.00     0.285 S 
ATOM     16  O   UNL d   1      11.123   9.314  -8.706  0.00  0.00    -0.198 OA
ATOM     17  O   UNL d   1       8.732   9.175  -7.720  0.00  0.00    -0.198 OA
BRANCH  15  18
ATOM     18  C   UNL d   1      10.724   8.070  -6.483  0.00  0.00     0.105 A 
ATOM     19  C   UNL d   1      10.873   8.993  -5.434  0.00  0.00     0.013 A 
ATOM     20  C   UNL d   1      11.484   8.561  -4.248  0.00  0.00     0.001 A 
ATOM     21  C   UNL d   1      11.916   7.220  -4.109  0.00  0.00     0.000 A 
ATOM     22  C   UNL d   1      11.710   9.407  -3.156  0.00  0.00     0.000 A 
ATOM     23  C   UNL d   1      11.821   6.392  -5.219  0.00  0.00     0.001 A 
ATOM     24  C   UNL d   1      12.478   6.708  -2.922  0.00  0.00     0.000 A 
ATOM     25  C   UNL d   1      11.207   6.763  -6.397  0.00  0.00     0.013 A 
ATOM     26  C   UNL d   1      12.669   7.557  -1.849  0.00  0.00     0.000 A 
ATOM     27  C   UNL d   1      12.302   8.897  -1.987  0.00  0.00     0.000 A 
ENDBRANCH  15  18
ENDBRANCH   1  15
TORSDOF 4
