REMARK  10 active torsions:
REMARK  status: ('A' for Active; 'I' for Inactive)
REMARK    1  A    between atoms: O_2  and  C_3 
REMARK    2  A    between atoms: C_8  and  C_9 
REMARK    3  A    between atoms: C_11  and  C_12 
REMARK    4  A    between atoms: C_12  and  N_13 
REMARK    5  A    between atoms: N_13  and  C_14 
REMARK    6  A    between atoms: C_14  and  C_15 
REMARK    7  A    between atoms: C_15  and  C_16 
REMARK    8  A    between atoms: C_16  and  C_17 
REMARK    9  A    between atoms: C_17  and  O_18 
REMARK   10  A    between atoms: O_18  and  C_19 
ROOT
ATOM      1  C   UNL d   1       9.652   7.407 -11.516  0.00  0.00     0.041 C 
ENDROOT
BRANCH   1   2
ATOM      2  C   UNL d   1       8.283   6.808 -11.851  0.00  0.00     0.290 C 
BRANCH   2   3
ATOM      3  N   UNL d   1       8.351   5.977 -13.041  0.00  0.00     0.339 N 
BRANCH   3   4
ATOM      4  C   UNL d   1       9.113   4.759 -12.832  0.00  0.00     0.290 C 
BRANCH   4   5
ATOM      5  C   UNL d   1       9.520   4.184 -14.170  0.00  0.00     0.041 A 
ATOM      6  C   UNL d   1      10.294   2.893 -14.180  0.00  0.00     0.026 A 
ATOM      7  C   UNL d   1      10.985   4.178 -14.563  0.00  0.00     0.007 A 
BRANCH   6   8
ATOM      8  C   UNL d   1       9.993   1.844 -15.200  0.00  0.00    -0.000 A 
ATOM      9  C   UNL d   1       8.695   1.300 -15.315  0.00  0.00     0.090 A 
ATOM     10  C   UNL d   1       8.452   0.341 -16.328  0.00  0.00     0.024 A 
ATOM     11  C   UNL d   1       9.487  -0.068 -17.189  0.00  0.00     0.002 A 
ATOM     12  C   UNL d   1      10.778   0.465 -17.047  0.00  0.00    -0.000 A 
ATOM     13  C   UNL d   1      11.030   1.419 -16.049  0.00  0.00    -0.002 A 
BRANCH   9  14
ATOM     14  O   UNL d   1       7.724   1.744 -14.440  0.00  0.00    -0.328 OA
ATOM     15  C   UNL d   1       6.455   1.106 -14.453  0.00  0.00     0.181 C 
ENDBRANCH   9  14
ENDBRANCH   6   8
ENDBRANCH   4   5
ENDBRANCH   3   4
ENDBRANCH   2   3
ENDBRANCH   1   2
BRANCH   1  16
ATOM     16  C   UNL d   1       9.638   8.360 -10.334  0.00  0.00     0.035 C 
BRANCH  16  17
ATOM     17  C   UNL d   1      11.059   8.867 -10.025  0.00  0.00     0.149 C 
BRANCH  17  18
ATOM     18  O   UNL d   1      11.077   9.538  -8.780  0.00  0.00    -0.331 OA
BRANCH  18  19
ATOM     19  C   UNL d   1      11.182   8.792  -7.630  0.00  0.00     0.096 A 
ATOM     20  C   UNL d   1      11.429   9.496  -6.437  0.00  0.00     0.043 A 
ATOM     21  C   UNL d   1      11.566   8.784  -5.230  0.00  0.00     0.087 A 
ATOM     22  C   UNL d   1      11.459   7.380  -5.213  0.00  0.00     0.018 A 
ATOM     23  N   UNL d   1      11.846   9.454  -4.013  0.00  0.00    -0.208 NA
ATOM     24  C   UNL d   1      11.198   6.679  -6.397  0.00  0.00     0.004 A 
ATOM     25  C   UNL d   1      11.638   6.707  -3.935  0.00  0.00     0.006 A 
ATOM     26  C   UNL d   1      11.074   7.376  -7.604  0.00  0.00     0.024 A 
ATOM     27  C   UNL d   1      11.902   7.395  -2.814  0.00  0.00     0.063 A 
ATOM     28  C   UNL d   1      12.016   8.850  -2.817  0.00  0.00     0.279 A 
ATOM     29  O   UNL d   1      12.220   9.487  -1.797  0.00  0.00    -0.265 OA
ENDBRANCH  18  19
ENDBRANCH  17  18
ENDBRANCH  16  17
ENDBRANCH   1  16
TORSDOF 10
