REMARK  9 active torsions:
REMARK  status: ('A' for Active; 'I' for Inactive)
REMARK    1  A    between atoms: C_3  and  S_4 
REMARK    2  A    between atoms: S_4  and  C_5 
REMARK    3  A    between atoms: C_5  and  C_6 
REMARK    4  A    between atoms: C_6  and  C_7 
REMARK    5  A    between atoms: C_7  and  N_8 
REMARK    6  A    between atoms: C_12  and  C_13 
REMARK    7  A    between atoms: C_16  and  C_17 
REMARK    8  A    between atoms: C_27  and  C_28 
REMARK    9  A    between atoms: C_31  and  C_32 
ROOT
ATOM      1  C   UNL d   1       8.904   3.703 -13.442  0.00  0.00     0.047 C 
ENDROOT
BRANCH   1   2
ATOM      2  C   UNL d   1       7.860   4.742 -13.007  0.00  0.00     0.067 C 
BRANCH   2   3
ATOM      3  S   UNL d   1       8.621   6.337 -12.582  0.00  0.00    -0.075 SA
BRANCH   3   4
ATOM      4  C   UNL d   1       9.015   6.098 -10.882  0.00  0.00     0.193 A 
ATOM      5  N   UNL d   1       9.479   7.105 -10.119  0.00  0.00    -0.289 N 
ATOM      6  C   UNL d   1       9.762   8.481 -10.515  0.00  0.00     0.134 C 
ATOM      7  C   UNL d   1       9.599   6.495  -8.916  0.00  0.00     0.167 A 
ATOM      8  N   UNL d   1       9.272   5.200  -8.949  0.00  0.00    -0.128 NA
ATOM      9  N   UNL d   1       8.890   4.937 -10.238  0.00  0.00    -0.122 NA
BRANCH   7  10
ATOM     10  C   UNL d   1      10.076   7.108  -7.686  0.00  0.00     0.036 A 
ATOM     11  C   UNL d   1      10.992   6.393  -6.882  0.00  0.00     0.003 A 
ATOM     12  C   UNL d   1      11.458   6.953  -5.677  0.00  0.00     0.005 A 
ATOM     13  C   UNL d   1      11.097   8.269  -5.309  0.00  0.00     0.059 A 
ATOM     14  C   UNL d   1      10.207   8.984  -6.135  0.00  0.00     0.005 A 
ATOM     15  C   UNL d   1       9.654   8.394  -7.296  0.00  0.00     0.003 A 
BRANCH  13  16
ATOM     16  C   UNL d   1      11.608   8.914  -4.047  0.00  0.00     0.297 C 
ATOM     17  N   UNL d   1      12.563   8.270  -3.384  0.00  0.00    -0.102 N 
ATOM     18  O   UNL d   1      11.145   9.976  -3.638  0.00  0.00    -0.264 OA
ENDBRANCH  13  16
ENDBRANCH   7  10
ENDBRANCH   3   4
ENDBRANCH   2   3
ENDBRANCH   1   2
BRANCH   1  19
ATOM     19  C   UNL d   1       8.306   2.652 -14.396  0.00  0.00     0.251 C 
BRANCH  19  20
ATOM     20  N   UNL d   1       9.259   1.670 -14.927  0.00  0.00     0.143 N 
ATOM     21  C   UNL d   1      10.223   2.304 -15.825  0.00  0.00     0.284 C 
ATOM     22  C   UNL d   1      11.230   1.309 -16.440  0.00  0.00     0.173 C 
ATOM     23  O   UNL d   1      10.490   0.281 -17.094  0.00  0.00    -0.348 OA
ATOM     24  C   UNL d   1       9.583  -0.405 -16.227  0.00  0.00     0.178 C 
ATOM     25  C   UNL d   1       8.577   0.596 -15.639  0.00  0.00     0.282 C 
BRANCH  22  26
ATOM     26  C   UNL d   1      12.184   1.994 -17.426  0.00  0.00     0.034 A 
ATOM     27  C   UNL d   1      12.632   1.327 -18.596  0.00  0.00     0.138 A 
ATOM     28  C   UNL d   1      13.502   1.972 -19.489  0.00  0.00     0.033 A 
ATOM     29  F   UNL d   1      12.248   0.061 -18.884  0.00  0.00    -0.204 F 
ATOM     30  C   UNL d   1      13.961   3.277 -19.229  0.00  0.00     0.074 A 
ATOM     31  C   UNL d   1      13.538   3.941 -18.061  0.00  0.00     0.004 A 
ATOM     32  C   UNL d   1      12.665   3.301 -17.165  0.00  0.00     0.000 A 
BRANCH  30  33
ATOM     33  C   UNL d   1      14.899   3.950 -20.210  0.00  0.00     0.419 C 
ATOM     34  F   UNL d   1      15.770   3.059 -20.689  0.00  0.00    -0.166 F 
ATOM     35  F   UNL d   1      14.187   4.450 -21.220  0.00  0.00    -0.166 F 
ATOM     36  F   UNL d   1      15.580   4.937 -19.624  0.00  0.00    -0.166 F 
ENDBRANCH  30  33
ENDBRANCH  22  26
ENDBRANCH  19  20
ENDBRANCH   1  19
TORSDOF 9
