REMARK  2 active torsions:
REMARK  status: ('A' for Active; 'I' for Inactive)
REMARK    1  A    between atoms: O_2  and  C_3 
REMARK    2  A    between atoms: C_4  and  C_5 
ROOT
ATOM      1  C   UNL d   1      11.046   3.513 -16.028  0.00  0.00     0.097 A 
ATOM      2  C   UNL d   1      11.697   2.648 -16.958  0.00  0.00     0.057 A 
ATOM      3  C   UNL d   1      11.258   1.307 -17.056  0.00  0.00     0.004 A 
ATOM      4  C   UNL d   1      10.190   0.841 -16.276  0.00  0.00    -0.004 A 
ATOM      5  C   UNL d   1       9.563   1.698 -15.355  0.00  0.00    -0.018 A 
ATOM      6  C   UNL d   1      10.006   3.026 -15.179  0.00  0.00     0.018 A 
ATOM      7  C   UNL d   1       9.336   3.836 -14.127  0.00  0.00    -0.001 A 
ATOM      8  C   UNL d   1       9.969   4.912 -13.457  0.00  0.00    -0.000 A 
ATOM      9  C   UNL d   1       9.342   5.680 -12.456  0.00  0.00    -0.000 A 
ATOM     10  C   UNL d   1       8.037   5.378 -12.053  0.00  0.00    -0.004 A 
ATOM     11  C   UNL d   1       7.365   4.297 -12.646  0.00  0.00    -0.022 A 
ATOM     12  C   UNL d   1       8.027   3.545 -13.654  0.00  0.00     0.005 A 
ATOM     13  C   UNL d   1       7.335   2.334 -14.319  0.00  0.00     0.246 C 
ATOM     14  C   UNL d   1       8.361   1.199 -14.581  0.00  0.00     0.064 C 
ATOM     15  N   UNL d   1       6.176   1.812 -13.587  0.00  0.00     0.142 N 
ATOM     16  C   UNL d   1       5.432   0.789 -14.315  0.00  0.00     0.286 C 
ATOM     17  C   UNL d   1       5.299   2.920 -13.238  0.00  0.00     0.255 C 
ATOM     18  C   UNL d   1       5.997   3.802 -12.214  0.00  0.00     0.061 C 
ENDROOT
BRANCH   2  19
ATOM     19  C   UNL d   1      12.838   3.118 -17.816  0.00  0.00     0.175 C 
ATOM     20  C   UNL d   1      13.316   2.190 -18.930  0.00  0.00     0.077 C 
ATOM     21  O   UNL d   1      13.417   4.195 -17.684  0.00  0.00    -0.291 OA
ENDBRANCH   2  19
BRANCH   1  22
ATOM     22  O   UNL d   1      11.408   4.834 -15.964  0.00  0.00    -0.328 OA
ATOM     23  C   UNL d   1      10.690   5.663 -16.867  0.00  0.00     0.181 C 
ENDBRANCH   1  22
TORSDOF 2
