REMARK  6 active torsions:
REMARK  status: ('A' for Active; 'I' for Inactive)
REMARK    1  A    between atoms: C_5  and  N_6 
REMARK    2  A    between atoms: N_9  and  C_10 
REMARK    3  A    between atoms: C_10  and  C_11 
REMARK    4  A    between atoms: C_11  and  C_12 
REMARK    5  A    between atoms: C_12  and  C_13 
REMARK    6  A    between atoms: C_13  and  C_14 
ROOT
ATOM      1  N   UNL d   1       8.637   0.529 -16.791  0.00  0.00    -0.344 N 
ATOM      2  C   UNL d   1       9.414   1.527 -17.522  0.00  0.00     0.137 C 
ATOM      3  C   UNL d   1       9.675   2.774 -16.648  0.00  0.00     0.274 C 
ATOM      4  N   UNL d   1      10.290   2.396 -15.375  0.00  0.00     0.141 N 
ATOM      5  C   UNL d   1       9.424   1.433 -14.679  0.00  0.00     0.274 C 
ATOM      6  C   UNL d   1       9.189   0.160 -15.495  0.00  0.00     0.137 C 
ENDROOT
BRANCH   4   7
ATOM      7  C   UNL d   1      10.585   3.568 -14.549  0.00  0.00     0.250 C 
BRANCH   7   8
ATOM      8  C   UNL d   1       9.394   4.082 -13.690  0.00  0.00     0.036 C 
BRANCH   8   9
ATOM      9  C   UNL d   1       9.852   4.737 -12.391  0.00  0.00     0.009 C 
BRANCH   9  10
ATOM     10  C   UNL d   1       8.704   5.434 -11.670  0.00  0.00     0.053 C 
BRANCH  10  11
ATOM     11  C   UNL d   1       9.151   6.098 -10.417  0.00  0.00     0.088 A 
ATOM     12  S   UNL d   1       8.836   5.400  -8.822  0.00  0.00    -0.071 SA
ATOM     13  C   UNL d   1       9.674   6.772  -8.111  0.00  0.00     0.048 A 
ATOM     14  C   UNL d   1      10.163   7.629  -9.138  0.00  0.00     0.087 A 
ATOM     15  C   UNL d   1       9.900   7.060  -6.751  0.00  0.00     0.008 A 
ATOM     16  N   UNL d   1       9.876   7.222 -10.438  0.00  0.00    -0.243 NA
ATOM     17  C   UNL d   1      10.902   8.766  -8.756  0.00  0.00     0.020 A 
ATOM     18  C   UNL d   1      11.145   9.051  -7.393  0.00  0.00     0.002 A 
ATOM     19  C   UNL d   1      10.642   8.196  -6.395  0.00  0.00     0.001 A 
ENDBRANCH  10  11
ENDBRANCH   9  10
ENDBRANCH   8   9
ENDBRANCH   7   8
ENDBRANCH   4   7
BRANCH   1  20
ATOM     20  C   UNL d   1       7.390   0.061 -17.259  0.00  0.00     0.056 A 
ATOM     21  C   UNL d   1       7.170  -0.081 -18.653  0.00  0.00     0.018 A 
ATOM     22  C   UNL d   1       5.951  -0.599 -19.141  0.00  0.00     0.013 A 
ATOM     23  C   UNL d   1       4.937  -0.980 -18.248  0.00  0.00     0.058 A 
ATOM     24 CL   UNL d   1       3.464  -1.635 -18.841  0.00  0.00    -0.082 Cl
ATOM     25  C   UNL d   1       5.130  -0.830 -16.864  0.00  0.00     0.013 A 
ATOM     26  C   UNL d   1       6.345  -0.300 -16.377  0.00  0.00     0.018 A 
ENDBRANCH   1  20
TORSDOF 6
