REMARK  5 active torsions:
REMARK  status: ('A' for Active; 'I' for Inactive)
REMARK    1  A    between atoms: O_2  and  C_3 
REMARK    2  A    between atoms: C_6  and  S_7 
REMARK    3  A    between atoms: S_7  and  N_10 
REMARK    4  A    between atoms: C_22  and  N_23 
REMARK    5  A    between atoms: N_23  and  C_24 
ROOT
ATOM      1  C   UNL d   1       7.353   3.980 -13.534  0.00  0.00     0.111 A 
ATOM      2  C   UNL d   1       7.407   2.818 -14.350  0.00  0.00     0.026 A 
ATOM      3  C   UNL d   1       8.569   2.507 -15.076  0.00  0.00     0.015 A 
ATOM      4  C   UNL d   1       9.684   3.361 -14.979  0.00  0.00     0.106 A 
ATOM      5  C   UNL d   1       9.649   4.512 -14.171  0.00  0.00     0.034 A 
ATOM      6  C   UNL d   1       8.487   4.821 -13.447  0.00  0.00     0.099 A 
ENDROOT
BRANCH   4   7
ATOM      7  S   UNL d   1      11.146   2.958 -15.907  0.00  0.00     0.271 S 
ATOM      8  O   UNL d   1      12.155   4.025 -15.754  0.00  0.00    -0.200 OA
ATOM      9  O   UNL d   1      11.458   1.550 -15.649  0.00  0.00    -0.200 OA
BRANCH   7  10
ATOM     10  N   UNL d   1      10.665   2.996 -17.552  0.00  0.00    -0.231 N 
ATOM     11  C   UNL d   1      10.115   4.076 -18.215  0.00  0.00     0.075 A 
ATOM     12  C   UNL d   1       9.845   3.622 -19.540  0.00  0.00     0.015 A 
ATOM     13  C   UNL d   1       9.797   5.383 -17.801  0.00  0.00     0.019 A 
ATOM     14  C   UNL d   1      10.289   2.260 -19.651  0.00  0.00    -0.002 A 
ATOM     15  C   UNL d   1       9.224   4.533 -20.427  0.00  0.00     0.013 A 
ATOM     16  C   UNL d   1      10.793   1.923 -18.422  0.00  0.00     0.087 A 
ATOM     17  C   UNL d   1      10.212   1.372 -20.855  0.00  0.00     0.033 C 
ATOM     18  C   UNL d   1       8.882   5.835 -20.010  0.00  0.00     0.058 A 
ATOM     19 CL   UNL d   1       8.087   6.912 -21.096  0.00  0.00    -0.082 Cl
ATOM     20  C   UNL d   1       9.170   6.260 -18.701  0.00  0.00     0.013 A 
ENDBRANCH   7  10
ENDBRANCH   4   7
BRANCH   6  21
ATOM     21  N   UNL d   1       8.429   6.015 -12.699  0.00  0.00    -0.271 NA
BRANCH  21  22
ATOM     22  C   UNL d   1       9.338   6.089 -11.556  0.00  0.00     0.107 C 
ATOM     23  C   UNL d   1       9.700   7.554 -11.263  0.00  0.00     0.060 C 
ATOM     24  C   UNL d   1      10.582   7.702 -10.002  0.00  0.00     0.252 C 
ATOM     25  N   UNL d   1       9.921   7.127  -8.842  0.00  0.00     0.139 N 
ATOM     26  C   UNL d   1       9.690   5.704  -9.037  0.00  0.00     0.252 C 
ATOM     27  C   UNL d   1      10.723   7.358  -7.639  0.00  0.00     0.285 C 
ATOM     28  C   UNL d   1       8.766   5.465 -10.260  0.00  0.00     0.060 C 
ENDBRANCH  21  22
ENDBRANCH   6  21
BRANCH   1  29
ATOM     29  O   UNL d   1       6.255   4.331 -12.786  0.00  0.00    -0.327 OA
ATOM     30  C   UNL d   1       5.071   3.621 -13.050  0.00  0.00     0.181 C 
ENDBRANCH   1  29
TORSDOF 5
