REMARK  1 active torsions:
REMARK  status: ('A' for Active; 'I' for Inactive)
REMARK       I    between atoms: N_4  and  C_5 
REMARK    1  A    between atoms: C_5  and  C_7 
ROOT
ATOM      1  C   UNL d   1       7.439   4.005 -12.960  0.00  0.00     0.058 A 
ATOM      2  C   UNL d   1       6.197   3.653 -12.381  0.00  0.00     0.005 A 
ATOM      3  C   UNL d   1       5.472   2.545 -12.857  0.00  0.00    -0.000 A 
ATOM      4  C   UNL d   1       5.995   1.803 -13.928  0.00  0.00    -0.002 A 
ATOM      5  C   UNL d   1       7.199   2.169 -14.529  0.00  0.00     0.006 A 
ATOM      6  C   UNL d   1       7.951   3.257 -14.038  0.00  0.00     0.003 A 
ATOM      7  C   UNL d   1       7.600   1.163 -15.605  0.00  0.00     0.130 A 
ATOM      8  C   UNL d   1       8.888   0.450 -15.200  0.00  0.00     0.038 C 
ATOM      9  C   UNL d   1       9.971   1.099 -16.053  0.00  0.00     0.035 C 
ATOM     10  C   UNL d   1       9.231   2.139 -16.902  0.00  0.00     0.143 C 
ATOM     11  O   UNL d   1       7.875   1.724 -16.886  0.00  0.00    -0.351 OA
ATOM     12  C   UNL d   1       6.373   0.262 -15.605  0.00  0.00     0.006 A 
ATOM     13  C   UNL d   1       6.104  -0.804 -16.482  0.00  0.00    -0.002 A 
ATOM     14  C   UNL d   1       4.910  -1.533 -16.295  0.00  0.00    -0.000 A 
ATOM     15  C   UNL d   1       4.005  -1.182 -15.272  0.00  0.00    -0.000 A 
ATOM     16  C   UNL d   1       4.277  -0.099 -14.413  0.00  0.00    -0.000 A 
ATOM     17  C   UNL d   1       5.476   0.617 -14.596  0.00  0.00    -0.002 A 
ENDROOT
BRANCH   1  18
ATOM     18  C   UNL d   1       8.199   5.171 -12.424  0.00  0.00     0.281 C 
ATOM     19  N   UNL d   1       8.600   5.025 -11.102  0.00  0.00    -0.175 NA
ATOM     20  C   UNL d   1       9.169   5.990 -10.450  0.00  0.00     0.259 C 
ATOM     21  N   UNL d   1       9.482   7.258 -10.905  0.00  0.00    -0.058 NA
ATOM     22  N   UNL d   1       9.554   5.792  -9.145  0.00  0.00    -0.111 N 
ATOM     23  O   UNL d   1       8.424   6.108 -13.196  0.00  0.00    -0.265 OA
ENDBRANCH   1  18
TORSDOF 1
