REMARK  7 active torsions:
REMARK  status: ('A' for Active; 'I' for Inactive)
REMARK    1  A    between atoms: S_2  and  N_4 
REMARK    2  A    between atoms: S_2  and  C_23 
REMARK    3  A    between atoms: N_4  and  C_5 
REMARK    4  A    between atoms: C_5  and  C_6 
REMARK    5  A    between atoms: C_6  and  C_7 
REMARK    6  A    between atoms: C_7  and  N_8 
REMARK    7  A    between atoms: N_11  and  C_12 
ROOT
ATOM      1  C   UNL d   1       8.209   5.151 -13.079  0.00  0.00     0.253 C 
ENDROOT
BRANCH   1   2
ATOM      2  C   UNL d   1       9.035   5.290 -11.796  0.00  0.00     0.062 C 
BRANCH   2   3
ATOM      3  C   UNL d   1       9.229   6.770 -11.419  0.00  0.00     0.141 C 
BRANCH   3   4
ATOM      4  N   UNL d   1       9.916   6.952 -10.137  0.00  0.00    -0.184 NA
BRANCH   4   5
ATOM      5  S   UNL d   1       9.496   6.040  -8.767  0.00  0.00     0.287 S 
ATOM      6  O   UNL d   1       8.052   5.969  -8.681  0.00  0.00    -0.198 OA
ATOM      7  O   UNL d   1      10.195   4.764  -8.844  0.00  0.00    -0.198 OA
BRANCH   5   8
ATOM      8  C   UNL d   1      10.085   6.999  -7.394  0.00  0.00     0.134 A 
ATOM      9  S   UNL d   1       9.535   8.626  -7.171  0.00  0.00    -0.074 SA
ATOM     10  C   UNL d   1      10.530   8.830  -5.720  0.00  0.00     0.030 A 
ATOM     11  C   UNL d   1      11.224   7.612  -5.445  0.00  0.00     0.007 A 
ATOM     12  C   UNL d   1      10.670   9.969  -4.887  0.00  0.00     0.006 A 
ATOM     13  C   UNL d   1      10.992   6.603  -6.451  0.00  0.00     0.020 A 
ATOM     14  C   UNL d   1      12.036   7.595  -4.282  0.00  0.00     0.001 A 
ATOM     15  C   UNL d   1      12.208   8.726  -3.461  0.00  0.00     0.000 A 
ATOM     16  C   UNL d   1      11.496   9.900  -3.749  0.00  0.00     0.001 A 
ENDBRANCH   5   8
ENDBRANCH   4   5
ENDBRANCH   3   4
ENDBRANCH   2   3
ENDBRANCH   1   2
BRANCH   1  17
ATOM     17  N   UNL d   1       8.104   3.745 -13.423  0.00  0.00     0.141 N 
ATOM     18  C   UNL d   1       9.000   3.396 -14.535  0.00  0.00     0.274 C 
ATOM     19  C   UNL d   1       8.880   1.903 -14.901  0.00  0.00     0.138 C 
ATOM     20  N   UNL d   1       7.494   1.557 -15.199  0.00  0.00    -0.329 N 
ATOM     21  C   UNL d   1       6.556   1.953 -14.159  0.00  0.00     0.138 C 
ATOM     22  C   UNL d   1       6.722   3.426 -13.796  0.00  0.00     0.274 C 
BRANCH  20  23
ATOM     23  C   UNL d   1       7.100   0.901 -16.405  0.00  0.00     0.148 A 
ATOM     24  C   UNL d   1       5.933   0.027 -16.504  0.00  0.00     0.042 A 
ATOM     25  C   UNL d   1       5.827  -0.456 -17.848  0.00  0.00     0.050 A 
ATOM     26  C   UNL d   1       4.956  -0.449 -15.588  0.00  0.00     0.004 A 
ATOM     27  S   UNL d   1       7.156   0.210 -18.770  0.00  0.00     0.015 SA
ATOM     28  C   UNL d   1       4.807  -1.328 -18.262  0.00  0.00     0.008 A 
ATOM     29  N   UNL d   1       7.813   1.082 -17.504  0.00  0.00    -0.192 NA
ATOM     30  C   UNL d   1       3.836  -1.738 -17.332  0.00  0.00     0.001 A 
ATOM     31  C   UNL d   1       3.907  -1.285 -16.001  0.00  0.00     0.000 A 
ENDBRANCH  20  23
ENDBRANCH   1  17
TORSDOF 7
