REMARK  0 active torsions:
REMARK  status: ('A' for Active; 'I' for Inactive)
ROOT
ATOM      1  C   UNL d   1       9.693   6.555 -11.021  0.00  0.00     0.033 C 
ATOM      2  C   UNL d   1       8.822   5.619 -11.841  0.00  0.00     0.004 A 
ATOM      3  C   UNL d   1       7.476   5.462 -11.473  0.00  0.00    -0.003 A 
ATOM      4  C   UNL d   1       6.647   4.577 -12.178  0.00  0.00    -0.004 A 
ATOM      5  C   UNL d   1       7.168   3.861 -13.272  0.00  0.00    -0.018 A 
ATOM      6  C   UNL d   1       8.499   4.038 -13.708  0.00  0.00     0.021 A 
ATOM      7  C   UNL d   1       9.335   4.902 -12.950  0.00  0.00     0.127 A 
ATOM      8  O   UNL d   1      10.653   5.008 -13.264  0.00  0.00    -0.191 OA
ATOM      9  C   UNL d   1       8.941   3.294 -14.920  0.00  0.00    -0.001 A 
ATOM     10  C   UNL d   1       9.967   3.748 -15.796  0.00  0.00    -0.000 A 
ATOM     11  C   UNL d   1      10.369   3.039 -16.942  0.00  0.00    -0.000 A 
ATOM     12  C   UNL d   1       9.719   1.850 -17.299  0.00  0.00    -0.004 A 
ATOM     13  C   UNL d   1       8.652   1.380 -16.516  0.00  0.00    -0.022 A 
ATOM     14  C   UNL d   1       8.279   2.116 -15.361  0.00  0.00     0.005 A 
ATOM     15  C   UNL d   1       7.091   1.643 -14.495  0.00  0.00     0.246 C 
ATOM     16  C   UNL d   1       6.289   2.860 -13.977  0.00  0.00     0.064 C 
ATOM     17  N   UNL d   1       6.186   0.685 -15.144  0.00  0.00     0.142 N 
ATOM     18  C   UNL d   1       5.236   0.076 -14.216  0.00  0.00     0.286 C 
ATOM     19  C   UNL d   1       7.003  -0.393 -15.670  0.00  0.00     0.255 C 
ATOM     20  C   UNL d   1       7.812   0.157 -16.840  0.00  0.00     0.061 C 
ENDROOT
TORSDOF 0
