REMARK  5 active torsions:
REMARK  status: ('A' for Active; 'I' for Inactive)
REMARK    1  A    between atoms: N_11  and  C_12 
REMARK    2  A    between atoms: C_12  and  C_13 
REMARK    3  A    between atoms: C_13  and  N_14 
REMARK    4  A    between atoms: N_17  and  C_18 
REMARK    5  A    between atoms: C_18  and  C_19 
ROOT
ATOM      1  N   UNL d   1       9.081   5.675 -10.959  0.00  0.00     0.143 N 
ATOM      2  C   UNL d   1       9.278   5.245  -9.581  0.00  0.00     0.286 C 
ATOM      3  C   UNL d   1       9.132   6.393  -8.588  0.00  0.00     0.286 C 
ATOM      4  N   UNL d   1      10.107   7.483  -8.834  0.00  0.00     0.146 N 
ATOM      5  C   UNL d   1       9.915   7.939 -10.213  0.00  0.00     0.286 C 
ATOM      6  C   UNL d   1      10.023   6.777 -11.199  0.00  0.00     0.286 C 
ENDROOT
BRANCH   1   7
ATOM      7  C   UNL d   1       9.262   4.545 -11.867  0.00  0.00     0.275 C 
BRANCH   7   8
ATOM      8  C   UNL d   1       9.113   4.905 -13.361  0.00  0.00     0.144 C 
BRANCH   8   9
ATOM      9  N   UNL d   1       9.615   3.824 -14.214  0.00  0.00    -0.293 N 
ATOM     10  C   UNL d   1      10.889   3.890 -14.685  0.00  0.00     0.268 C 
ATOM     11  O   UNL d   1      11.684   4.786 -14.404  0.00  0.00    -0.269 OA
ATOM     12  C   UNL d   1      11.333   2.788 -15.651  0.00  0.00     0.236 C 
ATOM     13  O   UNL d   1      10.753   1.526 -15.326  0.00  0.00    -0.319 OA
ATOM     14  C   UNL d   1       9.403   1.546 -15.059  0.00  0.00     0.110 A 
ATOM     15  C   UNL d   1       8.796   2.699 -14.514  0.00  0.00     0.085 A 
ATOM     16  C   UNL d   1       8.640   0.394 -15.310  0.00  0.00     0.026 A 
ATOM     17  C   UNL d   1       7.399   2.689 -14.253  0.00  0.00     0.019 A 
ATOM     18  C   UNL d   1       6.642   1.540 -14.525  0.00  0.00     0.002 A 
ATOM     19  C   UNL d   1       7.257   0.391 -15.048  0.00  0.00     0.002 A 
ENDBRANCH   8   9
ENDBRANCH   7   8
ENDBRANCH   1   7
BRANCH   4  20
ATOM     20  C   UNL d   1       9.980   8.610  -7.898  0.00  0.00     0.277 C 
BRANCH  20  21
ATOM     21  C   UNL d   1      10.647   8.392  -6.535  0.00  0.00     0.011 A 
ATOM     22  C   UNL d   1      10.444   7.220  -5.766  0.00  0.00    -0.002 A 
ATOM     23  C   UNL d   1      11.134   7.015  -4.572  0.00  0.00     0.011 A 
ATOM     24  C   UNL d   1      11.955   8.024  -4.038  0.00  0.00     0.058 A 
ATOM     25  C   UNL d   1      12.134   9.224  -4.761  0.00  0.00     0.011 A 
ATOM     26 CL   UNL d   1      12.646   7.789  -2.480  0.00  0.00    -0.082 Cl
ATOM     27  C   UNL d   1      11.502   9.417  -6.011  0.00  0.00    -0.002 A 
ENDBRANCH  20  21
ENDBRANCH   4  20
TORSDOF 5
