REMARK  8 active torsions:
REMARK  status: ('A' for Active; 'I' for Inactive)
REMARK    1  A    between atoms: O_2  and  C_3 
REMARK    2  A    between atoms: C_8  and  N_9 
REMARK    3  A    between atoms: N_12  and  C_13 
REMARK    4  A    between atoms: C_13  and  C_14 
REMARK    5  A    between atoms: C_14  and  C_15 
REMARK    6  A    between atoms: C_15  and  C_16 
REMARK    7  A    between atoms: C_16  and  N_17 
REMARK    8  A    between atoms: N_17  and  C_18 
ROOT
ATOM      1  N   UNL d   1       8.967   3.896 -13.589  0.00  0.00    -0.343 N 
ATOM      2  C   UNL d   1       8.712   5.232 -14.076  0.00  0.00     0.137 C 
ATOM      3  C   UNL d   1       8.356   6.152 -12.888  0.00  0.00     0.274 C 
ATOM      4  N   UNL d   1       9.424   6.114 -11.880  0.00  0.00     0.141 N 
ATOM      5  C   UNL d   1       9.489   4.743 -11.364  0.00  0.00     0.274 C 
ATOM      6  C   UNL d   1       9.905   3.794 -12.495  0.00  0.00     0.137 C 
ENDROOT
BRANCH   4   7
ATOM      7  C   UNL d   1       9.075   7.033 -10.806  0.00  0.00     0.251 C 
BRANCH   7   8
ATOM      8  C   UNL d   1      10.262   7.361  -9.885  0.00  0.00     0.037 C 
BRANCH   8   9
ATOM      9  C   UNL d   1       9.909   8.427  -8.834  0.00  0.00     0.028 C 
BRANCH   9  10
ATOM     10  C   UNL d   1      11.032   8.646  -7.812  0.00  0.00     0.127 C 
BRANCH  10  11
ATOM     11  N   UNL d   1      11.037   7.601  -6.792  0.00  0.00    -0.253 NA
BRANCH  11  12
ATOM     12  C   UNL d   1      11.374   7.860  -5.456  0.00  0.00     0.158 A 
ATOM     13  N   UNL d   1      11.549   9.135  -5.045  0.00  0.00    -0.226 NA
ATOM     14  C   UNL d   1      11.862   9.356  -3.752  0.00  0.00     0.101 A 
ATOM     15  C   UNL d   1      12.035   8.329  -2.807  0.00  0.00     0.021 A 
ATOM     16  C   UNL d   1      11.860   7.002  -3.232  0.00  0.00     0.005 A 
ATOM     17  C   UNL d   1      11.519   6.771  -4.576  0.00  0.00     0.038 A 
ENDBRANCH  11  12
ENDBRANCH  10  11
ENDBRANCH   9  10
ENDBRANCH   8   9
ENDBRANCH   7   8
ENDBRANCH   4   7
BRANCH   1  18
ATOM     18  C   UNL d   1       8.356   2.771 -14.155  0.00  0.00     0.079 A 
ATOM     19  C   UNL d   1       9.114   1.783 -14.840  0.00  0.00     0.110 A 
ATOM     20  C   UNL d   1       8.448   0.655 -15.379  0.00  0.00     0.026 A 
ATOM     21  C   UNL d   1       7.058   0.505 -15.234  0.00  0.00     0.002 A 
ATOM     22  C   UNL d   1       6.315   1.479 -14.547  0.00  0.00     0.002 A 
ATOM     23  C   UNL d   1       6.957   2.630 -14.048  0.00  0.00     0.019 A 
BRANCH  19  24
ATOM     24  O   UNL d   1      10.476   1.985 -14.941  0.00  0.00    -0.327 OA
ATOM     25  C   UNL d   1      11.204   1.131 -15.805  0.00  0.00     0.181 C 
ENDBRANCH  19  24
ENDBRANCH   1  18
TORSDOF 8
