REMARK  8 active torsions:
REMARK  status: ('A' for Active; 'I' for Inactive)
REMARK    1  A    between atoms: C_6  and  C_7 
REMARK    2  A    between atoms: C_10  and  S_11 
REMARK    3  A    between atoms: S_11  and  C_12 
REMARK    4  A    between atoms: C_12  and  C_13 
REMARK    5  A    between atoms: C_13  and  C_14 
REMARK    6  A    between atoms: C_14  and  N_15 
REMARK    7  A    between atoms: C_19  and  C_20 
REMARK    8  A    between atoms: C_25  and  C_26 
ROOT
ATOM      1  N   UNL d   1       9.837   3.963 -13.460  0.00  0.00     0.137 N 
ATOM      2  C   UNL d   1       8.417   3.981 -13.835  0.00  0.00     0.251 C 
ATOM      3  C   UNL d   1       7.790   4.901 -12.818  0.00  0.00     0.039 A 
ATOM      4  C   UNL d   1       7.775   6.402 -12.965  0.00  0.00     0.008 A 
ATOM      5  C   UNL d   1       8.914   5.731 -12.278  0.00  0.00     0.052 A 
ATOM      6  C   UNL d   1      10.133   5.326 -13.053  0.00  0.00     0.254 C 
ENDROOT
BRANCH   1   7
ATOM      7  C   UNL d   1      10.726   3.521 -14.532  0.00  0.00     0.251 C 
BRANCH   7   8
ATOM      8  C   UNL d   1      10.475   2.016 -14.828  0.00  0.00     0.047 C 
BRANCH   8   9
ATOM      9  C   UNL d   1      11.207   1.584 -16.123  0.00  0.00     0.067 C 
BRANCH   9  10
ATOM     10  S   UNL d   1      10.579   0.015 -16.805  0.00  0.00    -0.075 SA
BRANCH  10  11
ATOM     11  C   UNL d   1       8.967   0.521 -17.270  0.00  0.00     0.193 A 
ATOM     12  N   UNL d   1       8.417   1.707 -16.981  0.00  0.00    -0.122 NA
ATOM     13  N   UNL d   1       7.148   1.643 -17.422  0.00  0.00    -0.126 NA
ATOM     14  C   UNL d   1       7.006   0.442 -17.953  0.00  0.00     0.191 A 
ATOM     15  N   UNL d   1       8.147  -0.310 -17.916  0.00  0.00    -0.287 N 
ATOM     16  C   UNL d   1       8.383  -1.637 -18.500  0.00  0.00     0.134 C 
BRANCH  14  17
ATOM     17  C   UNL d   1       5.785   0.063 -18.630  0.00  0.00     0.151 A 
ATOM     18  C   UNL d   1       4.858  -0.933 -18.456  0.00  0.00     0.087 A 
ATOM     19  C   UNL d   1       4.827  -2.040 -17.443  0.00  0.00     0.054 C 
ATOM     20  N   UNL d   1       3.842  -0.738 -19.385  0.00  0.00    -0.221 NA
ATOM     21  C   UNL d   1       4.208   0.358 -20.041  0.00  0.00     0.225 A 
ATOM     22  O   UNL d   1       5.380   0.898 -19.628  0.00  0.00    -0.282 OA
ENDBRANCH  14  17
ENDBRANCH  10  11
ENDBRANCH   9  10
ENDBRANCH   8   9
ENDBRANCH   7   8
ENDBRANCH   1   7
BRANCH   5  23
ATOM     23  C   UNL d   1       9.132   5.923 -10.809  0.00  0.00    -0.021 A 
ATOM     24  C   UNL d   1       9.860   7.037 -10.322  0.00  0.00     0.002 A 
ATOM     25  C   UNL d   1      10.025   7.232  -8.930  0.00  0.00     0.099 A 
ATOM     26  C   UNL d   1       9.457   6.309  -8.026  0.00  0.00     0.144 A 
ATOM     27  C   UNL d   1       8.735   5.206  -8.512  0.00  0.00     0.029 A 
ATOM     28  F   UNL d   1       9.609   6.460  -6.686  0.00  0.00    -0.204 F 
ATOM     29  C   UNL d   1       8.588   5.011  -9.892  0.00  0.00    -0.002 A 
BRANCH  25  30
ATOM     30  C   UNL d   1      10.813   8.415  -8.396  0.00  0.00     0.421 C 
ATOM     31  F   UNL d   1      10.139   9.033  -7.424  0.00  0.00    -0.166 F 
ATOM     32  F   UNL d   1      11.969   7.965  -7.905  0.00  0.00    -0.166 F 
ATOM     33  F   UNL d   1      11.069   9.305  -9.356  0.00  0.00    -0.166 F 
ENDBRANCH  25  30
ENDBRANCH   5  23
TORSDOF 8
