REMARK  5 active torsions:
REMARK  status: ('A' for Active; 'I' for Inactive)
REMARK       I    between atoms: C_2  and  N_3 
REMARK    1  A    between atoms: C_2  and  C_16 
REMARK    2  A    between atoms: N_3  and  C_4 
REMARK    3  A    between atoms: N_7  and  C_8 
REMARK    4  A    between atoms: C_8  and  C_9 
REMARK    5  A    between atoms: C_19  and  C_20 
ROOT
ATOM      1  O   UNL d   1       8.641   8.236 -12.049  0.00  0.00    -0.266 OA
ATOM      2  C   UNL d   1       9.067   7.131 -11.703  0.00  0.00     0.275 C 
ATOM      3  N   UNL d   1       9.885   6.933 -10.670  0.00  0.00    -0.234 NA
ENDROOT
BRANCH   2   4
ATOM      4  C   UNL d   1       8.582   5.882 -12.371  0.00  0.00     0.058 A 
ATOM      5  C   UNL d   1       7.204   5.606 -12.437  0.00  0.00     0.005 A 
ATOM      6  C   UNL d   1       6.736   4.429 -13.057  0.00  0.00     0.001 A 
ATOM      7  C   UNL d   1       7.646   3.530 -13.658  0.00  0.00     0.006 A 
ATOM      8  C   UNL d   1       9.027   3.820 -13.604  0.00  0.00     0.001 A 
ATOM      9  C   UNL d   1       9.496   4.983 -12.965  0.00  0.00     0.005 A 
BRANCH   7  10
ATOM     10  C   UNL d   1       7.171   2.326 -14.333  0.00  0.00     0.029 A 
ATOM     11  S   UNL d   1       5.861   1.388 -13.653  0.00  0.00    -0.086 SA
ATOM     12  C   UNL d   1       5.976   0.231 -14.950  0.00  0.00     0.035 A 
ATOM     13  C   UNL d   1       6.979   0.551 -15.825  0.00  0.00     0.007 A 
ATOM     14  C   UNL d   1       7.671   1.742 -15.467  0.00  0.00     0.007 A 
ENDBRANCH   7  10
ENDBRANCH   2   4
BRANCH   3  15
ATOM     15  C   UNL d   1      10.142   7.873  -9.579  0.00  0.00     0.142 C 
ATOM     16  C   UNL d   1       9.518   7.352  -8.278  0.00  0.00     0.275 C 
ATOM     17  N   UNL d   1      10.392   7.902  -7.245  0.00  0.00     0.143 N 
ATOM     18  C   UNL d   1      11.719   7.632  -7.768  0.00  0.00     0.253 C 
ATOM     19  C   UNL d   1      11.625   8.019  -9.239  0.00  0.00     0.062 C 
BRANCH  17  20
ATOM     20  C   UNL d   1      10.207   7.199  -5.982  0.00  0.00     0.277 C 
BRANCH  20  21
ATOM     21  C   UNL d   1      11.081   7.732  -4.867  0.00  0.00     0.011 A 
ATOM     22  C   UNL d   1      11.084   9.111  -4.563  0.00  0.00    -0.002 A 
ATOM     23  C   UNL d   1      11.855   9.583  -3.483  0.00  0.00    -0.000 A 
ATOM     24  C   UNL d   1      12.654   8.702  -2.728  0.00  0.00    -0.000 A 
ATOM     25  C   UNL d   1      12.647   7.326  -3.026  0.00  0.00    -0.000 A 
ATOM     26  C   UNL d   1      11.849   6.844  -4.078  0.00  0.00    -0.002 A 
ENDBRANCH  20  21
ENDBRANCH  17  20
ENDBRANCH   3  15
TORSDOF 5
