REMARK  8 active torsions:
REMARK  status: ('A' for Active; 'I' for Inactive)
REMARK    1  A    between atoms: C_6  and  C_7 
REMARK    2  A    between atoms: C_10  and  S_11 
REMARK    3  A    between atoms: S_11  and  C_12 
REMARK    4  A    between atoms: C_12  and  C_13 
REMARK    5  A    between atoms: C_13  and  C_14 
REMARK    6  A    between atoms: C_14  and  N_15 
REMARK    7  A    between atoms: C_19  and  C_20 
REMARK    8  A    between atoms: C_25  and  C_26 
ROOT
ATOM      1  N   UNL d   1       9.725   5.245 -13.015  0.00  0.00     0.137 N 
ATOM      2  C   UNL d   1       8.911   4.250 -12.319  0.00  0.00     0.251 C 
ATOM      3  C   UNL d   1       8.609   4.886 -11.011  0.00  0.00     0.039 A 
ATOM      4  C   UNL d   1       7.425   5.793 -10.813  0.00  0.00     0.008 A 
ATOM      5  C   UNL d   1       8.765   6.355 -11.201  0.00  0.00     0.052 A 
ATOM      6  C   UNL d   1       9.134   6.539 -12.665  0.00  0.00     0.254 C 
ENDROOT
BRANCH   1   7
ATOM      7  C   UNL d   1       9.762   5.058 -14.458  0.00  0.00     0.251 C 
BRANCH   7   8
ATOM      8  C   UNL d   1      10.089   3.609 -14.841  0.00  0.00     0.047 C 
BRANCH   8   9
ATOM      9  C   UNL d   1      10.190   3.422 -16.354  0.00  0.00     0.067 C 
BRANCH   9  10
ATOM     10  S   UNL d   1      10.379   1.676 -16.814  0.00  0.00    -0.075 SA
BRANCH  10  11
ATOM     11  C   UNL d   1       8.668   1.263 -16.931  0.00  0.00     0.193 A 
ATOM     12  N   UNL d   1       7.913   1.529 -18.004  0.00  0.00    -0.122 NA
ATOM     13  N   UNL d   1       6.662   1.052 -17.688  0.00  0.00    -0.126 NA
ATOM     14  C   UNL d   1       6.738   0.558 -16.443  0.00  0.00     0.191 A 
ATOM     15  N   UNL d   1       7.992   0.672 -15.930  0.00  0.00    -0.287 N 
ATOM     16  C   UNL d   1       8.486   0.282 -14.615  0.00  0.00     0.134 C 
BRANCH  14  17
ATOM     17  C   UNL d   1       5.566  -0.035 -15.782  0.00  0.00     0.151 A 
ATOM     18  C   UNL d   1       5.065  -0.015 -14.496  0.00  0.00     0.087 A 
ATOM     19  C   UNL d   1       5.573   0.657 -13.256  0.00  0.00     0.054 C 
ATOM     20  N   UNL d   1       3.900  -0.775 -14.461  0.00  0.00    -0.221 NA
ATOM     21  C   UNL d   1       3.756  -1.226 -15.704  0.00  0.00     0.225 A 
ATOM     22  O   UNL d   1       4.731  -0.807 -16.554  0.00  0.00    -0.282 OA
ENDBRANCH  14  17
ENDBRANCH  10  11
ENDBRANCH   9  10
ENDBRANCH   8   9
ENDBRANCH   7   8
ENDBRANCH   1   7
BRANCH   5  23
ATOM     23  C   UNL d   1       9.582   7.146 -10.191  0.00  0.00    -0.019 A 
ATOM     24  C   UNL d   1       9.775   6.697  -8.853  0.00  0.00    -0.000 A 
ATOM     25  C   UNL d   1      10.553   7.446  -7.931  0.00  0.00     0.073 A 
ATOM     26  C   UNL d   1      11.134   8.647  -8.334  0.00  0.00     0.034 A 
ATOM     27  C   UNL d   1      10.900   9.110  -9.626  0.00  0.00     0.140 A 
ATOM     28  C   UNL d   1      10.112   8.384 -10.538  0.00  0.00     0.025 A 
ATOM     29  F   UNL d   1      11.413  10.248 -10.024  0.00  0.00    -0.204 F 
BRANCH  25  30
ATOM     30  C   UNL d   1      10.774   6.942  -6.524  0.00  0.00     0.419 C 
ATOM     31  F   UNL d   1      11.733   6.021  -6.575  0.00  0.00    -0.166 F 
ATOM     32  F   UNL d   1      11.145   7.918  -5.694  0.00  0.00    -0.166 F 
ATOM     33  F   UNL d   1       9.641   6.422  -6.074  0.00  0.00    -0.166 F 
ENDBRANCH  25  30
ENDBRANCH   5  23
TORSDOF 8
