REMARK  7 active torsions:
REMARK  status: ('A' for Active; 'I' for Inactive)
REMARK    1  A    between atoms: S_2  and  N_4 
REMARK    2  A    between atoms: S_2  and  C_23 
REMARK    3  A    between atoms: N_4  and  C_5 
REMARK    4  A    between atoms: C_5  and  C_6 
REMARK    5  A    between atoms: C_6  and  C_7 
REMARK    6  A    between atoms: C_7  and  N_8 
REMARK    7  A    between atoms: N_11  and  C_12 
ROOT
ATOM      1  N   UNL d   1       9.065   6.200  -9.963  0.00  0.00     0.141 N 
ATOM      2  C   UNL d   1       9.792   6.473 -11.206  0.00  0.00     0.274 C 
ATOM      3  C   UNL d   1       8.892   6.333 -12.418  0.00  0.00     0.138 C 
ATOM      4  N   UNL d   1       8.294   5.014 -12.467  0.00  0.00    -0.329 N 
ATOM      5  C   UNL d   1       7.617   4.663 -11.223  0.00  0.00     0.138 C 
ATOM      6  C   UNL d   1       8.536   4.841 -10.008  0.00  0.00     0.274 C 
ENDROOT
BRANCH   1   7
ATOM      7  C   UNL d   1       9.914   6.325  -8.809  0.00  0.00     0.253 C 
BRANCH   7   8
ATOM      8  C   UNL d   1      10.432   7.780  -8.706  0.00  0.00     0.062 C 
BRANCH   8   9
ATOM      9  C   UNL d   1      11.783   7.810  -7.976  0.00  0.00     0.141 C 
BRANCH   9  10
ATOM     10  N   UNL d   1      11.891   9.036  -7.221  0.00  0.00    -0.184 NA
BRANCH  10  11
ATOM     11  S   UNL d   1      10.891   9.373  -5.850  0.00  0.00     0.287 S 
ATOM     12  O   UNL d   1      11.078  10.767  -5.491  0.00  0.00    -0.198 OA
ATOM     13  O   UNL d   1       9.555   8.788  -6.051  0.00  0.00    -0.198 OA
BRANCH  11  14
ATOM     14  C   UNL d   1      11.578   8.412  -4.558  0.00  0.00     0.134 A 
ATOM     15  S   UNL d   1      12.266   9.191  -3.180  0.00  0.00    -0.073 SA
ATOM     16  C   UNL d   1      12.543   7.660  -2.430  0.00  0.00     0.036 A 
ATOM     17  C   UNL d   1      12.116   6.630  -3.212  0.00  0.00     0.008 A 
ATOM     18  C   UNL d   1      11.536   7.056  -4.433  0.00  0.00     0.020 A 
ENDBRANCH  11  14
ENDBRANCH  10  11
ENDBRANCH   9  10
ENDBRANCH   8   9
ENDBRANCH   7   8
ENDBRANCH   1   7
BRANCH   4  19
ATOM     19  C   UNL d   1       8.376   4.174 -13.596  0.00  0.00     0.148 A 
ATOM     20  C   UNL d   1       7.401   3.135 -13.891  0.00  0.00     0.042 A 
ATOM     21  C   UNL d   1       7.826   2.388 -15.032  0.00  0.00     0.050 A 
ATOM     22  C   UNL d   1       6.182   2.720 -13.278  0.00  0.00     0.004 C 
ATOM     23  S   UNL d   1       9.323   3.105 -15.615  0.00  0.00     0.015 SA
ATOM     24  C   UNL d   1       7.093   1.299 -15.533  0.00  0.00     0.008 C 
ATOM     25  N   UNL d   1       9.396   4.291 -14.435  0.00  0.00    -0.192 NA
ATOM     26  C   UNL d   1       5.939   0.866 -14.845  0.00  0.00     0.001 C 
ATOM     27  C   UNL d   1       5.512   1.559 -13.698  0.00  0.00     0.000 C 
ENDBRANCH   4  19
TORSDOF 7
