REMARK  7 active torsions:
REMARK  status: ('A' for Active; 'I' for Inactive)
REMARK    1  A    between atoms: O_2  and  C_3 
REMARK    2  A    between atoms: N_11  and  C_12 
REMARK    3  A    between atoms: C_12  and  C_13 
REMARK    4  A    between atoms: C_13  and  C_14 
REMARK    5  A    between atoms: C_14  and  C_15 
REMARK    6  A    between atoms: C_15  and  N_16 
REMARK       I    between atoms: N_16  and  C_17 
REMARK    7  A    between atoms: C_17  and  C_19 
ROOT
ATOM      1  C   UNL d   1       9.226   5.032 -12.057  0.00  0.00     0.251 C 
ENDROOT
BRANCH   1   2
ATOM      2  N   UNL d   1       8.632   3.958 -12.843  0.00  0.00     0.142 N 
ATOM      3  C   UNL d   1       9.601   3.456 -13.822  0.00  0.00     0.277 C 
ATOM      4  C   UNL d   1       9.047   2.396 -14.762  0.00  0.00     0.009 A 
ATOM      5  C   UNL d   1       7.652   2.298 -14.946  0.00  0.00    -0.020 A 
ATOM      6  C   UNL d   1       9.907   1.541 -15.484  0.00  0.00     0.027 A 
ATOM      7  C   UNL d   1       7.122   1.356 -15.844  0.00  0.00     0.022 A 
ATOM      8  C   UNL d   1       6.718   3.197 -14.160  0.00  0.00     0.061 C 
ATOM      9  C   UNL d   1       7.976   0.503 -16.585  0.00  0.00     0.119 A 
ATOM     10  C   UNL d   1       9.376   0.599 -16.391  0.00  0.00     0.153 A 
ATOM     11  O   UNL d   1      10.232  -0.216 -17.079  0.00  0.00    -0.188 OA
ATOM     12  C   UNL d   1       7.429   4.407 -13.535  0.00  0.00     0.255 C 
BRANCH   9  13
ATOM     13  O   UNL d   1       7.510  -0.417 -17.503  0.00  0.00    -0.326 OA
ATOM     14  C   UNL d   1       6.100  -0.606 -17.606  0.00  0.00     0.181 C 
ENDBRANCH   9  13
ENDBRANCH   1   2
BRANCH   1  15
ATOM     15  C   UNL d   1       8.474   5.288 -10.735  0.00  0.00     0.037 C 
BRANCH  15  16
ATOM     16  C   UNL d   1       9.372   5.997  -9.711  0.00  0.00     0.029 C 
BRANCH  16  17
ATOM     17  C   UNL d   1       8.760   6.065  -8.306  0.00  0.00     0.129 C 
BRANCH  17  18
ATOM     18  N   UNL d   1       9.717   6.448  -7.271  0.00  0.00    -0.234 NA
ATOM     19  C   UNL d   1      10.235   7.678  -7.101  0.00  0.00     0.275 C 
ATOM     20  O   UNL d   1      10.126   8.587  -7.927  0.00  0.00    -0.266 OA
BRANCH  19  21
ATOM     21  C   UNL d   1      10.867   7.934  -5.758  0.00  0.00     0.058 A 
ATOM     22  C   UNL d   1      11.388   6.877  -4.966  0.00  0.00     0.006 A 
ATOM     23  C   UNL d   1      11.931   7.143  -3.694  0.00  0.00     0.012 A 
ATOM     24  C   UNL d   1      11.975   8.460  -3.201  0.00  0.00     0.058 A 
ATOM     25  C   UNL d   1      11.458   9.516  -3.981  0.00  0.00     0.012 A 
ATOM     26 CL   UNL d   1      12.653   8.773  -1.654  0.00  0.00    -0.082 Cl
ATOM     27  C   UNL d   1      10.926   9.255  -5.257  0.00  0.00     0.006 A 
ENDBRANCH  19  21
ENDBRANCH  17  18
ENDBRANCH  16  17
ENDBRANCH  15  16
ENDBRANCH   1  15
TORSDOF 7
