REMARK  7 active torsions:
REMARK  status: ('A' for Active; 'I' for Inactive)
REMARK       I    between atoms: C_2  and  N_4 
REMARK    1  A    between atoms: N_4  and  C_5 
REMARK    2  A    between atoms: C_8  and  O_9 
REMARK    3  A    between atoms: O_9  and  C_10 
REMARK    4  A    between atoms: C_10  and  C_11 
REMARK    5  A    between atoms: C_11  and  C_13 
REMARK    6  A    between atoms: C_13  and  N_14 
REMARK    7  A    between atoms: C_17  and  C_18 
ROOT
ATOM      1  N   UNL d   1       8.863   5.994  -9.540  0.00  0.00     0.140 N 
ATOM      2  C   UNL d   1      10.312   6.080  -9.472  0.00  0.00     0.251 C 
ATOM      3  C   UNL d   1      10.809   7.156  -8.505  0.00  0.00     0.041 C 
ATOM      4  C   UNL d   1      10.270   6.888  -7.095  0.00  0.00     0.047 C 
ATOM      5  C   UNL d   1       8.750   6.680  -7.146  0.00  0.00     0.041 C 
ATOM      6  C   UNL d   1       8.383   5.638  -8.211  0.00  0.00     0.251 C 
ENDROOT
BRANCH   1   7
ATOM      7  C   UNL d   1       8.421   5.053 -10.566  0.00  0.00     0.285 C 
BRANCH   7   8
ATOM      8  C   UNL d   1       8.246   5.630 -11.985  0.00  0.00     0.215 C 
ATOM      9  O   UNL d   1       9.455   6.235 -12.388  0.00  0.00    -0.219 OA
BRANCH   8  10
ATOM     10  C   UNL d   1       7.927   4.474 -12.956  0.00  0.00     0.184 C 
BRANCH  10  11
ATOM     11  O   UNL d   1       8.257   4.821 -14.307  0.00  0.00    -0.328 OA
BRANCH  11  12
ATOM     12  C   UNL d   1       9.385   4.310 -14.921  0.00  0.00     0.094 A 
ATOM     13  C   UNL d   1       9.660   4.806 -16.214  0.00  0.00     0.026 A 
ATOM     14  C   UNL d   1      10.733   4.311 -16.968  0.00  0.00     0.021 A 
ATOM     15  C   UNL d   1      11.549   3.292 -16.451  0.00  0.00     0.085 A 
ATOM     16  C   UNL d   1      11.302   2.807 -15.143  0.00  0.00     0.021 A 
ATOM     17  C   UNL d   1      10.241   3.318 -14.380  0.00  0.00     0.026 A 
BRANCH  15  18
ATOM     18  N   UNL d   1      12.655   2.768 -17.161  0.00  0.00    -0.212 NA
ATOM     19  C   UNL d   1      12.734   2.617 -18.502  0.00  0.00     0.256 C 
ATOM     20  C   UNL d   1      14.053   2.083 -19.034  0.00  0.00     0.100 C 
ATOM     21  O   UNL d   1      11.824   2.856 -19.288  0.00  0.00    -0.270 OA
ENDBRANCH  15  18
ENDBRANCH  11  12
ENDBRANCH  10  11
ENDBRANCH   8  10
ENDBRANCH   7   8
ENDBRANCH   1   7
BRANCH   4  22
ATOM     22  C   UNL d   1      10.658   7.990  -6.162  0.00  0.00     0.087 A 
ATOM     23  C   UNL d   1      11.313   7.964  -4.918  0.00  0.00     0.041 A 
ATOM     24  C   UNL d   1      11.423   9.267  -4.438  0.00  0.00     0.129 A 
ATOM     25  C   UNL d   1      11.794   6.889  -4.137  0.00  0.00     0.006 A 
ATOM     26  O   UNL d   1      10.831  10.068  -5.399  0.00  0.00    -0.211 OA
ATOM     27  C   UNL d   1      11.985   9.575  -3.198  0.00  0.00     0.057 A 
ATOM     28  N   UNL d   1      10.353   9.251  -6.456  0.00  0.00    -0.131 NA
ATOM     29  C   UNL d   1      12.477   8.514  -2.421  0.00  0.00     0.142 A 
ATOM     30  F   UNL d   1      13.057   8.776  -1.244  0.00  0.00    -0.204 F 
ATOM     31  C   UNL d   1      12.378   7.177  -2.881  0.00  0.00     0.030 A 
ENDBRANCH   4  22
TORSDOF 7
