REMARK  10 active torsions:
REMARK  status: ('A' for Active; 'I' for Inactive)
REMARK    1  A    between atoms: S_2  and  N_4 
REMARK    2  A    between atoms: S_2  and  C_26 
REMARK    3  A    between atoms: N_4  and  C_5 
REMARK    4  A    between atoms: C_5  and  C_6 
REMARK    5  A    between atoms: C_6  and  C_7 
REMARK    6  A    between atoms: C_7  and  C_8 
REMARK    7  A    between atoms: C_8  and  C_9 
REMARK    8  A    between atoms: C_9  and  C_10 
REMARK    9  A    between atoms: C_10  and  N_11 
REMARK   10  A    between atoms: N_14  and  C_15 
ROOT
ATOM      1  C   UNL d   1       8.285   5.303 -10.147  0.00  0.00     0.250 C 
ENDROOT
BRANCH   1   2
ATOM      2  C   UNL d   1       8.653   4.972 -11.591  0.00  0.00     0.035 C 
BRANCH   2   3
ATOM      3  C   UNL d   1       7.427   4.530 -12.386  0.00  0.00     0.002 C 
BRANCH   3   4
ATOM      4  C   UNL d   1       7.766   4.193 -13.834  0.00  0.00     0.002 C 
BRANCH   4   5
ATOM      5  C   UNL d   1       8.405   2.793 -13.976  0.00  0.00     0.027 C 
BRANCH   5   6
ATOM      6  C   UNL d   1       8.731   2.508 -15.420  0.00  0.00     0.139 C 
BRANCH   6   7
ATOM      7  N   UNL d   1       9.451   1.225 -15.574  0.00  0.00    -0.185 NA
BRANCH   7   8
ATOM      8  S   UNL d   1       9.794   0.587 -17.146  0.00  0.00     0.281 S 
ATOM      9  O   UNL d   1      10.248  -0.805 -16.960  0.00  0.00    -0.199 OA
ATOM     10  O   UNL d   1       8.645   0.870 -18.006  0.00  0.00    -0.199 OA
BRANCH   8  11
ATOM     11  C   UNL d   1      11.197   1.570 -17.720  0.00  0.00     0.105 A 
ATOM     12  C   UNL d   1      11.272   2.970 -17.449  0.00  0.00     0.013 A 
ATOM     13  C   UNL d   1      12.406   3.697 -17.822  0.00  0.00     0.001 A 
ATOM     14  C   UNL d   1      13.441   3.096 -18.557  0.00  0.00     0.000 A 
ATOM     15  C   UNL d   1      13.339   1.712 -18.884  0.00  0.00     0.001 A 
ATOM     16  C   UNL d   1      12.232   0.931 -18.449  0.00  0.00     0.013 A 
ENDBRANCH   8  11
ENDBRANCH   7   8
ENDBRANCH   6   7
ENDBRANCH   5   6
ENDBRANCH   4   5
ENDBRANCH   3   4
ENDBRANCH   2   3
ENDBRANCH   1   2
BRANCH   1  17
ATOM     17  N   UNL d   1       9.465   5.723  -9.405  0.00  0.00     0.141 N 
ATOM     18  C   UNL d   1       9.768   7.136  -9.677  0.00  0.00     0.274 C 
ATOM     19  C   UNL d   1      11.001   7.601  -8.899  0.00  0.00     0.138 C 
ATOM     20  N   UNL d   1      10.847   7.333  -7.478  0.00  0.00    -0.329 N 
ATOM     21  C   UNL d   1      10.409   5.996  -7.172  0.00  0.00     0.138 C 
ATOM     22  C   UNL d   1       9.173   5.606  -7.983  0.00  0.00     0.274 C 
BRANCH  20  23
ATOM     23  C   UNL d   1      11.023   8.297  -6.472  0.00  0.00     0.148 A 
ATOM     24  C   UNL d   1      11.459   7.983  -5.115  0.00  0.00     0.042 A 
ATOM     25  C   UNL d   1      11.523   9.178  -4.349  0.00  0.00     0.050 A 
ATOM     26  C   UNL d   1      11.845   6.803  -4.437  0.00  0.00     0.004 A 
ATOM     27  S   UNL d   1      11.058  10.477  -5.389  0.00  0.00     0.015 SA
ATOM     28  C   UNL d   1      11.920   9.203  -3.004  0.00  0.00     0.008 A 
ATOM     29  N   UNL d   1      10.812   9.568  -6.753  0.00  0.00    -0.192 NA
ATOM     30  C   UNL d   1      12.265   8.001  -2.364  0.00  0.00     0.001 A 
ATOM     31  C   UNL d   1      12.225   6.798  -3.088  0.00  0.00     0.000 A 
ENDBRANCH  20  23
ENDBRANCH   1  17
TORSDOF 10
