REMARK  7 active torsions:
REMARK  status: ('A' for Active; 'I' for Inactive)
REMARK       I    between atoms: C_2  and  N_3 
REMARK    1  A    between atoms: C_2  and  C_27 
REMARK    2  A    between atoms: N_3  and  C_4 
REMARK    3  A    between atoms: C_7  and  C_8 
REMARK    4  A    between atoms: C_8  and  C_9 
REMARK    5  A    between atoms: C_9  and  N_10 
REMARK    6  A    between atoms: N_13  and  C_14 
REMARK    7  A    between atoms: C_30  and  N_31 
ROOT
ATOM      1  C   UNL d   1       7.741   3.912 -12.457  0.00  0.00     0.107 C 
ATOM      2  C   UNL d   1       6.858   4.534 -13.506  0.00  0.00     0.024 C 
ATOM      3  C   UNL d   1       6.268   3.447 -14.402  0.00  0.00     0.002 C 
ATOM      4  C   UNL d   1       7.381   2.599 -15.119  0.00  0.00     0.002 C 
ATOM      5  C   UNL d   1       8.306   1.969 -14.088  0.00  0.00     0.002 C 
ATOM      6  C   UNL d   1       8.857   3.098 -13.179  0.00  0.00     0.024 C 
ENDROOT
BRANCH   4   7
ATOM      7  C   UNL d   1       6.770   1.529 -16.029  0.00  0.00     0.035 C 
BRANCH   7   8
ATOM      8  C   UNL d   1       7.806   0.575 -16.648  0.00  0.00     0.250 C 
BRANCH   8   9
ATOM      9  N   UNL d   1       7.231  -0.149 -17.767  0.00  0.00     0.141 N 
ATOM     10  C   UNL d   1       8.268  -1.018 -18.341  0.00  0.00     0.274 C 
ATOM     11  C   UNL d   1       7.708  -1.825 -19.532  0.00  0.00     0.138 C 
ATOM     12  N   UNL d   1       6.509  -2.552 -19.122  0.00  0.00    -0.330 N 
ATOM     13  C   UNL d   1       5.501  -1.745 -18.444  0.00  0.00     0.138 C 
ATOM     14  C   UNL d   1       6.115  -0.968 -17.297  0.00  0.00     0.274 C 
BRANCH  12  15
ATOM     15  C   UNL d   1       6.324  -3.937 -19.353  0.00  0.00     0.138 A 
ATOM     16  C   UNL d   1       5.049  -4.537 -19.524  0.00  0.00     0.036 A 
ATOM     17  C   UNL d   1       4.930  -5.892 -19.759  0.00  0.00     0.095 A 
ATOM     18  C   UNL d   1       3.669  -3.945 -19.546  0.00  0.00     0.064 C 
ATOM     19  C   UNL d   1       6.079  -6.697 -19.802  0.00  0.00     0.045 A 
ATOM     20  O   UNL d   1       3.639  -6.301 -19.963  0.00  0.00    -0.331 OA
ATOM     21  C   UNL d   1       7.316  -6.038 -19.624  0.00  0.00     0.103 A 
ATOM     22  N   UNL d   1       7.439  -4.704 -19.418  0.00  0.00    -0.228 NA
ATOM     23  C   UNL d   1       2.808  -5.129 -20.002  0.00  0.00     0.154 C 
ENDBRANCH  12  15
ENDBRANCH   8   9
ENDBRANCH   7   8
ENDBRANCH   4   7
BRANCH   1  24
ATOM     24  N   UNL d   1       8.264   4.849 -11.471  0.00  0.00    -0.235 NA
ATOM     25  C   UNL d   1       9.080   5.900 -11.704  0.00  0.00     0.294 C 
ATOM     26  O   UNL d   1       9.383   6.293 -12.830  0.00  0.00    -0.264 OA
BRANCH  25  27
ATOM     27  C   UNL d   1       9.652   6.521 -10.471  0.00  0.00     0.158 A 
ATOM     28  N   UNL d   1       9.722   5.769  -9.350  0.00  0.00    -0.234 NA
ATOM     29  C   UNL d   1      10.326   6.321  -8.280  0.00  0.00     0.136 A 
ATOM     30  C   UNL d   1      10.876   7.623  -8.319  0.00  0.00     0.160 A 
ATOM     31  N   UNL d   1      10.825   8.371  -9.444  0.00  0.00    -0.224 NA
ATOM     32  C   UNL d   1      10.207   7.824 -10.510  0.00  0.00     0.125 A 
BRANCH  30  33
ATOM     33  N   UNL d   1      11.524   8.151  -7.187  0.00  0.00    -0.327 N 
ATOM     34  C   UNL d   1      11.141   7.777  -5.836  0.00  0.00     0.135 C 
ATOM     35  C   UNL d   1      10.801   9.051  -5.047  0.00  0.00     0.167 C 
ATOM     36  O   UNL d   1      11.866   9.983  -5.116  0.00  0.00    -0.350 OA
ATOM     37  C   UNL d   1      12.076  10.430  -6.443  0.00  0.00     0.167 C 
ATOM     38  C   UNL d   1      12.497   9.218  -7.309  0.00  0.00     0.135 C 
ENDBRANCH  30  33
ENDBRANCH  25  27
ENDBRANCH   1  24
TORSDOF 7
