REMARK  7 active torsions:
REMARK  status: ('A' for Active; 'I' for Inactive)
REMARK    1  A    between atoms: C_3  and  S_4 
REMARK    2  A    between atoms: S_4  and  C_5 
REMARK    3  A    between atoms: C_5  and  C_6 
REMARK    4  A    between atoms: C_6  and  C_7 
REMARK    5  A    between atoms: C_7  and  N_8 
REMARK    6  A    between atoms: N_13  and  C_14 
REMARK    7  A    between atoms: C_26  and  C_27 
ROOT
ATOM      1  N   UNL d   1      12.456   5.066 -15.602  0.00  0.00     0.138 N 
ATOM      2  C   UNL d   1      12.635   3.745 -16.194  0.00  0.00     0.252 C 
ATOM      3  C   UNL d   1      11.717   2.840 -15.374  0.00  0.00     0.052 C 
ATOM      4  C   UNL d   1      10.945   1.778 -16.157  0.00  0.00     0.021 C 
ATOM      5  C   UNL d   1       9.563   1.839 -15.517  0.00  0.00     0.077 C 
ATOM      6  N   UNL d   1       9.358   3.238 -15.133  0.00  0.00    -0.250 NA
ATOM      7  C   UNL d   1      10.674   3.776 -14.790  0.00  0.00     0.097 C 
ATOM      8  C   UNL d   1      11.007   5.138 -15.425  0.00  0.00     0.266 C 
ENDROOT
BRANCH   1   9
ATOM      9  C   UNL d   1      12.938   6.157 -16.446  0.00  0.00     0.251 C 
BRANCH   9  10
ATOM     10  C   UNL d   1      14.414   5.980 -16.876  0.00  0.00     0.047 C 
BRANCH  10  11
ATOM     11  C   UNL d   1      14.788   6.823 -18.102  0.00  0.00     0.067 C 
BRANCH  11  12
ATOM     12  S   UNL d   1      16.198   6.072 -18.975  0.00  0.00    -0.075 SA
BRANCH  12  13
ATOM     13  C   UNL d   1      17.497   7.003 -18.244  0.00  0.00     0.193 A 
ATOM     14  N   UNL d   1      17.967   8.141 -18.797  0.00  0.00    -0.287 N 
ATOM     15  C   UNL d   1      17.497   8.793 -20.014  0.00  0.00     0.134 C 
ATOM     16  C   UNL d   1      18.939   8.507 -17.924  0.00  0.00     0.186 A 
ATOM     17  N   UNL d   1      19.058   7.629 -16.914  0.00  0.00    -0.127 NA
ATOM     18  N   UNL d   1      18.116   6.644 -17.124  0.00  0.00    -0.122 NA
BRANCH  16  19
ATOM     19  C   UNL d   1      19.819   9.680 -18.022  0.00  0.00     0.136 A 
ATOM     20  N   UNL d   1      20.228  10.254 -16.864  0.00  0.00    -0.238 NA
ATOM     21  C   UNL d   1      21.060  11.322 -16.943  0.00  0.00     0.120 A 
ATOM     22  C   UNL d   1      21.461  11.845 -18.190  0.00  0.00     0.120 A 
ATOM     23  N   UNL d   1      21.067  11.280 -19.355  0.00  0.00    -0.239 NA
ATOM     24  C   UNL d   1      20.258  10.199 -19.268  0.00  0.00     0.121 A 
ENDBRANCH  16  19
ENDBRANCH  12  13
ENDBRANCH  11  12
ENDBRANCH  10  11
ENDBRANCH   9  10
ENDBRANCH   1   9
BRANCH   6  25
ATOM     25  C   UNL d   1       8.283   3.558 -14.270  0.00  0.00     0.064 A 
ATOM     26  C   UNL d   1       7.098   2.763 -14.204  0.00  0.00     0.153 A 
ATOM     27  C   UNL d   1       6.063   3.104 -13.312  0.00  0.00     0.060 A 
ATOM     28  F   UNL d   1       6.922   1.670 -14.994  0.00  0.00    -0.203 F 
ATOM     29  C   UNL d   1       6.177   4.231 -12.492  0.00  0.00     0.142 A 
ATOM     30  C   UNL d   1       7.316   5.041 -12.553  0.00  0.00     0.031 A 
ATOM     31  F   UNL d   1       5.171   4.534 -11.649  0.00  0.00    -0.204 F 
ATOM     32  C   UNL d   1       8.357   4.712 -13.437  0.00  0.00     0.016 A 
ENDBRANCH   6  25
TORSDOF 7
