REMARK  6 active torsions:
REMARK  status: ('A' for Active; 'I' for Inactive)
REMARK    1  A    between atoms: N_2  and  C_3 
REMARK    2  A    between atoms: N_2  and  C_14 
REMARK    3  A    between atoms: C_3  and  C_4 
REMARK    4  A    between atoms: C_4  and  C_5 
REMARK    5  A    between atoms: C_14  and  C_15 
REMARK    6  A    between atoms: C_18  and  C_19 
ROOT
ATOM      1  C   UNL d   1       9.344   4.727  -9.147  0.00  0.00     0.286 C 
ATOM      2  N   UNL d   1       9.674   6.006  -9.753  0.00  0.00     0.146 N 
ENDROOT
BRANCH   2   3
ATOM      3  C   UNL d   1       9.722   7.085  -8.763  0.00  0.00     0.256 C 
BRANCH   3   4
ATOM      4  C   UNL d   1      10.529   6.731  -7.485  0.00  0.00     0.063 C 
BRANCH   4   5
ATOM      5  C   UNL d   1      10.820   7.891  -6.588  0.00  0.00     0.000 A 
ATOM      6  C   UNL d   1      11.289   7.836  -5.228  0.00  0.00     0.015 A 
ATOM      7  C   UNL d   1      11.437   9.174  -4.763  0.00  0.00     0.081 A 
ATOM      8  C   UNL d   1      11.601   6.794  -4.322  0.00  0.00     0.001 A 
ATOM      9  N   UNL d   1      11.071   9.982  -5.820  0.00  0.00    -0.244 NA
ATOM     10  C   UNL d   1      11.861   9.461  -3.454  0.00  0.00     0.019 A 
ATOM     11  C   UNL d   1      10.707   9.215  -6.911  0.00  0.00     0.095 A 
ATOM     12  C   UNL d   1      12.188   8.408  -2.582  0.00  0.00     0.002 A 
ATOM     13  C   UNL d   1      12.050   7.074  -3.011  0.00  0.00     0.000 A 
ENDBRANCH   4   5
ENDBRANCH   3   4
ENDBRANCH   2   3
BRANCH   2  14
ATOM     14  C   UNL d   1       8.681   6.347 -10.778  0.00  0.00     0.301 C 
BRANCH  14  15
ATOM     15  C   UNL d   1       8.643   5.410 -11.944  0.00  0.00     0.111 A 
ATOM     16  O   UNL d   1       9.753   5.365 -12.729  0.00  0.00    -0.309 OA
ATOM     17  C   UNL d   1       9.521   4.430 -13.693  0.00  0.00     0.100 A 
ATOM     18  C   UNL d   1       8.272   3.898 -13.539  0.00  0.00     0.026 A 
ATOM     19  C   UNL d   1       7.696   4.540 -12.407  0.00  0.00     0.024 A 
BRANCH  17  20
ATOM     20  C   UNL d   1      10.588   4.181 -14.654  0.00  0.00     0.023 A 
ATOM     21  C   UNL d   1      10.823   2.879 -15.145  0.00  0.00     0.002 A 
ATOM     22  C   UNL d   1      11.849   2.644 -16.080  0.00  0.00     0.000 A 
ATOM     23  C   UNL d   1      12.655   3.709 -16.532  0.00  0.00     0.000 A 
ATOM     24  C   UNL d   1      12.427   5.008 -16.047  0.00  0.00     0.000 A 
ATOM     25  C   UNL d   1      11.398   5.239 -15.119  0.00  0.00     0.002 A 
ENDBRANCH  17  20
ENDBRANCH  14  15
ENDBRANCH   2  14
TORSDOF 6
