REMARK  3 active torsions:
REMARK  status: ('A' for Active; 'I' for Inactive)
REMARK       I    between atoms: C_2  and  N_3 
REMARK    1  A    between atoms: C_2  and  C_10 
REMARK    2  A    between atoms: N_3  and  C_4 
REMARK    3  A    between atoms: C_19  and  C_20 
ROOT
ATOM      1  C   UNL d   1       8.323   4.075 -13.373  0.00  0.00     0.135 A 
ATOM      2  N   UNL d   1       7.082   3.634 -12.936  0.00  0.00    -0.241 NA
ATOM      3  C   UNL d   1       6.668   2.551 -13.672  0.00  0.00     0.084 A 
ATOM      4  C   UNL d   1       5.572   1.692 -13.520  0.00  0.00     0.049 A 
ATOM      5  C   UNL d   1       5.400   0.629 -14.424  0.00  0.00     0.142 A 
ATOM      6  F   UNL d   1       4.295  -0.147 -14.328  0.00  0.00    -0.204 F 
ATOM      7  C   UNL d   1       6.321   0.444 -15.474  0.00  0.00     0.030 A 
ATOM      8  C   UNL d   1       7.429   1.300 -15.605  0.00  0.00     0.004 A 
ATOM      9  C   UNL d   1       7.663   2.354 -14.682  0.00  0.00     0.016 A 
ATOM     10  C   UNL d   1       8.715   3.317 -14.466  0.00  0.00     0.006 A 
ENDROOT
BRANCH   1  11
ATOM     11  C   UNL d   1       8.971   5.184 -12.640  0.00  0.00     0.296 C 
ATOM     12  O   UNL d   1       9.857   5.788 -13.226  0.00  0.00    -0.264 OA
ATOM     13  N   UNL d   1       8.587   5.443 -11.376  0.00  0.00    -0.207 NA
BRANCH  13  14
ATOM     14  C   UNL d   1       9.207   6.321 -10.436  0.00  0.00     0.085 A 
ATOM     15  C   UNL d   1       9.139   6.005  -9.064  0.00  0.00     0.019 A 
ATOM     16  C   UNL d   1       9.717   6.855  -8.099  0.00  0.00     0.002 A 
ATOM     17  C   UNL d   1      10.374   8.037  -8.500  0.00  0.00     0.000 A 
ATOM     18  C   UNL d   1      10.447   8.368  -9.863  0.00  0.00     0.002 A 
ATOM     19  C   UNL d   1       9.851   7.525 -10.829  0.00  0.00     0.019 A 
ENDBRANCH  13  14
ENDBRANCH   1  11
BRANCH  10  20
ATOM     20  C   UNL d   1       9.998   3.449 -15.288  0.00  0.00     0.093 C 
ATOM     21  C   UNL d   1      10.691   2.100 -15.555  0.00  0.00     0.169 C 
ATOM     22  C   UNL d   1      11.873   2.252 -16.512  0.00  0.00     0.074 C 
ATOM     23  F   UNL d   1      11.095   1.569 -14.401  0.00  0.00    -0.237 F 
ATOM     24  C   UNL d   1      11.423   2.973 -17.792  0.00  0.00     0.293 C 
ATOM     25  N   UNL d   1      10.889   4.290 -17.456  0.00  0.00     0.340 N 
ATOM     26  C   UNL d   1       9.690   4.150 -16.622  0.00  0.00     0.297 C 
ENDBRANCH  10  20
TORSDOF 3
