REMARK  5 active torsions:
REMARK  status: ('A' for Active; 'I' for Inactive)
REMARK    1  A    between atoms: O_2  and  C_3 
REMARK    2  A    between atoms: C_9  and  C_10 
REMARK    3  A    between atoms: C_12  and  N_13 
REMARK       I    between atoms: N_13  and  C_14 
REMARK    4  A    between atoms: N_21  and  S_22 
REMARK    5  A    between atoms: S_22  and  C_25 
ROOT
ATOM      1  C   UNL d   1       8.335   1.620 -19.832  0.00  0.00     0.094 A 
ATOM      2  C   UNL d   1       9.348   2.545 -19.516  0.00  0.00     0.026 A 
ATOM      3  C   UNL d   1       9.569   2.933 -18.187  0.00  0.00     0.020 A 
ATOM      4  C   UNL d   1       8.803   2.365 -17.151  0.00  0.00     0.075 A 
ATOM      5  C   UNL d   1       7.773   1.411 -17.426  0.00  0.00     0.022 A 
ATOM      6  C   UNL d   1       7.542   1.079 -18.788  0.00  0.00     0.026 A 
ATOM      7  C   UNL d   1       7.177   1.002 -16.183  0.00  0.00     0.039 C 
ATOM      8  C   UNL d   1       7.914   1.634 -15.213  0.00  0.00     0.093 C 
ATOM      9  N   UNL d   1       8.808   2.531 -15.782  0.00  0.00    -0.231 N 
ENDROOT
BRANCH   7  10
ATOM     10  C   UNL d   1       6.069   0.087 -15.945  0.00  0.00     0.115 A 
ATOM     11  C   UNL d   1       5.317  -0.233 -14.830  0.00  0.00     0.096 A 
ATOM     12  N   UNL d   1       4.384  -1.226 -15.154  0.00  0.00    -0.062 NA
ATOM     13  C   UNL d   1       5.405   0.312 -13.433  0.00  0.00     0.054 C 
ATOM     14  C   UNL d   1       4.597  -1.452 -16.454  0.00  0.00     0.752 A 
ATOM     15  N   UNL d   1       5.564  -0.694 -16.960  0.00  0.00    -0.058 NA
BRANCH  14  16
ATOM     16  N   UNL d   1       3.909  -2.398 -17.244  0.00  0.00    -0.023 NA
ATOM     17  C   UNL d   1       3.859  -2.450 -18.589  0.00  0.00     0.273 C 
ATOM     18  C   UNL d   1       3.071  -3.607 -19.181  0.00  0.00     0.101 C 
ATOM     19  O   UNL d   1       4.396  -1.626 -19.332  0.00  0.00    -0.270 OA
ENDBRANCH  14  16
ENDBRANCH   7  10
BRANCH   9  20
ATOM     20  S   UNL d   1       9.782   3.623 -14.854  0.00  0.00     0.271 S 
ATOM     21  O   UNL d   1      10.743   2.773 -14.145  0.00  0.00    -0.200 OA
ATOM     22  O   UNL d   1      10.243   4.663 -15.792  0.00  0.00    -0.200 OA
BRANCH  20  23
ATOM     23  C   UNL d   1       8.655   4.407 -13.691  0.00  0.00     0.106 A 
ATOM     24  C   UNL d   1       7.286   4.055 -13.643  0.00  0.00     0.043 A 
ATOM     25  C   UNL d   1       6.455   4.606 -12.675  0.00  0.00     0.141 A 
ATOM     26  C   UNL d   1       6.939   5.596 -11.792  0.00  0.00     0.030 A 
ATOM     27  F   UNL d   1       5.173   4.191 -12.601  0.00  0.00    -0.204 F 
ATOM     28  C   UNL d   1       8.290   6.009 -11.879  0.00  0.00     0.003 A 
ATOM     29  C   UNL d   1       9.164   5.402 -12.816  0.00  0.00     0.013 A 
ENDBRANCH  20  23
ENDBRANCH   9  20
BRANCH   1  30
ATOM     30  O   UNL d   1       8.188   1.288 -21.160  0.00  0.00    -0.328 OA
ATOM     31  C   UNL d   1       7.153   0.381 -21.504  0.00  0.00     0.181 C 
ENDBRANCH   1  30
TORSDOF 5
