REMARK  7 active torsions:
REMARK  status: ('A' for Active; 'I' for Inactive)
REMARK    1  A    between atoms: C_2  and  C_3 
REMARK    2  A    between atoms: C_2  and  C_19 
REMARK    3  A    between atoms: C_3  and  C_4 
REMARK    4  A    between atoms: C_4  and  C_5 
REMARK    5  A    between atoms: C_5  and  C_6 
REMARK    6  A    between atoms: C_6  and  N_7 
REMARK    7  A    between atoms: N_10  and  C_11 
ROOT
ATOM      1  C   UNL d   1       9.016   6.151 -10.965  0.00  0.00     0.036 C 
ENDROOT
BRANCH   1   2
ATOM      2  C   UNL d   1       9.434   5.399 -12.210  0.00  0.00     0.010 C 
BRANCH   2   3
ATOM      3  C   UNL d   1       8.302   4.604 -12.902  0.00  0.00     0.071 C 
BRANCH   3   4
ATOM      4  C   UNL d   1       8.747   3.635 -14.015  0.00  0.00     0.197 C 
ATOM      5  O   UNL d   1       8.086   2.622 -14.244  0.00  0.00    -0.289 OA
BRANCH   4   6
ATOM      6  C   UNL d   1       9.965   3.936 -14.832  0.00  0.00     0.145 A 
ATOM      7  S   UNL d   1      10.627   2.714 -15.920  0.00  0.00    -0.064 SA
ATOM      8  C   UNL d   1      11.908   3.844 -16.367  0.00  0.00     0.049 A 
ATOM      9  C   UNL d   1      11.734   5.051 -15.653  0.00  0.00     0.088 A 
ATOM     10  C   UNL d   1      12.983   3.684 -17.263  0.00  0.00     0.008 A 
ATOM     11  N   UNL d   1      10.627   5.094 -14.805  0.00  0.00    -0.236 NA
ATOM     12  C   UNL d   1      12.665   6.091 -15.829  0.00  0.00     0.020 A 
ATOM     13  C   UNL d   1      13.748   5.939 -16.717  0.00  0.00     0.002 A 
ATOM     14  C   UNL d   1      13.904   4.739 -17.439  0.00  0.00     0.001 A 
ENDBRANCH   4   6
ENDBRANCH   3   4
ENDBRANCH   2   3
ENDBRANCH   1   2
BRANCH   1  15
ATOM     15  C   UNL d   1      10.194   6.992 -10.420  0.00  0.00     0.250 C 
BRANCH  15  16
ATOM     16  N   UNL d   1       9.899   7.597  -9.127  0.00  0.00     0.141 N 
ATOM     17  C   UNL d   1      10.980   8.517  -8.756  0.00  0.00     0.274 C 
ATOM     18  C   UNL d   1      10.654   9.196  -7.411  0.00  0.00     0.137 C 
ATOM     19  N   UNL d   1      10.411   8.189  -6.388  0.00  0.00    -0.344 N 
ATOM     20  C   UNL d   1       9.414   7.184  -6.742  0.00  0.00     0.137 C 
ATOM     21  C   UNL d   1       9.773   6.561  -8.094  0.00  0.00     0.274 C 
BRANCH  19  22
ATOM     22  C   UNL d   1      11.086   8.191  -5.173  0.00  0.00     0.056 A 
ATOM     23  C   UNL d   1      11.394   9.419  -4.536  0.00  0.00     0.017 A 
ATOM     24  C   UNL d   1      12.047   9.440  -3.294  0.00  0.00     0.002 A 
ATOM     25  C   UNL d   1      12.430   8.239  -2.673  0.00  0.00     0.000 A 
ATOM     26  C   UNL d   1      12.134   7.008  -3.292  0.00  0.00     0.002 A 
ATOM     27  C   UNL d   1      11.459   6.984  -4.525  0.00  0.00     0.017 A 
ENDBRANCH  19  22
ENDBRANCH  15  16
ENDBRANCH   1  15
TORSDOF 7
