REMARK  12 active torsions:
REMARK  status: ('A' for Active; 'I' for Inactive)
REMARK    1  A    between atoms: C_2  and  C_3 
REMARK    2  A    between atoms: C_3  and  N_4 
REMARK    3  A    between atoms: N_4  and  C_5 
REMARK    4  A    between atoms: N_4  and  C_24 
REMARK    5  A    between atoms: C_5  and  C_6 
REMARK    6  A    between atoms: C_6  and  C_7 
REMARK    7  A    between atoms: C_7  and  C_8 
REMARK    8  A    between atoms: C_8  and  N_9 
REMARK       I    between atoms: N_9  and  C_10 
REMARK    9  A    between atoms: C_10  and  C_12 
REMARK   10  A    between atoms: C_15  and  C_16 
REMARK   11  A    between atoms: C_24  and  C_25 
REMARK   12  A    between atoms: C_27  and  C_28 
ROOT
ATOM      1  C   UNL d   1       8.980   4.517 -14.104  0.00  0.00     0.037 C 
ENDROOT
BRANCH   1   2
ATOM      2  C   UNL d   1      10.005   3.663 -14.859  0.00  0.00     0.250 C 
BRANCH   2   3
ATOM      3  N   UNL d   1       9.489   3.250 -16.161  0.00  0.00     0.137 N 
BRANCH   3   4
ATOM      4  C   UNL d   1       9.495   4.322 -17.169  0.00  0.00     0.250 C 
BRANCH   4   5
ATOM      5  C   UNL d   1      10.909   4.785 -17.592  0.00  0.00     0.035 C 
ATOM      6  C   UNL d   1      10.890   5.917 -18.611  0.00  0.00     0.002 C 
ENDBRANCH   4   5
ENDBRANCH   3   4
BRANCH   3   7
ATOM      7  C   UNL d   1      10.206   2.089 -16.671  0.00  0.00     0.251 C 
BRANCH   7   8
ATOM      8  C   UNL d   1       9.824   0.800 -15.954  0.00  0.00     0.038 A 
ATOM      9  C   UNL d   1       9.932  -0.519 -16.692  0.00  0.00     0.024 A 
ATOM     10  C   UNL d   1       8.574   0.052 -16.346  0.00  0.00     0.007 A 
BRANCH   9  11
ATOM     11  C   UNL d   1      10.421  -0.548 -18.117  0.00  0.00    -0.022 A 
ATOM     12  C   UNL d   1       9.517  -0.804 -19.160  0.00  0.00    -0.002 A 
ATOM     13  C   UNL d   1       9.944  -0.744 -20.502  0.00  0.00     0.029 A 
ATOM     14  C   UNL d   1      11.283  -0.418 -20.798  0.00  0.00     0.140 A 
ATOM     15  C   UNL d   1      12.196  -0.170 -19.759  0.00  0.00     0.029 A 
ATOM     16  F   UNL d   1      11.692  -0.360 -22.088  0.00  0.00    -0.204 F 
ATOM     17  C   UNL d   1      11.762  -0.227 -18.416  0.00  0.00    -0.002 A 
ENDBRANCH   9  11
ENDBRANCH   7   8
ENDBRANCH   3   7
ENDBRANCH   2   3
ENDBRANCH   1   2
BRANCH   1  18
ATOM     18  C   UNL d   1       9.563   4.976 -12.773  0.00  0.00     0.029 C 
BRANCH  18  19
ATOM     19  C   UNL d   1       8.574   5.792 -11.939  0.00  0.00     0.129 C 
BRANCH  19  20
ATOM     20  N   UNL d   1       9.177   6.181 -10.672  0.00  0.00    -0.234 NA
ATOM     21  C   UNL d   1       9.724   7.368 -10.388  0.00  0.00     0.275 C 
ATOM     22  O   UNL d   1       9.867   8.274 -11.218  0.00  0.00    -0.266 OA
BRANCH  21  23
ATOM     23  C   UNL d   1      10.173   7.548  -8.964  0.00  0.00     0.058 A 
ATOM     24  C   UNL d   1      11.263   8.387  -8.665  0.00  0.00     0.005 A 
ATOM     25  C   UNL d   1      11.678   8.570  -7.332  0.00  0.00     0.002 A 
ATOM     26  C   UNL d   1      11.010   7.925  -6.269  0.00  0.00     0.018 A 
ATOM     27  C   UNL d   1       9.899   7.109  -6.569  0.00  0.00     0.002 A 
ATOM     28  C   UNL d   1       9.468   6.931  -7.899  0.00  0.00     0.005 A 
BRANCH  26  29
ATOM     29  C   UNL d   1      11.459   8.093  -4.881  0.00  0.00     0.081 A 
ATOM     30  N   UNL d   1      11.475   9.361  -4.410  0.00  0.00    -0.244 NA
ATOM     31  C   UNL d   1      11.869   9.571  -3.142  0.00  0.00     0.099 A 
ATOM     32  C   UNL d   1      12.260   8.536  -2.270  0.00  0.00     0.021 A 
ATOM     33  C   UNL d   1      12.253   7.216  -2.755  0.00  0.00     0.003 A 
ATOM     34  C   UNL d   1      11.847   6.990  -4.082  0.00  0.00     0.019 A 
ENDBRANCH  26  29
ENDBRANCH  21  23
ENDBRANCH  19  20
ENDBRANCH  18  19
ENDBRANCH   1  18
TORSDOF 12
