REMARK  3 active torsions:
REMARK  status: ('A' for Active; 'I' for Inactive)
REMARK    1  A    between atoms: N_14  and  C_15 
REMARK    2  A    between atoms: C_15  and  C_16 
REMARK    3  A    between atoms: C_19  and  N_20 
ROOT
ATOM      1  O   UNL d   1      10.169   3.971 -13.263  0.00  0.00    -0.291 OA
ATOM      2  C   UNL d   1       8.996   4.177 -12.969  0.00  0.00     0.172 C 
ATOM      3  C   UNL d   1       7.907   3.298 -13.463  0.00  0.00     0.031 A 
ATOM      4  C   UNL d   1       8.215   2.145 -14.254  0.00  0.00     0.003 A 
ATOM      5  C   UNL d   1       7.188   1.226 -14.571  0.00  0.00     0.000 A 
ATOM      6  C   UNL d   1       5.880   1.412 -14.081  0.00  0.00    -0.000 A 
ATOM      7  C   UNL d   1       5.588   2.534 -13.265  0.00  0.00    -0.004 A 
ATOM      8  C   UNL d   1       6.578   3.491 -13.012  0.00  0.00    -0.019 A 
ATOM      9  C   UNL d   1       6.196   4.609 -12.091  0.00  0.00     0.027 C 
ATOM     10  C   UNL d   1       7.175   5.766 -12.190  0.00  0.00     0.012 C 
ATOM     11  C   UNL d   1       8.623   5.285 -11.928  0.00  0.00     0.060 C 
ATOM     12  C   UNL d   1       9.562   6.445 -12.122  0.00  0.00     0.043 C 
ATOM     13  C   UNL d   1       9.458   7.571 -11.108  0.00  0.00     0.251 C 
ATOM     14  N   UNL d   1       9.682   7.050  -9.746  0.00  0.00     0.141 N 
ATOM     15  C   UNL d   1       8.739   5.969  -9.439  0.00  0.00     0.251 C 
ATOM     16  C   UNL d   1       8.881   4.811 -10.460  0.00  0.00     0.043 C 
ENDROOT
BRANCH  14  17
ATOM     17  C   UNL d   1       9.511   8.148  -8.790  0.00  0.00     0.277 C 
BRANCH  17  18
ATOM     18  C   UNL d   1      10.187   7.968  -7.460  0.00  0.00     0.011 C 
ATOM     19  C   UNL d   1      11.219   8.873  -7.123  0.00  0.00    -0.001 C 
ATOM     20  C   UNL d   1      11.864   8.757  -5.877  0.00  0.00     0.023 C 
ATOM     21  C   UNL d   1      11.501   7.694  -5.001  0.00  0.00     0.127 C 
ATOM     22  C   UNL d   1      10.455   6.791  -5.348  0.00  0.00     0.023 C 
ATOM     23  C   UNL d   1       9.743   6.980  -6.550  0.00  0.00    -0.001 C 
BRANCH  21  24
ATOM     24  N   UNL d   1      12.211   7.529  -3.727  0.00  0.00    -0.114 N 
ATOM     25  O   UNL d   1      12.153   6.415  -3.197  0.00  0.00    -0.532 OA
ATOM     26  O   UNL d   1      12.802   8.484  -3.265  0.00  0.00    -0.532 OA
ENDBRANCH  21  24
ENDBRANCH  17  18
ENDBRANCH  14  17
TORSDOF 3
