REMARK  7 active torsions:
REMARK  status: ('A' for Active; 'I' for Inactive)
REMARK    1  A    between atoms: C_6  and  C_7 
REMARK    2  A    between atoms: C_10  and  S_11 
REMARK    3  A    between atoms: S_11  and  C_12 
REMARK    4  A    between atoms: C_12  and  C_13 
REMARK    5  A    between atoms: C_13  and  C_14 
REMARK    6  A    between atoms: C_14  and  N_15 
REMARK    7  A    between atoms: C_19  and  C_20 
ROOT
ATOM      1  C   UNL d   1      13.301   3.710 -16.894  0.00  0.00     0.047 C 
ENDROOT
BRANCH   1   2
ATOM      2  C   UNL d   1      14.278   4.389 -17.855  0.00  0.00     0.067 C 
BRANCH   2   3
ATOM      3  S   UNL d   1      14.370   6.172 -17.512  0.00  0.00    -0.075 SA
BRANCH   3   4
ATOM      4  C   UNL d   1      16.114   6.389 -17.501  0.00  0.00     0.193 A 
ATOM      5  N   UNL d   1      16.907   5.964 -16.516  0.00  0.00    -0.122 NA
ATOM      6  N   UNL d   1      18.166   6.390 -16.851  0.00  0.00    -0.126 NA
ATOM      7  C   UNL d   1      18.035   7.049 -18.010  0.00  0.00     0.191 A 
ATOM      8  N   UNL d   1      16.765   7.071 -18.462  0.00  0.00    -0.287 N 
ATOM      9  C   UNL d   1      16.236   7.676 -19.680  0.00  0.00     0.134 C 
BRANCH   7  10
ATOM     10  C   UNL d   1      19.182   7.636 -18.675  0.00  0.00     0.151 A 
ATOM     11  C   UNL d   1      19.504   8.922 -19.038  0.00  0.00     0.087 A 
ATOM     12  C   UNL d   1      18.763  10.210 -18.842  0.00  0.00     0.054 C 
ATOM     13  N   UNL d   1      20.746   8.888 -19.657  0.00  0.00    -0.221 NA
ATOM     14  C   UNL d   1      21.100   7.605 -19.641  0.00  0.00     0.225 A 
ATOM     15  O   UNL d   1      20.195   6.792 -19.039  0.00  0.00    -0.282 OA
ENDBRANCH   7  10
ENDBRANCH   3   4
ENDBRANCH   2   3
ENDBRANCH   1   2
BRANCH   1  16
ATOM     16  C   UNL d   1      11.863   4.283 -16.918  0.00  0.00     0.251 C 
BRANCH  16  17
ATOM     17  N   UNL d   1      11.064   3.864 -15.763  0.00  0.00     0.137 N 
ATOM     18  C   UNL d   1       9.796   4.604 -15.721  0.00  0.00     0.254 C 
ATOM     19  C   UNL d   1       9.344   4.484 -14.272  0.00  0.00     0.052 A 
ATOM     20  C   UNL d   1      10.583   4.189 -13.501  0.00  0.00     0.039 A 
ATOM     21  C   UNL d   1       9.814   5.443 -13.190  0.00  0.00     0.008 A 
ATOM     22  C   UNL d   1      11.713   4.162 -14.484  0.00  0.00     0.251 C 
BRANCH  19  23
ATOM     23  C   UNL d   1       8.126   3.623 -14.062  0.00  0.00    -0.020 A 
ATOM     24  C   UNL d   1       8.034   2.349 -14.661  0.00  0.00     0.007 A 
ATOM     25  C   UNL d   1       6.893   1.544 -14.447  0.00  0.00     0.057 A 
ATOM     26  C   UNL d   1       5.857   2.009 -13.615  0.00  0.00     0.011 A 
ATOM     27 CL   UNL d   1       6.756  -0.012 -15.175  0.00  0.00    -0.082 Cl
ATOM     28  C   UNL d   1       5.937   3.283 -13.022  0.00  0.00     0.001 A 
ATOM     29  C   UNL d   1       7.069   4.085 -13.247  0.00  0.00    -0.004 A 
ENDBRANCH  19  23
ENDBRANCH  16  17
ENDBRANCH   1  16
TORSDOF 7
