REMARK  11 active torsions:
REMARK  status: ('A' for Active; 'I' for Inactive)
REMARK    1  A    between atoms: C_2  and  C_3 
REMARK    2  A    between atoms: C_3  and  N_4 
REMARK    3  A    between atoms: N_4  and  C_5 
REMARK    4  A    between atoms: N_4  and  C_21 
REMARK    5  A    between atoms: C_5  and  C_6 
REMARK    6  A    between atoms: C_6  and  C_7 
REMARK    7  A    between atoms: C_7  and  C_8 
REMARK    8  A    between atoms: C_8  and  N_9 
REMARK       I    between atoms: N_9  and  C_10 
REMARK    9  A    between atoms: C_10  and  C_12 
REMARK   10  A    between atoms: C_21  and  C_22 
REMARK   11  A    between atoms: C_24  and  C_25 
ROOT
ATOM      1  C   UNL d   1       9.861   4.259 -12.331  0.00  0.00     0.250 C 
ENDROOT
BRANCH   1   2
ATOM      2  N   UNL d   1       9.733   4.284 -13.783  0.00  0.00     0.137 N 
BRANCH   2   3
ATOM      3  C   UNL d   1      10.427   3.149 -14.410  0.00  0.00     0.250 C 
BRANCH   3   4
ATOM      4  C   UNL d   1      11.745   3.568 -15.058  0.00  0.00     0.035 C 
ATOM      5  C   UNL d   1      12.153   2.566 -16.149  0.00  0.00     0.002 C 
ENDBRANCH   3   4
ENDBRANCH   2   3
BRANCH   2   6
ATOM      6  C   UNL d   1       8.327   4.301 -14.169  0.00  0.00     0.251 C 
BRANCH   6   7
ATOM      7  C   UNL d   1       7.577   3.032 -13.763  0.00  0.00     0.038 A 
ATOM      8  C   UNL d   1       6.259   2.677 -14.379  0.00  0.00     0.024 A 
ATOM      9  C   UNL d   1       6.297   3.131 -12.936  0.00  0.00     0.007 A 
BRANCH   8  10
ATOM     10  C   UNL d   1       6.003   1.247 -14.786  0.00  0.00    -0.022 A 
ATOM     11  C   UNL d   1       6.570   0.717 -15.965  0.00  0.00    -0.002 A 
ATOM     12  C   UNL d   1       6.232  -0.592 -16.373  0.00  0.00     0.029 A 
ATOM     13  C   UNL d   1       5.337  -1.364 -15.610  0.00  0.00     0.140 A 
ATOM     14  C   UNL d   1       4.750  -0.824 -14.448  0.00  0.00     0.029 A 
ATOM     15  F   UNL d   1       5.045  -2.628 -15.978  0.00  0.00    -0.204 F 
ATOM     16  C   UNL d   1       5.094   0.470 -14.039  0.00  0.00    -0.002 A 
ENDBRANCH   8  10
ENDBRANCH   6   7
ENDBRANCH   2   6
ENDBRANCH   1   2
BRANCH   1  17
ATOM     17  C   UNL d   1       9.484   5.597 -11.653  0.00  0.00     0.037 C 
BRANCH  17  18
ATOM     18  C   UNL d   1       9.838   5.642 -10.155  0.00  0.00     0.029 C 
BRANCH  18  19
ATOM     19  C   UNL d   1       9.049   6.684  -9.382  0.00  0.00     0.129 C 
BRANCH  19  20
ATOM     20  N   UNL d   1       9.603   6.861  -8.046  0.00  0.00    -0.233 NA
ATOM     21  C   UNL d   1      10.276   7.941  -7.635  0.00  0.00     0.293 C 
ATOM     22  O   UNL d   1      10.425   8.972  -8.289  0.00  0.00    -0.264 OA
BRANCH  21  23
ATOM     23  C   UNL d   1      10.800   7.861  -6.274  0.00  0.00     0.139 A 
ATOM     24  N   UNL d   1      10.944   9.036  -5.565  0.00  0.00    -0.241 NA
ATOM     25  C   UNL d   1      11.466   8.775  -4.322  0.00  0.00     0.082 A 
ATOM     26  C   UNL d   1      11.691   7.365  -4.281  0.00  0.00     0.019 A 
ATOM     27  C   UNL d   1      11.742   9.604  -3.233  0.00  0.00     0.019 A 
ATOM     28  C   UNL d   1      11.279   6.813  -5.531  0.00  0.00     0.025 A 
ATOM     29  C   UNL d   1      12.235   6.823  -3.096  0.00  0.00     0.002 A 
ATOM     30  C   UNL d   1      12.524   7.661  -2.008  0.00  0.00     0.000 A 
ATOM     31  C   UNL d   1      12.257   9.032  -2.064  0.00  0.00     0.002 A 
ENDBRANCH  21  23
ENDBRANCH  19  20
ENDBRANCH  18  19
ENDBRANCH  17  18
ENDBRANCH   1  17
TORSDOF 11
