REMARK  7 active torsions:
REMARK  status: ('A' for Active; 'I' for Inactive)
REMARK    1  A    between atoms: O_2  and  C_3 
REMARK    2  A    between atoms: C_3  and  C_5 
REMARK    3  A    between atoms: C_8  and  C_9 
REMARK    4  A    between atoms: C_9  and  C_10 
REMARK    5  A    between atoms: C_10  and  C_11 
REMARK    6  A    between atoms: N_19  and  C_20 
REMARK    7  A    between atoms: C_20  and  C_21 
ROOT
ATOM      1  C   UNL d   1       8.437   0.543 -17.447  0.00  0.00     0.121 A 
ATOM      2  N   UNL d   1       7.526   0.024 -18.271  0.00  0.00    -0.231 NA
ATOM      3  C   UNL d   1       6.523  -0.369 -17.408  0.00  0.00     0.098 A 
ATOM      4  C   UNL d   1       5.252  -0.955 -17.678  0.00  0.00     0.021 A 
ATOM      5  C   UNL d   1       4.351  -1.223 -16.621  0.00  0.00     0.002 A 
ATOM      6  C   UNL d   1       4.733  -0.970 -15.284  0.00  0.00     0.002 A 
ATOM      7  C   UNL d   1       6.005  -0.476 -15.003  0.00  0.00     0.019 A 
ATOM      8  C   UNL d   1       6.877  -0.104 -16.059  0.00  0.00     0.079 A 
ATOM      9  N   UNL d   1       8.122   0.544 -16.127  0.00  0.00    -0.311 N 
ENDROOT
BRANCH   1  10
ATOM     10  C   UNL d   1       9.758   1.036 -17.970  0.00  0.00     0.069 C 
BRANCH  10  11
ATOM     11  C   UNL d   1      10.941   0.111 -17.616  0.00  0.00     0.034 C 
BRANCH  11  12
ATOM     12  C   UNL d   1      12.175   0.394 -18.456  0.00  0.00    -0.022 A 
ATOM     13  C   UNL d   1      12.762   1.676 -18.459  0.00  0.00    -0.004 A 
ATOM     14  C   UNL d   1      13.904   1.929 -19.246  0.00  0.00     0.005 A 
ATOM     15  C   UNL d   1      14.478   0.896 -20.033  0.00  0.00     0.063 A 
ATOM     16  C   UNL d   1      13.880  -0.385 -20.020  0.00  0.00     0.005 A 
ATOM     17  C   UNL d   1      12.739  -0.631 -19.235  0.00  0.00    -0.004 A 
BRANCH  15  18
ATOM     18  C   UNL d   1      15.694   1.124 -20.868  0.00  0.00     0.296 C 
ATOM     19  O   UNL d   1      16.258   0.232 -21.506  0.00  0.00    -0.259 OA
BRANCH  18  20
ATOM     20  O   UNL d   1      16.108   2.404 -20.849  0.00  0.00    -0.296 OA
ATOM     21  C   UNL d   1      17.233   2.796 -21.619  0.00  0.00     0.185 C 
ENDBRANCH  18  20
ENDBRANCH  15  18
ENDBRANCH  11  12
ENDBRANCH  10  11
ENDBRANCH   1  10
BRANCH   9  22
ATOM     22  C   UNL d   1       8.878   1.105 -15.007  0.00  0.00     0.134 C 
BRANCH  22  23
ATOM     23  C   UNL d   1       8.223   2.342 -14.382  0.00  0.00     0.001 A 
ATOM     24  C   UNL d   1       9.037   3.471 -14.057  0.00  0.00    -0.002 A 
ATOM     25  C   UNL d   1       8.431   4.592 -13.437  0.00  0.00     0.011 A 
ATOM     26  C   UNL d   1       7.056   4.585 -13.106  0.00  0.00     0.058 A 
ATOM     27  C   UNL d   1       6.272   3.455 -13.424  0.00  0.00     0.011 A 
ATOM     28 CL   UNL d   1       6.276   5.963 -12.372  0.00  0.00    -0.082 Cl
ATOM     29  C   UNL d   1       6.833   2.347 -14.064  0.00  0.00    -0.002 A 
ENDBRANCH  22  23
ENDBRANCH   9  22
TORSDOF 7
