REMARK  3 active torsions:
REMARK  status: ('A' for Active; 'I' for Inactive)
REMARK    1  A    between atoms: C_3  and  C_4 
REMARK    2  A    between atoms: C_4  and  N_5 
REMARK    3  A    between atoms: C_8  and  C_9 
ROOT
ATOM      1  N   UNL d   1       8.418   4.839 -10.633  0.00  0.00     0.145 N 
ATOM      2  C   UNL d   1       9.826   4.661 -10.322  0.00  0.00     0.251 C 
ATOM      3  C   UNL d   1      10.020   4.421  -8.832  0.00  0.00     0.041 C 
ATOM      4  C   UNL d   1       9.505   5.566  -7.981  0.00  0.00     0.045 C 
ATOM      5  C   UNL d   1       8.043   5.664  -8.303  0.00  0.00     0.041 C 
ATOM      6  C   UNL d   1       7.866   5.951  -9.836  0.00  0.00     0.251 C 
ENDROOT
BRANCH   1   7
ATOM      7  C   UNL d   1       8.278   5.214 -12.044  0.00  0.00     0.313 C 
BRANCH   7   8
ATOM      8  C   UNL d   1       8.668   4.135 -13.014  0.00  0.00     0.154 A 
ATOM      9  N   UNL d   1       7.742   3.395 -13.662  0.00  0.00    -0.312 N 
ATOM     10  C   UNL d   1       6.299   3.546 -13.611  0.00  0.00     0.132 C 
ATOM     11  C   UNL d   1       8.458   2.438 -14.379  0.00  0.00     0.079 A 
ATOM     12  C   UNL d   1       9.822   2.712 -14.075  0.00  0.00     0.099 A 
ATOM     13  C   UNL d   1       8.091   1.378 -15.231  0.00  0.00     0.019 A 
ATOM     14  N   UNL d   1       9.942   3.814 -13.258  0.00  0.00    -0.229 NA
ATOM     15  C   UNL d   1      10.812   1.861 -14.611  0.00  0.00     0.021 A 
ATOM     16  C   UNL d   1      10.455   0.800 -15.470  0.00  0.00     0.002 A 
ATOM     17  C   UNL d   1       9.100   0.565 -15.788  0.00  0.00     0.002 A 
ENDBRANCH   7   8
ENDBRANCH   1   7
BRANCH   4  18
ATOM     18  C   UNL d   1      10.286   6.852  -8.057  0.00  0.00     0.067 A 
ATOM     19  C   UNL d   1      10.816   7.527  -6.877  0.00  0.00     0.022 A 
ATOM     20  C   UNL d   1      11.485   8.721  -7.284  0.00  0.00     0.049 A 
ATOM     21  C   UNL d   1      10.825   7.261  -5.474  0.00  0.00     0.002 A 
ATOM     22  S   UNL d   1      11.367   8.836  -9.020  0.00  0.00     0.013 SA
ATOM     23  C   UNL d   1      12.134   9.580  -6.385  0.00  0.00     0.008 A 
ATOM     24  N   UNL d   1      10.474   7.467  -9.208  0.00  0.00    -0.214 NA
ATOM     25  C   UNL d   1      12.137   9.283  -5.009  0.00  0.00     0.001 A 
ATOM     26  C   UNL d   1      11.475   8.116  -4.551  0.00  0.00     0.000 A 
ENDBRANCH   4  18
TORSDOF 3
