REMARK  5 active torsions:
REMARK  status: ('A' for Active; 'I' for Inactive)
REMARK    1  A    between atoms: O_2  and  C_3 
REMARK    2  A    between atoms: C_3  and  C_5 
REMARK    3  A    between atoms: C_16  and  C_17 
REMARK    4  A    between atoms: C_17  and  N_18 
REMARK    5  A    between atoms: N_28  and  C_29 
ROOT
ATOM      1  C   UNL d   1      12.143   5.023 -15.852  0.00  0.00     0.283 C 
ENDROOT
BRANCH   1   2
ATOM      2  C   UNL d   1      10.777   4.898 -15.148  0.00  0.00     0.185 C 
ATOM      3  C   UNL d   1      10.152   3.504 -15.327  0.00  0.00     0.181 C 
ATOM      4  O   UNL d   1       8.834   3.565 -14.811  0.00  0.00    -0.326 OA
ATOM      5  C   UNL d   1       8.679   4.167 -13.594  0.00  0.00     0.116 A 
ATOM      6  C   UNL d   1       9.684   4.971 -13.023  0.00  0.00     0.118 A 
ATOM      7  C   UNL d   1       7.464   3.935 -12.939  0.00  0.00     0.028 A 
ATOM      8  C   UNL d   1       9.489   5.509 -11.668  0.00  0.00     0.044 A 
ATOM      9  O   UNL d   1      10.866   5.195 -13.736  0.00  0.00    -0.327 OA
ATOM     10  C   UNL d   1      10.162   6.328 -10.652  0.00  0.00     0.028 A 
ATOM     11  C   UNL d   1       8.254   5.137 -11.039  0.00  0.00     0.084 A 
ATOM     12  C   UNL d   1       9.367   6.383  -9.509  0.00  0.00     0.144 A 
ATOM     13  N   UNL d   1       8.248   5.628  -9.751  0.00  0.00    -0.240 NA
ATOM     14  C   UNL d   1       7.239   4.393 -11.649  0.00  0.00     0.021 A 
BRANCH  12  15
ATOM     15  C   UNL d   1       9.503   7.043  -8.226  0.00  0.00     0.314 C 
ATOM     16  O   UNL d   1       8.727   6.768  -7.298  0.00  0.00    -0.257 OA
BRANCH  15  17
ATOM     17  O   UNL d   1      10.510   7.948  -8.144  0.00  0.00    -0.295 OA
ATOM     18  C   UNL d   1      10.668   8.677  -6.926  0.00  0.00     0.185 C 
ENDBRANCH  15  17
ENDBRANCH  12  15
ENDBRANCH   1   2
BRANCH   1  19
ATOM     19  N   UNL d   1      12.060   5.599 -17.200  0.00  0.00     0.140 N 
ATOM     20  C   UNL d   1      13.402   6.050 -17.613  0.00  0.00     0.253 C 
ATOM     21  C   UNL d   1      13.348   6.696 -19.014  0.00  0.00     0.065 C 
ATOM     22  C   UNL d   1      12.796   5.729 -20.087  0.00  0.00     0.142 C 
ATOM     23  C   UNL d   1      11.437   5.194 -19.568  0.00  0.00     0.065 C 
ATOM     24  N   UNL d   1      12.709   6.381 -21.397  0.00  0.00    -0.323 N 
ATOM     25  C   UNL d   1      13.793   4.591 -20.374  0.00  0.00     0.271 C 
ATOM     26  C   UNL d   1      11.525   4.608 -18.150  0.00  0.00     0.253 C 
ATOM     27  C   UNL d   1      13.711   5.849 -22.318  0.00  0.00     0.234 C 
ATOM     28  N   UNL d   1      14.267   4.715 -21.602  0.00  0.00    -0.211 NA
ATOM     29  O   UNL d   1      14.109   3.686 -19.600  0.00  0.00    -0.269 OA
BRANCH  24  30
ATOM     30  C   UNL d   1      11.498   6.929 -21.885  0.00  0.00     0.058 A 
ATOM     31  C   UNL d   1      10.988   8.110 -21.308  0.00  0.00     0.017 A 
ATOM     32  C   UNL d   1       9.779   8.671 -21.772  0.00  0.00     0.002 A 
ATOM     33  C   UNL d   1       9.073   8.055 -22.820  0.00  0.00     0.000 A 
ATOM     34  C   UNL d   1       9.567   6.870 -23.395  0.00  0.00     0.002 A 
ATOM     35  C   UNL d   1      10.775   6.306 -22.926  0.00  0.00     0.017 A 
ENDBRANCH  24  30
ENDBRANCH   1  19
TORSDOF 5
