REMARK  7 active torsions:
REMARK  status: ('A' for Active; 'I' for Inactive)
REMARK    1  A    between atoms: C_6  and  C_7 
REMARK    2  A    between atoms: C_10  and  S_11 
REMARK    3  A    between atoms: S_11  and  C_12 
REMARK    4  A    between atoms: C_12  and  C_13 
REMARK    5  A    between atoms: C_13  and  C_14 
REMARK    6  A    between atoms: C_14  and  N_15 
REMARK    7  A    between atoms: C_23  and  C_24 
ROOT
ATOM      1  N   UNL d   1      11.502   4.317 -16.639  0.00  0.00     0.138 N 
ATOM      2  C   UNL d   1      10.780   5.309 -15.832  0.00  0.00     0.255 C 
ATOM      3  C   UNL d   1      10.507   4.827 -14.401  0.00  0.00     0.061 C 
ATOM      4  C   UNL d   1       9.261   3.985 -14.286  0.00  0.00    -0.022 A 
ATOM      5  C   UNL d   1       8.192   4.449 -13.473  0.00  0.00    -0.003 A 
ATOM      6  C   UNL d   1       7.007   3.692 -13.346  0.00  0.00     0.021 A 
ATOM      7  C   UNL d   1       6.881   2.466 -14.022  0.00  0.00     0.106 A 
ATOM      8  N   UNL d   1       5.881   1.515 -14.046  0.00  0.00    -0.217 NA
ATOM      9  C   UNL d   1       6.340   0.607 -14.922  0.00  0.00     0.256 A 
ATOM     10  O   UNL d   1       7.589   0.845 -15.431  0.00  0.00    -0.285 OA
ATOM     11  C   UNL d   1       7.953   2.041 -14.847  0.00  0.00     0.115 A 
ATOM     12  C   UNL d   1       9.140   2.775 -14.992  0.00  0.00     0.000 A 
ATOM     13  C   UNL d   1      10.271   2.259 -15.879  0.00  0.00     0.063 C 
ATOM     14  C   UNL d   1      10.634   3.203 -17.039  0.00  0.00     0.255 C 
ENDROOT
BRANCH   1  15
ATOM     15  C   UNL d   1      12.015   4.940 -17.861  0.00  0.00     0.251 C 
BRANCH  15  16
ATOM     16  C   UNL d   1      13.134   5.963 -17.581  0.00  0.00     0.047 C 
BRANCH  16  17
ATOM     17  C   UNL d   1      13.295   6.972 -18.735  0.00  0.00     0.067 C 
BRANCH  17  18
ATOM     18  S   UNL d   1      14.358   8.345 -18.233  0.00  0.00    -0.075 SA
BRANCH  18  19
ATOM     19  C   UNL d   1      15.919   7.568 -18.456  0.00  0.00     0.193 A 
ATOM     20  N   UNL d   1      16.185   6.295 -18.162  0.00  0.00    -0.122 NA
ATOM     21  N   UNL d   1      17.489   6.106 -18.521  0.00  0.00    -0.126 NA
ATOM     22  C   UNL d   1      17.929   7.286 -18.960  0.00  0.00     0.191 A 
ATOM     23  N   UNL d   1      16.976   8.246 -18.948  0.00  0.00    -0.287 N 
ATOM     24  C   UNL d   1      17.049   9.651 -19.335  0.00  0.00     0.134 C 
BRANCH  22  25
ATOM     25  C   UNL d   1      19.313   7.426 -19.414  0.00  0.00     0.151 A 
ATOM     26  C   UNL d   1      20.288   8.376 -19.233  0.00  0.00     0.087 A 
ATOM     27  C   UNL d   1      20.276   9.672 -18.477  0.00  0.00     0.054 C 
ATOM     28  N   UNL d   1      21.426   7.956 -19.909  0.00  0.00    -0.221 NA
ATOM     29  C   UNL d   1      21.084   6.788 -20.459  0.00  0.00     0.225 A 
ATOM     30  O   UNL d   1      19.813   6.405 -20.179  0.00  0.00    -0.282 OA
ENDBRANCH  22  25
ENDBRANCH  18  19
ENDBRANCH  17  18
ENDBRANCH  16  17
ENDBRANCH  15  16
ENDBRANCH   1  15
BRANCH   9  31
ATOM     31  C   UNL d   1       5.626  -0.638 -15.348  0.00  0.00     0.458 C 
ATOM     32  F   UNL d   1       6.050  -1.050 -16.545  0.00  0.00    -0.163 F 
ATOM     33  F   UNL d   1       5.831  -1.598 -14.450  0.00  0.00    -0.163 F 
ATOM     34  F   UNL d   1       4.314  -0.422 -15.435  0.00  0.00    -0.163 F 
ENDBRANCH   9  31
TORSDOF 7
