REMARK  2 active torsions:
REMARK  status: ('A' for Active; 'I' for Inactive)
REMARK    1  A    between atoms: O_2  and  C_3 
REMARK    2  A    between atoms: C_8  and  O_9 
ROOT
ATOM      1  C   UNL d   1       7.036   4.030 -13.047  0.00  0.00     0.116 A 
ATOM      2  C   UNL d   1       6.553   2.973 -13.826  0.00  0.00     0.026 A 
ATOM      3  C   UNL d   1       7.345   2.374 -14.821  0.00  0.00    -0.002 A 
ATOM      4  C   UNL d   1       8.663   2.832 -15.031  0.00  0.00    -0.020 A 
ATOM      5  C   UNL d   1       9.173   3.880 -14.238  0.00  0.00     0.031 A 
ATOM      6  C   UNL d   1       8.392   4.460 -13.218  0.00  0.00     0.114 A 
ATOM      7  C   UNL d   1      10.604   4.345 -14.439  0.00  0.00     0.279 C 
ATOM      8  N   UNL d   1      11.157   4.000 -15.746  0.00  0.00     0.144 N 
ATOM      9  C   UNL d   1      12.550   4.429 -15.793  0.00  0.00     0.256 C 
ATOM     10  C   UNL d   1      13.059   4.273 -17.233  0.00  0.00     0.061 C 
ATOM     11  C   UNL d   1      12.836   2.872 -17.766  0.00  0.00    -0.020 A 
ATOM     12  C   UNL d   1      13.616   2.408 -18.850  0.00  0.00     0.022 A 
ATOM     13  C   UNL d   1      13.403   1.095 -19.296  0.00  0.00     0.119 A 
ATOM     14  C   UNL d   1      12.464   0.278 -18.706  0.00  0.00     0.119 A 
ATOM     15  C   UNL d   1      11.672   0.713 -17.634  0.00  0.00     0.024 A 
ATOM     16  C   UNL d   1      11.851   2.039 -17.162  0.00  0.00     0.007 A 
ATOM     17  C   UNL d   1      11.040   2.550 -15.964  0.00  0.00     0.246 C 
ATOM     18  C   UNL d   1       9.529   2.234 -16.126  0.00  0.00     0.064 C 
ATOM     19  O   UNL d   1      12.487  -0.941 -19.300  0.00  0.00    -0.300 OA
ATOM     20  C   UNL d   1      13.464  -0.863 -20.304  0.00  0.00     0.304 A 
ATOM     21  O   UNL d   1      14.040   0.418 -20.285  0.00  0.00    -0.300 OA
ENDROOT
BRANCH   1  22
ATOM     22  O   UNL d   1       6.167   4.556 -12.124  0.00  0.00    -0.326 OA
ATOM     23  C   UNL d   1       5.997   5.971 -12.163  0.00  0.00     0.181 C 
ENDBRANCH   1  22
BRANCH   6  24
ATOM     24  O   UNL d   1       8.980   5.409 -12.427  0.00  0.00    -0.326 OA
ATOM     25  C   UNL d   1       9.094   5.064 -11.054  0.00  0.00     0.181 C 
ENDBRANCH   6  24
TORSDOF 2
