REMARK  8 active torsions:
REMARK  status: ('A' for Active; 'I' for Inactive)
REMARK    1  A    between atoms: O_2  and  C_3 
REMARK    2  A    between atoms: C_9  and  C_10 
REMARK    3  A    between atoms: N_14  and  C_15 
REMARK    4  A    between atoms: C_15  and  C_16 
REMARK    5  A    between atoms: C_16  and  C_17 
REMARK    6  A    between atoms: C_17  and  C_18 
REMARK    7  A    between atoms: C_18  and  N_19 
REMARK    8  A    between atoms: C_22  and  C_23 
ROOT
ATOM      1  C   UNL d   1       9.673   3.751 -13.292  0.00  0.00     0.112 C 
ENDROOT
BRANCH   1   2
ATOM      2  N   UNL d   1      10.338   3.640 -14.595  0.00  0.00    -0.270 N 
ATOM      3  C   UNL d   1       9.800   3.013 -15.655  0.00  0.00     0.240 A 
ATOM      4  C   UNL d   1      10.743   3.058 -16.856  0.00  0.00     0.102 A 
ATOM      5  O   UNL d   1       8.702   2.476 -15.703  0.00  0.00    -0.272 OA
ATOM      6  C   UNL d   1      11.941   3.867 -16.329  0.00  0.00     0.113 A 
ATOM      7  C   UNL d   1      11.546   4.159 -14.876  0.00  0.00     0.243 A 
ATOM      8  O   UNL d   1      12.248   4.795 -14.100  0.00  0.00    -0.272 OA
BRANCH   6   9
ATOM      9  C   UNL d   1      12.193   5.153 -17.084  0.00  0.00     0.007 A 
ATOM     10  C   UNL d   1      11.234   5.987 -17.608  0.00  0.00     0.095 A 
ATOM     11  N   UNL d   1      11.848   7.042 -18.257  0.00  0.00    -0.244 NA
ATOM     12  C   UNL d   1      13.211   6.938 -18.157  0.00  0.00     0.081 A 
ATOM     13  C   UNL d   1      14.220   7.767 -18.643  0.00  0.00     0.021 A 
ATOM     14  C   UNL d   1      13.472   5.743 -17.420  0.00  0.00     0.018 A 
ATOM     15  C   UNL d   1      15.563   7.434 -18.414  0.00  0.00     0.026 A 
ATOM     16  C   UNL d   1      15.886   6.255 -17.679  0.00  0.00     0.094 A 
ATOM     17  C   UNL d   1      14.844   5.433 -17.209  0.00  0.00     0.025 A 
BRANCH  16  18
ATOM     18  O   UNL d   1      17.189   5.873 -17.399  0.00  0.00    -0.328 OA
ATOM     19  C   UNL d   1      18.224   6.723 -17.898  0.00  0.00     0.181 C 
ENDBRANCH  16  18
ENDBRANCH   6   9
ENDBRANCH   1   2
BRANCH   1  20
ATOM     20  C   UNL d   1       8.588   4.858 -13.257  0.00  0.00     0.027 C 
BRANCH  20  21
ATOM     21  C   UNL d   1       8.826   5.887 -12.142  0.00  0.00     0.037 C 
BRANCH  21  22
ATOM     22  C   UNL d   1       8.678   5.303 -10.718  0.00  0.00     0.250 C 
BRANCH  22  23
ATOM     23  N   UNL d   1       9.081   6.236  -9.672  0.00  0.00     0.137 N 
ATOM     24  C   UNL d   1       8.731   5.676  -8.362  0.00  0.00     0.251 C 
ATOM     25  C   UNL d   1       9.058   6.671  -7.232  0.00  0.00     0.040 C 
ATOM     26  C   UNL d   1      10.545   7.057  -7.250  0.00  0.00     0.028 C 
ATOM     27  C   UNL d   1      10.913   7.537  -8.661  0.00  0.00     0.040 C 
ATOM     28  C   UNL d   1      10.517   6.515  -9.713  0.00  0.00     0.251 C 
BRANCH  26  29
ATOM     29  C   UNL d   1      10.855   8.110  -6.218  0.00  0.00    -0.002 A 
ATOM     30  C   UNL d   1      11.395   7.915  -4.903  0.00  0.00     0.015 A 
ATOM     31  C   UNL d   1      11.508   9.197  -4.285  0.00  0.00     0.081 A 
ATOM     32  C   UNL d   1      11.782   6.791  -4.136  0.00  0.00     0.001 A 
ATOM     33  N   UNL d   1      11.061  10.107  -5.218  0.00  0.00    -0.244 NA
ATOM     34  C   UNL d   1      11.991   9.351  -2.975  0.00  0.00     0.019 A 
ATOM     35  C   UNL d   1      10.667   9.453  -6.373  0.00  0.00     0.095 A 
ATOM     36  C   UNL d   1      12.367   8.213  -2.240  0.00  0.00     0.002 A 
ATOM     37  C   UNL d   1      12.262   6.934  -2.821  0.00  0.00     0.000 A 
ENDBRANCH  26  29
ENDBRANCH  22  23
ENDBRANCH  21  22
ENDBRANCH  20  21
ENDBRANCH   1  20
TORSDOF 8
