REMARK  6 active torsions:
REMARK  status: ('A' for Active; 'I' for Inactive)
REMARK    1  A    between atoms: N_5  and  C_6 
REMARK    2  A    between atoms: N_15  and  C_16 
REMARK    3  A    between atoms: C_16  and  C_17 
REMARK    4  A    between atoms: C_17  and  C_18 
REMARK    5  A    between atoms: C_18  and  C_19 
REMARK    6  A    between atoms: C_19  and  C_20 
ROOT
ATOM      1  O   UNL d   1       9.554   0.506 -14.899  0.00  0.00    -0.269 OA
ATOM      2  C   UNL d   1       9.933   0.845 -15.998  0.00  0.00     0.271 A 
ATOM      3  N   UNL d   1      10.094   0.002 -17.038  0.00  0.00    -0.211 NA
ATOM      4  C   UNL d   1      10.540   0.667 -18.250  0.00  0.00     0.234 A 
ATOM      5  N   UNL d   1      10.715   2.063 -17.852  0.00  0.00    -0.323 N 
ATOM      6  C   UNL d   1      10.325   2.264 -16.451  0.00  0.00     0.142 A 
ATOM      7  C   UNL d   1       9.128   3.220 -16.315  0.00  0.00     0.065 C 
ATOM      8  C   UNL d   1       8.834   3.610 -14.853  0.00  0.00     0.253 C 
ATOM      9  N   UNL d   1      10.027   4.189 -14.230  0.00  0.00     0.137 N 
ATOM     10  C   UNL d   1      11.097   3.190 -14.176  0.00  0.00     0.253 C 
ATOM     11  C   UNL d   1      11.496   2.806 -15.596  0.00  0.00     0.065 C 
ENDROOT
BRANCH   9  12
ATOM     12  C   UNL d   1       9.703   4.589 -12.872  0.00  0.00     0.250 C 
BRANCH  12  13
ATOM     13  C   UNL d   1       9.066   5.990 -12.828  0.00  0.00     0.036 C 
BRANCH  13  14
ATOM     14  C   UNL d   1       8.713   6.407 -11.397  0.00  0.00     0.009 C 
BRANCH  14  15
ATOM     15  C   UNL d   1       9.418   7.705 -10.922  0.00  0.00     0.053 C 
BRANCH  15  16
ATOM     16  C   UNL d   1       9.862   7.690  -9.489  0.00  0.00     0.088 A 
ATOM     17  S   UNL d   1      10.225   6.185  -8.644  0.00  0.00    -0.071 SA
ATOM     18  C   UNL d   1      10.622   7.120  -7.231  0.00  0.00     0.048 A 
ATOM     19  C   UNL d   1      10.418   8.508  -7.481  0.00  0.00     0.088 A 
ATOM     20  C   UNL d   1      11.079   6.648  -5.989  0.00  0.00     0.009 A 
ATOM     21  N   UNL d   1       9.996   8.816  -8.775  0.00  0.00    -0.243 NA
ATOM     22  C   UNL d   1      10.667   9.399  -6.415  0.00  0.00     0.031 A 
ATOM     23  C   UNL d   1      11.107   8.914  -5.159  0.00  0.00     0.059 A 
ATOM     24 CL   UNL d   1      11.384   9.949  -3.821  0.00  0.00    -0.082 Cl
ATOM     25  C   UNL d   1      11.317   7.547  -4.952  0.00  0.00     0.012 A 
ENDBRANCH  15  16
ENDBRANCH  14  15
ENDBRANCH  13  14
ENDBRANCH  12  13
ENDBRANCH   9  12
BRANCH   5  26
ATOM     26  C   UNL d   1      11.807   2.795 -18.358  0.00  0.00     0.058 A 
ATOM     27  C   UNL d   1      13.094   2.223 -18.508  0.00  0.00     0.017 A 
ATOM     28  C   UNL d   1      14.171   2.999 -18.964  0.00  0.00     0.002 A 
ATOM     29  C   UNL d   1      13.990   4.359 -19.268  0.00  0.00     0.000 A 
ATOM     30  C   UNL d   1      12.722   4.941 -19.102  0.00  0.00     0.002 A 
ATOM     31  C   UNL d   1      11.641   4.172 -18.654  0.00  0.00     0.017 A 
ENDBRANCH   5  26
TORSDOF 6
