REMARK  7 active torsions:
REMARK  status: ('A' for Active; 'I' for Inactive)
REMARK    1  A    between atoms: N_11  and  C_12 
REMARK    2  A    between atoms: C_12  and  C_13 
REMARK    3  A    between atoms: C_13  and  C_14 
REMARK    4  A    between atoms: C_14  and  C_15 
REMARK    5  A    between atoms: C_15  and  C_16 
REMARK    6  A    between atoms: C_16  and  N_17 
REMARK    7  A    between atoms: C_20  and  C_21 
ROOT
ATOM      1  N   UNL d   1       8.106   4.405 -13.306  0.00  0.00     0.142 N 
ATOM      2  C   UNL d   1       6.991   4.719 -12.383  0.00  0.00     0.276 C 
ATOM      3  C   UNL d   1       7.411   5.408 -11.104  0.00  0.00     0.005 C 
ATOM      4  C   UNL d   1       8.672   5.409 -10.659  0.00  0.00    -0.021 C 
ATOM      5  C   UNL d   1       9.747   4.705 -11.473  0.00  0.00     0.061 C 
ATOM      6  C   UNL d   1       9.244   3.763 -12.574  0.00  0.00     0.255 C 
ENDROOT
BRANCH   1   7
ATOM      7  C   UNL d   1       7.620   3.534 -14.374  0.00  0.00     0.251 C 
BRANCH   7   8
ATOM      8  C   UNL d   1       8.718   3.391 -15.446  0.00  0.00     0.035 C 
BRANCH   8   9
ATOM      9  C   UNL d   1       8.326   2.384 -16.538  0.00  0.00     0.004 C 
BRANCH   9  10
ATOM     10  C   UNL d   1       9.477   2.121 -17.515  0.00  0.00     0.025 C 
BRANCH  10  11
ATOM     11  C   UNL d   1      10.713   1.475 -16.852  0.00  0.00     0.112 C 
BRANCH  11  12
ATOM     12  N   UNL d   1      11.738   1.171 -17.842  0.00  0.00    -0.264 N 
ATOM     13  C   UNL d   1      11.853  -0.044 -18.444  0.00  0.00     0.263 A 
ATOM     14  O   UNL d   1      11.160  -1.042 -18.284  0.00  0.00    -0.267 OA
ATOM     15  C   UNL d   1      13.015   0.077 -19.359  0.00  0.00     0.061 A 
ATOM     16  C   UNL d   1      13.508   1.349 -19.244  0.00  0.00     0.061 A 
ATOM     17  C   UNL d   1      13.583  -0.878 -20.217  0.00  0.00     0.005 A 
ATOM     18  C   UNL d   1      14.615   1.795 -19.987  0.00  0.00     0.005 A 
ATOM     19  C   UNL d   1      12.671   2.066 -18.253  0.00  0.00     0.263 A 
ATOM     20  C   UNL d   1      15.209   0.858 -20.868  0.00  0.00     0.000 A 
ATOM     21  C   UNL d   1      14.701  -0.461 -20.982  0.00  0.00     0.000 A 
ATOM     22  O   UNL d   1      12.825   3.234 -17.894  0.00  0.00    -0.267 OA
ENDBRANCH  11  12
ENDBRANCH  10  11
ENDBRANCH   9  10
ENDBRANCH   8   9
ENDBRANCH   7   8
ENDBRANCH   1   7
BRANCH   4  23
ATOM     23  C   UNL d   1       9.053   6.016  -9.344  0.00  0.00     0.017 A 
ATOM     24  C   UNL d   1      10.196   6.816  -9.067  0.00  0.00     0.020 A 
ATOM     25  C   UNL d   1      10.140   7.213  -7.696  0.00  0.00     0.082 A 
ATOM     26  C   UNL d   1      11.345   7.221  -9.799  0.00  0.00     0.013 A 
ATOM     27  N   UNL d   1       8.968   6.681  -7.202  0.00  0.00    -0.244 NA
ATOM     28  C   UNL d   1      11.140   8.003  -7.098  0.00  0.00     0.020 A 
ATOM     29  C   UNL d   1       8.312   5.969  -8.201  0.00  0.00     0.099 A 
ATOM     30  C   UNL d   1      12.273   8.372  -7.867  0.00  0.00     0.013 A 
ATOM     31  C   UNL d   1      12.384   7.943  -9.211  0.00  0.00     0.058 A 
ATOM     32 CL   UNL d   1      13.928   7.997 -10.001  0.00  0.00    -0.082 Cl
ENDBRANCH   4  23
TORSDOF 7
