REMARK  1 active torsions:
REMARK  status: ('A' for Active; 'I' for Inactive)
REMARK    1  A    between atoms: O_2  and  C_3 
ROOT
ATOM      1  C   UNL d   1      11.450   7.993  -5.094  0.00  0.00     0.107 A 
ATOM      2  C   UNL d   1      11.852   6.918  -4.266  0.00  0.00     0.025 A 
ATOM      3  C   UNL d   1      12.260   7.146  -2.936  0.00  0.00     0.002 A 
ATOM      4  C   UNL d   1      12.267   8.455  -2.420  0.00  0.00     0.001 A 
ATOM      5  C   UNL d   1      11.864   9.531  -3.232  0.00  0.00     0.016 A 
ATOM      6  C   UNL d   1      11.464   9.299  -4.561  0.00  0.00     0.092 A 
ATOM      7  N   UNL d   1      11.055  10.369  -5.352  0.00  0.00    -0.099 NA
ENDROOT
BRANCH   1   8
ATOM      8  O   UNL d   1      11.040   7.847  -6.406  0.00  0.00    -0.327 OA
ATOM      9  C   UNL d   1      10.867   6.532  -6.915  0.00  0.00     0.181 C 
ENDBRANCH   1   8
TORSDOF 1
