REMARK  7 active torsions:
REMARK  status: ('A' for Active; 'I' for Inactive)
REMARK    1  A    between atoms: C_2  and  C_5 
REMARK    2  A    between atoms: C_8  and  O_9 
REMARK    3  A    between atoms: O_9  and  C_10 
REMARK    4  A    between atoms: C_10  and  C_11 
REMARK    5  A    between atoms: C_11  and  C_12 
REMARK    6  A    between atoms: C_12  and  N_13 
REMARK    7  A    between atoms: N_16  and  C_17 
ROOT
ATOM      1  C   UNL d   1       9.073   4.929 -11.646  0.00  0.00     0.068 C 
ENDROOT
BRANCH   1   2
ATOM      2  C   UNL d   1       8.730   6.157 -10.812  0.00  0.00     0.151 C 
BRANCH   2   3
ATOM      3  O   UNL d   1       9.929   6.901 -10.597  0.00  0.00    -0.331 OA
BRANCH   3   4
ATOM      4  C   UNL d   1      10.245   7.407  -9.351  0.00  0.00     0.094 A 
ATOM      5  C   UNL d   1      11.461   8.116  -9.236  0.00  0.00     0.024 A 
ATOM      6  C   UNL d   1      11.869   8.656  -7.998  0.00  0.00     0.006 A 
ATOM      7  C   UNL d   1      11.058   8.493  -6.855  0.00  0.00     0.072 A 
ATOM      8  C   UNL d   1       9.842   7.795  -6.966  0.00  0.00     0.006 A 
ATOM      9  C   UNL d   1       9.439   7.260  -8.201  0.00  0.00     0.024 A 
BRANCH   7  10
ATOM     10  C   UNL d   1      11.466   9.054  -5.501  0.00  0.00     0.419 C 
ATOM     11  F   UNL d   1      10.602   9.991  -5.121  0.00  0.00    -0.166 F 
ATOM     12  F   UNL d   1      12.673   9.601  -5.527  0.00  0.00    -0.166 F 
ATOM     13  F   UNL d   1      11.471   8.074  -4.599  0.00  0.00    -0.166 F 
ENDBRANCH   7  10
ENDBRANCH   3   4
ENDBRANCH   2   3
ENDBRANCH   1   2
BRANCH   1  14
ATOM     14  C   UNL d   1       9.464   5.274 -13.092  0.00  0.00     0.253 C 
BRANCH  14  15
ATOM     15  N   UNL d   1      10.385   4.282 -13.639  0.00  0.00     0.141 N 
ATOM     16  C   UNL d   1      10.869   4.744 -14.939  0.00  0.00     0.274 C 
ATOM     17  C   UNL d   1      11.886   3.744 -15.511  0.00  0.00     0.138 C 
ATOM     18  N   UNL d   1      11.281   2.417 -15.607  0.00  0.00    -0.330 N 
ATOM     19  C   UNL d   1      10.671   1.934 -14.369  0.00  0.00     0.138 C 
ATOM     20  C   UNL d   1       9.704   2.991 -13.814  0.00  0.00     0.274 C 
BRANCH  18  21
ATOM     21  C   UNL d   1      11.283   1.668 -16.796  0.00  0.00     0.140 A 
ATOM     22  N   UNL d   1      10.360   0.683 -16.920  0.00  0.00    -0.227 NA
ATOM     23  C   UNL d   1      10.321  -0.040 -18.058  0.00  0.00     0.101 A 
ATOM     24  C   UNL d   1      11.204   0.167 -19.131  0.00  0.00     0.021 A 
ATOM     25  C   UNL d   1      12.172   1.177 -19.010  0.00  0.00     0.005 A 
ATOM     26  C   UNL d   1      12.214   1.937 -17.829  0.00  0.00     0.037 A 
ENDBRANCH  18  21
ENDBRANCH  14  15
ENDBRANCH   1  14
TORSDOF 7
