REMARK  3 active torsions:
REMARK  status: ('A' for Active; 'I' for Inactive)
REMARK    1  A    between atoms: N_2  and  C_3 
REMARK    2  A    between atoms: C_7  and  S_8 
REMARK    3  A    between atoms: C_10  and  N_11 
ROOT
ATOM      1  C   UNL d   1      12.601   8.010  -9.162  0.00  0.00     0.748 C 
ATOM      2  N   UNL d   1      11.689   7.606 -10.011  0.00  0.00    -0.047 NA
ATOM      3  C   UNL d   1      10.495   7.269  -9.529  0.00  0.00     0.165 C 
ATOM      4 CL   UNL d   1       9.435   6.681 -10.762  0.00  0.00    -0.060 Cl
ATOM      5  C   UNL d   1      10.221   7.315  -8.143  0.00  0.00     0.089 C 
ATOM      6  C   UNL d   1      11.247   7.878  -7.334  0.00  0.00     0.167 C 
ATOM      7  N   UNL d   1      12.432   8.267  -7.878  0.00  0.00    -0.042 NA
ENDROOT
BRANCH   6   8
ATOM      8  N   UNL d   1      11.119   8.010  -5.941  0.00  0.00    -0.329 N 
ATOM      9  C   UNL d   1      11.017   9.319  -5.322  0.00  0.00     0.138 C 
ATOM     10  C   UNL d   1      11.995   9.411  -4.135  0.00  0.00     0.274 C 
ATOM     11  N   UNL d   1      11.775   8.307  -3.186  0.00  0.00     0.143 N 
ATOM     12  C   UNL d   1      11.985   7.020  -3.866  0.00  0.00     0.274 C 
ATOM     13  C   UNL d   1      12.694   8.432  -2.076  0.00  0.00     0.286 C 
ATOM     14  C   UNL d   1      11.008   6.861  -5.050  0.00  0.00     0.138 C 
ENDBRANCH   6   8
BRANCH   5  15
ATOM     15  S   UNL d   1       8.706   6.771  -7.412  0.00  0.00    -0.107 SA
ATOM     16  C   UNL d   1       8.435   5.139  -8.067  0.00  0.00     0.074 C 
ENDBRANCH   5  15
BRANCH   1  17
ATOM     17  N   UNL d   1      13.864   7.987  -9.651  0.00  0.00    -0.084 NA
ATOM     18  C   UNL d   1      14.133   8.371 -11.035  0.00  0.00     0.172 C 
ENDBRANCH   1  17
TORSDOF 3
