REMARK  8 active torsions:
REMARK  status: ('A' for Active; 'I' for Inactive)
REMARK    1  A    between atoms: C_6  and  C_7 
REMARK    2  A    between atoms: C_10  and  S_11 
REMARK    3  A    between atoms: S_11  and  C_12 
REMARK    4  A    between atoms: C_12  and  C_13 
REMARK    5  A    between atoms: C_13  and  C_14 
REMARK    6  A    between atoms: C_14  and  N_15 
REMARK    7  A    between atoms: C_20  and  C_21 
REMARK    8  A    between atoms: C_26  and  C_27 
ROOT
ATOM      1  N   UNL d   1      12.036   3.342 -16.928  0.00  0.00     0.137 N 
ATOM      2  C   UNL d   1      10.933   3.567 -17.855  0.00  0.00     0.250 C 
ATOM      3  C   UNL d   1       9.779   2.759 -17.243  0.00  0.00     0.038 C 
ATOM      4  C   UNL d   1      10.457   1.718 -16.380  0.00  0.00     0.037 A 
ATOM      5  C   UNL d   1       9.891   0.338 -16.230  0.00  0.00     0.007 A 
ATOM      6  C   UNL d   1       9.908   1.277 -15.050  0.00  0.00     0.024 A 
ATOM      7  C   UNL d   1      11.943   1.939 -16.588  0.00  0.00     0.251 C 
ENDROOT
BRANCH   1   8
ATOM      8  C   UNL d   1      13.327   3.656 -17.499  0.00  0.00     0.251 C 
BRANCH   8   9
ATOM      9  C   UNL d   1      13.620   5.172 -17.495  0.00  0.00     0.047 C 
BRANCH   9  10
ATOM     10  C   UNL d   1      13.072   5.897 -18.756  0.00  0.00     0.067 C 
BRANCH  10  11
ATOM     11  S   UNL d   1      13.533   7.651 -18.858  0.00  0.00    -0.075 SA
BRANCH  11  12
ATOM     12  C   UNL d   1      15.277   7.536 -18.932  0.00  0.00     0.193 A 
ATOM     13  N   UNL d   1      15.992   6.434 -18.986  0.00  0.00    -0.122 NA
ATOM     14  N   UNL d   1      17.284   6.773 -18.867  0.00  0.00    -0.126 NA
ATOM     15  C   UNL d   1      17.294   8.142 -18.844  0.00  0.00     0.191 A 
ATOM     16  N   UNL d   1      16.072   8.664 -18.905  0.00  0.00    -0.287 N 
ATOM     17  C   UNL d   1      15.650  10.068 -18.949  0.00  0.00     0.134 C 
BRANCH  15  18
ATOM     18  C   UNL d   1      18.559   8.863 -18.786  0.00  0.00     0.151 A 
ATOM     19  C   UNL d   1      19.857   8.459 -18.945  0.00  0.00     0.087 A 
ATOM     20  C   UNL d   1      20.408   7.082 -19.205  0.00  0.00     0.054 C 
ATOM     21  N   UNL d   1      20.676   9.566 -18.843  0.00  0.00    -0.221 NA
ATOM     22  C   UNL d   1      19.844  10.575 -18.617  0.00  0.00     0.225 A 
ATOM     23  O   UNL d   1      18.535  10.219 -18.577  0.00  0.00    -0.282 OA
ENDBRANCH  15  18
ENDBRANCH  11  12
ENDBRANCH  10  11
ENDBRANCH   9  10
ENDBRANCH   8   9
ENDBRANCH   1   8
BRANCH   6  24
ATOM     24  C   UNL d   1       8.641   1.868 -14.507  0.00  0.00    -0.018 A 
ATOM     25  C   UNL d   1       8.543   3.217 -14.046  0.00  0.00     0.068 A 
ATOM     26  C   UNL d   1       7.285   3.693 -13.619  0.00  0.00     0.004 A 
ATOM     27  C   UNL d   1       6.152   2.858 -13.617  0.00  0.00    -0.000 A 
ATOM     28  C   UNL d   1       6.255   1.520 -14.037  0.00  0.00    -0.000 A 
ATOM     29  C   UNL d   1       7.495   1.031 -14.470  0.00  0.00    -0.004 A 
BRANCH  25  30
ATOM     30  C   UNL d   1       9.748   4.173 -13.988  0.00  0.00     0.418 C 
ATOM     31  F   UNL d   1       9.531   5.147 -13.099  0.00  0.00    -0.166 F 
ATOM     32  F   UNL d   1      10.854   3.552 -13.588  0.00  0.00    -0.166 F 
ATOM     33  F   UNL d   1       9.973   4.743 -15.165  0.00  0.00    -0.166 F 
ENDBRANCH  25  30
ENDBRANCH   6  24
TORSDOF 8
