REMARK  9 active torsions:
REMARK  status: ('A' for Active; 'I' for Inactive)
REMARK    1  A    between atoms: O_2  and  C_3 
REMARK    2  A    between atoms: C_6  and  C_7 
REMARK    3  A    between atoms: N_11  and  C_12 
REMARK    4  A    between atoms: C_12  and  C_13 
REMARK    5  A    between atoms: C_13  and  C_14 
REMARK    6  A    between atoms: C_14  and  S_15 
REMARK    7  A    between atoms: S_15  and  C_16 
REMARK    8  A    between atoms: C_19  and  C_20 
REMARK    9  A    between atoms: C_30  and  C_31 
ROOT
ATOM      1  C   UNL d   1       9.104   2.012 -17.276  0.00  0.00     0.052 A 
ATOM      2  C   UNL d   1       9.984   2.092 -18.514  0.00  0.00     0.008 A 
ATOM      3  C   UNL d   1      10.415   1.286 -17.302  0.00  0.00     0.039 A 
ATOM      4  C   UNL d   1      11.241   1.874 -16.187  0.00  0.00     0.251 C 
ATOM      5  N   UNL d   1      10.242   2.465 -15.282  0.00  0.00     0.137 N 
ATOM      6  C   UNL d   1       9.208   3.034 -16.160  0.00  0.00     0.254 C 
ENDROOT
BRANCH   5   7
ATOM      7  C   UNL d   1      10.853   3.447 -14.383  0.00  0.00     0.251 C 
BRANCH   7   8
ATOM      8  C   UNL d   1      10.003   3.747 -13.123  0.00  0.00     0.047 C 
BRANCH   8   9
ATOM      9  C   UNL d   1       8.640   4.421 -13.427  0.00  0.00     0.067 C 
BRANCH   9  10
ATOM     10  S   UNL d   1       7.667   4.849 -11.968  0.00  0.00    -0.075 SA
BRANCH  10  11
ATOM     11  C   UNL d   1       8.675   6.126 -11.342  0.00  0.00     0.193 A 
ATOM     12  N   UNL d   1       9.113   6.089 -10.071  0.00  0.00    -0.287 N 
ATOM     13  C   UNL d   1       9.822   7.247 -10.010  0.00  0.00     0.191 A 
ATOM     14  C   UNL d   1       8.810   5.094  -9.053  0.00  0.00     0.134 C 
ATOM     15  N   UNL d   1       9.838   7.909 -11.170  0.00  0.00    -0.126 NA
ATOM     16  N   UNL d   1       9.061   7.183 -12.044  0.00  0.00    -0.122 NA
BRANCH  13  17
ATOM     17  C   UNL d   1      10.522   7.757  -8.832  0.00  0.00     0.151 A 
ATOM     18  C   UNL d   1      10.251   7.821  -7.484  0.00  0.00     0.087 A 
ATOM     19  N   UNL d   1      11.327   8.429  -6.850  0.00  0.00    -0.221 NA
ATOM     20  C   UNL d   1       9.072   7.366  -6.678  0.00  0.00     0.054 C 
ATOM     21  C   UNL d   1      12.181   8.704  -7.829  0.00  0.00     0.225 A 
ATOM     22  O   UNL d   1      11.758   8.311  -9.057  0.00  0.00    -0.282 OA
ENDBRANCH  13  17
ENDBRANCH  10  11
ENDBRANCH   9  10
ENDBRANCH   8   9
ENDBRANCH   7   8
ENDBRANCH   5   7
BRANCH   1  23
ATOM     23  C   UNL d   1       7.817   1.235 -17.230  0.00  0.00    -0.021 A 
ATOM     24  C   UNL d   1       7.051   1.032 -18.415  0.00  0.00    -0.002 A 
ATOM     25  C   UNL d   1       5.879   0.272 -18.390  0.00  0.00     0.024 A 
ATOM     26  C   UNL d   1       5.405  -0.304 -17.181  0.00  0.00     0.098 A 
ATOM     27  C   UNL d   1       6.135  -0.087 -15.992  0.00  0.00     0.093 A 
ATOM     28  C   UNL d   1       7.325   0.682 -16.032  0.00  0.00     0.002 A 
BRANCH  26  29
ATOM     29  O   UNL d   1       4.258  -1.071 -17.114  0.00  0.00    -0.328 OA
ATOM     30  C   UNL d   1       3.547  -1.343 -18.315  0.00  0.00     0.181 C 
ENDBRANCH  26  29
BRANCH  27  31
ATOM     31  C   UNL d   1       5.654  -0.700 -14.676  0.00  0.00     0.421 C 
ATOM     32  F   UNL d   1       4.509  -0.121 -14.313  0.00  0.00    -0.166 F 
ATOM     33  F   UNL d   1       5.437  -2.006 -14.829  0.00  0.00    -0.166 F 
ATOM     34  F   UNL d   1       6.531  -0.539 -13.683  0.00  0.00    -0.166 F 
ENDBRANCH  27  31
ENDBRANCH   1  23
TORSDOF 9
