REMARK  2 active torsions:
REMARK  status: ('A' for Active; 'I' for Inactive)
REMARK    1  A    between atoms: C_2  and  C_3 
REMARK    2  A    between atoms: C_9  and  C_10 
ROOT
ATOM      1  C   UNL d   1       7.440   1.710 -14.463  0.00  0.00    -0.022 A 
ATOM      2  C   UNL d   1       8.243   0.721 -15.069  0.00  0.00    -0.003 A 
ATOM      3  C   UNL d   1       9.594   0.990 -15.357  0.00  0.00     0.019 A 
ATOM      4  C   UNL d   1      10.155   2.245 -15.041  0.00  0.00     0.083 A 
ATOM      5  C   UNL d   1       9.381   3.224 -14.373  0.00  0.00     0.035 A 
ATOM      6  C   UNL d   1       8.007   2.958 -14.146  0.00  0.00    -0.001 A 
ATOM      7  C   UNL d   1       9.949   4.513 -13.886  0.00  0.00     0.079 C 
ATOM      8  N   UNL d   1      10.762   5.231 -14.540  0.00  0.00    -0.244 NA
ATOM      9  C   UNL d   1      11.342   4.937 -15.777  0.00  0.00     0.099 A 
ATOM     10  C   UNL d   1      11.646   6.040 -16.600  0.00  0.00     0.021 A 
ATOM     11  C   UNL d   1      12.318   5.879 -17.826  0.00  0.00     0.002 A 
ATOM     12  C   UNL d   1      12.727   4.591 -18.223  0.00  0.00     0.002 A 
ATOM     13  C   UNL d   1      12.457   3.478 -17.404  0.00  0.00     0.021 A 
ATOM     14  C   UNL d   1      11.760   3.642 -16.191  0.00  0.00     0.099 A 
ATOM     15  N   UNL d   1      11.457   2.495 -15.453  0.00  0.00    -0.244 NA
ENDROOT
BRANCH   7  16
ATOM     16  C   UNL d   1       9.674   4.996 -12.484  0.00  0.00    -0.005 C 
ATOM     17  C   UNL d   1       9.283   4.040 -11.387  0.00  0.00     0.063 C 
ATOM     18  C   UNL d   1       8.607   4.698 -10.177  0.00  0.00     0.255 C 
ATOM     19  N   UNL d   1       9.427   5.817  -9.737  0.00  0.00     0.141 N 
ATOM     20  C   UNL d   1       9.396   6.859 -10.773  0.00  0.00     0.241 C 
ATOM     21  C   UNL d   1       8.873   6.293  -8.471  0.00  0.00     0.286 C 
ATOM     22  C   UNL d   1       9.591   6.310 -12.172  0.00  0.00     0.004 C 
ATOM     23  C   UNL d   1      10.420   7.976 -10.451  0.00  0.00     0.040 C 
ENDBRANCH   7  16
BRANCH   1  24
ATOM     24  C   UNL d   1       5.979   1.423 -14.157  0.00  0.00     0.026 C 
ATOM     25  C   UNL d   1       5.764   0.241 -13.201  0.00  0.00     0.005 C 
ENDBRANCH   1  24
TORSDOF 2
