REMARK  2 active torsions:
REMARK  status: ('A' for Active; 'I' for Inactive)
REMARK    1  A    between atoms: N_14  and  C_15 
REMARK    2  A    between atoms: C_15  and  C_16 
ROOT
ATOM      1  C   UNL d   1      11.847   8.902  -5.720  0.00  0.00     0.031 C 
ATOM      2  C   UNL d   1      11.105   8.172  -6.821  0.00  0.00    -0.020 A 
ATOM      3  C   UNL d   1      10.603   6.873  -6.604  0.00  0.00    -0.004 A 
ATOM      4  C   UNL d   1       9.938   6.193  -7.642  0.00  0.00     0.001 A 
ATOM      5  C   UNL d   1       9.787   6.785  -8.909  0.00  0.00     0.019 A 
ATOM      6  C   UNL d   1       9.151   6.109 -10.048  0.00  0.00    -0.015 A 
ATOM      7  C   UNL d   1       9.030   6.747 -11.220  0.00  0.00     0.071 A 
ATOM      8  C   UNL d   1       9.447   8.145 -11.382  0.00  0.00     0.298 A 
ATOM      9  O   UNL d   1       9.053   8.803 -12.357  0.00  0.00    -0.259 OA
ATOM     10  O   UNL d   1      10.099   8.722 -10.330  0.00  0.00    -0.273 OA
ATOM     11  C   UNL d   1      10.269   8.099  -9.121  0.00  0.00     0.103 A 
ATOM     12  C   UNL d   1      10.925   8.779  -8.075  0.00  0.00     0.021 A 
ATOM     13  C   UNL d   1       8.255   6.155 -12.418  0.00  0.00     0.282 C 
ATOM     14  N   UNL d   1       8.086   4.711 -12.347  0.00  0.00     0.146 N 
ATOM     15  C   UNL d   1       7.510   4.437 -11.029  0.00  0.00     0.256 C 
ATOM     16  C   UNL d   1       8.505   4.743  -9.859  0.00  0.00     0.062 C 
ENDROOT
BRANCH  14  17
ATOM     17  C   UNL d   1       9.363   4.025 -12.598  0.00  0.00     0.277 C 
BRANCH  17  18
ATOM     18  C   UNL d   1       9.589   3.769 -14.073  0.00  0.00     0.011 A 
ATOM     19  C   UNL d   1      10.235   4.728 -14.879  0.00  0.00    -0.002 A 
ATOM     20  C   UNL d   1      10.431   4.487 -16.253  0.00  0.00    -0.000 A 
ATOM     21  C   UNL d   1       9.996   3.275 -16.822  0.00  0.00    -0.000 A 
ATOM     22  C   UNL d   1       9.353   2.312 -16.019  0.00  0.00    -0.000 A 
ATOM     23  C   UNL d   1       9.142   2.562 -14.649  0.00  0.00    -0.002 A 
ENDBRANCH  17  18
ENDBRANCH  14  17
TORSDOF 2
