REMARK  6 active torsions:
REMARK  status: ('A' for Active; 'I' for Inactive)
REMARK    1  A    between atoms: C_2  and  C_4 
REMARK       I    between atoms: C_4  and  N_6 
REMARK    2  A    between atoms: N_6  and  C_7 
REMARK    3  A    between atoms: C_10  and  C_11 
REMARK    4  A    between atoms: C_11  and  C_12 
REMARK    5  A    between atoms: C_12  and  N_13 
REMARK    6  A    between atoms: N_16  and  C_17 
ROOT
ATOM      1  N   UNL d   1       8.558   4.957 -12.343  0.00  0.00     0.141 N 
ATOM      2  C   UNL d   1       9.239   3.887 -13.066  0.00  0.00     0.274 C 
ATOM      3  C   UNL d   1       8.414   3.478 -14.283  0.00  0.00     0.138 C 
ATOM      4  N   UNL d   1       7.061   3.105 -13.897  0.00  0.00    -0.330 N 
ATOM      5  C   UNL d   1       6.364   4.046 -13.023  0.00  0.00     0.138 C 
ATOM      6  C   UNL d   1       7.269   4.455 -11.847  0.00  0.00     0.274 C 
ENDROOT
BRANCH   1   7
ATOM      7  C   UNL d   1       9.441   5.335 -11.257  0.00  0.00     0.250 C 
BRANCH   7   8
ATOM      8  C   UNL d   1       8.943   6.561 -10.496  0.00  0.00     0.035 C 
BRANCH   8   9
ATOM      9  C   UNL d   1       9.934   7.081  -9.442  0.00  0.00     0.002 C 
ATOM     10  C   UNL d   1       9.393   8.362  -8.779  0.00  0.00     0.002 C 
ATOM     11  C   UNL d   1      10.311   8.889  -7.686  0.00  0.00     0.024 C 
ATOM     12  C   UNL d   1      10.543   7.809  -6.616  0.00  0.00     0.106 C 
ATOM     13  C   UNL d   1      11.124   6.551  -7.267  0.00  0.00     0.024 C 
ATOM     14  C   UNL d   1      10.204   6.020  -8.360  0.00  0.00     0.002 C 
BRANCH  12  15
ATOM     15  N   UNL d   1      11.453   8.339  -5.623  0.00  0.00    -0.240 NA
ATOM     16  C   UNL d   1      11.701   7.779  -4.430  0.00  0.00     0.251 C 
ATOM     17  O   UNL d   1      11.342   6.637  -4.144  0.00  0.00    -0.271 OA
BRANCH  16  18
ATOM     18  C   UNL d   1      12.422   8.653  -3.410  0.00  0.00     0.081 C 
ATOM     19  C   UNL d   1      12.544   7.930  -2.052  0.00  0.00     0.010 C 
ATOM     20  C   UNL d   1      11.658   9.974  -3.239  0.00  0.00     0.010 C 
ENDBRANCH  16  18
ENDBRANCH  12  15
ENDBRANCH   8   9
ENDBRANCH   7   8
ENDBRANCH   1   7
BRANCH   4  21
ATOM     21  C   UNL d   1       6.496   1.851 -14.256  0.00  0.00     0.138 A 
ATOM     22  C   UNL d   1       6.793   1.192 -15.469  0.00  0.00     0.036 A 
ATOM     23  C   UNL d   1       6.166   0.000 -15.797  0.00  0.00     0.095 A 
ATOM     24  C   UNL d   1       7.677   1.582 -16.614  0.00  0.00     0.064 C 
ATOM     25  C   UNL d   1       5.251  -0.578 -14.905  0.00  0.00     0.045 A 
ATOM     26  O   UNL d   1       6.496  -0.457 -17.039  0.00  0.00    -0.331 OA
ATOM     27  C   UNL d   1       5.005   0.130 -13.711  0.00  0.00     0.103 A 
ATOM     28  N   UNL d   1       5.600   1.308 -13.395  0.00  0.00    -0.228 NA
ATOM     29  C   UNL d   1       7.325   0.531 -17.672  0.00  0.00     0.154 C 
ENDBRANCH   4  21
TORSDOF 6
