REMARK  6 active torsions:
REMARK  status: ('A' for Active; 'I' for Inactive)
REMARK       I    between atoms: C_2  and  N_3 
REMARK    1  A    between atoms: C_2  and  C_27 
REMARK    2  A    between atoms: N_3  and  C_4 
REMARK    3  A    between atoms: C_7  and  C_8 
REMARK    4  A    between atoms: C_8  and  C_9 
REMARK    5  A    between atoms: C_9  and  N_10 
REMARK    6  A    between atoms: N_13  and  C_14 
ROOT
ATOM      1  C   UNL d   1       7.799   5.442 -11.630  0.00  0.00     0.035 C 
ENDROOT
BRANCH   1   2
ATOM      2  C   UNL d   1       7.627   4.133 -12.410  0.00  0.00     0.002 C 
ATOM      3  C   UNL d   1       6.140   3.754 -12.669  0.00  0.00     0.002 C 
ATOM      4  C   UNL d   1       5.980   2.383 -13.360  0.00  0.00     0.024 C 
ATOM      5  C   UNL d   1       6.793   2.338 -14.654  0.00  0.00     0.106 C 
ATOM      6  C   UNL d   1       8.278   2.654 -14.401  0.00  0.00     0.024 C 
ATOM      7  C   UNL d   1       8.452   4.025 -13.713  0.00  0.00     0.002 C 
BRANCH   5   8
ATOM      8  N   UNL d   1       6.641   1.041 -15.308  0.00  0.00    -0.240 NA
ATOM      9  C   UNL d   1       6.718   0.816 -16.628  0.00  0.00     0.251 C 
ATOM     10  O   UNL d   1       6.990   1.689 -17.449  0.00  0.00    -0.271 OA
BRANCH   9  11
ATOM     11  C   UNL d   1       6.423  -0.613 -17.094  0.00  0.00     0.086 C 
ATOM     12  C   UNL d   1       5.050  -0.703 -17.782  0.00  0.00     0.042 C 
ATOM     13  C   UNL d   1       4.808  -2.124 -18.318  0.00  0.00     0.143 C 
ATOM     14  O   UNL d   1       5.859  -2.478 -19.213  0.00  0.00    -0.354 OA
ATOM     15  C   UNL d   1       7.134  -2.531 -18.583  0.00  0.00     0.143 C 
ATOM     16  C   UNL d   1       7.506  -1.138 -18.058  0.00  0.00     0.042 C 
ENDBRANCH   9  11
ENDBRANCH   5   8
ENDBRANCH   1   2
BRANCH   1  17
ATOM     17  C   UNL d   1       9.197   5.523 -10.973  0.00  0.00     0.250 C 
BRANCH  17  18
ATOM     18  N   UNL d   1       9.275   6.725 -10.138  0.00  0.00     0.141 N 
ATOM     19  C   UNL d   1      10.609   7.310 -10.186  0.00  0.00     0.274 C 
ATOM     20  C   UNL d   1      10.675   8.607  -9.374  0.00  0.00     0.138 C 
ATOM     21  N   UNL d   1      10.233   8.269  -8.037  0.00  0.00    -0.330 N 
ATOM     22  C   UNL d   1       8.896   7.768  -7.925  0.00  0.00     0.138 C 
ATOM     23  C   UNL d   1       8.864   6.453  -8.755  0.00  0.00     0.274 C 
BRANCH  21  24
ATOM     24  C   UNL d   1      10.894   8.703  -6.896  0.00  0.00     0.138 A 
ATOM     25  C   UNL d   1      11.081   7.859  -5.813  0.00  0.00     0.036 A 
ATOM     26  C   UNL d   1      11.821   8.283  -4.726  0.00  0.00     0.095 A 
ATOM     27  C   UNL d   1      10.743   6.429  -5.680  0.00  0.00     0.064 C 
ATOM     28  C   UNL d   1      12.347   9.580  -4.731  0.00  0.00     0.045 A 
ATOM     29  O   UNL d   1      12.021   7.324  -3.799  0.00  0.00    -0.331 OA
ATOM     30  C   UNL d   1      12.106  10.370  -5.880  0.00  0.00     0.103 A 
ATOM     31  N   UNL d   1      11.404   9.936  -6.940  0.00  0.00    -0.228 NA
ATOM     32  C   UNL d   1      11.525   6.125  -4.393  0.00  0.00     0.154 C 
ENDBRANCH  21  24
ENDBRANCH  17  18
ENDBRANCH   1  17
TORSDOF 6
