REMARK  6 active torsions:
REMARK  status: ('A' for Active; 'I' for Inactive)
REMARK    1  A    between atoms: O_2  and  N_3 
REMARK    2  A    between atoms: C_4  and  C_5 
REMARK    3  A    between atoms: C_4  and  C_19 
REMARK    4  A    between atoms: C_5  and  C_6 
REMARK    5  A    between atoms: C_6  and  N_7 
REMARK    6  A    between atoms: C_11  and  C_12 
ROOT
ATOM      1  C   UNL d   1      10.110   4.090 -14.885  0.00  0.00     0.257 C 
ENDROOT
BRANCH   1   2
ATOM      2  C   UNL d   1       9.788   2.962 -15.908  0.00  0.00     0.083 C 
BRANCH   2   3
ATOM      3  C   UNL d   1      10.345   3.164 -17.320  0.00  0.00     0.087 C 
ATOM      4  N   UNL d   1      10.068   4.177 -18.040  0.00  0.00    -0.136 NA
BRANCH   4   5
ATOM      5  O   UNL d   1       9.183   5.067 -17.419  0.00  0.00    -0.234 OA
ATOM      6  C   UNL d   1       8.780   6.049 -18.353  0.00  0.00     0.211 C 
ENDBRANCH   4   5
BRANCH   3   7
ATOM      7  C   UNL d   1      11.206   2.081 -17.862  0.00  0.00     0.016 A 
ATOM      8  C   UNL d   1      10.864   0.718 -17.689  0.00  0.00     0.002 A 
ATOM      9  C   UNL d   1      11.659  -0.298 -18.250  0.00  0.00     0.011 A 
ATOM     10  C   UNL d   1      12.802   0.034 -19.001  0.00  0.00     0.058 A 
ATOM     11  C   UNL d   1      13.142   1.385 -19.200  0.00  0.00     0.011 A 
ATOM     12 CL   UNL d   1      13.798  -1.209 -19.653  0.00  0.00    -0.082 Cl
ATOM     13  C   UNL d   1      12.343   2.402 -18.638  0.00  0.00     0.002 A 
ENDBRANCH   3   7
ENDBRANCH   2   3
ENDBRANCH   1   2
BRANCH   1  14
ATOM     14  N   UNL d   1       9.261   4.016 -13.691  0.00  0.00     0.138 N 
ATOM     15  C   UNL d   1       9.759   4.994 -12.726  0.00  0.00     0.256 C 
ATOM     16  C   UNL d   1       8.921   5.003 -11.425  0.00  0.00     0.074 C 
ATOM     17  C   UNL d   1       7.448   5.282 -11.736  0.00  0.00     0.010 C 
ATOM     18  C   UNL d   1       6.962   4.332 -12.821  0.00  0.00     0.036 C 
ATOM     19  C   UNL d   1       7.883   4.376 -14.038  0.00  0.00     0.250 C 
BRANCH  16  20
ATOM     20  C   UNL d   1       9.462   5.990 -10.396  0.00  0.00     0.061 A 
ATOM     21  N   UNL d   1       9.733   7.235 -10.847  0.00  0.00    -0.248 NA
ATOM     22  C   UNL d   1      10.210   8.145  -9.973  0.00  0.00     0.099 A 
ATOM     23  C   UNL d   1      10.440   7.862  -8.615  0.00  0.00     0.021 A 
ATOM     24  C   UNL d   1      10.141   6.571  -8.141  0.00  0.00     0.003 A 
ATOM     25  C   UNL d   1       9.644   5.614  -9.047  0.00  0.00     0.015 A 
ENDBRANCH  16  20
ENDBRANCH   1  14
TORSDOF 6
