REMARK  2 active torsions:
REMARK  status: ('A' for Active; 'I' for Inactive)
REMARK    1  A    between atoms: C_17  and  N_18 
REMARK       I    between atoms: N_18  and  C_19 
REMARK       I    between atoms: C_19  and  N_21 
REMARK    2  A    between atoms: N_21  and  C_22 
ROOT
ATOM      1  C   UNL d   1      10.276   3.239 -18.253  0.00  0.00     0.285 C 
ATOM      2  N   UNL d   1      10.235   1.983 -17.498  0.00  0.00     0.138 N 
ATOM      3  C   UNL d   1       9.430   0.965 -18.170  0.00  0.00     0.255 C 
ATOM      4  C   UNL d   1       7.912   1.221 -18.181  0.00  0.00     0.061 C 
ATOM      5  C   UNL d   1       7.246   0.848 -16.877  0.00  0.00    -0.023 A 
ATOM      6  C   UNL d   1       6.300  -0.197 -16.858  0.00  0.00     0.009 A 
ATOM      7  C   UNL d   1       5.718  -0.618 -15.650  0.00  0.00     0.083 A 
ATOM      8 CL   UNL d   1       4.585  -1.910 -15.666  0.00  0.00    -0.080 Cl
ATOM      9  C   UNL d   1       6.075   0.013 -14.449  0.00  0.00     0.141 A 
ATOM     10  O   UNL d   1       5.589  -0.380 -13.246  0.00  0.00    -0.189 OA
ATOM     11  C   UNL d   1       6.984   1.065 -14.478  0.00  0.00     0.024 A 
ATOM     12  C   UNL d   1       7.580   1.498 -15.673  0.00  0.00    -0.018 A 
ATOM     13  C   UNL d   1       8.610   2.616 -15.643  0.00  0.00     0.075 C 
ATOM     14  C   UNL d   1       8.551   3.475 -14.361  0.00  0.00    -0.020 A 
ATOM     15  C   UNL d   1       7.375   4.166 -13.980  0.00  0.00    -0.003 A 
ATOM     16  C   UNL d   1       7.334   5.025 -12.834  0.00  0.00     0.019 A 
ATOM     17  C   UNL d   1       8.457   5.111 -12.012  0.00  0.00     0.086 A 
ATOM     18  C   UNL d   1       9.592   4.354 -12.361  0.00  0.00     0.015 A 
ATOM     19  C   UNL d   1       9.677   3.590 -13.535  0.00  0.00    -0.024 A 
ATOM     20  C   UNL d   1      10.973   2.908 -13.889  0.00  0.00     0.028 C 
ATOM     21  C   UNL d   1      11.184   2.845 -15.390  0.00  0.00     0.039 C 
ATOM     22  C   UNL d   1      10.011   2.097 -16.048  0.00  0.00     0.228 C 
ENDROOT
BRANCH  17  23
ATOM     23  N   UNL d   1       8.388   5.912 -10.856  0.00  0.00    -0.191 NA
ATOM     24  C   UNL d   1       9.433   6.463 -10.204  0.00  0.00     0.369 C 
ATOM     25  O   UNL d   1      10.631   6.378 -10.485  0.00  0.00    -0.242 OA
ATOM     26  N   UNL d   1       9.072   7.266  -9.224  0.00  0.00    -0.189 NA
BRANCH  26  27
ATOM     27  C   UNL d   1       9.957   7.780  -8.251  0.00  0.00     0.107 A 
ATOM     28  C   UNL d   1       9.669   7.422  -6.950  0.00  0.00     0.076 A 
ATOM     29  C   UNL d   1      10.436   7.841  -5.850  0.00  0.00     0.013 A 
ATOM     30 CL   UNL d   1       8.273   6.386  -6.823  0.00  0.00    -0.081 Cl
ATOM     31  C   UNL d   1      11.550   8.665  -6.080  0.00  0.00     0.002 A 
ATOM     32  C   UNL d   1      11.877   9.021  -7.407  0.00  0.00     0.013 A 
ATOM     33  C   UNL d   1      11.076   8.609  -8.495  0.00  0.00     0.076 A 
ATOM     34 CL   UNL d   1      11.464   9.202 -10.064  0.00  0.00    -0.081 Cl
ENDBRANCH  26  27
ENDBRANCH  17  23
TORSDOF 2
