REMARK  3 active torsions:
REMARK  status: ('A' for Active; 'I' for Inactive)
REMARK    1  A    between atoms: N_2  and  C_4 
REMARK    2  A    between atoms: C_4  and  C_5 
REMARK    3  A    between atoms: C_5  and  C_6 
ROOT
ATOM      1  C   UNL d   1       6.629   1.942 -14.099  0.00  0.00    -0.024 C 
ATOM      2  C   UNL d   1       7.702   2.699 -14.368  0.00  0.00    -0.003 C 
ATOM      3  C   UNL d   1       8.560   2.388 -15.552  0.00  0.00    -0.002 A 
ATOM      4  C   UNL d   1       8.009   2.072 -16.822  0.00  0.00    -0.000 A 
ATOM      5  C   UNL d   1       8.837   1.655 -17.887  0.00  0.00    -0.000 A 
ATOM      6  C   UNL d   1      10.230   1.625 -17.717  0.00  0.00    -0.000 A 
ATOM      7  C   UNL d   1      10.796   1.986 -16.480  0.00  0.00    -0.002 A 
ATOM      8  C   UNL d   1       9.953   2.362 -15.402  0.00  0.00     0.008 A 
ATOM      9  C   UNL d   1      10.561   2.730 -14.064  0.00  0.00     0.175 C 
ATOM     10  O   UNL d   1      10.412   4.104 -13.773  0.00  0.00    -0.326 OA
ATOM     11  C   UNL d   1       9.178   4.580 -13.381  0.00  0.00     0.094 A 
ATOM     12  C   UNL d   1       9.257   5.803 -12.678  0.00  0.00     0.024 A 
ATOM     13  C   UNL d   1       8.118   6.438 -12.176  0.00  0.00     0.002 A 
ATOM     14  C   UNL d   1       6.862   5.864 -12.374  0.00  0.00     0.000 A 
ATOM     15  C   UNL d   1       6.753   4.660 -13.092  0.00  0.00     0.002 A 
ATOM     16  C   UNL d   1       7.899   3.990 -13.622  0.00  0.00     0.022 A 
ENDROOT
BRANCH   1  17
ATOM     17  C   UNL d   1       6.175   0.688 -14.821  0.00  0.00     0.061 C 
BRANCH  17  18
ATOM     18  C   UNL d   1       5.662  -0.395 -13.874  0.00  0.00     0.255 C 
BRANCH  18  19
ATOM     19  N   UNL d   1       4.596  -1.213 -14.459  0.00  0.00     0.142 N 
ATOM     20  C   UNL d   1       4.958  -1.778 -15.758  0.00  0.00     0.285 C 
ATOM     21  C   UNL d   1       3.329  -0.485 -14.541  0.00  0.00     0.285 C 
ENDBRANCH  18  19
ENDBRANCH  17  18
ENDBRANCH   1  17
TORSDOF 3
