REMARK  8 active torsions:
REMARK  status: ('A' for Active; 'I' for Inactive)
REMARK    1  A    between atoms: O_2  and  C_3 
REMARK    2  A    between atoms: C_8  and  C_9 
REMARK       I    between atoms: C_9  and  N_11 
REMARK    3  A    between atoms: N_11  and  C_12 
REMARK    4  A    between atoms: C_12  and  C_13 
REMARK    5  A    between atoms: C_14  and  C_15 
REMARK    6  A    between atoms: C_15  and  N_16 
REMARK    7  A    between atoms: N_19  and  C_20 
REMARK    8  A    between atoms: C_25  and  O_26 
ROOT
ATOM      1  C   UNL d   1       6.291   3.386 -12.727  0.00  0.00    -0.003 C 
ATOM      2  C   UNL d   1       6.394   2.695 -13.871  0.00  0.00     0.006 C 
ENDROOT
BRANCH   1   3
ATOM      3  C   UNL d   1       6.519   4.877 -12.655  0.00  0.00     0.155 C 
BRANCH   3   4
ATOM      4  N   UNL d   1       7.387   5.228 -11.539  0.00  0.00    -0.228 NA
ATOM      5  C   UNL d   1       8.662   5.626 -11.625  0.00  0.00     0.293 C 
ATOM      6  O   UNL d   1       9.298   5.672 -12.683  0.00  0.00    -0.264 OA
BRANCH   5   7
ATOM      7  C   UNL d   1       9.253   6.123 -10.367  0.00  0.00     0.139 A 
ATOM      8  N   UNL d   1      10.231   7.104 -10.436  0.00  0.00    -0.241 NA
ATOM      9  C   UNL d   1      10.654   7.467  -9.176  0.00  0.00     0.082 A 
ATOM     10  C   UNL d   1      11.600   8.407  -8.731  0.00  0.00     0.021 A 
ATOM     11  C   UNL d   1       9.927   6.639  -8.273  0.00  0.00     0.021 A 
ATOM     12  C   UNL d   1      11.839   8.540  -7.354  0.00  0.00     0.026 A 
ATOM     13  C   UNL d   1      11.151   7.731  -6.423  0.00  0.00     0.094 A 
ATOM     14  C   UNL d   1      10.195   6.796  -6.894  0.00  0.00     0.026 A 
ATOM     15  C   UNL d   1       9.050   5.801  -9.047  0.00  0.00     0.026 A 
BRANCH  13  16
ATOM     16  O   UNL d   1      11.454   7.912  -5.093  0.00  0.00    -0.328 OA
ATOM     17  C   UNL d   1      11.350   6.783  -4.235  0.00  0.00     0.181 C 
ENDBRANCH  13  16
ENDBRANCH   5   7
ENDBRANCH   3   4
ENDBRANCH   1   3
BRANCH   2  18
ATOM     18  C   UNL d   1       6.232   1.185 -13.990  0.00  0.00     0.276 C 
BRANCH  18  19
ATOM     19  N   UNL d   1       7.234   0.540 -14.846  0.00  0.00     0.145 N 
ATOM     20  C   UNL d   1       7.141   0.996 -16.244  0.00  0.00     0.275 C 
ATOM     21  C   UNL d   1       8.152   0.254 -17.143  0.00  0.00     0.137 C 
ATOM     22  N   UNL d   1       9.494   0.391 -16.593  0.00  0.00    -0.343 N 
ATOM     23  C   UNL d   1       9.636   0.022 -15.195  0.00  0.00     0.137 C 
ATOM     24  C   UNL d   1       8.594   0.765 -14.336  0.00  0.00     0.275 C 
BRANCH  22  25
ATOM     25  C   UNL d   1      10.561   0.940 -17.324  0.00  0.00     0.079 A 
ATOM     26  C   UNL d   1      11.345   2.001 -16.804  0.00  0.00     0.110 A 
ATOM     27  C   UNL d   1      12.431   2.495 -17.573  0.00  0.00     0.026 A 
ATOM     28  C   UNL d   1      12.728   1.946 -18.834  0.00  0.00     0.002 A 
ATOM     29  C   UNL d   1      11.944   0.903 -19.346  0.00  0.00     0.002 A 
ATOM     30  C   UNL d   1      10.861   0.402 -18.595  0.00  0.00     0.019 A 
BRANCH  26  31
ATOM     31  O   UNL d   1      11.005   2.513 -15.566  0.00  0.00    -0.327 OA
ATOM     32  C   UNL d   1      11.703   3.643 -15.073  0.00  0.00     0.181 C 
ENDBRANCH  26  31
ENDBRANCH  22  25
ENDBRANCH  18  19
ENDBRANCH   2  18
TORSDOF 8
