REMARK  5 active torsions:
REMARK  status: ('A' for Active; 'I' for Inactive)
REMARK    1  A    between atoms: C_2  and  N_3 
REMARK    2  A    between atoms: C_7  and  C_8 
REMARK    3  A    between atoms: C_8  and  N_9 
REMARK       I    between atoms: N_9  and  C_10 
REMARK    4  A    between atoms: C_10  and  C_12 
REMARK    5  A    between atoms: C_18  and  O_19 
ROOT
ATOM      1  N   UNL d   1       8.643   5.618  -9.777  0.00  0.00    -0.232 NA
ATOM      2  C   UNL d   1       9.568   6.578  -9.783  0.00  0.00     0.277 C 
ATOM      3  O   UNL d   1      10.082   6.980 -10.825  0.00  0.00    -0.266 OA
ENDROOT
BRANCH   2   4
ATOM      4  C   UNL d   1       9.988   7.083  -8.424  0.00  0.00     0.082 A 
ATOM      5  C   UNL d   1      10.920   8.147  -8.274  0.00  0.00     0.124 A 
ATOM      6  C   UNL d   1      11.302   8.564  -6.974  0.00  0.00     0.153 A 
ATOM      7  C   UNL d   1      10.774   7.934  -5.841  0.00  0.00     0.029 A 
ATOM      8  O   UNL d   1      12.198   9.576  -6.831  0.00  0.00    -0.188 OA
ATOM      9  C   UNL d   1       9.865   6.878  -5.986  0.00  0.00     0.002 A 
ATOM     10  C   UNL d   1       9.474   6.453  -7.267  0.00  0.00     0.007 A 
BRANCH   5  11
ATOM     11  O   UNL d   1      11.471   8.804  -9.343  0.00  0.00    -0.326 OA
ATOM     12  C   UNL d   1      12.715   8.267  -9.774  0.00  0.00     0.181 C 
ENDBRANCH   5  11
ENDBRANCH   2   4
BRANCH   1  13
ATOM     13  C   UNL d   1       8.344   4.777 -10.937  0.00  0.00     0.162 C 
BRANCH  13  14
ATOM     14  C   UNL d   1       7.884   5.581 -12.186  0.00  0.00     0.243 C 
ATOM     15  N   UNL d   1       7.871   4.754 -13.390  0.00  0.00     0.137 N 
ATOM     16  C   UNL d   1       6.663   3.958 -13.280  0.00  0.00     0.250 C 
ATOM     17  C   UNL d   1       5.630   4.950 -12.750  0.00  0.00     0.037 C 
ATOM     18  C   UNL d   1       6.438   6.038 -12.049  0.00  0.00     0.037 C 
BRANCH  15  19
ATOM     19  C   UNL d   1       9.088   3.943 -13.586  0.00  0.00     0.250 C 
ATOM     20  C   UNL d   1      10.358   4.808 -13.680  0.00  0.00     0.037 C 
ENDBRANCH  15  19
ENDBRANCH  13  14
ENDBRANCH   1  13
TORSDOF 5
