REMARK  12 active torsions:
REMARK  status: ('A' for Active; 'I' for Inactive)
REMARK    1  A    between atoms: C_2  and  C_3 
REMARK    2  A    between atoms: C_3  and  C_4 
REMARK    3  A    between atoms: C_5  and  C_6 
REMARK       I    between atoms: C_6  and  N_8 
REMARK    4  A    between atoms: N_8  and  C_9 
REMARK    5  A    between atoms: C_9  and  C_10 
REMARK    6  A    between atoms: C_10  and  C_11 
REMARK    7  A    between atoms: C_11  and  C_12 
REMARK    8  A    between atoms: C_12  and  N_13 
REMARK    9  A    between atoms: N_16  and  C_17 
REMARK   10  A    between atoms: C_22  and  O_23 
REMARK   11  A    between atoms: N_29  and  C_30 
REMARK   12  A    between atoms: C_30  and  C_31 
ROOT
ATOM      1  C   UNL d   1       9.283   6.409 -10.351  0.00  0.00     0.296 C 
ATOM      2  O   UNL d   1       9.856   6.718 -11.388  0.00  0.00    -0.264 OA
ATOM      3  N   UNL d   1       8.284   5.520 -10.318  0.00  0.00    -0.233 NA
ENDROOT
BRANCH   3   4
ATOM      4  C   UNL d   1       7.590   5.020 -11.493  0.00  0.00     0.129 C 
BRANCH   4   5
ATOM      5  C   UNL d   1       8.506   4.156 -12.377  0.00  0.00     0.029 C 
BRANCH   5   6
ATOM      6  C   UNL d   1       7.746   3.493 -13.523  0.00  0.00     0.037 C 
BRANCH   6   7
ATOM      7  C   UNL d   1       8.603   2.413 -14.229  0.00  0.00     0.251 C 
BRANCH   7   8
ATOM      8  N   UNL d   1       8.142   2.140 -15.587  0.00  0.00     0.141 N 
ATOM      9  C   UNL d   1       6.754   1.661 -15.591  0.00  0.00     0.274 C 
ATOM     10  C   UNL d   1       6.284   1.455 -17.039  0.00  0.00     0.137 C 
ATOM     11  N   UNL d   1       7.147   0.493 -17.688  0.00  0.00    -0.343 N 
ATOM     12  C   UNL d   1       8.565   0.814 -17.634  0.00  0.00     0.137 C 
ATOM     13  C   UNL d   1       8.995   1.096 -16.177  0.00  0.00     0.274 C 
BRANCH  11  14
ATOM     14  C   UNL d   1       6.668  -0.683 -18.312  0.00  0.00     0.079 A 
ATOM     15  C   UNL d   1       5.607  -1.452 -17.755  0.00  0.00     0.110 A 
ATOM     16  C   UNL d   1       5.152  -2.599 -18.464  0.00  0.00     0.026 A 
ATOM     17  C   UNL d   1       5.744  -2.983 -19.678  0.00  0.00     0.002 A 
ATOM     18  C   UNL d   1       6.798  -2.231 -20.212  0.00  0.00     0.002 A 
ATOM     19  C   UNL d   1       7.253  -1.086 -19.535  0.00  0.00     0.019 A 
BRANCH  15  20
ATOM     20  O   UNL d   1       5.073  -1.079 -16.535  0.00  0.00    -0.327 OA
ATOM     21  C   UNL d   1       3.970  -1.798 -16.014  0.00  0.00     0.181 C 
ENDBRANCH  15  20
ENDBRANCH  11  14
ENDBRANCH   7   8
ENDBRANCH   6   7
ENDBRANCH   5   6
ENDBRANCH   4   5
ENDBRANCH   3   4
BRANCH   1  22
ATOM     22  C   UNL d   1       9.533   7.090  -9.040  0.00  0.00     0.175 C 
ATOM     23  C   UNL d   1      10.353   8.170  -8.823  0.00  0.00     0.082 C 
ATOM     24  N   UNL d   1      10.171   8.430  -7.472  0.00  0.00    -0.231 N 
ATOM     25  N   UNL d   1       9.188   7.650  -6.948  0.00  0.00    -0.064 NA
ATOM     26  N   UNL d   1       8.859   6.795  -7.851  0.00  0.00    -0.124 NA
BRANCH  23  27
ATOM     27  C   UNL d   1      11.224   8.965  -9.750  0.00  0.00     0.047 C 
BRANCH  27  28
ATOM     28  C   UNL d   1      12.518   8.252 -10.092  0.00  0.00     0.006 C 
ATOM     29  C   UNL d   1      13.499   8.176  -8.969  0.00  0.00     0.000 C 
ENDBRANCH  27  28
ENDBRANCH  23  27
BRANCH  24  30
ATOM     30  C   UNL d   1      10.882   9.339  -6.593  0.00  0.00     0.156 C 
BRANCH  30  31
ATOM     31  C   UNL d   1      11.271   8.760  -5.220  0.00  0.00     0.008 A 
ATOM     32  C   UNL d   1      11.659   7.416  -4.998  0.00  0.00     0.033 A 
ATOM     33  C   UNL d   1      12.033   6.986  -3.699  0.00  0.00     0.006 A 
ATOM     34 BR   UNL d   1      11.816   6.201  -6.455  0.00  0.00    -0.049 Br
ATOM     35  C   UNL d   1      12.031   7.886  -2.620  0.00  0.00     0.001 A 
ATOM     36  C   UNL d   1      11.669   9.217  -2.847  0.00  0.00    -0.000 A 
ATOM     37  C   UNL d   1      11.287   9.635  -4.130  0.00  0.00    -0.002 A 
ENDBRANCH  30  31
ENDBRANCH  24  30
ENDBRANCH   1  22
TORSDOF 12
