REMARK  3 active torsions:
REMARK  status: ('A' for Active; 'I' for Inactive)
REMARK    1  A    between atoms: C_7  and  N_8 
REMARK    2  A    between atoms: N_11  and  C_12 
REMARK    3  A    between atoms: C_12  and  C_13 
ROOT
ATOM      1  N   UNL d   1      10.501   8.262  -6.402  0.00  0.00    -0.343 N 
ATOM      2  C   UNL d   1      11.066   8.993  -7.518  0.00  0.00     0.137 C 
ATOM      3  C   UNL d   1      11.291   8.035  -8.704  0.00  0.00     0.275 C 
ATOM      4  N   UNL d   1      10.041   7.355  -9.060  0.00  0.00     0.146 N 
ATOM      5  C   UNL d   1       9.589   6.554  -7.916  0.00  0.00     0.275 C 
ATOM      6  C   UNL d   1       9.330   7.449  -6.694  0.00  0.00     0.137 C 
ENDROOT
BRANCH   1   7
ATOM      7  C   UNL d   1      11.128   8.251  -5.149  0.00  0.00     0.084 A 
ATOM      8  C   UNL d   1      11.401   9.467  -4.482  0.00  0.00     0.155 A 
ATOM      9  F   UNL d   1      11.049  10.645  -5.052  0.00  0.00    -0.203 F 
ATOM     10  C   UNL d   1      11.994   9.452  -3.205  0.00  0.00     0.031 A 
ATOM     11  C   UNL d   1      12.330   8.233  -2.588  0.00  0.00     0.002 A 
ATOM     12  C   UNL d   1      12.069   7.022  -3.253  0.00  0.00     0.002 A 
ATOM     13  C   UNL d   1      11.462   7.031  -4.524  0.00  0.00     0.019 A 
ENDBRANCH   1   7
BRANCH   4  14
ATOM     14  C   UNL d   1      10.243   6.470 -10.204  0.00  0.00     0.283 C 
BRANCH  14  15
ATOM     15  C   UNL d   1       9.076   6.377 -11.130  0.00  0.00     0.041 A 
ATOM     16  S   UNL d   1       8.084   4.943 -11.226  0.00  0.00    -0.089 SA
ATOM     17  C   UNL d   1       7.072   5.678 -12.436  0.00  0.00     0.035 A 
ATOM     18  C   UNL d   1       7.510   6.938 -12.758  0.00  0.00     0.007 A 
ATOM     19  C   UNL d   1       8.671   7.325 -12.037  0.00  0.00     0.005 A 
ENDBRANCH  14  15
ENDBRANCH   4  14
TORSDOF 3
