REMARK  8 active torsions:
REMARK  status: ('A' for Active; 'I' for Inactive)
REMARK    1  A    between atoms: C_3  and  S_4 
REMARK    2  A    between atoms: S_4  and  C_5 
REMARK    3  A    between atoms: C_5  and  C_6 
REMARK    4  A    between atoms: C_6  and  C_7 
REMARK    5  A    between atoms: C_7  and  N_8 
REMARK    6  A    between atoms: N_13  and  C_14 
REMARK    7  A    between atoms: C_17  and  C_18 
REMARK    8  A    between atoms: C_28  and  C_29 
ROOT
ATOM      1  N   UNL d   1       6.849   0.529 -18.113  0.00  0.00     0.138 N 
ATOM      2  C   UNL d   1       6.850   0.955 -19.508  0.00  0.00     0.252 C 
ATOM      3  C   UNL d   1       6.113  -0.169 -20.236  0.00  0.00     0.052 C 
ATOM      4  C   UNL d   1       4.594   0.002 -20.315  0.00  0.00     0.021 C 
ATOM      5  C   UNL d   1       4.083  -1.407 -20.039  0.00  0.00     0.077 C 
ATOM      6  N   UNL d   1       5.024  -1.979 -19.084  0.00  0.00    -0.252 NA
ATOM      7  C   UNL d   1       6.336  -1.412 -19.377  0.00  0.00     0.097 C 
ATOM      8  C   UNL d   1       7.090  -0.910 -18.140  0.00  0.00     0.266 C 
ENDROOT
BRANCH   1   9
ATOM      9  C   UNL d   1       7.804   1.278 -17.299  0.00  0.00     0.251 C 
BRANCH   9  10
ATOM     10  C   UNL d   1       8.046   0.648 -15.908  0.00  0.00     0.047 C 
BRANCH  10  11
ATOM     11  C   UNL d   1       8.651   1.641 -14.912  0.00  0.00     0.067 C 
BRANCH  11  12
ATOM     12  S   UNL d   1       7.375   2.789 -14.322  0.00  0.00    -0.075 SA
BRANCH  12  13
ATOM     13  C   UNL d   1       8.375   3.903 -13.396  0.00  0.00     0.193 A 
ATOM     14  N   UNL d   1       8.012   4.385 -12.191  0.00  0.00    -0.287 N 
ATOM     15  C   UNL d   1       6.802   4.095 -11.445  0.00  0.00     0.134 C 
ATOM     16  C   UNL d   1       9.043   5.200 -11.871  0.00  0.00     0.185 A 
ATOM     17  N   UNL d   1       9.953   5.242 -12.856  0.00  0.00    -0.127 NA
ATOM     18  N   UNL d   1       9.534   4.385 -13.839  0.00  0.00    -0.122 NA
BRANCH  16  19
ATOM     19  C   UNL d   1       9.209   5.980 -10.630  0.00  0.00     0.120 A 
ATOM     20  N   UNL d   1       8.704   5.488  -9.476  0.00  0.00    -0.221 NA
ATOM     21  C   UNL d   1       8.867   6.226  -8.372  0.00  0.00     0.199 A 
ATOM     22  N   UNL d   1       9.490   7.399  -8.280  0.00  0.00    -0.223 NA
ATOM     23  C   UNL d   1       9.966   7.917  -9.430  0.00  0.00     0.102 A 
ATOM     24  C   UNL d   1       9.861   7.230 -10.653  0.00  0.00     0.043 A 
ENDBRANCH  16  19
ENDBRANCH  12  13
ENDBRANCH  11  12
ENDBRANCH  10  11
ENDBRANCH   9  10
ENDBRANCH   1   9
BRANCH   6  25
ATOM     25  C   UNL d   1       4.949  -3.363 -18.803  0.00  0.00     0.036 A 
ATOM     26  C   UNL d   1       5.997  -4.022 -18.115  0.00  0.00     0.011 A 
ATOM     27  C   UNL d   1       5.941  -5.404 -17.862  0.00  0.00     0.005 A 
ATOM     28  C   UNL d   1       4.831  -6.157 -18.285  0.00  0.00     0.071 A 
ATOM     29  C   UNL d   1       3.779  -5.516 -18.969  0.00  0.00     0.005 A 
ATOM     30  C   UNL d   1       3.829  -4.133 -19.217  0.00  0.00     0.011 A 
BRANCH  28  31
ATOM     31  C   UNL d   1       4.796  -7.651 -18.026  0.00  0.00     0.419 C 
ATOM     32  F   UNL d   1       3.550  -8.128 -18.073  0.00  0.00    -0.166 F 
ATOM     33  F   UNL d   1       5.531  -8.265 -18.956  0.00  0.00    -0.166 F 
ATOM     34  F   UNL d   1       5.310  -7.916 -16.823  0.00  0.00    -0.166 F 
ENDBRANCH  28  31
ENDBRANCH   6  25
TORSDOF 8
