REMARK  11 active torsions:
REMARK  status: ('A' for Active; 'I' for Inactive)
REMARK    1  A    between atoms: N_2  and  C_4 
REMARK    2  A    between atoms: C_4  and  C_5 
REMARK    3  A    between atoms: C_11  and  C_12 
REMARK       I    between atoms: C_12  and  N_14 
REMARK    4  A    between atoms: N_14  and  C_15 
REMARK    5  A    between atoms: C_15  and  C_16 
REMARK    6  A    between atoms: C_16  and  C_17 
REMARK    7  A    between atoms: C_17  and  C_18 
REMARK    8  A    between atoms: C_18  and  N_19 
REMARK    9  A    between atoms: N_22  and  C_23 
REMARK   10  A    between atoms: C_25  and  C_26 
REMARK   11  A    between atoms: C_31  and  C_32 
ROOT
ATOM      1  N   UNL d   1       9.224   2.441 -14.250  0.00  0.00     0.141 N 
ATOM      2  C   UNL d   1       8.650   3.188 -15.361  0.00  0.00     0.274 C 
ATOM      3  C   UNL d   1       7.952   2.251 -16.370  0.00  0.00     0.138 C 
ATOM      4  N   UNL d   1       8.900   1.246 -16.822  0.00  0.00    -0.330 N 
ATOM      5  C   UNL d   1       9.577   0.521 -15.755  0.00  0.00     0.138 C 
ATOM      6  C   UNL d   1      10.230   1.517 -14.781  0.00  0.00     0.274 C 
ENDROOT
BRANCH   1   7
ATOM      7  C   UNL d   1       9.838   3.391 -13.318  0.00  0.00     0.251 C 
BRANCH   7   8
ATOM      8  C   UNL d   1       8.772   4.108 -12.455  0.00  0.00     0.037 C 
BRANCH   8   9
ATOM      9  C   UNL d   1       9.347   4.985 -11.349  0.00  0.00     0.029 C 
BRANCH   9  10
ATOM     10  C   UNL d   1       8.244   5.582 -10.468  0.00  0.00     0.129 C 
BRANCH  10  11
ATOM     11  N   UNL d   1       8.798   6.461  -9.449  0.00  0.00    -0.233 NA
ATOM     12  C   UNL d   1       9.470   5.981  -8.390  0.00  0.00     0.294 C 
ATOM     13  O   UNL d   1       9.639   4.790  -8.201  0.00  0.00    -0.264 OA
BRANCH  12  14
ATOM     14  C   UNL d   1      10.037   7.022  -7.496  0.00  0.00     0.158 A 
ATOM     15  N   UNL d   1       9.853   8.380  -7.642  0.00  0.00    -0.222 NA
ATOM     16  C   UNL d   1      10.524   8.923  -6.638  0.00  0.00     0.148 A 
ATOM     17  C   UNL d   1      10.740  10.253  -6.292  0.00  0.00     0.037 C 
ATOM     18  N   UNL d   1      11.173   7.962  -5.846  0.00  0.00    -0.291 N 
ATOM     19  C   UNL d   1      11.385  10.552  -5.183  0.00  0.00     0.004 C 
ATOM     20  C   UNL d   1      11.997   9.610  -4.359  0.00  0.00     0.015 C 
ATOM     21  C   UNL d   1      11.898   8.323  -4.731  0.00  0.00     0.076 C 
ATOM     22  C   UNL d   1      10.882   6.751  -6.444  0.00  0.00     0.105 A 
BRANCH  21  23
ATOM     23  C   UNL d   1      12.592   7.329  -3.871  0.00  0.00     0.294 C 
BRANCH  23  24
ATOM     24  N   UNL d   1      11.857   7.029  -2.656  0.00  0.00     0.147 N 
ATOM     25  C   UNL d   1      12.632   6.018  -1.943  0.00  0.00     0.286 C 
ATOM     26  C   UNL d   1      10.770   6.307  -3.257  0.00  0.00     0.286 C 
ENDBRANCH  23  24
ENDBRANCH  21  23
ENDBRANCH  12  14
ENDBRANCH  10  11
ENDBRANCH   9  10
ENDBRANCH   8   9
ENDBRANCH   7   8
ENDBRANCH   1   7
BRANCH   4  27
ATOM     27  C   UNL d   1       9.153   1.011 -18.183  0.00  0.00     0.143 A 
ATOM     28  N   UNL d   1       8.174   1.305 -19.069  0.00  0.00    -0.214 NA
ATOM     29  C   UNL d   1       8.397   1.032 -20.360  0.00  0.00     0.140 A 
ATOM     30  N   UNL d   1       9.554   0.597 -20.863  0.00  0.00    -0.227 NA
ATOM     31  C   UNL d   1      10.552   0.312 -20.006  0.00  0.00     0.157 A 
ATOM     32  C   UNL d   1      10.394   0.503 -18.619  0.00  0.00     0.060 A 
BRANCH  29  33
ATOM     33  C   UNL d   1       7.307   1.434 -21.370  0.00  0.00     0.052 C 
ATOM     34  C   UNL d   1       7.449   2.926 -21.721  0.00  0.00     0.008 C 
ATOM     35  C   UNL d   1       5.890   1.176 -20.798  0.00  0.00     0.008 C 
ATOM     36  C   UNL d   1       7.431   0.607 -22.674  0.00  0.00     0.008 C 
ENDBRANCH  29  33
BRANCH  31  37
ATOM     37  C   UNL d   1      11.864  -0.181 -20.609  0.00  0.00     0.435 C 
ATOM     38  F   UNL d   1      12.706  -0.606 -19.661  0.00  0.00    -0.165 F 
ATOM     39  F   UNL d   1      11.641  -1.182 -21.461  0.00  0.00    -0.165 F 
ATOM     40  F   UNL d   1      12.457   0.804 -21.284  0.00  0.00    -0.165 F 
ENDBRANCH  31  37
ENDBRANCH   4  27
TORSDOF 11
