REMARK  3 active torsions:
REMARK  status: ('A' for Active; 'I' for Inactive)
REMARK    1  A    between atoms: C_2  and  C_3 
REMARK    2  A    between atoms: C_3  and  C_4 
REMARK    3  A    between atoms: C_4  and  N_5 
ROOT
ATOM      1  N   UNL d   1       9.957   6.710  -8.919  0.00  0.00     0.142 N 
ATOM      2  C   UNL d   1       9.755   8.130  -9.213  0.00  0.00     0.255 C 
ATOM      3  C   UNL d   1      10.938   8.929  -8.650  0.00  0.00     0.061 C 
ATOM      4  C   UNL d   1      11.185   8.631  -7.182  0.00  0.00    -0.022 A 
ATOM      5  C   UNL d   1      11.958   9.507  -6.394  0.00  0.00    -0.004 A 
ATOM      6  C   UNL d   1      12.228   9.195  -5.051  0.00  0.00     0.010 A 
ATOM      7  C   UNL d   1      11.716   8.006  -4.493  0.00  0.00     0.068 A 
ATOM      8  C   UNL d   1      12.035   7.668  -3.133  0.00  0.00     0.101 C 
ATOM      9  N   UNL d   1      12.283   7.392  -2.042  0.00  0.00    -0.191 NA
ATOM     10  C   UNL d   1      10.928   7.138  -5.277  0.00  0.00     0.008 A 
ATOM     11  C   UNL d   1      10.661   7.447  -6.625  0.00  0.00     0.008 A 
ATOM     12  C   UNL d   1       9.773   6.538  -7.475  0.00  0.00     0.276 C 
ENDROOT
BRANCH   1  13
ATOM     13  C   UNL d   1       8.975   5.870  -9.611  0.00  0.00     0.251 C 
BRANCH  13  14
ATOM     14  C   UNL d   1       9.193   5.832 -11.146  0.00  0.00     0.035 C 
BRANCH  14  15
ATOM     15  C   UNL d   1       7.872   5.702 -11.923  0.00  0.00     0.002 C 
ATOM     16  C   UNL d   1       7.306   4.286 -11.889  0.00  0.00     0.000 C 
ENDBRANCH  14  15
ENDBRANCH  13  14
ENDBRANCH   1  13
TORSDOF 3
