REMARK  0 active torsions:
REMARK  status: ('A' for Active; 'I' for Inactive)
REMARK       I    between atoms: N_2  and  C_4 
REMARK       I    between atoms: C_4  and  N_6 
REMARK       I    between atoms: N_6  and  C_7 
ROOT
ATOM      1  C   UNL d   1      12.420   8.398  -9.423  0.00  0.00     0.144 C 
ATOM      2  N   UNL d   1      11.043   8.374  -8.933  0.00  0.00    -0.177 N 
ATOM      3  C   UNL d   1      10.107   7.901  -9.956  0.00  0.00     0.144 C 
ATOM      4  C   UNL d   1      10.644   8.766  -7.650  0.00  0.00     0.761 C 
ATOM      5  N   UNL d   1       9.409   8.789  -7.287  0.00  0.00     0.061 N 
ATOM      6  N   UNL d   1      11.665   9.124  -6.775  0.00  0.00     0.136 NA
ATOM      7  C   UNL d   1      11.688   9.588  -5.467  0.00  0.00     0.802 C 
ATOM      8  N   UNL d   1      10.659   9.999  -4.828  0.00  0.00     0.064 N 
ATOM      9  N   UNL d   1      12.921   9.589  -4.862  0.00  0.00     0.064 N 
ENDROOT
TORSDOF 0
