REMARK  6 active torsions:
REMARK  status: ('A' for Active; 'I' for Inactive)
REMARK    1  A    between atoms: C_2  and  C_3 
REMARK    2  A    between atoms: C_2  and  C_18 
REMARK    3  A    between atoms: C_3  and  C_4 
REMARK    4  A    between atoms: C_4  and  C_5 
REMARK    5  A    between atoms: C_5  and  N_6 
REMARK    6  A    between atoms: C_9  and  C_10 
ROOT
ATOM      1  N   UNL d   1       9.221   5.448 -10.229  0.00  0.00     0.137 N 
ATOM      2  C   UNL d   1       8.365   5.443  -9.046  0.00  0.00     0.251 C 
ATOM      3  C   UNL d   1       9.137   6.038  -7.885  0.00  0.00     0.040 C 
ATOM      4  C   UNL d   1       9.629   7.466  -8.169  0.00  0.00     0.026 C 
ATOM      5  C   UNL d   1      10.388   7.470  -9.504  0.00  0.00     0.040 C 
ATOM      6  C   UNL d   1       9.563   6.819 -10.600  0.00  0.00     0.251 C 
ENDROOT
BRANCH   1   7
ATOM      7  C   UNL d   1       8.481   4.852 -11.338  0.00  0.00     0.251 C 
BRANCH   7   8
ATOM      8  C   UNL d   1       9.439   4.084 -12.229  0.00  0.00     0.043 C 
BRANCH   8   9
ATOM      9  C   UNL d   1       9.850   4.866 -13.495  0.00  0.00     0.071 C 
BRANCH   9  10
ATOM     10  C   UNL d   1      10.937   4.201 -14.356  0.00  0.00     0.173 C 
ATOM     11  O   UNL d   1      12.034   4.766 -14.441  0.00  0.00    -0.291 OA
BRANCH  10  12
ATOM     12  C   UNL d   1      10.567   2.930 -15.052  0.00  0.00     0.035 C 
ATOM     13  C   UNL d   1      11.479   2.347 -15.983  0.00  0.00     0.005 C 
ATOM     14  C   UNL d   1      11.146   1.122 -16.613  0.00  0.00     0.030 C 
ATOM     15  C   UNL d   1       9.953   0.436 -16.277  0.00  0.00     0.140 C 
ATOM     16  C   UNL d   1       9.064   1.029 -15.347  0.00  0.00     0.030 C 
ATOM     17  F   UNL d   1       9.640  -0.742 -16.896  0.00  0.00    -0.204 F 
ATOM     18  C   UNL d   1       9.323   2.292 -14.808  0.00  0.00     0.005 C 
ENDBRANCH  10  12
ENDBRANCH   9  10
ENDBRANCH   8   9
ENDBRANCH   7   8
ENDBRANCH   1   7
BRANCH   4  19
ATOM     19  C   UNL d   1      10.488   8.021  -7.035  0.00  0.00    -0.022 A 
ATOM     20  C   UNL d   1      11.125   9.274  -7.181  0.00  0.00    -0.004 A 
ATOM     21  C   UNL d   1      11.919   9.793  -6.142  0.00  0.00    -0.000 A 
ATOM     22  C   UNL d   1      12.093   9.066  -4.947  0.00  0.00    -0.000 A 
ATOM     23  C   UNL d   1      11.473   7.814  -4.800  0.00  0.00    -0.000 A 
ATOM     24  C   UNL d   1      10.673   7.302  -5.830  0.00  0.00    -0.004 A 
ENDBRANCH   4  19
TORSDOF 6
