REMARK  7 active torsions:
REMARK  status: ('A' for Active; 'I' for Inactive)
REMARK    1  A    between atoms: C_2  and  C_3 
REMARK    2  A    between atoms: C_2  and  C_20 
REMARK    3  A    between atoms: C_3  and  C_4 
REMARK    4  A    between atoms: C_4  and  C_5 
REMARK    5  A    between atoms: C_5  and  C_6 
REMARK    6  A    between atoms: C_6  and  N_7 
REMARK    7  A    between atoms: N_10  and  C_11 
ROOT
ATOM      1  C   UNL d   1       8.664   2.489 -14.656  0.00  0.00     0.036 C 
ENDROOT
BRANCH   1   2
ATOM      2  C   UNL d   1       8.970   1.937 -16.056  0.00  0.00     0.010 C 
BRANCH   2   3
ATOM      3  C   UNL d   1      10.475   1.681 -16.290  0.00  0.00     0.071 C 
BRANCH   3   4
ATOM      4  C   UNL d   1      10.768   0.411 -17.106  0.00  0.00     0.197 C 
ATOM      5  O   UNL d   1      10.146  -0.627 -16.882  0.00  0.00    -0.289 OA
BRANCH   4   6
ATOM      6  C   UNL d   1      11.859   0.421 -18.126  0.00  0.00     0.145 A 
ATOM      7  S   UNL d   1      12.664   1.943 -18.548  0.00  0.00    -0.064 SA
ATOM      8  C   UNL d   1      13.686   1.049 -19.666  0.00  0.00     0.049 A 
ATOM      9  C   UNL d   1      13.336  -0.333 -19.637  0.00  0.00     0.088 A 
ATOM     10  C   UNL d   1      14.711   1.528 -20.502  0.00  0.00     0.008 A 
ATOM     11  N   UNL d   1      12.303  -0.670 -18.769  0.00  0.00    -0.236 NA
ATOM     12  C   UNL d   1      14.062  -1.211 -20.470  0.00  0.00     0.020 A 
ATOM     13  C   UNL d   1      15.090  -0.739 -21.308  0.00  0.00     0.002 A 
ATOM     14  C   UNL d   1      15.415   0.632 -21.326  0.00  0.00     0.001 A 
ENDBRANCH   4   6
ENDBRANCH   3   4
ENDBRANCH   2   3
ENDBRANCH   1   2
BRANCH   1  15
ATOM     15  C   UNL d   1       9.157   3.932 -14.446  0.00  0.00     0.250 C 
BRANCH  15  16
ATOM     16  N   UNL d   1       8.695   4.478 -13.172  0.00  0.00     0.141 N 
ATOM     17  C   UNL d   1       8.834   5.938 -13.191  0.00  0.00     0.274 C 
ATOM     18  C   UNL d   1       8.350   6.560 -11.870  0.00  0.00     0.137 C 
ATOM     19  N   UNL d   1       9.097   5.976 -10.764  0.00  0.00    -0.344 N 
ATOM     20  C   UNL d   1       9.062   4.525 -10.720  0.00  0.00     0.137 C 
ATOM     21  C   UNL d   1       9.517   3.951 -12.078  0.00  0.00     0.274 C 
BRANCH  19  22
ATOM     22  C   UNL d   1       9.728   6.753  -9.773  0.00  0.00     0.056 A 
ATOM     23  C   UNL d   1       9.845   6.283  -8.443  0.00  0.00     0.018 A 
ATOM     24  C   UNL d   1      10.499   7.055  -7.463  0.00  0.00     0.013 A 
ATOM     25  C   UNL d   1      11.040   8.309  -7.796  0.00  0.00     0.058 A 
ATOM     26  C   UNL d   1      10.927   8.788  -9.114  0.00  0.00     0.013 A 
ATOM     27 CL   UNL d   1      11.832   9.256  -6.595  0.00  0.00    -0.082 Cl
ATOM     28  C   UNL d   1      10.272   8.018 -10.093  0.00  0.00     0.018 A 
ENDBRANCH  19  22
ENDBRANCH  15  16
ENDBRANCH   1  15
TORSDOF 7
