REMARK  8 active torsions:
REMARK  status: ('A' for Active; 'I' for Inactive)
REMARK    1  A    between atoms: O_2  and  C_3 
REMARK    2  A    between atoms: C_8  and  C_9 
REMARK       I    between atoms: C_9  and  N_11 
REMARK    3  A    between atoms: N_11  and  C_12 
REMARK    4  A    between atoms: C_12  and  C_13 
REMARK    5  A    between atoms: C_13  and  C_14 
REMARK    6  A    between atoms: C_14  and  C_16 
REMARK    7  A    between atoms: C_16  and  N_17 
REMARK    8  A    between atoms: N_20  and  C_21 
ROOT
ATOM      1  C   UNL d   1       6.057   2.967 -13.685  0.00  0.00     0.196 C 
ATOM      2  F   UNL d   1       5.069   2.655 -12.843  0.00  0.00    -0.235 F 
ENDROOT
BRANCH   1   3
ATOM      3  C   UNL d   1       7.133   3.653 -12.825  0.00  0.00     0.064 C 
BRANCH   3   4
ATOM      4  C   UNL d   1       7.035   5.183 -12.781  0.00  0.00     0.132 C 
BRANCH   4   5
ATOM      5  N   UNL d   1       7.715   5.711 -11.610  0.00  0.00    -0.233 NA
ATOM      6  C   UNL d   1       9.043   5.846 -11.479  0.00  0.00     0.293 C 
ATOM      7  O   UNL d   1       9.848   5.600 -12.375  0.00  0.00    -0.264 OA
BRANCH   6   8
ATOM      8  C   UNL d   1       9.487   6.404 -10.192  0.00  0.00     0.139 A 
ATOM      9  N   UNL d   1      10.563   7.266 -10.193  0.00  0.00    -0.241 NA
ATOM     10  C   UNL d   1      10.842   7.710  -8.927  0.00  0.00     0.082 A 
ATOM     11  C   UNL d   1      11.812   8.585  -8.446  0.00  0.00     0.021 A 
ATOM     12  C   UNL d   1       9.904   7.062  -8.066  0.00  0.00     0.021 A 
ATOM     13  C   UNL d   1      11.883   8.855  -7.071  0.00  0.00     0.026 A 
ATOM     14  C   UNL d   1      10.995   8.220  -6.165  0.00  0.00     0.094 A 
ATOM     15  C   UNL d   1      10.010   7.344  -6.676  0.00  0.00     0.026 A 
ATOM     16  C   UNL d   1       9.060   6.237  -8.892  0.00  0.00     0.026 A 
BRANCH  14  17
ATOM     17  O   UNL d   1      11.059   8.417  -4.805  0.00  0.00    -0.328 OA
ATOM     18  C   UNL d   1      11.999   9.355  -4.302  0.00  0.00     0.181 C 
ENDBRANCH  14  17
ENDBRANCH   6   8
ENDBRANCH   4   5
ENDBRANCH   3   4
ENDBRANCH   1   3
BRANCH   1  19
ATOM     19  C   UNL d   1       6.538   1.672 -14.376  0.00  0.00     0.285 C 
BRANCH  19  20
ATOM     20  N   UNL d   1       6.885   1.927 -15.778  0.00  0.00     0.144 N 
ATOM     21  C   UNL d   1       8.286   2.336 -15.909  0.00  0.00     0.274 C 
ATOM     22  C   UNL d   1       8.630   2.642 -17.386  0.00  0.00     0.137 C 
ATOM     23  N   UNL d   1       8.273   1.518 -18.236  0.00  0.00    -0.344 N 
ATOM     24  C   UNL d   1       6.919   1.002 -18.073  0.00  0.00     0.137 C 
ATOM     25  C   UNL d   1       6.630   0.727 -16.580  0.00  0.00     0.274 C 
BRANCH  23  26
ATOM     26  C   UNL d   1       9.205   0.867 -19.065  0.00  0.00     0.068 A 
ATOM     27  C   UNL d   1      10.459   0.389 -18.601  0.00  0.00     0.084 A 
ATOM     28  C   UNL d   1      11.352  -0.222 -19.502  0.00  0.00     0.070 A 
ATOM     29 CL   UNL d   1      10.932   0.491 -16.933  0.00  0.00    -0.080 Cl
ATOM     30  C   UNL d   1      11.008  -0.385 -20.856  0.00  0.00     0.012 A 
ATOM     31 CL   UNL d   1      12.888  -0.814 -18.982  0.00  0.00    -0.081 Cl
ATOM     32  C   UNL d   1       9.759   0.072 -21.311  0.00  0.00     0.002 A 
ATOM     33  C   UNL d   1       8.867   0.690 -20.425  0.00  0.00     0.018 A 
ENDBRANCH  23  26
ENDBRANCH  19  20
ENDBRANCH   1  19
TORSDOF 8
