REMARK  8 active torsions:
REMARK  status: ('A' for Active; 'I' for Inactive)
REMARK    1  A    between atoms: O_2  and  C_3 
REMARK    2  A    between atoms: C_8  and  N_9 
REMARK    3  A    between atoms: N_12  and  C_13 
REMARK    4  A    between atoms: C_13  and  C_14 
REMARK    5  A    between atoms: C_14  and  C_16 
REMARK    6  A    between atoms: C_16  and  C_17 
REMARK    7  A    between atoms: C_17  and  N_18 
REMARK       I    between atoms: N_18  and  C_19 
REMARK    8  A    between atoms: C_19  and  C_21 
ROOT
ATOM      1  C   UNL d   1       6.855   2.015 -15.057  0.00  0.00     0.188 C 
ATOM      2  O   UNL d   1       6.280   0.757 -14.796  0.00  0.00    -0.221 OA
ENDROOT
BRANCH   1   3
ATOM      3  C   UNL d   1       6.532   2.923 -13.848  0.00  0.00     0.283 C 
BRANCH   3   4
ATOM      4  N   UNL d   1       7.457   4.050 -13.629  0.00  0.00     0.144 N 
ATOM      5  C   UNL d   1       6.753   5.068 -12.840  0.00  0.00     0.274 C 
ATOM      6  C   UNL d   1       7.628   6.276 -12.541  0.00  0.00     0.137 C 
ATOM      7  N   UNL d   1       8.901   5.891 -11.974  0.00  0.00    -0.343 N 
ATOM      8  C   UNL d   1       9.621   4.811 -12.629  0.00  0.00     0.137 C 
ATOM      9  C   UNL d   1       8.662   3.662 -12.862  0.00  0.00     0.274 C 
BRANCH   7  10
ATOM     10  C   UNL d   1       9.382   6.465 -10.786  0.00  0.00     0.079 A 
ATOM     11  C   UNL d   1       9.632   7.854 -10.727  0.00  0.00     0.110 A 
ATOM     12  C   UNL d   1      10.162   8.422  -9.562  0.00  0.00     0.026 A 
ATOM     13  C   UNL d   1      10.432   7.615  -8.423  0.00  0.00     0.002 A 
ATOM     14  C   UNL d   1      10.170   6.226  -8.491  0.00  0.00     0.002 A 
ATOM     15  C   UNL d   1       9.657   5.659  -9.655  0.00  0.00     0.019 A 
BRANCH  11  16
ATOM     16  O   UNL d   1       9.384   8.606 -11.861  0.00  0.00    -0.327 OA
ATOM     17  C   UNL d   1       8.171   9.274 -12.031  0.00  0.00     0.181 C 
ENDBRANCH  11  16
ENDBRANCH   7  10
ENDBRANCH   3   4
ENDBRANCH   1   3
BRANCH   1  18
ATOM     18  C   UNL d   1       8.356   1.871 -15.316  0.00  0.00     0.061 C 
BRANCH  18  19
ATOM     19  C   UNL d   1       8.749   0.851 -16.379  0.00  0.00     0.132 C 
BRANCH  19  20
ATOM     20  N   UNL d   1      10.133   1.053 -16.815  0.00  0.00    -0.234 NA
ATOM     21  C   UNL d   1      10.575   2.099 -17.539  0.00  0.00     0.275 C 
ATOM     22  O   UNL d   1       9.995   3.184 -17.619  0.00  0.00    -0.266 OA
BRANCH  21  23
ATOM     23  C   UNL d   1      11.806   1.849 -18.346  0.00  0.00     0.059 A 
ATOM     24  C   UNL d   1      12.165   0.529 -18.719  0.00  0.00     0.024 A 
ATOM     25  C   UNL d   1      13.260   0.300 -19.560  0.00  0.00     0.082 A 
ATOM     26  C   UNL d   1      13.996   1.417 -20.038  0.00  0.00     0.018 A 
ATOM     27  N   UNL d   1      13.571  -0.969 -19.890  0.00  0.00    -0.244 NA
ATOM     28  C   UNL d   1      13.633   2.731 -19.688  0.00  0.00     0.002 A 
ATOM     29  C   UNL d   1      15.102   1.189 -20.875  0.00  0.00     0.003 A 
ATOM     30  C   UNL d   1      12.537   2.941 -18.840  0.00  0.00     0.005 A 
ATOM     31  C   UNL d   1      15.431  -0.137 -21.200  0.00  0.00     0.021 A 
ATOM     32  C   UNL d   1      14.633  -1.175 -20.689  0.00  0.00     0.099 A 
ENDBRANCH  21  23
ENDBRANCH  19  20
ENDBRANCH  18  19
ENDBRANCH   1  18
TORSDOF 8
