REMARK  7 active torsions:
REMARK  status: ('A' for Active; 'I' for Inactive)
REMARK    1  A    between atoms: O_2  and  C_3 
REMARK    2  A    between atoms: C_9  and  C_10 
REMARK    3  A    between atoms: C_10  and  C_11 
REMARK    4  A    between atoms: C_11  and  N_12 
REMARK    5  A    between atoms: N_12  and  C_13 
REMARK    6  A    between atoms: C_13  and  C_14 
REMARK    7  A    between atoms: C_17  and  C_18 
ROOT
ATOM      1  N   UNL d   1       8.656   4.801  -9.885  0.00  0.00     0.346 N 
ENDROOT
BRANCH   1   2
ATOM      2  C   UNL d   1       8.840   5.779  -8.828  0.00  0.00     0.295 C 
BRANCH   2   3
ATOM      3  C   UNL d   1      10.330   6.095  -8.642  0.00  0.00     0.066 C 
BRANCH   3   4
ATOM      4  C   UNL d   1      10.546   7.372  -7.893  0.00  0.00     0.001 A 
ATOM      5  C   UNL d   1      10.316   8.625  -8.414  0.00  0.00     0.095 A 
ATOM      6  N   UNL d   1      10.655   9.585  -7.484  0.00  0.00    -0.244 NA
ATOM      7  C   UNL d   1      11.063   8.988  -6.325  0.00  0.00     0.081 A 
ATOM      8  C   UNL d   1      11.444   9.553  -5.122  0.00  0.00     0.021 A 
ATOM      9  C   UNL d   1      11.031   7.580  -6.556  0.00  0.00     0.017 A 
ATOM     10  C   UNL d   1      11.854   8.731  -4.070  0.00  0.00     0.026 A 
ATOM     11  C   UNL d   1      11.861   7.314  -4.248  0.00  0.00     0.094 A 
ATOM     12  C   UNL d   1      11.460   6.762  -5.477  0.00  0.00     0.025 A 
BRANCH  11  13
ATOM     13  O   UNL d   1      12.245   6.398  -3.297  0.00  0.00    -0.328 OA
ATOM     14  C   UNL d   1      12.335   6.866  -1.970  0.00  0.00     0.181 C 
ENDBRANCH  11  13
ENDBRANCH   3   4
ENDBRANCH   2   3
ENDBRANCH   1   2
BRANCH   1  15
ATOM     15  C   UNL d   1       8.678   5.448 -11.193  0.00  0.00     0.341 C 
BRANCH  15  16
ATOM     16  C   UNL d   1       7.979   4.650 -12.231  0.00  0.00     0.114 A 
ATOM     17  O   UNL d   1       8.758   3.854 -13.015  0.00  0.00    -0.309 OA
ATOM     18  C   UNL d   1       7.922   3.208 -13.881  0.00  0.00     0.100 A 
ATOM     19  C   UNL d   1       6.630   3.601 -13.651  0.00  0.00     0.026 A 
ATOM     20  C   UNL d   1       6.668   4.544 -12.589  0.00  0.00     0.024 A 
BRANCH  18  21
ATOM     21  C   UNL d   1       8.516   2.252 -14.816  0.00  0.00     0.023 A 
ATOM     22  C   UNL d   1       7.707   1.547 -15.737  0.00  0.00     0.003 A 
ATOM     23  C   UNL d   1       8.274   0.613 -16.626  0.00  0.00     0.011 A 
ATOM     24  C   UNL d   1       9.659   0.369 -16.606  0.00  0.00     0.058 A 
ATOM     25  C   UNL d   1      10.475   1.062 -15.693  0.00  0.00     0.011 A 
ATOM     26 CL   UNL d   1      10.348  -0.777 -17.697  0.00  0.00    -0.082 Cl
ATOM     27  C   UNL d   1       9.907   1.995 -14.805  0.00  0.00     0.003 A 
ENDBRANCH  18  21
ENDBRANCH  15  16
ENDBRANCH   1  15
TORSDOF 7
