REMARK  6 active torsions:
REMARK  status: ('A' for Active; 'I' for Inactive)
REMARK    1  A    between atoms: C_8  and  O_9 
REMARK    2  A    between atoms: O_9  and  C_10 
REMARK    3  A    between atoms: C_10  and  C_11 
REMARK    4  A    between atoms: C_11  and  C_12 
REMARK    5  A    between atoms: C_12  and  N_13 
REMARK    6  A    between atoms: N_16  and  C_17 
ROOT
ATOM      1  N   UNL d   1       7.699   4.356 -12.705  0.00  0.00     0.141 N 
ATOM      2  C   UNL d   1       6.365   4.128 -13.250  0.00  0.00     0.274 C 
ATOM      3  C   UNL d   1       6.240   2.667 -13.617  0.00  0.00     0.137 C 
ATOM      4  N   UNL d   1       7.295   2.274 -14.547  0.00  0.00    -0.344 N 
ATOM      5  C   UNL d   1       8.652   2.564 -14.109  0.00  0.00     0.137 C 
ATOM      6  C   UNL d   1       8.722   4.046 -13.723  0.00  0.00     0.274 C 
ENDROOT
BRANCH   1   7
ATOM      7  C   UNL d   1       7.757   5.751 -12.331  0.00  0.00     0.253 C 
BRANCH   7   8
ATOM      8  C   UNL d   1       8.904   5.967 -11.379  0.00  0.00     0.068 C 
BRANCH   8   9
ATOM      9  C   UNL d   1       8.670   5.426  -9.951  0.00  0.00     0.151 C 
BRANCH   9  10
ATOM     10  O   UNL d   1       9.822   5.388  -9.099  0.00  0.00    -0.331 OA
BRANCH  10  11
ATOM     11  C   UNL d   1      10.240   6.573  -8.552  0.00  0.00     0.094 A 
ATOM     12  C   UNL d   1      10.359   7.776  -9.279  0.00  0.00     0.024 A 
ATOM     13  C   UNL d   1      10.684   8.978  -8.680  0.00  0.00    -0.000 A 
ATOM     14  C   UNL d   1      11.002   8.959  -7.311  0.00  0.00     0.007 A 
ATOM     15  C   UNL d   1      11.442  10.079  -6.425  0.00  0.00     0.155 A 
ATOM     16  C   UNL d   1      10.978   7.786  -6.584  0.00  0.00     0.057 A 
ATOM     17  N   UNL d   1      11.636   9.393  -5.139  0.00  0.00    -0.229 NA
ATOM     18  C   UNL d   1      11.389   8.072  -5.190  0.00  0.00     0.275 A 
ATOM     19  O   UNL d   1      11.475   7.247  -4.279  0.00  0.00    -0.266 OA
ATOM     20  C   UNL d   1      10.599   6.560  -7.162  0.00  0.00     0.029 A 
ENDBRANCH  10  11
ENDBRANCH   9  10
ENDBRANCH   8   9
ENDBRANCH   7   8
ENDBRANCH   1   7
BRANCH   4  21
ATOM     21  C   UNL d   1       7.059   1.571 -15.745  0.00  0.00     0.052 A 
ATOM     22  C   UNL d   1       6.143   0.484 -15.820  0.00  0.00    -0.011 A 
ATOM     23  C   UNL d   1       5.916  -0.152 -17.070  0.00  0.00    -0.025 A 
ATOM     24  C   UNL d   1       5.385   0.016 -14.578  0.00  0.00     0.028 C 
ATOM     25  C   UNL d   1       6.609   0.273 -18.225  0.00  0.00    -0.004 A 
ATOM     26  C   UNL d   1       4.957  -1.328 -17.189  0.00  0.00     0.026 C 
ATOM     27  C   UNL d   1       7.530   1.331 -18.141  0.00  0.00     0.001 A 
ATOM     28  C   UNL d   1       7.749   1.969 -16.913  0.00  0.00     0.017 A 
ATOM     29  C   UNL d   1       4.006  -1.457 -15.998  0.00  0.00     0.005 C 
ATOM     30  C   UNL d   1       4.747  -1.346 -14.678  0.00  0.00     0.005 C 
ENDBRANCH   4  21
TORSDOF 6
