REMARK  2 active torsions:
REMARK  status: ('A' for Active; 'I' for Inactive)
REMARK    1  A    between atoms: C_2  and  C_3 
REMARK    2  A    between atoms: C_3  and  C_4 
ROOT
ATOM      1  C   UNL d   1      10.864   7.681  -7.269  0.00  0.00     0.164 C 
ATOM      2  C   UNL d   1      11.834   8.349  -8.315  0.00  0.00     0.265 C 
ATOM      3  O   UNL d   1      13.050   8.370  -8.143  0.00  0.00    -0.270 OA
ATOM      4  N   UNL d   1      11.326   8.883  -9.441  0.00  0.00    -0.210 NA
ATOM      5  C   UNL d   1       9.911   8.823  -9.753  0.00  0.00     0.256 C 
ATOM      6  N   UNL d   1       9.113   8.922  -8.538  0.00  0.00    -0.210 NA
ATOM      7  C   UNL d   1       9.466   8.348  -7.392  0.00  0.00     0.265 C 
ATOM      8  O   UNL d   1       8.680   8.292  -6.439  0.00  0.00    -0.270 OA
ENDROOT
BRANCH   1   9
ATOM      9  C   UNL d   1      10.714   6.153  -7.579  0.00  0.00     0.022 C 
ATOM     10  C   UNL d   1      10.257   5.698  -8.957  0.00  0.00     0.001 C 
ENDBRANCH   1   9
BRANCH   1  11
ATOM     11  C   UNL d   1      11.357   7.899  -5.794  0.00  0.00    -0.006 A 
ATOM     12  C   UNL d   1      11.518   6.813  -4.897  0.00  0.00    -0.003 A 
ATOM     13  C   UNL d   1      11.970   6.998  -3.580  0.00  0.00    -0.000 A 
ATOM     14  C   UNL d   1      12.252   8.288  -3.105  0.00  0.00    -0.000 A 
ATOM     15  C   UNL d   1      12.035   9.386  -3.956  0.00  0.00    -0.000 A 
ATOM     16  C   UNL d   1      11.602   9.198  -5.292  0.00  0.00    -0.003 A 
ENDBRANCH   1  11
TORSDOF 2
