REMARK  3 active torsions:
REMARK  status: ('A' for Active; 'I' for Inactive)
REMARK    1  A    between atoms: C_7  and  C_8 
REMARK    2  A    between atoms: C_11  and  C_12 
REMARK       I    between atoms: C_12  and  N_14 
REMARK       I    between atoms: N_17  and  C_18 
REMARK    3  A    between atoms: C_18  and  C_20 
ROOT
ATOM      1  C   UNL d   1       9.540   7.828 -10.693  0.00  0.00     0.257 C 
ATOM      2  O   UNL d   1       9.920   8.778 -11.389  0.00  0.00    -0.267 OA
ATOM      3  N   UNL d   1       8.721   6.897 -11.216  0.00  0.00    -0.313 N 
ATOM      4  C   UNL d   1       8.366   6.840 -12.625  0.00  0.00     0.129 C 
ATOM      5  C   UNL d   1       8.633   5.420 -13.130  0.00  0.00     0.129 C 
ATOM      6  N   UNL d   1       7.879   4.486 -12.275  0.00  0.00    -0.315 N 
ATOM      7  C   UNL d   1       6.935   3.661 -12.767  0.00  0.00     0.257 C 
ATOM      8  O   UNL d   1       5.868   3.454 -12.178  0.00  0.00    -0.267 OA
ATOM      9  C   UNL d   1       8.157   4.573 -10.829  0.00  0.00     0.106 C 
ATOM     10  C   UNL d   1       9.617   4.147 -10.579  0.00  0.00     0.026 C 
ATOM     11  C   UNL d   1       7.844   6.000 -10.444  0.00  0.00     0.127 C 
ENDROOT
BRANCH   1  12
ATOM     12  C   UNL d   1       9.993   7.860  -9.269  0.00  0.00     0.056 A 
ATOM     13  C   UNL d   1      10.064   6.692  -8.515  0.00  0.00     0.005 A 
ATOM     14  C   UNL d   1      10.431   6.667  -7.180  0.00  0.00     0.000 A 
ATOM     15  C   UNL d   1      10.880   7.836  -6.558  0.00  0.00    -0.000 A 
ATOM     16  C   UNL d   1      10.926   9.015  -7.350  0.00  0.00     0.000 A 
ATOM     17  C   UNL d   1      10.453   9.041  -8.667  0.00  0.00     0.005 A 
BRANCH  15  18
ATOM     18  C   UNL d   1      11.327   7.763  -5.148  0.00  0.00    -0.004 A 
ATOM     19  C   UNL d   1      11.271   8.871  -4.257  0.00  0.00    -0.022 A 
ATOM     20  C   UNL d   1      10.637  10.190  -4.632  0.00  0.00     0.031 C 
ATOM     21  C   UNL d   1      11.720   8.738  -2.933  0.00  0.00    -0.004 A 
ATOM     22  C   UNL d   1      12.204   7.516  -2.455  0.00  0.00    -0.000 A 
ATOM     23  C   UNL d   1      12.248   6.421  -3.315  0.00  0.00    -0.000 A 
ATOM     24  C   UNL d   1      11.824   6.538  -4.640  0.00  0.00    -0.000 A 
ENDBRANCH  15  18
ENDBRANCH   1  12
BRANCH   7  25
ATOM     25  C   UNL d   1       7.355   2.801 -13.933  0.00  0.00     0.057 A 
ATOM     26  C   UNL d   1       8.714   2.512 -14.211  0.00  0.00     0.024 A 
ATOM     27  C   UNL d   1       9.040   1.644 -15.268  0.00  0.00     0.082 A 
ATOM     28  C   UNL d   1       8.047   1.005 -16.061  0.00  0.00     0.019 A 
ATOM     29  N   UNL d   1      10.248   1.221 -15.782  0.00  0.00    -0.244 NA
ATOM     30  C   UNL d   1       6.702   1.239 -15.714  0.00  0.00     0.002 A 
ATOM     31  C   UNL d   1       8.704   0.235 -17.077  0.00  0.00     0.022 A 
ATOM     32  C   UNL d   1       6.386   2.094 -14.646  0.00  0.00     0.005 A 
ATOM     33  C   UNL d   1      10.050   0.392 -16.875  0.00  0.00     0.099 A 
ENDBRANCH   7  25
TORSDOF 3
