REMARK  4 active torsions:
REMARK  status: ('A' for Active; 'I' for Inactive)
REMARK    1  A    between atoms: C_7  and  C_8 
REMARK    2  A    between atoms: C_8  and  C_9 
REMARK    3  A    between atoms: C_9  and  N_10 
REMARK    4  A    between atoms: C_21  and  S_22 
ROOT
ATOM      1  N   UNL d   1       8.312   2.710 -15.103  0.00  0.00    -0.327 N 
ATOM      2  C   UNL d   1       8.125   3.560 -13.983  0.00  0.00     0.066 A 
ATOM      3  C   UNL d   1       6.884   3.623 -13.284  0.00  0.00     0.018 A 
ATOM      4  C   UNL d   1       6.696   4.475 -12.181  0.00  0.00     0.002 A 
ATOM      5  C   UNL d   1       7.740   5.303 -11.748  0.00  0.00     0.001 A 
ATOM      6  C   UNL d   1       8.973   5.264 -12.418  0.00  0.00     0.008 A 
ATOM      7  C   UNL d   1       9.173   4.396 -13.514  0.00  0.00     0.045 A 
ATOM      8  S   UNL d   1      10.767   4.438 -14.269  0.00  0.00    -0.084 SA
ATOM      9  C   UNL d   1      10.731   3.091 -15.404  0.00  0.00     0.045 A 
ATOM     10  C   UNL d   1      11.950   2.776 -16.040  0.00  0.00     0.009 A 
ATOM     11  C   UNL d   1      12.030   1.717 -16.959  0.00  0.00     0.009 A 
ATOM     12  C   UNL d   1      10.882   0.969 -17.237  0.00  0.00     0.058 A 
ATOM     13  C   UNL d   1       9.662   1.276 -16.610  0.00  0.00     0.026 A 
ATOM     14  C   UNL d   1       9.551   2.358 -15.692  0.00  0.00     0.067 A 
ENDROOT
BRANCH   1  15
ATOM     15  C   UNL d   1       7.116   2.144 -15.742  0.00  0.00     0.108 C 
BRANCH  15  16
ATOM     16  C   UNL d   1       6.744   0.783 -15.145  0.00  0.00     0.058 C 
BRANCH  16  17
ATOM     17  C   UNL d   1       5.631   0.066 -15.940  0.00  0.00     0.221 C 
ATOM     18  N   UNL d   1       4.982  -0.980 -15.133  0.00  0.00     0.137 N 
ATOM     19  C   UNL d   1       4.354  -0.458 -13.924  0.00  0.00     0.285 C 
ATOM     20  C   UNL d   1       3.927  -1.639 -15.905  0.00  0.00     0.250 C 
ATOM     21  C   UNL d   1       4.489  -2.332 -17.155  0.00  0.00     0.035 C 
ATOM     22  C   UNL d   1       5.198  -1.321 -18.051  0.00  0.00     0.004 C 
ATOM     23  C   UNL d   1       6.233  -0.553 -17.226  0.00  0.00     0.033 C 
ENDBRANCH  16  17
ENDBRANCH  15  16
ENDBRANCH   1  15
BRANCH  12  24
ATOM     24  S   UNL d   1      10.970  -0.413 -18.425  0.00  0.00     0.066 S 
ATOM     25  C   UNL d   1       9.796   0.324 -19.658  0.00  0.00     0.111 C 
ATOM     26  O   UNL d   1      10.243  -1.583 -17.754  0.00  0.00    -0.252 OA
ENDBRANCH  12  24
TORSDOF 4
