REMARK  3 active torsions:
REMARK  status: ('A' for Active; 'I' for Inactive)
REMARK    1  A    between atoms: C_5  and  C_6 
REMARK    2  A    between atoms: C_6  and  C_7 
REMARK    3  A    between atoms: C_7  and  N_8 
ROOT
ATOM      1  N   UNL d   1       9.507   6.925  -9.478  0.00  0.00     0.138 N 
ATOM      2  C   UNL d   1      10.101   7.578 -10.641  0.00  0.00     0.253 C 
ATOM      3  C   UNL d   1       9.123   7.580 -11.842  0.00  0.00     0.063 C 
ATOM      4  C   UNL d   1       8.601   6.144 -12.137  0.00  0.00     0.103 C 
ATOM      5  C   UNL d   1       7.446   6.173 -13.114  0.00  0.00     0.033 C 
ATOM      6  C   UNL d   1       6.967   4.769 -13.511  0.00  0.00     0.031 C 
ATOM      7  C   UNL d   1       8.156   3.861 -13.760  0.00  0.00     0.000 A 
ATOM      8  C   UNL d   1       7.973   2.602 -14.352  0.00  0.00    -0.000 A 
ATOM      9  C   UNL d   1       9.073   1.731 -14.544  0.00  0.00     0.029 A 
ATOM     10  C   UNL d   1      10.361   2.203 -14.212  0.00  0.00     0.142 A 
ATOM     11  F   UNL d   1      11.408   1.375 -14.367  0.00  0.00    -0.204 F 
ATOM     12  C   UNL d   1      10.555   3.478 -13.676  0.00  0.00     0.053 A 
ATOM     13  C   UNL d   1       9.456   4.271 -13.367  0.00  0.00     0.092 A 
ATOM     14  O   UNL d   1       9.716   5.457 -12.688  0.00  0.00    -0.336 OA
ATOM     15  C   UNL d   1       8.147   5.456 -10.830  0.00  0.00     0.063 C 
ATOM     16  C   UNL d   1       9.216   5.523  -9.772  0.00  0.00     0.253 C 
ENDROOT
BRANCH   1  17
ATOM     17  C   UNL d   1      10.476   6.915  -8.408  0.00  0.00     0.255 C 
BRANCH  17  18
ATOM     18  C   UNL d   1      10.483   8.235  -7.620  0.00  0.00     0.064 C 
BRANCH  18  19
ATOM     19  C   UNL d   1      11.105   8.122  -6.220  0.00  0.00     0.007 A 
ATOM     20  C   UNL d   1      11.024   6.919  -5.472  0.00  0.00     0.000 A 
ATOM     21  C   UNL d   1      11.585   6.838  -4.183  0.00  0.00     0.029 A 
ATOM     22  C   UNL d   1      12.196   7.951  -3.599  0.00  0.00     0.142 A 
ATOM     23  F   UNL d   1      12.677   7.870  -2.334  0.00  0.00    -0.204 F 
ATOM     24  C   UNL d   1      12.267   9.150  -4.318  0.00  0.00     0.059 A 
ATOM     25  C   UNL d   1      11.730   9.245  -5.628  0.00  0.00     0.138 A 
ATOM     26  F   UNL d   1      11.803  10.426  -6.290  0.00  0.00    -0.204 F 
ENDBRANCH  18  19
ENDBRANCH  17  18
ENDBRANCH   1  17
TORSDOF 3
