REMARK  1 active torsions:
REMARK  status: ('A' for Active; 'I' for Inactive)
REMARK    1  A    between atoms: N_2  and  C_4 
ROOT
ATOM      1  C   UNL d   1       7.452   1.747 -14.726  0.00  0.00     0.246 C 
ATOM      2  C   UNL d   1       6.580   2.850 -14.062  0.00  0.00     0.063 C 
ATOM      3  C   UNL d   1       7.363   3.873 -13.247  0.00  0.00    -0.003 A 
ATOM      4  C   UNL d   1       6.901   4.666 -12.186  0.00  0.00    -0.003 A 
ATOM      5  C   UNL d   1       7.802   5.549 -11.572  0.00  0.00     0.001 A 
ATOM      6  C   UNL d   1       9.143   5.638 -12.008  0.00  0.00     0.021 A 
ATOM      7  C   UNL d   1       9.616   4.858 -13.062  0.00  0.00     0.099 A 
ATOM      8  N   UNL d   1      10.860   4.788 -13.639  0.00  0.00    -0.224 NA
ATOM      9  C   UNL d   1      10.623   3.848 -14.577  0.00  0.00     0.179 A 
ATOM     10  N   UNL d   1       9.366   3.354 -14.600  0.00  0.00    -0.308 N 
ATOM     11  C   UNL d   1       8.709   4.000 -13.643  0.00  0.00     0.075 A 
ATOM     12  C   UNL d   1       8.687   2.376 -15.424  0.00  0.00     0.141 C 
ENDROOT
BRANCH   1  13
ATOM     13  N   UNL d   1       6.654   0.929 -15.657  0.00  0.00     0.141 N 
ATOM     14  C   UNL d   1       5.634   0.155 -14.946  0.00  0.00     0.285 C 
ATOM     15  C   UNL d   1       7.471  -0.035 -16.388  0.00  0.00     0.285 C 
ENDBRANCH   1  13
TORSDOF 1
