REMARK  4 active torsions:
REMARK  status: ('A' for Active; 'I' for Inactive)
REMARK    1  A    between atoms: C_10  and  N_11 
REMARK    2  A    between atoms: N_14  and  C_15 
REMARK    3  A    between atoms: C_15  and  C_16 
REMARK    4  A    between atoms: C_20  and  C_21 
ROOT
ATOM      1  N   UNL d   1      11.162   8.009  -7.515  0.00  0.00    -0.343 N 
ATOM      2  C   UNL d   1      11.968   8.360  -8.670  0.00  0.00     0.137 C 
ATOM      3  C   UNL d   1      11.082   8.548  -9.919  0.00  0.00     0.275 C 
ATOM      4  N   UNL d   1      10.289   7.327 -10.142  0.00  0.00     0.145 N 
ATOM      5  C   UNL d   1       9.430   7.123  -8.970  0.00  0.00     0.275 C 
ATOM      6  C   UNL d   1      10.249   6.898  -7.690  0.00  0.00     0.137 C 
ENDROOT
BRANCH   4   7
ATOM      7  C   UNL d   1       9.474   7.518 -11.351  0.00  0.00     0.277 C 
BRANCH   7   8
ATOM      8  C   UNL d   1       8.893   6.226 -11.924  0.00  0.00     0.011 A 
ATOM      9  C   UNL d   1       9.575   5.557 -12.958  0.00  0.00    -0.002 A 
ATOM     10  C   UNL d   1       9.099   4.361 -13.527  0.00  0.00    -0.000 A 
ATOM     11  C   UNL d   1       7.879   3.852 -13.044  0.00  0.00    -0.000 A 
ATOM     12  C   UNL d   1       7.181   4.498 -12.009  0.00  0.00    -0.000 A 
ATOM     13  C   UNL d   1       7.684   5.685 -11.453  0.00  0.00    -0.002 A 
BRANCH  10  14
ATOM     14  C   UNL d   1       9.879   3.676 -14.578  0.00  0.00    -0.000 A 
ATOM     15  C   UNL d   1      10.665   4.409 -15.501  0.00  0.00    -0.000 A 
ATOM     16  C   UNL d   1      11.393   3.756 -16.512  0.00  0.00    -0.000 A 
ATOM     17  C   UNL d   1      11.347   2.355 -16.619  0.00  0.00     0.000 A 
ATOM     18  C   UNL d   1      10.577   1.610 -15.707  0.00  0.00    -0.000 A 
ATOM     19  C   UNL d   1       9.858   2.267 -14.691  0.00  0.00    -0.000 A 
ENDBRANCH  10  14
ENDBRANCH   7   8
ENDBRANCH   4   7
BRANCH   1  20
ATOM     20  C   UNL d   1      11.247   8.698  -6.291  0.00  0.00     0.080 C 
ATOM     21  C   UNL d   1      11.572   8.051  -5.112  0.00  0.00     0.128 C 
ATOM     22  O   UNL d   1      11.837   6.732  -5.205  0.00  0.00    -0.318 OA
ATOM     23  C   UNL d   1      11.717   8.740  -3.890  0.00  0.00     0.108 C 
ATOM     24  C   UNL d   1      11.846   6.067  -3.970  0.00  0.00     0.238 C 
ATOM     25  C   UNL d   1      12.301   6.814  -2.713  0.00  0.00     0.286 C 
ATOM     26  O   UNL d   1      12.683   6.198  -1.740  0.00  0.00    -0.267 OA
ATOM     27  N   UNL d   1      12.204   8.137  -2.721  0.00  0.00    -0.208 NA
ATOM     28  C   UNL d   1      11.376  10.066  -3.795  0.00  0.00     0.021 C 
ATOM     29  C   UNL d   1      10.982  10.737  -4.952  0.00  0.00     0.003 C 
ATOM     30  C   UNL d   1      10.988  10.060  -6.193  0.00  0.00     0.019 C 
ENDBRANCH   1  20
TORSDOF 4
