REMARK  6 active torsions:
REMARK  status: ('A' for Active; 'I' for Inactive)
REMARK    1  A    between atoms: C_2  and  C_3 
REMARK    2  A    between atoms: C_2  and  C_19 
REMARK    3  A    between atoms: C_3  and  C_4 
REMARK    4  A    between atoms: C_4  and  C_5 
REMARK    5  A    between atoms: C_5  and  N_6 
REMARK    6  A    between atoms: C_9  and  C_10 
ROOT
ATOM      1  N   UNL d   1      10.177   6.776 -10.023  0.00  0.00     0.142 N 
ATOM      2  C   UNL d   1      10.083   8.192  -9.679  0.00  0.00     0.276 C 
ATOM      3  C   UNL d   1      10.492   8.502  -8.250  0.00  0.00     0.005 C 
ATOM      4  C   UNL d   1      10.694   7.562  -7.295  0.00  0.00    -0.022 C 
ATOM      5  C   UNL d   1      10.487   6.111  -7.660  0.00  0.00     0.061 C 
ATOM      6  C   UNL d   1       9.686   5.925  -8.951  0.00  0.00     0.255 C 
ENDROOT
BRANCH   1   7
ATOM      7  C   UNL d   1       9.552   6.519 -11.333  0.00  0.00     0.251 C 
BRANCH   7   8
ATOM      8  C   UNL d   1       8.162   5.836 -11.271  0.00  0.00     0.043 C 
BRANCH   8   9
ATOM      9  C   UNL d   1       7.347   5.914 -12.571  0.00  0.00     0.071 C 
BRANCH   9  10
ATOM     10  C   UNL d   1       6.638   4.582 -12.814  0.00  0.00     0.173 C 
ATOM     11  O   UNL d   1       5.540   4.374 -12.308  0.00  0.00    -0.291 OA
BRANCH  10  12
ATOM     12  C   UNL d   1       7.350   3.582 -13.653  0.00  0.00     0.035 A 
ATOM     13  C   UNL d   1       6.662   2.420 -14.068  0.00  0.00     0.005 A 
ATOM     14  C   UNL d   1       7.306   1.463 -14.885  0.00  0.00     0.030 A 
ATOM     15  C   UNL d   1       8.647   1.655 -15.275  0.00  0.00     0.140 A 
ATOM     16  C   UNL d   1       9.346   2.791 -14.836  0.00  0.00     0.030 A 
ATOM     17  F   UNL d   1       9.265   0.745 -16.061  0.00  0.00    -0.204 F 
ATOM     18  C   UNL d   1       8.709   3.739 -14.017  0.00  0.00     0.005 A 
ENDBRANCH  10  12
ENDBRANCH   9  10
ENDBRANCH   8   9
ENDBRANCH   7   8
ENDBRANCH   1   7
BRANCH   4  19
ATOM     19  C   UNL d   1      11.061   7.890  -5.905  0.00  0.00    -0.004 A 
ATOM     20  C   UNL d   1      11.464   6.844  -5.030  0.00  0.00     0.001 A 
ATOM     21  C   UNL d   1      11.866   7.117  -3.716  0.00  0.00     0.011 A 
ATOM     22  C   UNL d   1      11.894   8.438  -3.255  0.00  0.00     0.058 A 
ATOM     23  C   UNL d   1      11.473   9.486  -4.091  0.00  0.00     0.011 A 
ATOM     24 CL   UNL d   1      12.453   8.765  -1.666  0.00  0.00    -0.082 Cl
ATOM     25  C   UNL d   1      11.058   9.221  -5.412  0.00  0.00     0.001 A 
ENDBRANCH   4  19
TORSDOF 6
