REMARK  5 active torsions:
REMARK  status: ('A' for Active; 'I' for Inactive)
REMARK    1  A    between atoms: O_2  and  C_3 
REMARK    2  A    between atoms: C_8  and  N_9 
REMARK    3  A    between atoms: N_12  and  C_13 
REMARK    4  A    between atoms: C_13  and  C_14 
REMARK    5  A    between atoms: N_17  and  C_18 
ROOT
ATOM      1  N   UNL d   1       7.792   5.147 -12.295  0.00  0.00    -0.343 N 
ATOM      2  C   UNL d   1       7.599   5.221 -10.856  0.00  0.00     0.137 C 
ATOM      3  C   UNL d   1       8.916   5.603 -10.145  0.00  0.00     0.275 C 
ATOM      4  N   UNL d   1       9.460   6.848 -10.693  0.00  0.00     0.145 N 
ATOM      5  C   UNL d   1       9.694   6.646 -12.124  0.00  0.00     0.275 C 
ATOM      6  C   UNL d   1       8.400   6.320 -12.881  0.00  0.00     0.137 C 
ENDROOT
BRANCH   4   7
ATOM      7  C   UNL d   1      10.707   7.232 -10.020  0.00  0.00     0.278 C 
BRANCH   7   8
ATOM      8  C   UNL d   1      10.529   7.681  -8.586  0.00  0.00     0.030 A 
ATOM      9  C   UNL d   1      11.348   7.435  -7.514  0.00  0.00     0.078 A 
ATOM     10  N   UNL d   1      10.799   8.033  -6.390  0.00  0.00    -0.304 N 
ATOM     11  C   UNL d   1       9.623   8.653  -6.750  0.00  0.00     0.080 A 
ATOM     12  C   UNL d   1       9.466   8.486  -8.091  0.00  0.00     0.018 A 
BRANCH  10  13
ATOM     13  C   UNL d   1      11.346   8.022  -5.096  0.00  0.00     0.064 A 
ATOM     14  C   UNL d   1      11.537   9.230  -4.394  0.00  0.00     0.018 A 
ATOM     15  C   UNL d   1      12.091   9.204  -3.100  0.00  0.00     0.002 A 
ATOM     16  C   UNL d   1      12.445   7.982  -2.504  0.00  0.00     0.000 A 
ATOM     17  C   UNL d   1      12.249   6.778  -3.204  0.00  0.00     0.002 A 
ATOM     18  C   UNL d   1      11.697   6.795  -4.499  0.00  0.00     0.018 A 
ENDBRANCH  10  13
ENDBRANCH   7   8
ENDBRANCH   4   7
BRANCH   1  19
ATOM     19  C   UNL d   1       7.481   4.001 -13.050  0.00  0.00     0.079 A 
ATOM     20  C   UNL d   1       8.407   3.437 -13.974  0.00  0.00     0.110 A 
ATOM     21  C   UNL d   1       8.022   2.286 -14.710  0.00  0.00     0.026 A 
ATOM     22  C   UNL d   1       6.766   1.692 -14.512  0.00  0.00     0.002 A 
ATOM     23  C   UNL d   1       5.870   2.235 -13.577  0.00  0.00     0.002 A 
ATOM     24  C   UNL d   1       6.221   3.394 -12.860  0.00  0.00     0.019 A 
BRANCH  20  25
ATOM     25  O   UNL d   1       9.653   4.019 -14.081  0.00  0.00    -0.327 OA
ATOM     26  C   UNL d   1      10.614   3.428 -14.938  0.00  0.00     0.181 C 
ENDBRANCH  20  25
ENDBRANCH   1  19
TORSDOF 5
