REMARK  9 active torsions:
REMARK  status: ('A' for Active; 'I' for Inactive)
REMARK    1  A    between atoms: O_2  and  C_3 
REMARK    2  A    between atoms: C_8  and  N_9 
REMARK    3  A    between atoms: N_12  and  C_13 
REMARK    4  A    between atoms: C_13  and  C_14 
REMARK    5  A    between atoms: C_14  and  C_15 
REMARK    6  A    between atoms: C_15  and  C_16 
REMARK    7  A    between atoms: C_16  and  N_17 
REMARK       I    between atoms: N_17  and  C_18 
REMARK    8  A    between atoms: C_18  and  C_20 
REMARK    9  A    between atoms: C_22  and  C_23 
ROOT
ATOM      1  C   UNL d   1       8.741   4.311 -12.428  0.00  0.00     0.037 C 
ENDROOT
BRANCH   1   2
ATOM      2  C   UNL d   1       9.751   3.648 -13.388  0.00  0.00     0.251 C 
BRANCH   2   3
ATOM      3  N   UNL d   1       9.184   2.479 -14.048  0.00  0.00     0.141 N 
ATOM      4  C   UNL d   1       8.265   2.873 -15.120  0.00  0.00     0.274 C 
ATOM      5  C   UNL d   1       7.640   1.634 -15.796  0.00  0.00     0.137 C 
ATOM      6  N   UNL d   1       8.690   0.732 -16.251  0.00  0.00    -0.343 N 
ATOM      7  C   UNL d   1       9.684   0.380 -15.246  0.00  0.00     0.137 C 
ATOM      8  C   UNL d   1      10.264   1.661 -14.614  0.00  0.00     0.274 C 
BRANCH   6   9
ATOM      9  C   UNL d   1       8.789   0.304 -17.588  0.00  0.00     0.079 A 
ATOM     10  C   UNL d   1      10.018   0.381 -18.291  0.00  0.00     0.110 A 
ATOM     11  C   UNL d   1      10.085  -0.117 -19.618  0.00  0.00     0.026 A 
ATOM     12  C   UNL d   1       8.947  -0.659 -20.242  0.00  0.00     0.002 A 
ATOM     13  C   UNL d   1       7.727  -0.705 -19.553  0.00  0.00     0.002 A 
ATOM     14  C   UNL d   1       7.647  -0.222 -18.230  0.00  0.00     0.019 A 
BRANCH  10  15
ATOM     15  O   UNL d   1      11.095   0.960 -17.650  0.00  0.00    -0.327 OA
ATOM     16  C   UNL d   1      12.335   1.031 -18.330  0.00  0.00     0.181 C 
ENDBRANCH  10  15
ENDBRANCH   6   9
ENDBRANCH   2   3
ENDBRANCH   1   2
BRANCH   1  17
ATOM     17  C   UNL d   1       9.448   4.969 -11.241  0.00  0.00     0.029 C 
BRANCH  17  18
ATOM     18  C   UNL d   1       8.486   5.598 -10.217  0.00  0.00     0.129 C 
BRANCH  18  19
ATOM     19  N   UNL d   1       9.193   6.305  -9.149  0.00  0.00    -0.233 NA
ATOM     20  C   UNL d   1       9.983   7.378  -9.314  0.00  0.00     0.294 C 
ATOM     21  O   UNL d   1      10.216   7.899 -10.402  0.00  0.00    -0.264 OA
BRANCH  20  22
ATOM     22  C   UNL d   1      10.549   7.967  -8.057  0.00  0.00     0.162 A 
ATOM     23  N   UNL d   1      11.049   9.187  -7.938  0.00  0.00    -0.143 NA
ATOM     24  N   UNL d   1      11.460   9.259  -6.659  0.00  0.00    -0.146 NA
ATOM     25  C   UNL d   1      11.258   8.086  -5.976  0.00  0.00     0.127 A 
ATOM     26  C   UNL d   1      10.683   7.208  -6.853  0.00  0.00     0.049 A 
BRANCH  25  27
ATOM     27  C   UNL d   1      11.648   7.907  -4.601  0.00  0.00     0.119 A 
ATOM     28  O   UNL d   1      11.942   9.035  -3.895  0.00  0.00    -0.304 OA
ATOM     29  C   UNL d   1      12.263   8.629  -2.638  0.00  0.00     0.123 A 
ATOM     30  C   UNL d   1      12.188   7.269  -2.533  0.00  0.00     0.029 A 
ATOM     31  C   UNL d   1      11.792   6.799  -3.814  0.00  0.00     0.028 A 
ENDBRANCH  25  27
ENDBRANCH  20  22
ENDBRANCH  18  19
ENDBRANCH  17  18
ENDBRANCH   1  17
TORSDOF 9
