REMARK  5 active torsions:
REMARK  status: ('A' for Active; 'I' for Inactive)
REMARK    1  A    between atoms: C_8  and  C_9 
REMARK       I    between atoms: C_9  and  N_11 
REMARK    2  A    between atoms: N_14  and  C_15 
REMARK    3  A    between atoms: C_15  and  C_16 
REMARK    4  A    between atoms: C_16  and  O_17 
REMARK    5  A    between atoms: O_17  and  C_18 
ROOT
ATOM      1  C   UNL d   1       9.685   7.984  -9.797  0.00  0.00     0.275 C 
ATOM      2  O   UNL d   1       9.520   9.163 -10.096  0.00  0.00    -0.266 OA
ATOM      3  N   UNL d   1       9.191   6.983 -10.582  0.00  0.00    -0.311 N 
ATOM      4  C   UNL d   1       9.400   5.557 -10.444  0.00  0.00     0.140 C 
ATOM      5  C   UNL d   1       9.846   5.034 -11.774  0.00  0.00     0.274 C 
ATOM      6  N   UNL d   1       8.876   5.159 -12.842  0.00  0.00     0.144 N 
ATOM      7  C   UNL d   1       8.667   6.592 -12.974  0.00  0.00     0.274 C 
ATOM      8  C   UNL d   1       8.188   7.183 -11.663  0.00  0.00     0.140 C 
ENDROOT
BRANCH   1   9
ATOM      9  C   UNL d   1      10.204   7.712  -8.428  0.00  0.00     0.137 A 
ATOM     10  C   UNL d   1      10.811   6.637  -7.825  0.00  0.00     0.025 A 
ATOM     11  C   UNL d   1      11.164   7.011  -6.533  0.00  0.00     0.019 A 
ATOM     12  C   UNL d   1      11.854   6.311  -5.526  0.00  0.00     0.002 A 
ATOM     13  C   UNL d   1      10.768   8.334  -6.285  0.00  0.00     0.078 A 
ATOM     14  C   UNL d   1      12.098   6.864  -4.278  0.00  0.00    -0.000 A 
ATOM     15  C   UNL d   1      11.732   8.193  -4.045  0.00  0.00    -0.003 A 
ATOM     16  C   UNL d   1      11.059   8.941  -5.040  0.00  0.00    -0.004 A 
ATOM     17  C   UNL d   1      10.641  10.350  -4.781  0.00  0.00     0.033 C 
ATOM     18  N   UNL d   1      10.153   8.729  -7.459  0.00  0.00    -0.241 NA
ENDBRANCH   1   9
BRANCH   6  19
ATOM     19  C   UNL d   1       9.481   4.638 -14.065  0.00  0.00     0.283 C 
BRANCH  19  20
ATOM     20  C   UNL d   1       9.691   3.112 -13.967  0.00  0.00     0.184 C 
BRANCH  20  21
ATOM     21  O   UNL d   1      10.575   2.715 -15.005  0.00  0.00    -0.327 OA
BRANCH  21  22
ATOM     22  C   UNL d   1      10.235   1.658 -15.813  0.00  0.00     0.113 A 
ATOM     23  C   UNL d   1      11.225   1.171 -16.695  0.00  0.00     0.123 A 
ATOM     24  N   UNL d   1      11.027   0.147 -17.553  0.00  0.00    -0.240 NA
ATOM     25  C   UNL d   1       9.806  -0.428 -17.570  0.00  0.00     0.099 A 
ATOM     26  C   UNL d   1       8.747  -0.014 -16.746  0.00  0.00     0.023 A 
ATOM     27  C   UNL d   1       8.964   1.034 -15.848  0.00  0.00     0.027 A 
ENDBRANCH  21  22
ENDBRANCH  20  21
ENDBRANCH  19  20
ENDBRANCH   6  19
TORSDOF 5
