REMARK  6 active torsions:
REMARK  status: ('A' for Active; 'I' for Inactive)
REMARK    1  A    between atoms: C_2  and  C_3 
REMARK    2  A    between atoms: C_2  and  C_23 
REMARK    3  A    between atoms: C_3  and  C_4 
REMARK    4  A    between atoms: C_4  and  C_5 
REMARK    5  A    between atoms: C_5  and  N_6 
REMARK    6  A    between atoms: N_16  and  C_17 
ROOT
ATOM      1  N   UNL d   1       9.347   3.480 -14.313  0.00  0.00     0.137 N 
ATOM      2  C   UNL d   1      10.709   3.126 -14.729  0.00  0.00     0.253 C 
ATOM      3  C   UNL d   1      10.717   2.811 -16.227  0.00  0.00     0.065 C 
ATOM      4  C   UNL d   1       9.725   1.694 -16.634  0.00  0.00     0.142 A 
ATOM      5  C   UNL d   1       8.354   1.972 -15.996  0.00  0.00     0.065 C 
ATOM      6  C   UNL d   1       8.447   2.337 -14.502  0.00  0.00     0.253 C 
ATOM      7  C   UNL d   1      10.241   0.330 -16.174  0.00  0.00     0.271 A 
ATOM      8  O   UNL d   1      10.488  -0.002 -15.020  0.00  0.00    -0.269 OA
ATOM      9  N   UNL d   1      10.401  -0.463 -17.247  0.00  0.00    -0.211 NA
ATOM     10  C   UNL d   1      10.026   0.183 -18.495  0.00  0.00     0.234 A 
ATOM     11  N   UNL d   1       9.652   1.540 -18.091  0.00  0.00    -0.323 N 
ENDROOT
BRANCH   1  12
ATOM     12  C   UNL d   1       9.400   3.850 -12.905  0.00  0.00     0.251 C 
BRANCH  12  13
ATOM     13  C   UNL d   1       8.093   4.504 -12.411  0.00  0.00     0.043 C 
BRANCH  13  14
ATOM     14  C   UNL d   1       8.247   5.153 -11.026  0.00  0.00     0.071 C 
BRANCH  14  15
ATOM     15  C   UNL d   1       9.163   6.388 -11.004  0.00  0.00     0.173 C 
ATOM     16  O   UNL d   1       9.448   6.950 -12.059  0.00  0.00    -0.291 OA
BRANCH  15  17
ATOM     17  C   UNL d   1       9.681   6.833  -9.678  0.00  0.00     0.035 A 
ATOM     18  C   UNL d   1       9.162   6.326  -8.464  0.00  0.00     0.005 A 
ATOM     19  C   UNL d   1       9.652   6.788  -7.228  0.00  0.00     0.030 A 
ATOM     20  C   UNL d   1      10.667   7.763  -7.190  0.00  0.00     0.140 A 
ATOM     21  C   UNL d   1      11.187   8.280  -8.391  0.00  0.00     0.030 A 
ATOM     22  F   UNL d   1      11.139   8.202  -5.999  0.00  0.00    -0.204 F 
ATOM     23  C   UNL d   1      10.693   7.822  -9.629  0.00  0.00     0.005 A 
ENDBRANCH  15  17
ENDBRANCH  14  15
ENDBRANCH  13  14
ENDBRANCH  12  13
ENDBRANCH   1  12
BRANCH  11  24
ATOM     24  C   UNL d   1      10.002   2.640 -18.899  0.00  0.00     0.058 A 
ATOM     25  C   UNL d   1      11.214   2.686 -19.623  0.00  0.00     0.017 A 
ATOM     26  C   UNL d   1      11.545   3.818 -20.388  0.00  0.00     0.002 A 
ATOM     27  C   UNL d   1      10.675   4.925 -20.435  0.00  0.00     0.000 A 
ATOM     28  C   UNL d   1       9.478   4.893 -19.700  0.00  0.00     0.002 A 
ATOM     29  C   UNL d   1       9.145   3.765 -18.938  0.00  0.00     0.017 A 
ENDBRANCH  11  24
TORSDOF 6
