REMARK  2 active torsions:
REMARK  status: ('A' for Active; 'I' for Inactive)
REMARK    1  A    between atoms: C_10  and  C_11 
REMARK    2  A    between atoms: C_11  and  N_12 
ROOT
ATOM      1  C   UNL d   1       6.668   5.329 -12.402  0.00  0.00     0.031 C 
ATOM      2  C   UNL d   1       6.776   3.989 -13.107  0.00  0.00    -0.021 A 
ATOM      3  C   UNL d   1       5.742   3.040 -12.994  0.00  0.00    -0.004 A 
ATOM      4  C   UNL d   1       5.858   1.792 -13.636  0.00  0.00    -0.003 A 
ATOM      5  C   UNL d   1       6.996   1.492 -14.411  0.00  0.00    -0.005 A 
ATOM      6  C   UNL d   1       8.042   2.433 -14.526  0.00  0.00     0.058 A 
ATOM      7  C   UNL d   1       7.920   3.680 -13.866  0.00  0.00     0.009 A 
ATOM      8  N   UNL d   1       9.197   2.106 -15.261  0.00  0.00    -0.142 NA
ATOM      9  O   UNL d   1      10.248   3.066 -15.082  0.00  0.00    -0.279 OA
ATOM     10  C   UNL d   1      10.731   3.478 -16.354  0.00  0.00     0.173 C 
ATOM     11  C   UNL d   1       9.613   3.104 -17.317  0.00  0.00     0.057 C 
ATOM     12  C   UNL d   1       9.109   1.814 -16.694  0.00  0.00     0.113 C 
ATOM     13  C   UNL d   1       7.834   1.238 -17.336  0.00  0.00    -0.009 A 
ATOM     14  C   UNL d   1       7.604   1.449 -18.717  0.00  0.00    -0.003 A 
ATOM     15  C   UNL d   1       6.471   0.910 -19.358  0.00  0.00    -0.000 A 
ATOM     16  C   UNL d   1       5.556   0.134 -18.631  0.00  0.00    -0.000 A 
ATOM     17  C   UNL d   1       5.783  -0.112 -17.264  0.00  0.00    -0.004 A 
ATOM     18  C   UNL d   1       6.912   0.429 -16.618  0.00  0.00    -0.020 A 
ATOM     19  C   UNL d   1       7.091   0.172 -15.140  0.00  0.00     0.053 C 
ENDROOT
BRANCH  10  20
ATOM     20  C   UNL d   1      11.074   4.984 -16.350  0.00  0.00     0.282 C 
BRANCH  20  21
ATOM     21  N   UNL d   1      12.349   5.312 -15.706  0.00  0.00     0.144 N 
ATOM     22  C   UNL d   1      13.489   4.725 -16.401  0.00  0.00     0.286 C 
ATOM     23  C   UNL d   1      12.514   6.761 -15.730  0.00  0.00     0.286 C 
ENDBRANCH  20  21
ENDBRANCH  10  20
TORSDOF 2
