REMARK  5 active torsions:
REMARK  status: ('A' for Active; 'I' for Inactive)
REMARK    1  A    between atoms: C_2  and  C_4 
REMARK    2  A    between atoms: C_11  and  C_12 
REMARK    3  A    between atoms: C_12  and  N_13 
REMARK    4  A    between atoms: C_16  and  C_17 
REMARK    5  A    between atoms: C_17  and  C_19 
ROOT
ATOM      1  N   UNL d   1       9.432   5.515 -11.654  0.00  0.00     0.137 N 
ATOM      2  C   UNL d   1       9.460   5.112 -10.238  0.00  0.00     0.251 C 
ATOM      3  C   UNL d   1      10.289   6.094  -9.429  0.00  0.00     0.043 C 
ATOM      4  C   UNL d   1       9.669   7.506  -9.444  0.00  0.00     0.066 C 
ATOM      5  C   UNL d   1       9.468   7.900 -10.951  0.00  0.00     0.043 C 
ATOM      6  C   UNL d   1       8.733   6.802 -11.734  0.00  0.00     0.251 C 
ENDROOT
BRANCH   1   7
ATOM      7  C   UNL d   1       8.737   4.468 -12.405  0.00  0.00     0.251 C 
BRANCH   7   8
ATOM      8  C   UNL d   1       9.721   3.870 -13.423  0.00  0.00     0.045 C 
ATOM      9  C   UNL d   1      10.082   4.874 -14.527  0.00  0.00     0.029 C 
ATOM     10  C   UNL d   1      10.978   4.253 -15.584  0.00  0.00    -0.019 A 
ATOM     11  C   UNL d   1      10.993   2.854 -15.816  0.00  0.00     0.031 A 
ATOM     12  C   UNL d   1      11.806   5.100 -16.343  0.00  0.00    -0.001 A 
ATOM     13  C   UNL d   1      11.851   2.333 -16.809  0.00  0.00     0.003 A 
ATOM     14  C   UNL d   1      10.134   1.936 -15.027  0.00  0.00     0.173 C 
ATOM     15  C   UNL d   1      12.677   3.188 -17.564  0.00  0.00     0.003 A 
ATOM     16  C   UNL d   1      12.663   4.582 -17.340  0.00  0.00     0.034 A 
ATOM     17  C   UNL d   1       9.161   2.581 -14.044  0.00  0.00     0.071 C 
ATOM     18  O   UNL d   1      10.154   0.709 -15.145  0.00  0.00    -0.291 OA
BRANCH  16  19
ATOM     19  C   UNL d   1      13.552   5.469 -18.142  0.00  0.00     0.173 C 
ATOM     20  C   UNL d   1      13.329   6.973 -18.002  0.00  0.00     0.077 C 
ATOM     21  O   UNL d   1      14.428   5.061 -18.903  0.00  0.00    -0.291 OA
ENDBRANCH  16  19
ENDBRANCH   7   8
ENDBRANCH   1   7
BRANCH   4  22
ATOM     22  C   UNL d   1      10.512   8.578  -8.698  0.00  0.00     0.173 C 
ATOM     23  O   UNL d   1      10.931   9.573  -9.312  0.00  0.00    -0.291 OA
BRANCH  22  24
ATOM     24  C   UNL d   1      10.790   8.340  -7.234  0.00  0.00     0.035 C 
ATOM     25  C   UNL d   1      10.450   7.179  -6.514  0.00  0.00     0.005 C 
ATOM     26  C   UNL d   1      10.905   6.971  -5.228  0.00  0.00     0.030 C 
ATOM     27  C   UNL d   1      11.533   8.024  -4.510  0.00  0.00     0.140 C 
ATOM     28  C   UNL d   1      11.771   9.244  -5.171  0.00  0.00     0.030 C 
ATOM     29  F   UNL d   1      11.845   7.859  -3.184  0.00  0.00    -0.204 F 
ATOM     30  C   UNL d   1      11.445   9.408  -6.530  0.00  0.00     0.005 C 
ENDBRANCH  22  24
ENDBRANCH   4  22
TORSDOF 5
