REMARK  4 active torsions:
REMARK  status: ('A' for Active; 'I' for Inactive)
REMARK    1  A    between atoms: C_7  and  N_8 
REMARK    2  A    between atoms: N_11  and  C_12 
REMARK    3  A    between atoms: C_12  and  C_13 
REMARK    4  A    between atoms: C_13  and  C_14 
ROOT
ATOM      1  N   UNL d   1      10.461   6.882  -9.166  0.00  0.00    -0.344 N 
ATOM      2  C   UNL d   1       9.967   5.531  -8.987  0.00  0.00     0.137 C 
ATOM      3  C   UNL d   1       8.930   5.204 -10.072  0.00  0.00     0.274 C 
ATOM      4  N   UNL d   1       9.412   5.533 -11.424  0.00  0.00     0.141 N 
ATOM      5  C   UNL d   1       9.678   6.980 -11.475  0.00  0.00     0.274 C 
ATOM      6  C   UNL d   1      10.797   7.340 -10.468  0.00  0.00     0.137 C 
ENDROOT
BRANCH   4   7
ATOM      7  C   UNL d   1       8.436   5.166 -12.459  0.00  0.00     0.258 C 
BRANCH   7   8
ATOM      8  C   UNL d   1       8.939   4.044 -13.411  0.00  0.00     0.101 C 
BRANCH   8   9
ATOM      9  C   UNL d   1      10.280   4.252 -14.086  0.00  0.00     0.145 A 
ATOM     10  N   UNL d   1      10.496   4.257 -15.412  0.00  0.00    -0.302 N 
ATOM     11  C   UNL d   1      11.830   4.429 -15.492  0.00  0.00     0.143 A 
ATOM     12  C   UNL d   1       9.592   4.042 -16.507  0.00  0.00     0.108 C 
ATOM     13  N   UNL d   1      12.442   4.440 -14.322  0.00  0.00    -0.134 NA
ATOM     14  C   UNL d   1      12.544   4.538 -16.789  0.00  0.00     0.066 C 
ATOM     15  N   UNL d   1      11.423   4.369 -13.412  0.00  0.00    -0.134 NA
ATOM     16  C   UNL d   1      11.724   3.912 -17.926  0.00  0.00     0.010 C 
ATOM     17  C   UNL d   1      10.249   4.366 -17.860  0.00  0.00     0.025 C 
ENDBRANCH   8   9
ENDBRANCH   7   8
ENDBRANCH   4   7
BRANCH   1  18
ATOM     18  C   UNL d   1      10.630   7.729  -8.098  0.00  0.00     0.052 A 
ATOM     19  C   UNL d   1      11.816   8.444  -7.758  0.00  0.00    -0.006 A 
ATOM     20  C   UNL d   1      13.084   8.321  -8.521  0.00  0.00     0.033 C 
ATOM     21  C   UNL d   1      11.811   9.306  -6.621  0.00  0.00    -0.003 A 
ATOM     22  C   UNL d   1      10.634   9.449  -5.905  0.00  0.00    -0.000 A 
ATOM     23  C   UNL d   1       9.461   8.764  -6.333  0.00  0.00     0.002 A 
ATOM     24  C   UNL d   1       9.471   7.901  -7.381  0.00  0.00     0.017 A 
ENDBRANCH   1  18
TORSDOF 4
