REMARK  10 active torsions:
REMARK  status: ('A' for Active; 'I' for Inactive)
REMARK    1  A    between atoms: O_2  and  C_3 
REMARK    2  A    between atoms: C_9  and  C_10 
REMARK    3  A    between atoms: C_12  and  C_13 
REMARK    4  A    between atoms: C_13  and  N_14 
REMARK    5  A    between atoms: N_14  and  C_16 
REMARK    6  A    between atoms: C_16  and  C_17 
REMARK    7  A    between atoms: C_17  and  C_18 
REMARK    8  A    between atoms: C_18  and  S_19 
REMARK    9  A    between atoms: S_19  and  C_20 
REMARK   10  A    between atoms: C_23  and  C_24 
ROOT
ATOM      1  C   UNL d   1       8.515   2.459 -14.838  0.00  0.00     0.251 C 
ENDROOT
BRANCH   1   2
ATOM      2  N   UNL d   1       9.535   1.683 -15.545  0.00  0.00     0.139 N 
ATOM      3  C   UNL d   1      10.352   0.932 -14.600  0.00  0.00     0.285 C 
BRANCH   2   4
ATOM      4  C   UNL d   1      10.355   2.571 -16.356  0.00  0.00     0.251 C 
BRANCH   4   5
ATOM      5  C   UNL d   1      11.117   1.865 -17.461  0.00  0.00     0.038 A 
ATOM      6  C   UNL d   1      12.104   2.687 -18.270  0.00  0.00     0.026 A 
ATOM      7  C   UNL d   1      12.598   1.621 -17.326  0.00  0.00     0.007 A 
BRANCH   6   8
ATOM      8  C   UNL d   1      12.311   4.147 -17.953  0.00  0.00     0.002 A 
ATOM      9  C   UNL d   1      11.289   5.082 -18.240  0.00  0.00     0.090 A 
ATOM     10  C   UNL d   1      11.485   6.437 -17.868  0.00  0.00     0.026 A 
ATOM     11  C   UNL d   1      12.666   6.843 -17.225  0.00  0.00     0.032 A 
ATOM     12  C   UNL d   1      13.687   5.911 -16.974  0.00  0.00     0.140 A 
ATOM     13  F   UNL d   1      14.837   6.302 -16.376  0.00  0.00    -0.204 F 
ATOM     14  C   UNL d   1      13.504   4.565 -17.339  0.00  0.00     0.027 A 
BRANCH   9  15
ATOM     15  O   UNL d   1      10.141   4.624 -18.853  0.00  0.00    -0.328 OA
ATOM     16  C   UNL d   1       9.105   5.553 -19.138  0.00  0.00     0.181 C 
ENDBRANCH   9  15
ENDBRANCH   6   8
ENDBRANCH   4   5
ENDBRANCH   2   4
ENDBRANCH   1   2
BRANCH   1  17
ATOM     17  C   UNL d   1       9.045   3.723 -14.120  0.00  0.00     0.047 C 
BRANCH  17  18
ATOM     18  C   UNL d   1       8.005   4.279 -13.155  0.00  0.00     0.067 C 
BRANCH  18  19
ATOM     19  S   UNL d   1       8.372   6.016 -12.790  0.00  0.00    -0.075 SA
BRANCH  19  20
ATOM     20  C   UNL d   1       8.966   5.921 -11.128  0.00  0.00     0.193 A 
ATOM     21  N   UNL d   1       9.466   6.990 -10.481  0.00  0.00    -0.289 N 
ATOM     22  C   UNL d   1       9.757   6.455  -9.270  0.00  0.00     0.167 A 
ATOM     23  C   UNL d   1       9.598   8.370 -10.940  0.00  0.00     0.134 C 
ATOM     24  N   UNL d   1       9.470   5.154  -9.181  0.00  0.00    -0.128 NA
ATOM     25  N   UNL d   1       8.960   4.795 -10.425  0.00  0.00    -0.122 NA
BRANCH  22  26
ATOM     26  C   UNL d   1      10.348   7.168  -8.147  0.00  0.00     0.036 A 
ATOM     27  C   UNL d   1      11.325   8.166  -8.331  0.00  0.00     0.003 A 
ATOM     28  C   UNL d   1      11.863   8.841  -7.215  0.00  0.00     0.000 A 
ATOM     29  C   UNL d   1      11.457   8.489  -5.912  0.00  0.00     0.000 A 
ATOM     30  C   UNL d   1      10.538   7.447  -5.726  0.00  0.00     0.000 A 
ATOM     31  C   UNL d   1       9.957   6.811  -6.839  0.00  0.00     0.003 A 
ENDBRANCH  22  26
ENDBRANCH  19  20
ENDBRANCH  18  19
ENDBRANCH  17  18
ENDBRANCH   1  17
TORSDOF 10
