REMARK  7 active torsions:
REMARK  status: ('A' for Active; 'I' for Inactive)
REMARK    1  A    between atoms: O_2  and  C_3 
REMARK    2  A    between atoms: C_8  and  N_9 
REMARK    3  A    between atoms: N_12  and  C_13 
REMARK    4  A    between atoms: C_13  and  C_14 
REMARK    5  A    between atoms: C_14  and  C_16 
REMARK    6  A    between atoms: C_16  and  N_17 
REMARK    7  A    between atoms: C_21  and  C_23 
ROOT
ATOM      1  C   UNL d   1       9.547   0.996 -16.052  0.00  0.00     0.208 C 
ATOM      2  O   UNL d   1       9.853  -0.161 -15.311  0.00  0.00    -0.219 OA
ENDROOT
BRANCH   1   3
ATOM      3  C   UNL d   1       8.433   1.765 -15.284  0.00  0.00     0.285 C 
BRANCH   3   4
ATOM      4  N   UNL d   1       8.782   3.083 -14.790  0.00  0.00     0.144 N 
ATOM      5  C   UNL d   1       9.961   3.102 -13.914  0.00  0.00     0.274 C 
ATOM      6  C   UNL d   1      10.348   4.510 -13.486  0.00  0.00     0.137 C 
ATOM      7  N   UNL d   1       9.215   5.170 -12.873  0.00  0.00    -0.343 N 
ATOM      8  C   UNL d   1       7.937   5.116 -13.565  0.00  0.00     0.137 C 
ATOM      9  C   UNL d   1       7.657   3.676 -14.045  0.00  0.00     0.274 C 
BRANCH   7  10
ATOM     10  C   UNL d   1       9.310   5.670 -11.565  0.00  0.00     0.079 A 
ATOM     11  C   UNL d   1       9.299   7.056 -11.325  0.00  0.00     0.110 A 
ATOM     12  C   UNL d   1       9.478   7.523  -9.999  0.00  0.00     0.026 A 
ATOM     13  C   UNL d   1       9.586   6.623  -8.922  0.00  0.00     0.002 A 
ATOM     14  C   UNL d   1       9.568   5.244  -9.172  0.00  0.00     0.002 A 
ATOM     15  C   UNL d   1       9.459   4.781 -10.492  0.00  0.00     0.019 A 
BRANCH  11  16
ATOM     16  O   UNL d   1       9.173   7.893 -12.411  0.00  0.00    -0.327 OA
ATOM     17  C   UNL d   1       8.342   9.023 -12.224  0.00  0.00     0.181 C 
ENDBRANCH  11  16
ENDBRANCH   7  10
ENDBRANCH   3   4
ENDBRANCH   1   3
BRANCH   1  18
ATOM     18  C   UNL d   1       9.172   0.579 -17.492  0.00  0.00     0.148 C 
BRANCH  18  19
ATOM     19  N   UNL d   1      10.032   1.273 -18.459  0.00  0.00    -0.247 N 
ATOM     20  C   UNL d   1       9.716   2.441 -19.038  0.00  0.00     0.265 A 
ATOM     21  C   UNL d   1      10.874   2.878 -19.932  0.00  0.00     0.179 A 
ATOM     22  O   UNL d   1       8.666   3.069 -18.899  0.00  0.00    -0.269 OA
ATOM     23  N   UNL d   1      11.753   1.739 -19.705  0.00  0.00    -0.209 NA
ATOM     24  C   UNL d   1      10.448   2.913 -21.417  0.00  0.00     0.039 C 
ATOM     25  C   UNL d   1      11.254   0.859 -18.831  0.00  0.00     0.348 A 
ATOM     26  O   UNL d   1      11.832  -0.160 -18.447  0.00  0.00    -0.245 OA
BRANCH  21  27
ATOM     27  C   UNL d   1      11.457   4.213 -19.432  0.00  0.00     0.009 A 
ATOM     28  C   UNL d   1      10.854   5.439 -19.805  0.00  0.00     0.028 A 
ATOM     29  C   UNL d   1      11.377   6.668 -19.366  0.00  0.00     0.140 A 
ATOM     30  C   UNL d   1      12.506   6.695 -18.529  0.00  0.00     0.030 A 
ATOM     31  F   UNL d   1      10.790   7.826 -19.752  0.00  0.00    -0.204 F 
ATOM     32  C   UNL d   1      13.113   5.486 -18.136  0.00  0.00     0.002 A 
ATOM     33  C   UNL d   1      12.592   4.255 -18.582  0.00  0.00    -0.002 A 
ENDBRANCH  21  27
ENDBRANCH  18  19
ENDBRANCH   1  18
TORSDOF 7
