REMARK  2 active torsions:
REMARK  status: ('A' for Active; 'I' for Inactive)
REMARK    1  A    between atoms: C_2  and  N_3 
REMARK    2  A    between atoms: C_7  and  C_8 
ROOT
ATOM      1  C   UNL d   1      10.512   8.215  -6.693  0.00  0.00     0.038 C 
ATOM      2  C   UNL d   1      10.256   9.534  -6.926  0.00  0.00     0.100 C 
ATOM      3  N   UNL d   1      10.806  10.286  -5.912  0.00  0.00    -0.244 NA
ATOM      4  C   UNL d   1      11.248   9.505  -4.882  0.00  0.00     0.082 A 
ATOM      5  C   UNL d   1      11.704   9.803  -3.586  0.00  0.00     0.020 A 
ATOM      6  C   UNL d   1      12.179   8.775  -2.800  0.00  0.00     0.007 A 
ATOM      7  C   UNL d   1      12.066   7.463  -3.275  0.00  0.00     0.030 A 
ATOM      8  I   UNL d   1      12.717   6.011  -1.990  0.00  0.00    -0.043 I 
ATOM      9  C   UNL d   1      11.515   7.128  -4.512  0.00  0.00     0.007 A 
ATOM     10  C   UNL d   1      11.111   8.172  -5.368  0.00  0.00     0.021 A 
ENDROOT
BRANCH   1  11
ATOM     11  C   UNL d   1      10.102   7.113  -7.533  0.00  0.00     0.082 A 
ATOM     12  N   UNL d   1      10.633   6.859  -8.790  0.00  0.00    -0.309 N 
ATOM     13  C   UNL d   1       9.997   5.743  -9.188  0.00  0.00     0.179 A 
ATOM     14  N   UNL d   1       9.088   5.270  -8.342  0.00  0.00    -0.223 NA
ATOM     15  C   UNL d   1       9.124   6.181  -7.293  0.00  0.00     0.118 A 
BRANCH  12  16
ATOM     16  C   UNL d   1      11.674   7.593  -9.501  0.00  0.00     0.108 C 
ATOM     17  C   UNL d   1      11.145   8.897 -10.164  0.00  0.00     0.027 C 
ENDBRANCH  12  16
ENDBRANCH   1  11
TORSDOF 2
