REMARK  8 active torsions:
REMARK  status: ('A' for Active; 'I' for Inactive)
REMARK    1  A    between atoms: N_12  and  C_13 
REMARK    2  A    between atoms: C_13  and  C_14 
REMARK    3  A    between atoms: C_14  and  C_15 
REMARK    4  A    between atoms: C_15  and  C_16 
REMARK    5  A    between atoms: C_16  and  C_17 
REMARK    6  A    between atoms: C_17  and  C_18 
REMARK    7  A    between atoms: C_18  and  N_19 
REMARK    8  A    between atoms: N_22  and  C_23 
ROOT
ATOM      1  C   UNL d   1       7.169   0.498 -16.163  0.00  0.00     0.002 C 
ENDROOT
BRANCH   1   2
ATOM      2  C   UNL d   1       7.501   0.253 -17.648  0.00  0.00     0.002 C 
BRANCH   2   3
ATOM      3  C   UNL d   1       8.953   0.607 -18.007  0.00  0.00     0.025 C 
BRANCH   3   4
ATOM      4  C   UNL d   1       9.339   0.267 -19.449  0.00  0.00     0.122 C 
BRANCH   4   5
ATOM      5  N   UNL d   1      10.672   0.818 -19.767  0.00  0.00    -0.221 N 
ATOM      6  C   UNL d   1      11.012   1.315 -21.036  0.00  0.00     0.271 A 
ATOM      7  O   UNL d   1      10.230   1.500 -21.968  0.00  0.00    -0.266 OA
ATOM      8  C   UNL d   1      12.489   1.566 -21.086  0.00  0.00     0.069 A 
ATOM      9  C   UNL d   1      13.166   1.237 -19.910  0.00  0.00     0.108 A 
ATOM     10  C   UNL d   1      13.201   2.089 -22.184  0.00  0.00     0.005 A 
ATOM     11  C   UNL d   1      14.551   1.402 -19.763  0.00  0.00     0.013 A 
ATOM     12  S   UNL d   1      12.028   0.624 -18.709  0.00  0.00     0.270 S 
ATOM     13  C   UNL d   1      15.270   1.924 -20.860  0.00  0.00     0.001 A 
ATOM     14  C   UNL d   1      14.599   2.268 -22.060  0.00  0.00     0.000 A 
ATOM     15  O   UNL d   1      12.253  -0.809 -18.486  0.00  0.00    -0.200 OA
ATOM     16  O   UNL d   1      11.908   1.581 -17.598  0.00  0.00    -0.200 OA
ENDBRANCH   4   5
ENDBRANCH   3   4
ENDBRANCH   2   3
ENDBRANCH   1   2
BRANCH   1  17
ATOM     17  C   UNL d   1       7.323   1.969 -15.764  0.00  0.00     0.035 C 
BRANCH  17  18
ATOM     18  C   UNL d   1       6.845   2.253 -14.329  0.00  0.00     0.250 C 
BRANCH  18  19
ATOM     19  N   UNL d   1       7.240   3.585 -13.868  0.00  0.00     0.141 N 
ATOM     20  C   UNL d   1       8.690   3.639 -13.585  0.00  0.00     0.274 C 
ATOM     21  C   UNL d   1       9.102   5.043 -13.118  0.00  0.00     0.137 C 
ATOM     22  N   UNL d   1       8.305   5.425 -11.973  0.00  0.00    -0.344 N 
ATOM     23  C   UNL d   1       6.863   5.325 -12.132  0.00  0.00     0.137 C 
ATOM     24  C   UNL d   1       6.486   3.919 -12.645  0.00  0.00     0.274 C 
BRANCH  22  25
ATOM     25  C   UNL d   1       8.905   5.895 -10.797  0.00  0.00     0.057 A 
ATOM     26  C   UNL d   1       9.793   6.990 -10.838  0.00  0.00     0.028 A 
ATOM     27  C   UNL d   1      10.394   7.460  -9.655  0.00  0.00     0.059 A 
ATOM     28  C   UNL d   1      10.127   6.836  -8.427  0.00  0.00     0.011 A 
ATOM     29 CL   UNL d   1      11.465   8.803  -9.695  0.00  0.00    -0.082 Cl
ATOM     30  C   UNL d   1       9.240   5.750  -8.383  0.00  0.00     0.002 A 
ATOM     31  C   UNL d   1       8.633   5.275  -9.561  0.00  0.00     0.017 A 
ENDBRANCH  22  25
ENDBRANCH  18  19
ENDBRANCH  17  18
ENDBRANCH   1  17
TORSDOF 8
