REMARK  0 active torsions:
REMARK  status: ('A' for Active; 'I' for Inactive)
ROOT
ATOM      1  O   UNL d   1      10.237   5.049  -8.421  0.00  0.00    -0.191 OA
ATOM      2  C   UNL d   1      10.229   6.288  -8.943  0.00  0.00     0.127 A 
ATOM      3  C   UNL d   1      10.600   7.398  -8.151  0.00  0.00     0.027 A 
ATOM      4  C   UNL d   1      10.326   8.685  -8.633  0.00  0.00     0.002 A 
ATOM      5  C   UNL d   1       9.744   8.816  -9.902  0.00  0.00    -0.003 A 
ATOM      6  C   UNL d   1       9.463   7.694 -10.737  0.00  0.00     0.009 A 
ATOM      7  C   UNL d   1       9.727   6.413 -10.238  0.00  0.00     0.003 A 
ATOM      8  C   UNL d   1       9.291   5.171 -11.023  0.00  0.00     0.066 C 
ATOM      9  C   UNL d   1       8.865   5.474 -12.476  0.00  0.00     0.246 C 
ATOM     10  C   UNL d   1       8.222   4.264 -13.127  0.00  0.00     0.007 A 
ATOM     11  C   UNL d   1       9.031   3.215 -13.606  0.00  0.00     0.024 A 
ATOM     12  C   UNL d   1       8.380   2.091 -14.145  0.00  0.00     0.119 A 
ATOM     13  C   UNL d   1       7.003   2.010 -14.205  0.00  0.00     0.119 A 
ATOM     14  C   UNL d   1       6.180   3.028 -13.716  0.00  0.00     0.022 A 
ATOM     15  C   UNL d   1       6.801   4.173 -13.192  0.00  0.00    -0.020 A 
ATOM     16  C   UNL d   1       5.922   5.315 -12.716  0.00  0.00     0.061 C 
ATOM     17  C   UNL d   1       6.710   6.377 -11.933  0.00  0.00     0.256 C 
ATOM     18  N   UNL d   1       8.011   6.656 -12.552  0.00  0.00     0.144 N 
ATOM     19  C   UNL d   1       8.744   7.842 -12.050  0.00  0.00     0.277 C 
ATOM     20  O   UNL d   1       6.631   0.806 -14.699  0.00  0.00    -0.300 OA
ATOM     21  C   UNL d   1       7.824   0.112 -14.941  0.00  0.00     0.304 A 
ATOM     22  O   UNL d   1       8.916   0.929 -14.589  0.00  0.00    -0.300 OA
ENDROOT
TORSDOF 0
