REMARK  4 active torsions:
REMARK  status: ('A' for Active; 'I' for Inactive)
REMARK    1  A    between atoms: N_3  and  C_4 
REMARK    2  A    between atoms: C_4  and  C_5 
REMARK    3  A    between atoms: C_5  and  N_6 
REMARK    4  A    between atoms: N_16  and  C_17 
ROOT
ATOM      1  O   UNL d   1      10.142   5.546 -13.179  0.00  0.00    -0.247 OA
ATOM      2  C   UNL d   1       9.074   4.986 -12.902  0.00  0.00     0.328 C 
ATOM      3  N   UNL d   1       8.439   4.150 -13.723  0.00  0.00    -0.298 N 
ATOM      4  C   UNL d   1       7.119   3.795 -13.239  0.00  0.00     0.131 C 
ATOM      5  C   UNL d   1       7.118   4.388 -11.823  0.00  0.00     0.135 C 
ATOM      6  N   UNL d   1       8.395   5.110 -11.754  0.00  0.00    -0.280 N 
ENDROOT
BRANCH   3   7
ATOM      7  C   UNL d   1       8.874   3.866 -15.082  0.00  0.00     0.141 C 
BRANCH   7   8
ATOM      8  C   UNL d   1      10.339   3.361 -15.137  0.00  0.00     0.274 C 
BRANCH   8   9
ATOM      9  N   UNL d   1      11.003   3.686 -16.394  0.00  0.00     0.135 N 
ATOM     10  C   UNL d   1      11.148   5.123 -16.693  0.00  0.00     0.219 C 
ATOM     11  C   UNL d   1      11.470   5.203 -18.198  0.00  0.00     0.033 C 
ATOM     12  C   UNL d   1      12.300   5.617 -15.809  0.00  0.00     0.035 C 
ATOM     13  C   UNL d   1      12.781   4.473 -18.551  0.00  0.00     0.004 C 
ATOM     14  C   UNL d   1      12.891   3.131 -17.797  0.00  0.00     0.033 C 
ATOM     15  C   UNL d   1      12.404   3.253 -16.335  0.00  0.00     0.219 C 
ATOM     16  C   UNL d   1      13.142   4.375 -15.561  0.00  0.00     0.035 C 
ENDBRANCH   8   9
ENDBRANCH   7   8
ENDBRANCH   3   7
BRANCH   6  17
ATOM     17  C   UNL d   1       8.871   5.781 -10.582  0.00  0.00     0.065 A 
ATOM     18  C   UNL d   1       9.646   6.963 -10.670  0.00  0.00     0.029 A 
ATOM     19  C   UNL d   1      10.114   7.613  -9.516  0.00  0.00     0.059 A 
ATOM     20  C   UNL d   1       9.785   7.119  -8.243  0.00  0.00     0.011 A 
ATOM     21 CL   UNL d   1      11.073   9.040  -9.656  0.00  0.00    -0.082 Cl
ATOM     22  C   UNL d   1       9.003   5.956  -8.142  0.00  0.00     0.002 A 
ATOM     23  C   UNL d   1       8.566   5.278  -9.296  0.00  0.00     0.017 A 
ENDBRANCH   6  17
TORSDOF 4
