REMARK  7 active torsions:
REMARK  status: ('A' for Active; 'I' for Inactive)
REMARK    1  A    between atoms: C_6  and  C_7 
REMARK    2  A    between atoms: C_10  and  S_11 
REMARK    3  A    between atoms: S_11  and  C_12 
REMARK    4  A    between atoms: C_12  and  C_13 
REMARK    5  A    between atoms: C_13  and  C_14 
REMARK    6  A    between atoms: C_14  and  N_15 
REMARK    7  A    between atoms: C_19  and  C_20 
ROOT
ATOM      1  C   UNL d   1      14.267   5.656 -18.841  0.00  0.00     0.167 A 
ATOM      2  N   UNL d   1      13.993   5.205 -17.614  0.00  0.00    -0.128 NA
ATOM      3  N   UNL d   1      13.690   3.872 -17.772  0.00  0.00    -0.122 NA
ATOM      4  C   UNL d   1      13.800   3.629 -19.080  0.00  0.00     0.193 A 
ATOM      5  N   UNL d   1      14.183   4.705 -19.795  0.00  0.00    -0.289 N 
ATOM      6  C   UNL d   1      14.441   4.815 -21.222  0.00  0.00     0.134 C 
ENDROOT
BRANCH   4   7
ATOM      7  S   UNL d   1      13.454   2.079 -19.854  0.00  0.00    -0.075 SA
BRANCH   7   8
ATOM      8  C   UNL d   1      12.696   1.175 -18.462  0.00  0.00     0.067 C 
BRANCH   8   9
ATOM      9  C   UNL d   1      11.320   1.737 -18.054  0.00  0.00     0.047 C 
BRANCH   9  10
ATOM     10  C   UNL d   1      10.765   1.087 -16.776  0.00  0.00     0.251 C 
BRANCH  10  11
ATOM     11  N   UNL d   1       9.559   1.791 -16.342  0.00  0.00     0.137 N 
ATOM     12  C   UNL d   1       9.173   1.453 -14.969  0.00  0.00     0.254 C 
ATOM     13  C   UNL d   1       7.710   1.863 -14.906  0.00  0.00     0.052 A 
ATOM     14  C   UNL d   1       7.236   1.853 -16.325  0.00  0.00     0.039 A 
ATOM     15  C   UNL d   1       6.614   0.900 -15.333  0.00  0.00     0.008 A 
ATOM     16  C   UNL d   1       8.405   1.470 -17.184  0.00  0.00     0.251 C 
BRANCH  13  17
ATOM     17  C   UNL d   1       7.411   3.072 -14.041  0.00  0.00    -0.021 A 
ATOM     18  C   UNL d   1       6.254   3.093 -13.226  0.00  0.00    -0.004 A 
ATOM     19  C   UNL d   1       5.948   4.203 -12.422  0.00  0.00    -0.000 A 
ATOM     20  C   UNL d   1       6.810   5.320 -12.403  0.00  0.00    -0.000 A 
ATOM     21  C   UNL d   1       7.970   5.315 -13.200  0.00  0.00    -0.000 A 
ATOM     22  C   UNL d   1       8.266   4.203 -14.018  0.00  0.00    -0.004 A 
ENDBRANCH  13  17
ENDBRANCH  10  11
ENDBRANCH   9  10
ENDBRANCH   8   9
ENDBRANCH   7   8
ENDBRANCH   4   7
BRANCH   1  23
ATOM     23  C   UNL d   1      14.655   7.034 -19.083  0.00  0.00     0.037 A 
ATOM     24  C   UNL d   1      15.989   7.471 -18.871  0.00  0.00     0.021 A 
ATOM     25  C   UNL d   1      17.000   6.580 -18.444  0.00  0.00     0.003 A 
ATOM     26  C   UNL d   1      16.336   8.835 -19.083  0.00  0.00     0.081 A 
ATOM     27  C   UNL d   1      18.308   7.065 -18.261  0.00  0.00     0.015 A 
ATOM     28  C   UNL d   1      18.548   8.433 -18.494  0.00  0.00     0.059 A 
ATOM     29  C   UNL d   1      19.928   9.020 -18.319  0.00  0.00     0.052 C 
ATOM     30  N   UNL d   1      17.592   9.297 -18.885  0.00  0.00    -0.250 NA
ATOM     31  C   UNL d   1      15.335   9.726 -19.512  0.00  0.00     0.019 A 
ATOM     32  C   UNL d   1      14.016   9.290 -19.729  0.00  0.00     0.002 A 
ATOM     33  C   UNL d   1      13.675   7.946 -19.509  0.00  0.00     0.003 A 
ENDBRANCH   1  23
TORSDOF 7
