REMARK  5 active torsions:
REMARK  status: ('A' for Active; 'I' for Inactive)
REMARK    1  A    between atoms: C_4  and  O_5 
REMARK    2  A    between atoms: O_5  and  C_6 
REMARK    3  A    between atoms: C_6  and  C_7 
REMARK    4  A    between atoms: C_7  and  N_8 
REMARK       I    between atoms: N_11  and  C_12 
REMARK    5  A    between atoms: C_12  and  C_14 
ROOT
ATOM      1  N   UNL d   1       9.154   5.211 -10.918  0.00  0.00     0.144 N 
ATOM      2  C   UNL d   1       9.369   6.623 -11.249  0.00  0.00     0.274 C 
ATOM      3  C   UNL d   1      10.403   7.264 -10.297  0.00  0.00     0.140 C 
ATOM      4  N   UNL d   1      10.042   7.067  -8.898  0.00  0.00    -0.311 N 
ATOM      5  C   UNL d   1       9.930   8.098  -8.033  0.00  0.00     0.275 C 
ATOM      6  O   UNL d   1       9.529   9.187  -8.409  0.00  0.00    -0.266 OA
ATOM      7  C   UNL d   1       9.743   5.684  -8.562  0.00  0.00     0.140 C 
ATOM      8  C   UNL d   1       8.697   5.120  -9.535  0.00  0.00     0.274 C 
ENDROOT
BRANCH   1   9
ATOM      9  C   UNL d   1       8.151   4.618 -11.806  0.00  0.00     0.283 C 
BRANCH   9  10
ATOM     10  C   UNL d   1       8.799   4.234 -13.142  0.00  0.00     0.184 C 
BRANCH  10  11
ATOM     11  O   UNL d   1       7.919   3.384 -13.873  0.00  0.00    -0.329 OA
BRANCH  11  12
ATOM     12  C   UNL d   1       8.424   2.418 -14.722  0.00  0.00     0.094 A 
ATOM     13  C   UNL d   1       7.491   1.674 -15.483  0.00  0.00     0.021 A 
ATOM     14  C   UNL d   1       7.917   0.666 -16.379  0.00  0.00    -0.009 A 
ATOM     15  C   UNL d   1       6.894  -0.099 -17.199  0.00  0.00     0.032 C 
ATOM     16  C   UNL d   1       9.296   0.384 -16.508  0.00  0.00     0.054 A 
ATOM     17  C   UNL d   1      10.227   1.107 -15.743  0.00  0.00     0.013 A 
ATOM     18 CL   UNL d   1       9.875  -0.824 -17.603  0.00  0.00    -0.083 Cl
ATOM     19  C   UNL d   1       9.803   2.120 -14.866  0.00  0.00     0.025 A 
ENDBRANCH  11  12
ENDBRANCH  10  11
ENDBRANCH   9  10
ENDBRANCH   1   9
BRANCH   5  20
ATOM     20  C   UNL d   1      10.523   7.957  -6.680  0.00  0.00     0.137 A 
ATOM     21  N   UNL d   1      10.711   9.103  -5.917  0.00  0.00    -0.241 NA
ATOM     22  C   UNL d   1      11.291   8.806  -4.694  0.00  0.00     0.082 A 
ATOM     23  C   UNL d   1      11.463   7.395  -4.694  0.00  0.00     0.019 A 
ATOM     24  C   UNL d   1      11.645   9.586  -3.582  0.00  0.00     0.019 A 
ATOM     25  C   UNL d   1      11.009   6.891  -5.953  0.00  0.00     0.025 A 
ATOM     26  C   UNL d   1      12.006   6.798  -3.535  0.00  0.00     0.002 A 
ATOM     27  C   UNL d   1      12.363   7.576  -2.420  0.00  0.00     0.000 A 
ATOM     28  C   UNL d   1      12.195   8.971  -2.445  0.00  0.00     0.002 A 
ENDBRANCH   5  20
TORSDOF 5
