REMARK  8 active torsions:
REMARK  status: ('A' for Active; 'I' for Inactive)
REMARK    1  A    between atoms: O_2  and  C_3 
REMARK    2  A    between atoms: C_3  and  C_4 
REMARK    3  A    between atoms: C_4  and  C_5 
REMARK       I    between atoms: C_5  and  N_7 
REMARK    4  A    between atoms: N_7  and  C_8 
REMARK    5  A    between atoms: C_11  and  C_12 
REMARK    6  A    between atoms: C_12  and  C_13 
REMARK    7  A    between atoms: C_13  and  N_14 
REMARK    8  A    between atoms: N_17  and  C_18 
ROOT
ATOM      1  N   UNL d   1       7.866   3.282 -13.652  0.00  0.00     0.141 N 
ATOM      2  C   UNL d   1       8.896   3.368 -14.705  0.00  0.00     0.274 C 
ATOM      3  C   UNL d   1       9.169   1.979 -15.257  0.00  0.00     0.138 C 
ATOM      4  N   UNL d   1       7.945   1.359 -15.741  0.00  0.00    -0.330 N 
ATOM      5  C   UNL d   1       6.830   1.334 -14.801  0.00  0.00     0.138 C 
ATOM      6  C   UNL d   1       6.608   2.741 -14.206  0.00  0.00     0.274 C 
ENDROOT
BRANCH   1   7
ATOM      7  C   UNL d   1       7.582   4.569 -13.040  0.00  0.00     0.250 C 
BRANCH   7   8
ATOM      8  C   UNL d   1       8.859   5.314 -12.592  0.00  0.00     0.035 C 
BRANCH   8   9
ATOM      9  C   UNL d   1       8.743   5.909 -11.189  0.00  0.00     0.002 C 
ATOM     10  C   UNL d   1       8.832   4.774 -10.153  0.00  0.00     0.002 C 
ATOM     11  C   UNL d   1       8.843   5.306  -8.727  0.00  0.00     0.024 C 
ATOM     12  C   UNL d   1       9.986   6.308  -8.524  0.00  0.00     0.106 C 
ATOM     13  C   UNL d   1       9.926   7.453  -9.554  0.00  0.00     0.024 C 
ATOM     14  C   UNL d   1       9.881   6.910 -10.970  0.00  0.00     0.002 C 
BRANCH  12  15
ATOM     15  N   UNL d   1       9.925   6.814  -7.170  0.00  0.00    -0.240 NA
ATOM     16  C   UNL d   1      10.912   7.511  -6.592  0.00  0.00     0.254 C 
ATOM     17  O   UNL d   1      11.858   7.987  -7.215  0.00  0.00    -0.271 OA
BRANCH  16  18
ATOM     18  C   UNL d   1      10.804   7.687  -5.090  0.00  0.00     0.122 C 
BRANCH  18  19
ATOM     19  C   UNL d   1      12.158   7.756  -4.364  0.00  0.00     0.152 C 
BRANCH  19  20
ATOM     20  O   UNL d   1      11.987   8.047  -2.988  0.00  0.00    -0.351 OA
ATOM     21  C   UNL d   1      11.809   9.430  -2.735  0.00  0.00     0.174 C 
ENDBRANCH  19  20
ENDBRANCH  18  19
ENDBRANCH  16  18
ENDBRANCH  12  15
ENDBRANCH   8   9
ENDBRANCH   7   8
ENDBRANCH   1   7
BRANCH   4  22
ATOM     22  C   UNL d   1       7.856   0.843 -17.040  0.00  0.00     0.138 A 
ATOM     23  C   UNL d   1       8.945   0.190 -17.665  0.00  0.00     0.036 A 
ATOM     24  C   UNL d   1       8.821  -0.317 -18.948  0.00  0.00     0.090 A 
ATOM     25  C   UNL d   1      10.314  -0.129 -17.153  0.00  0.00     0.064 C 
ATOM     26  C   UNL d   1       7.612  -0.158 -19.644  0.00  0.00     0.019 A 
ATOM     27  O   UNL d   1       9.947  -0.951 -19.389  0.00  0.00    -0.331 OA
ATOM     28  C   UNL d   1       6.570   0.511 -18.968  0.00  0.00     0.098 A 
ATOM     29  C   UNL d   1       7.443  -0.692 -21.054  0.00  0.00     0.035 C 
ATOM     30  N   UNL d   1       6.684   1.002 -17.709  0.00  0.00    -0.228 NA
ATOM     31  C   UNL d   1      10.871  -0.998 -18.290  0.00  0.00     0.154 C 
ENDBRANCH   4  22
TORSDOF 8
