REMARK  7 active torsions:
REMARK  status: ('A' for Active; 'I' for Inactive)
REMARK       I    between atoms: C_2  and  N_3 
REMARK    1  A    between atoms: C_2  and  C_24 
REMARK    2  A    between atoms: N_3  and  C_4 
REMARK    3  A    between atoms: C_4  and  C_5 
REMARK    4  A    between atoms: C_5  and  C_6 
REMARK    5  A    between atoms: C_6  and  C_7 
REMARK    6  A    between atoms: C_7  and  N_8 
REMARK    7  A    between atoms: N_11  and  C_12 
ROOT
ATOM      1  N   UNL d   1       7.549   3.666 -12.995  0.00  0.00     0.141 N 
ATOM      2  C   UNL d   1       6.837   4.684 -12.227  0.00  0.00     0.274 C 
ATOM      3  C   UNL d   1       7.510   4.871 -10.863  0.00  0.00     0.138 C 
ATOM      4  N   UNL d   1       8.935   5.045 -10.985  0.00  0.00    -0.330 N 
ATOM      5  C   UNL d   1       9.681   4.195 -11.891  0.00  0.00     0.138 C 
ATOM      6  C   UNL d   1       8.941   4.067 -13.218  0.00  0.00     0.274 C 
ENDROOT
BRANCH   1   7
ATOM      7  C   UNL d   1       6.845   3.400 -14.242  0.00  0.00     0.251 C 
BRANCH   7   8
ATOM      8  C   UNL d   1       7.549   2.308 -15.067  0.00  0.00     0.037 C 
BRANCH   8   9
ATOM      9  C   UNL d   1       6.579   1.467 -15.895  0.00  0.00     0.029 C 
BRANCH   9  10
ATOM     10  C   UNL d   1       7.142   0.131 -16.390  0.00  0.00     0.129 C 
BRANCH  10  11
ATOM     11  N   UNL d   1       8.421   0.257 -17.076  0.00  0.00    -0.233 NA
ATOM     12  C   UNL d   1       8.702   1.043 -18.127  0.00  0.00     0.294 C 
ATOM     13  O   UNL d   1       7.904   1.830 -18.640  0.00  0.00    -0.264 OA
BRANCH  12  14
ATOM     14  C   UNL d   1      10.103   0.924 -18.594  0.00  0.00     0.158 A 
ATOM     15  N   UNL d   1      10.785   1.969 -19.198  0.00  0.00    -0.222 NA
ATOM     16  C   UNL d   1      11.964   1.475 -19.557  0.00  0.00     0.148 A 
ATOM     17  N   UNL d   1      12.057   0.111 -19.190  0.00  0.00    -0.288 N 
ATOM     18  C   UNL d   1      13.070   2.059 -20.223  0.00  0.00     0.037 A 
ATOM     19  C   UNL d   1      10.865  -0.216 -18.573  0.00  0.00     0.106 A 
ATOM     20  C   UNL d   1      13.158  -0.641 -19.459  0.00  0.00     0.082 A 
ATOM     21  C   UNL d   1      14.229  -0.064 -20.098  0.00  0.00     0.019 A 
ATOM     22  C   UNL d   1      14.185   1.297 -20.483  0.00  0.00     0.005 A 
ENDBRANCH  12  14
ENDBRANCH  10  11
ENDBRANCH   9  10
ENDBRANCH   8   9
ENDBRANCH   7   8
ENDBRANCH   1   7
BRANCH   4  23
ATOM     23  C   UNL d   1       9.480   6.148 -10.331  0.00  0.00     0.140 A 
ATOM     24  N   UNL d   1       9.672   6.050  -9.001  0.00  0.00    -0.229 NA
ATOM     25  C   UNL d   1      10.192   7.119  -8.334  0.00  0.00     0.083 A 
ATOM     26  C   UNL d   1      10.538   8.291  -9.043  0.00  0.00     0.018 A 
ATOM     27  C   UNL d   1      10.468   7.089  -6.953  0.00  0.00     0.019 A 
ATOM     28  C   UNL d   1      10.314   8.386 -10.417  0.00  0.00     0.005 A 
ATOM     29  C   UNL d   1      11.130   9.382  -8.396  0.00  0.00     0.002 A 
ATOM     30  C   UNL d   1       9.742   7.285 -11.088  0.00  0.00     0.037 A 
ATOM     31  C   UNL d   1      11.384   9.356  -7.012  0.00  0.00     0.000 A 
ATOM     32  C   UNL d   1      11.051   8.194  -6.286  0.00  0.00     0.002 A 
ENDBRANCH   4  23
TORSDOF 7
