REMARK  5 active torsions:
REMARK  status: ('A' for Active; 'I' for Inactive)
REMARK    1  A    between atoms: N_2  and  C_3 
REMARK    2  A    between atoms: C_10  and  C_11 
REMARK    3  A    between atoms: C_11  and  N_12 
REMARK    4  A    between atoms: C_15  and  C_16 
REMARK    5  A    between atoms: C_16  and  C_18 
ROOT
ATOM      1  N   UNL d   1       9.168   5.599 -11.859  0.00  0.00     0.137 N 
ATOM      2  C   UNL d   1       9.359   5.147 -10.475  0.00  0.00     0.251 C 
ATOM      3  C   UNL d   1      10.283   6.113  -9.696  0.00  0.00     0.043 C 
ATOM      4  C   UNL d   1       9.629   7.530  -9.637  0.00  0.00     0.066 C 
ATOM      5  C   UNL d   1       9.318   7.959 -11.117  0.00  0.00     0.043 C 
ATOM      6  C   UNL d   1       8.482   6.891 -11.864  0.00  0.00     0.251 C 
ENDROOT
BRANCH   1   7
ATOM      7  C   UNL d   1       8.451   4.563 -12.599  0.00  0.00     0.251 C 
BRANCH   7   8
ATOM      8  C   UNL d   1       9.237   4.227 -13.878  0.00  0.00     0.047 C 
ATOM      9  C   UNL d   1       8.792   2.865 -14.441  0.00  0.00     0.049 C 
ATOM     10  C   UNL d   1       9.695   2.367 -15.562  0.00  0.00     0.082 A 
ATOM     11  C   UNL d   1      11.004   2.870 -15.743  0.00  0.00     0.069 A 
ATOM     12  N   UNL d   1       9.188   1.415 -16.373  0.00  0.00    -0.064 NA
ATOM     13  C   UNL d   1      11.737   2.338 -16.822  0.00  0.00     0.122 A 
ATOM     14  C   UNL d   1      11.582   3.903 -14.869  0.00  0.00     0.176 C 
ATOM     15  N   UNL d   1      11.218   1.385 -17.617  0.00  0.00    -0.058 NA
ATOM     16  C   UNL d   1       9.977   0.977 -17.352  0.00  0.00     0.746 A 
ATOM     17  C   UNL d   1      10.766   4.262 -13.649  0.00  0.00     0.072 C 
ATOM     18  O   UNL d   1      12.669   4.453 -15.047  0.00  0.00    -0.291 OA
BRANCH  16  19
ATOM     19  N   UNL d   1       9.437   0.006 -18.165  0.00  0.00    -0.084 NA
ATOM     20  C   UNL d   1      10.152  -0.593 -19.284  0.00  0.00     0.172 C 
ENDBRANCH  16  19
ENDBRANCH   7   8
ENDBRANCH   1   7
BRANCH   4  21
ATOM     21  C   UNL d   1      10.558   8.586  -8.935  0.00  0.00     0.173 C 
ATOM     22  O   UNL d   1      11.028   9.551  -9.562  0.00  0.00    -0.291 OA
BRANCH  21  23
ATOM     23  C   UNL d   1      10.820   8.368  -7.470  0.00  0.00     0.035 C 
ATOM     24  C   UNL d   1      11.480   9.423  -6.752  0.00  0.00     0.005 C 
ATOM     25  C   UNL d   1      11.785   9.236  -5.387  0.00  0.00     0.030 C 
ATOM     26  C   UNL d   1      11.503   8.008  -4.743  0.00  0.00     0.140 C 
ATOM     27  C   UNL d   1      10.888   6.972  -5.488  0.00  0.00     0.030 C 
ATOM     28  F   UNL d   1      11.819   7.810  -3.425  0.00  0.00    -0.204 F 
ATOM     29  C   UNL d   1      10.434   7.170  -6.800  0.00  0.00     0.005 C 
ENDBRANCH  21  23
ENDBRANCH   4  21
TORSDOF 5
