REMARK  4 active torsions:
REMARK  status: ('A' for Active; 'I' for Inactive)
REMARK    1  A    between atoms: C_11  and  C_12 
REMARK    2  A    between atoms: N_15  and  C_16 
REMARK    3  A    between atoms: C_16  and  C_17 
REMARK    4  A    between atoms: C_20  and  C_21 
ROOT
ATOM      1  C   UNL d   1       9.581   3.192 -15.043  0.00  0.00     0.011 C 
ATOM      2  C   UNL d   1      10.456   3.829 -13.950  0.00  0.00     0.036 C 
ATOM      3  C   UNL d   1       9.700   4.919 -13.200  0.00  0.00     0.251 C 
ATOM      4  N   UNL d   1       8.504   4.373 -12.564  0.00  0.00     0.141 N 
ATOM      5  C   UNL d   1       7.593   3.895 -13.595  0.00  0.00     0.251 C 
ATOM      6  C   UNL d   1       8.249   2.764 -14.391  0.00  0.00     0.036 C 
ENDROOT
BRANCH   1   7
ATOM      7  C   UNL d   1      10.318   2.005 -15.726  0.00  0.00     0.062 C 
ATOM      8  C   UNL d   1      11.431   2.453 -16.697  0.00  0.00     0.172 C 
ATOM      9  O   UNL d   1      11.925   3.579 -16.600  0.00  0.00    -0.291 OA
ATOM     10  C   UNL d   1      11.886   1.479 -17.718  0.00  0.00     0.031 A 
ATOM     11  C   UNL d   1      11.248   0.222 -17.873  0.00  0.00    -0.019 A 
ATOM     12  C   UNL d   1      12.957   1.819 -18.573  0.00  0.00     0.003 A 
ATOM     13  C   UNL d   1      11.689  -0.671 -18.866  0.00  0.00    -0.004 A 
ATOM     14  C   UNL d   1      10.077  -0.185 -17.002  0.00  0.00     0.027 C 
ATOM     15  C   UNL d   1      12.759  -0.327 -19.710  0.00  0.00    -0.000 A 
ATOM     16  C   UNL d   1      13.394   0.922 -19.567  0.00  0.00     0.000 A 
ATOM     17  C   UNL d   1       9.355   1.018 -16.433  0.00  0.00     0.012 C 
ENDBRANCH   1   7
BRANCH   4  18
ATOM     18  C   UNL d   1       7.818   5.404 -11.787  0.00  0.00     0.277 C 
BRANCH  18  19
ATOM     19  C   UNL d   1       8.672   5.987 -10.682  0.00  0.00     0.011 A 
ATOM     20  C   UNL d   1       8.683   5.407  -9.400  0.00  0.00    -0.002 A 
ATOM     21  C   UNL d   1       9.460   5.980  -8.374  0.00  0.00     0.004 A 
ATOM     22  C   UNL d   1      10.261   7.116  -8.628  0.00  0.00     0.071 A 
ATOM     23  C   UNL d   1      10.258   7.688  -9.919  0.00  0.00     0.004 A 
ATOM     24  C   UNL d   1       9.463   7.132 -10.934  0.00  0.00    -0.002 A 
BRANCH  22  25
ATOM     25  C   UNL d   1      11.107   7.723  -7.524  0.00  0.00     0.419 C 
ATOM     26  F   UNL d   1      12.220   8.259  -8.028  0.00  0.00    -0.166 F 
ATOM     27  F   UNL d   1      10.414   8.677  -6.903  0.00  0.00    -0.166 F 
ATOM     28  F   UNL d   1      11.459   6.797  -6.632  0.00  0.00    -0.166 F 
ENDBRANCH  22  25
ENDBRANCH  18  19
ENDBRANCH   4  18
TORSDOF 4
