REMARK  8 active torsions:
REMARK  status: ('A' for Active; 'I' for Inactive)
REMARK    1  A    between atoms: O_2  and  C_3 
REMARK    2  A    between atoms: C_7  and  N_8 
REMARK    3  A    between atoms: N_11  and  C_12 
REMARK    4  A    between atoms: C_12  and  C_13 
REMARK    5  A    between atoms: C_13  and  C_14 
REMARK    6  A    between atoms: C_14  and  C_15 
REMARK    7  A    between atoms: C_15  and  N_16 
REMARK       I    between atoms: N_16  and  C_17 
REMARK    8  A    between atoms: C_17  and  C_19 
ROOT
ATOM      1  C   UNL d   1       8.336   5.501  -9.807  0.00  0.00     0.251 C 
ENDROOT
BRANCH   1   2
ATOM      2  N   UNL d   1       9.538   6.025  -9.154  0.00  0.00     0.141 N 
ATOM      3  C   UNL d   1       9.499   5.593  -7.766  0.00  0.00     0.274 C 
ATOM      4  C   UNL d   1      10.777   6.032  -7.040  0.00  0.00     0.137 C 
ATOM      5  N   UNL d   1      10.944   7.473  -7.130  0.00  0.00    -0.344 N 
ATOM      6  C   UNL d   1      10.840   7.997  -8.487  0.00  0.00     0.137 C 
ATOM      7  C   UNL d   1       9.543   7.487  -9.144  0.00  0.00     0.274 C 
BRANCH   5   8
ATOM      8  C   UNL d   1      11.084   8.255  -5.986  0.00  0.00     0.058 A 
ATOM      9  C   UNL d   1      10.692   9.610  -5.957  0.00  0.00     0.017 A 
ATOM     10  C   UNL d   1      10.894  10.386  -4.800  0.00  0.00     0.004 A 
ATOM     11  C   UNL d   1      11.465   9.813  -3.651  0.00  0.00     0.024 A 
ATOM     12  C   UNL d   1      11.854   8.467  -3.633  0.00  0.00     0.096 A 
ATOM     13  C   UNL d   1      11.664   7.702  -4.823  0.00  0.00     0.041 A 
BRANCH  12  14
ATOM     14  O   UNL d   1      12.386   7.969  -2.464  0.00  0.00    -0.328 OA
ATOM     15  C   UNL d   1      12.146   6.598  -2.176  0.00  0.00     0.181 C 
ENDBRANCH  12  14
ENDBRANCH   5   8
ENDBRANCH   1   2
BRANCH   1  16
ATOM     16  C   UNL d   1       8.396   5.708 -11.322  0.00  0.00     0.037 C 
BRANCH  16  17
ATOM     17  C   UNL d   1       7.469   4.734 -12.050  0.00  0.00     0.029 C 
BRANCH  17  18
ATOM     18  C   UNL d   1       7.576   4.853 -13.572  0.00  0.00     0.129 C 
BRANCH  18  19
ATOM     19  N   UNL d   1       8.423   3.817 -14.151  0.00  0.00    -0.233 NA
ATOM     20  C   UNL d   1       9.716   3.956 -14.476  0.00  0.00     0.298 C 
ATOM     21  O   UNL d   1      10.412   4.915 -14.137  0.00  0.00    -0.263 OA
BRANCH  20  22
ATOM     22  C   UNL d   1      10.239   2.934 -15.406  0.00  0.00     0.157 A 
ATOM     23  O   UNL d   1       9.485   1.810 -15.658  0.00  0.00    -0.302 OA
ATOM     24  C   UNL d   1      10.177   1.049 -16.580  0.00  0.00     0.100 A 
ATOM     25  C   UNL d   1      11.377   1.714 -16.928  0.00  0.00     0.025 A 
ATOM     26  C   UNL d   1       9.798  -0.189 -17.116  0.00  0.00     0.025 A 
ATOM     27  C   UNL d   1      11.394   2.922 -16.158  0.00  0.00     0.032 A 
ATOM     28  C   UNL d   1      12.210   1.075 -17.880  0.00  0.00     0.002 A 
ATOM     29  C   UNL d   1      11.858  -0.177 -18.427  0.00  0.00     0.000 A 
ATOM     30  C   UNL d   1      10.654  -0.812 -18.047  0.00  0.00     0.002 A 
ENDBRANCH  20  22
ENDBRANCH  18  19
ENDBRANCH  17  18
ENDBRANCH  16  17
ENDBRANCH   1  16
TORSDOF 8
