REMARK  6 active torsions:
REMARK  status: ('A' for Active; 'I' for Inactive)
REMARK    1  A    between atoms: C_2  and  C_3 
REMARK       I    between atoms: C_3  and  N_5 
REMARK    2  A    between atoms: N_5  and  C_6 
REMARK    3  A    between atoms: C_12  and  C_13 
REMARK    4  A    between atoms: C_13  and  C_14 
REMARK    5  A    between atoms: C_14  and  N_15 
REMARK    6  A    between atoms: N_18  and  C_19 
ROOT
ATOM      1  C   UNL d   1       9.538   5.133 -10.852  0.00  0.00     0.255 C 
ENDROOT
BRANCH   1   2
ATOM      2  C   UNL d   1       8.446   5.217 -11.897  0.00  0.00     0.062 C 
BRANCH   2   3
ATOM      3  C   UNL d   1       8.837   4.554 -13.205  0.00  0.00    -0.020 A 
ATOM      4  C   UNL d   1      10.121   4.794 -13.796  0.00  0.00    -0.005 A 
ATOM      5  C   UNL d   1      10.463   4.216 -15.029  0.00  0.00    -0.005 A 
ATOM      6  C   UNL d   1       9.521   3.413 -15.662  0.00  0.00    -0.024 A 
ATOM      7  C   UNL d   1       9.660   2.714 -16.992  0.00  0.00     0.028 C 
ATOM      8  C   UNL d   1       8.268   3.124 -15.065  0.00  0.00    -0.004 A 
ATOM      9  C   UNL d   1       8.254   2.149 -17.261  0.00  0.00     0.034 C 
ATOM     10  C   UNL d   1       7.440   2.232 -15.939  0.00  0.00     0.129 C 
ATOM     11  C   UNL d   1       7.899   3.742 -13.858  0.00  0.00    -0.007 A 
BRANCH  10  12
ATOM     12  N   UNL d   1       7.219   0.947 -15.318  0.00  0.00    -0.235 NA
ATOM     13  C   UNL d   1       6.240   0.708 -14.427  0.00  0.00     0.252 C 
ATOM     14  O   UNL d   1       5.533   1.553 -13.891  0.00  0.00    -0.271 OA
BRANCH  13  15
ATOM     15  C   UNL d   1       6.097  -0.737 -14.002  0.00  0.00     0.090 C 
ATOM     16  C   UNL d   1       6.848  -0.908 -12.685  0.00  0.00     0.010 C 
ENDBRANCH  13  15
ENDBRANCH  10  12
ENDBRANCH   2   3
ENDBRANCH   1   2
BRANCH   1  17
ATOM     17  N   UNL d   1       9.155   5.758  -9.596  0.00  0.00     0.141 N 
ATOM     18  C   UNL d   1       9.377   7.205  -9.748  0.00  0.00     0.274 C 
ATOM     19  C   UNL d   1       9.068   7.909  -8.416  0.00  0.00     0.138 C 
ATOM     20  N   UNL d   1       9.949   7.417  -7.373  0.00  0.00    -0.329 N 
ATOM     21  C   UNL d   1       9.897   5.971  -7.241  0.00  0.00     0.138 C 
ATOM     22  C   UNL d   1      10.118   5.338  -8.600  0.00  0.00     0.274 C 
BRANCH  20  23
ATOM     23  C   UNL d   1      10.623   8.300  -6.508  0.00  0.00     0.148 A 
ATOM     24  C   UNL d   1      11.170   7.933  -5.215  0.00  0.00     0.042 A 
ATOM     25  C   UNL d   1      11.861   9.052  -4.665  0.00  0.00     0.050 A 
ATOM     26  C   UNL d   1      11.175   6.757  -4.435  0.00  0.00     0.004 A 
ATOM     27  S   UNL d   1      11.662  10.382  -5.783  0.00  0.00     0.015 SA
ATOM     28  C   UNL d   1      12.544   8.989  -3.429  0.00  0.00     0.008 A 
ATOM     29  N   UNL d   1      10.787   9.541  -6.901  0.00  0.00    -0.192 NA
ATOM     30  C   UNL d   1      12.549   7.788  -2.694  0.00  0.00     0.001 A 
ATOM     31  C   UNL d   1      11.862   6.677  -3.202  0.00  0.00     0.000 A 
ENDBRANCH  20  23
ENDBRANCH   1  17
TORSDOF 6
