REMARK  4 active torsions:
REMARK  status: ('A' for Active; 'I' for Inactive)
REMARK    1  A    between atoms: C_3  and  C_4 
REMARK    2  A    between atoms: C_3  and  C_17 
REMARK    3  A    between atoms: C_4  and  N_5 
REMARK    4  A    between atoms: N_8  and  C_9 
ROOT
ATOM      1  N   UNL d   1       7.081   3.207 -13.258  0.00  0.00     0.147 N 
ATOM      2  C   UNL d   1       7.679   2.603 -14.460  0.00  0.00     0.275 C 
ATOM      3  C   UNL d   1       7.476   1.095 -14.513  0.00  0.00     0.138 C 
ATOM      4  N   UNL d   1       6.062   0.794 -14.413  0.00  0.00    -0.330 N 
ATOM      5  C   UNL d   1       5.375   1.398 -13.276  0.00  0.00     0.138 C 
ATOM      6  C   UNL d   1       5.639   2.927 -13.234  0.00  0.00     0.275 C 
ENDROOT
BRANCH   1   7
ATOM      7  C   UNL d   1       7.321   4.649 -13.154  0.00  0.00     0.298 C 
BRANCH   7   8
ATOM      8  C   UNL d   1       8.789   5.072 -13.100  0.00  0.00     0.122 C 
ATOM      9  N   UNL d   1       9.545   4.878 -14.108  0.00  0.00    -0.099 NA
ATOM     10  O   UNL d   1      10.899   5.187 -13.807  0.00  0.00    -0.061 OA
BRANCH   8  11
ATOM     11  C   UNL d   1       9.180   5.766 -11.853  0.00  0.00     0.018 A 
ATOM     12  C   UNL d   1       9.459   7.150 -11.884  0.00  0.00     0.004 A 
ATOM     13  C   UNL d   1       9.840   7.837 -10.717  0.00  0.00     0.030 A 
ATOM     14  C   UNL d   1       9.911   7.147  -9.491  0.00  0.00     0.140 A 
ATOM     15  C   UNL d   1       9.617   5.767  -9.442  0.00  0.00     0.030 A 
ATOM     16  F   UNL d   1      10.271   7.809  -8.366  0.00  0.00    -0.204 F 
ATOM     17  C   UNL d   1       9.257   5.082 -10.620  0.00  0.00     0.004 A 
ENDBRANCH   8  11
ENDBRANCH   7   8
ENDBRANCH   1   7
BRANCH   4  18
ATOM     18  C   UNL d   1       5.408  -0.006 -15.372  0.00  0.00     0.140 A 
ATOM     19  N   UNL d   1       4.329  -0.698 -14.943  0.00  0.00    -0.227 NA
ATOM     20  C   UNL d   1       3.683  -1.480 -15.828  0.00  0.00     0.101 A 
ATOM     21  C   UNL d   1       4.058  -1.613 -17.176  0.00  0.00     0.021 A 
ATOM     22  C   UNL d   1       5.173  -0.888 -17.629  0.00  0.00     0.005 A 
ATOM     23  C   UNL d   1       5.856  -0.068 -16.715  0.00  0.00     0.037 A 
ENDBRANCH   4  18
TORSDOF 4
