REMARK  5 active torsions:
REMARK  status: ('A' for Active; 'I' for Inactive)
REMARK    1  A    between atoms: O_2  and  C_3 
REMARK    2  A    between atoms: C_9  and  N_10 
REMARK    3  A    between atoms: N_13  and  C_14 
REMARK    4  A    between atoms: C_14  and  C_15 
REMARK    5  A    between atoms: C_17  and  C_18 
ROOT
ATOM      1  N   UNL d   1       8.062   5.557 -11.847  0.00  0.00    -0.343 N 
ATOM      2  C   UNL d   1       7.828   5.339 -10.441  0.00  0.00     0.137 C 
ATOM      3  C   UNL d   1       9.035   5.737  -9.597  0.00  0.00     0.274 C 
ATOM      4  N   UNL d   1       9.482   7.104  -9.900  0.00  0.00     0.141 N 
ATOM      5  C   UNL d   1       9.830   7.188 -11.320  0.00  0.00     0.274 C 
ATOM      6  C   UNL d   1       8.600   6.858 -12.198  0.00  0.00     0.137 C 
ENDROOT
BRANCH   4   7
ATOM      7  C   UNL d   1      10.644   7.461  -9.094  0.00  0.00     0.251 C 
BRANCH   7   8
ATOM      8  C   UNL d   1      10.279   7.572  -7.624  0.00  0.00     0.038 A 
ATOM      9  C   UNL d   1      11.218   7.022  -6.557  0.00  0.00     0.024 A 
ATOM     10  C   UNL d   1       9.899   6.380  -6.770  0.00  0.00     0.007 A 
BRANCH   9  11
ATOM     11  C   UNL d   1      11.454   7.696  -5.257  0.00  0.00    -0.022 A 
ATOM     12  C   UNL d   1      11.284   9.088  -5.149  0.00  0.00    -0.004 A 
ATOM     13  C   UNL d   1      11.464   9.714  -3.918  0.00  0.00    -0.000 A 
ATOM     14  C   UNL d   1      11.884   8.977  -2.793  0.00  0.00    -0.000 A 
ATOM     15  C   UNL d   1      12.083   7.590  -2.895  0.00  0.00    -0.000 A 
ATOM     16  C   UNL d   1      11.855   6.947  -4.127  0.00  0.00    -0.004 A 
ENDBRANCH   9  11
ENDBRANCH   7   8
ENDBRANCH   4   7
BRANCH   1  17
ATOM     17  C   UNL d   1       7.868   4.511 -12.764  0.00  0.00     0.079 A 
ATOM     18  C   UNL d   1       8.927   4.074 -13.588  0.00  0.00     0.112 A 
ATOM     19  C   UNL d   1       8.687   3.016 -14.500  0.00  0.00     0.055 A 
ATOM     20  C   UNL d   1       7.422   2.400 -14.564  0.00  0.00     0.142 A 
ATOM     21  F   UNL d   1       7.204   1.411 -15.456  0.00  0.00    -0.204 F 
ATOM     22  C   UNL d   1       6.388   2.817 -13.713  0.00  0.00     0.031 A 
ATOM     23  C   UNL d   1       6.609   3.870 -12.806  0.00  0.00     0.021 A 
BRANCH  18  24
ATOM     24  O   UNL d   1      10.155   4.698 -13.448  0.00  0.00    -0.327 OA
ATOM     25  C   UNL d   1      11.251   4.202 -14.189  0.00  0.00     0.181 C 
ENDBRANCH  18  24
ENDBRANCH   1  17
TORSDOF 5
