REMARK  8 active torsions:
REMARK  status: ('A' for Active; 'I' for Inactive)
REMARK    1  A    between atoms: C_2  and  C_3 
REMARK    2  A    between atoms: C_18  and  N_19 
REMARK    3  A    between atoms: N_19  and  C_20 
REMARK    4  A    between atoms: C_20  and  C_21 
REMARK    5  A    between atoms: C_21  and  C_22 
REMARK    6  A    between atoms: C_22  and  C_23 
REMARK    7  A    between atoms: C_23  and  N_24 
REMARK    8  A    between atoms: N_27  and  C_28 
ROOT
ATOM      1  C   UNL d   1      13.906   1.374 -19.693  0.00  0.00    -0.014 A 
ATOM      2  C   UNL d   1      13.901   2.623 -18.992  0.00  0.00    -0.009 A 
ATOM      3  C   UNL d   1      14.927   3.724 -19.098  0.00  0.00     0.032 C 
ATOM      4  C   UNL d   1      12.804   2.629 -18.178  0.00  0.00     0.065 A 
ATOM      5  N   UNL d   1      12.113   1.449 -18.365  0.00  0.00    -0.309 N 
ATOM      6  C   UNL d   1      12.791   0.680 -19.296  0.00  0.00     0.025 A 
ATOM      7  C   UNL d   1      12.285  -0.667 -19.700  0.00  0.00     0.049 C 
ATOM      8  B   UNL d   1      10.767   1.048 -17.633  0.00  0.00     0.788 B 
ATOM      9  F   UNL d   1       9.755   0.912 -18.550  0.00  0.00    -0.252 F 
ATOM     10  F   UNL d   1      10.933  -0.103 -16.915  0.00  0.00    -0.252 F 
ATOM     11  N   UNL d   1      10.446   2.227 -16.631  0.00  0.00    -0.240 N 
ATOM     12  C   UNL d   1       9.401   2.316 -15.806  0.00  0.00     0.122 A 
ATOM     13  C   UNL d   1       8.387   1.338 -15.643  0.00  0.00     0.034 A 
ATOM     14  C   UNL d   1       7.397   1.590 -14.777  0.00  0.00     0.006 A 
ATOM     15  C   UNL d   1       7.390   2.861 -14.053  0.00  0.00     0.036 A 
ATOM     16  C   UNL d   1       8.401   3.755 -14.188  0.00  0.00     0.132 A 
ATOM     17  N   UNL d   1       9.407   3.467 -15.101  0.00  0.00    -0.278 N 
ATOM     18  B   UNL d   1      10.631   4.377 -15.483  0.00  0.00     0.789 B 
ATOM     19  F   UNL d   1      10.298   5.504 -16.183  0.00  0.00    -0.252 F 
ATOM     20  F   UNL d   1      11.492   4.632 -14.439  0.00  0.00    -0.252 F 
ATOM     21  N   UNL d   1      11.240   3.327 -16.518  0.00  0.00    -0.250 N 
ATOM     22  C   UNL d   1      12.285   3.573 -17.214  0.00  0.00     0.097 A 
ENDROOT
BRANCH  16  23
ATOM     23  N   UNL d   1       8.505   4.980 -13.557  0.00  0.00    -0.255 NA
BRANCH  23  24
ATOM     24  C   UNL d   1       7.459   5.685 -12.833  0.00  0.00     0.127 C 
BRANCH  24  25
ATOM     25  C   UNL d   1       7.556   5.465 -11.327  0.00  0.00     0.028 C 
BRANCH  25  26
ATOM     26  C   UNL d   1       8.780   6.144 -10.692  0.00  0.00     0.037 C 
BRANCH  26  27
ATOM     27  C   UNL d   1       8.674   6.124  -9.162  0.00  0.00     0.251 C 
BRANCH  27  28
ATOM     28  N   UNL d   1       9.485   7.196  -8.596  0.00  0.00     0.141 N 
ATOM     29  C   UNL d   1      10.642   6.587  -7.995  0.00  0.00     0.274 C 
ATOM     30  C   UNL d   1      11.617   7.665  -7.490  0.00  0.00     0.137 C 
ATOM     31  N   UNL d   1      10.989   8.509  -6.496  0.00  0.00    -0.344 N 
ATOM     32  C   UNL d   1       9.714   9.022  -6.929  0.00  0.00     0.137 C 
ATOM     33  C   UNL d   1       8.802   7.932  -7.531  0.00  0.00     0.274 C 
BRANCH  31  34
ATOM     34  C   UNL d   1      11.366   8.652  -5.117  0.00  0.00     0.068 A 
ATOM     35  C   UNL d   1      11.796   7.591  -4.297  0.00  0.00     0.084 A 
ATOM     36  C   UNL d   1      12.197   7.751  -2.952  0.00  0.00     0.070 A 
ATOM     37 CL   UNL d   1      11.811   6.044  -4.918  0.00  0.00    -0.080 Cl
ATOM     38  C   UNL d   1      12.231   9.020  -2.406  0.00  0.00     0.012 A 
ATOM     39 CL   UNL d   1      12.650   6.373  -2.060  0.00  0.00    -0.081 Cl
ATOM     40  C   UNL d   1      11.738  10.068  -3.201  0.00  0.00     0.002 A 
ATOM     41  C   UNL d   1      11.301   9.927  -4.537  0.00  0.00     0.018 A 
ENDBRANCH  31  34
ENDBRANCH  27  28
ENDBRANCH  26  27
ENDBRANCH  25  26
ENDBRANCH  24  25
ENDBRANCH  23  24
ENDBRANCH  16  23
BRANCH   1  42
ATOM     42  C   UNL d   1      14.940   0.891 -20.686  0.00  0.00     0.027 C 
ATOM     43  C   UNL d   1      15.921  -0.115 -20.069  0.00  0.00     0.005 C 
ENDBRANCH   1  42
TORSDOF 8
