REMARK  4 active torsions:
REMARK  status: ('A' for Active; 'I' for Inactive)
REMARK    1  A    between atoms: O_2  and  C_3 
REMARK    2  A    between atoms: C_10  and  C_11 
REMARK    3  A    between atoms: C_11  and  N_12 
REMARK    4  A    between atoms: C_15  and  C_16 
ROOT
ATOM      1  N   UNL d   1       9.000   4.997 -11.305  0.00  0.00     0.137 N 
ATOM      2  C   UNL d   1       9.644   5.942 -12.204  0.00  0.00     0.251 C 
ATOM      3  C   UNL d   1      10.264   5.238 -13.416  0.00  0.00     0.041 C 
ATOM      4  C   UNL d   1       9.219   4.451 -14.193  0.00  0.00     0.047 C 
ATOM      5  C   UNL d   1       8.445   3.553 -13.217  0.00  0.00     0.041 C 
ATOM      6  C   UNL d   1       7.901   4.345 -12.011  0.00  0.00     0.251 C 
ENDROOT
BRANCH   1   7
ATOM      7  C   UNL d   1       8.470   5.692 -10.125  0.00  0.00     0.251 C 
BRANCH   7   8
ATOM      8  C   UNL d   1       9.538   6.463  -9.311  0.00  0.00     0.045 C 
ATOM      9  C   UNL d   1       9.261   6.416  -7.798  0.00  0.00     0.029 C 
ATOM     10  C   UNL d   1      10.211   7.292  -6.984  0.00  0.00    -0.017 A 
ATOM     11  C   UNL d   1      10.873   8.392  -7.587  0.00  0.00     0.031 A 
ATOM     12  C   UNL d   1      10.445   7.015  -5.621  0.00  0.00     0.020 A 
ATOM     13  C   UNL d   1      11.723   9.191  -6.805  0.00  0.00     0.004 A 
ATOM     14  C   UNL d   1      10.717   8.710  -9.026  0.00  0.00     0.173 C 
ATOM     15  C   UNL d   1      11.921   8.932  -5.445  0.00  0.00     0.024 A 
ATOM     16  C   UNL d   1      11.318   7.808  -4.840  0.00  0.00     0.094 A 
ATOM     17  C   UNL d   1       9.664   7.937  -9.778  0.00  0.00     0.071 C 
ATOM     18  O   UNL d   1      11.350   9.581  -9.613  0.00  0.00    -0.291 OA
BRANCH  16  19
ATOM     19  O   UNL d   1      11.546   7.452  -3.528  0.00  0.00    -0.328 OA
ATOM     20  C   UNL d   1      12.085   8.449  -2.670  0.00  0.00     0.181 C 
ENDBRANCH  16  19
ENDBRANCH   7   8
ENDBRANCH   1   7
BRANCH   4  21
ATOM     21  C   UNL d   1       9.868   3.656 -15.305  0.00  0.00     0.087 A 
ATOM     22  C   UNL d   1       9.954   3.910 -16.691  0.00  0.00     0.041 A 
ATOM     23  C   UNL d   1      10.684   2.884 -17.297  0.00  0.00     0.129 A 
ATOM     24  C   UNL d   1       9.472   4.978 -17.485  0.00  0.00     0.006 A 
ATOM     25  O   UNL d   1      11.051   2.034 -16.268  0.00  0.00    -0.211 OA
ATOM     26  C   UNL d   1      10.940   2.833 -18.671  0.00  0.00     0.057 A 
ATOM     27  N   UNL d   1      10.560   2.549 -15.035  0.00  0.00    -0.131 NA
ATOM     28  C   UNL d   1      10.447   3.888 -19.467  0.00  0.00     0.142 A 
ATOM     29  F   UNL d   1      10.672   3.882 -20.802  0.00  0.00    -0.204 F 
ATOM     30  C   UNL d   1       9.720   4.955 -18.879  0.00  0.00     0.030 A 
ENDBRANCH   4  21
TORSDOF 4
