REMARK  9 active torsions:
REMARK  status: ('A' for Active; 'I' for Inactive)
REMARK    1  A    between atoms: S_2  and  O_5 
REMARK    2  A    between atoms: O_5  and  C_6 
REMARK    3  A    between atoms: N_19  and  C_20 
REMARK    4  A    between atoms: C_20  and  C_21 
REMARK    5  A    between atoms: C_21  and  C_22 
REMARK    6  A    between atoms: C_22  and  C_23 
REMARK    7  A    between atoms: C_23  and  N_24 
REMARK       I    between atoms: N_24  and  C_25 
REMARK    8  A    between atoms: C_25  and  C_27 
REMARK    9  A    between atoms: C_30  and  C_31 
ROOT
ATOM      1  C   UNL d   1       6.454  -0.649 -18.225  0.00  0.00     0.109 A 
ATOM      2  C   UNL d   1       5.749  -0.711 -19.444  0.00  0.00     0.025 A 
ATOM      3  C   UNL d   1       6.022   0.217 -20.463  0.00  0.00     0.002 A 
ATOM      4  C   UNL d   1       7.019   1.190 -20.272  0.00  0.00    -0.004 A 
ATOM      5  C   UNL d   1       7.754   1.242 -19.067  0.00  0.00    -0.023 A 
ATOM      6  C   UNL d   1       7.477   0.309 -18.035  0.00  0.00    -0.002 A 
ATOM      7  C   UNL d   1       8.239   0.338 -16.710  0.00  0.00     0.030 C 
ATOM      8  C   UNL d   1       9.492   1.214 -16.704  0.00  0.00     0.038 C 
ATOM      9  C   UNL d   1       9.218   2.547 -17.430  0.00  0.00     0.224 C 
ATOM     10  C   UNL d   1       8.838   2.304 -18.911  0.00  0.00     0.053 C 
ATOM     11  C   UNL d   1      10.068   1.942 -19.759  0.00  0.00     0.008 C 
ATOM     12  C   UNL d   1      11.173   2.979 -19.547  0.00  0.00     0.036 C 
ATOM     13  C   UNL d   1      11.499   3.144 -18.055  0.00  0.00     0.250 C 
ATOM     14  N   UNL d   1      10.299   3.546 -17.318  0.00  0.00     0.135 N 
ENDROOT
BRANCH  14  15
ATOM     15  C   UNL d   1      10.671   3.914 -15.948  0.00  0.00     0.250 C 
BRANCH  15  16
ATOM     16  C   UNL d   1       9.490   4.439 -15.110  0.00  0.00     0.037 C 
BRANCH  16  17
ATOM     17  C   UNL d   1       9.915   4.898 -13.712  0.00  0.00     0.029 C 
BRANCH  17  18
ATOM     18  C   UNL d   1       8.721   5.390 -12.877  0.00  0.00     0.129 C 
BRANCH  18  19
ATOM     19  N   UNL d   1       9.160   5.837 -11.560  0.00  0.00    -0.234 NA
ATOM     20  C   UNL d   1       9.458   7.104 -11.234  0.00  0.00     0.275 C 
ATOM     21  O   UNL d   1       9.423   8.033 -12.040  0.00  0.00    -0.266 OA
BRANCH  20  22
ATOM     22  C   UNL d   1       9.893   7.317  -9.808  0.00  0.00     0.058 A 
ATOM     23  C   UNL d   1      10.688   8.437  -9.479  0.00  0.00     0.005 A 
ATOM     24  C   UNL d   1      11.071   8.672  -8.145  0.00  0.00     0.000 A 
ATOM     25  C   UNL d   1      10.665   7.806  -7.107  0.00  0.00     0.000 A 
ATOM     26  C   UNL d   1       9.861   6.693  -7.444  0.00  0.00     0.000 A 
ATOM     27  C   UNL d   1       9.469   6.455  -8.774  0.00  0.00     0.005 A 
BRANCH  25  28
ATOM     28  C   UNL d   1      11.063   8.054  -5.709  0.00  0.00     0.000 A 
ATOM     29  C   UNL d   1      11.074   9.361  -5.174  0.00  0.00     0.000 A 
ATOM     30  C   UNL d   1      11.466   9.589  -3.840  0.00  0.00     0.000 A 
ATOM     31  C   UNL d   1      11.867   8.515  -3.025  0.00  0.00     0.000 A 
ATOM     32  C   UNL d   1      11.859   7.207  -3.541  0.00  0.00     0.000 A 
ATOM     33  C   UNL d   1      11.459   6.984  -4.872  0.00  0.00     0.000 A 
ENDBRANCH  25  28
ENDBRANCH  20  22
ENDBRANCH  18  19
ENDBRANCH  17  18
ENDBRANCH  16  17
ENDBRANCH  15  16
ENDBRANCH  14  15
BRANCH   1  34
ATOM     34  O   UNL d   1       6.153  -1.542 -17.237  0.00  0.00    -0.231 OA
BRANCH  34  35
ATOM     35  S   UNL d   1       5.035  -1.065 -16.061  0.00  0.00     0.285 S 
ATOM     36  C   UNL d   1       3.485  -1.369 -16.973  0.00  0.00     0.172 C 
ATOM     37  O   UNL d   1       5.173   0.379 -15.827  0.00  0.00    -0.197 OA
ATOM     38  O   UNL d   1       5.130  -2.011 -14.941  0.00  0.00    -0.197 OA
ENDBRANCH  34  35
ENDBRANCH   1  34
TORSDOF 9
