REMARK  3 active torsions:
REMARK  status: ('A' for Active; 'I' for Inactive)
REMARK    1  A    between atoms: C_5  and  C_6 
REMARK    2  A    between atoms: C_6  and  N_7 
REMARK    3  A    between atoms: C_10  and  C_11 
ROOT
ATOM      1  N   UNL d   1      10.192   8.167  -8.400  0.00  0.00     0.146 N 
ATOM      2  C   UNL d   1       9.954   8.799  -9.705  0.00  0.00     0.277 C 
ATOM      3  C   UNL d   1       9.463   7.827 -10.778  0.00  0.00     0.008 C 
ATOM      4  C   UNL d   1       9.472   6.497 -10.574  0.00  0.00     0.013 C 
ATOM      5  C   UNL d   1      10.007   5.960  -9.267  0.00  0.00     0.065 C 
ATOM      6  C   UNL d   1      10.956   6.952  -8.627  0.00  0.00     0.256 C 
ENDROOT
BRANCH   4   7
ATOM      7  C   UNL d   1       8.940   5.598 -11.586  0.00  0.00     0.158 A 
ATOM      8  N   UNL d   1       7.644   5.257 -11.635  0.00  0.00    -0.226 NA
ATOM      9  C   UNL d   1       7.511   4.353 -12.677  0.00  0.00     0.101 A 
ATOM     10  C   UNL d   1       8.843   4.210 -13.175  0.00  0.00     0.101 A 
ATOM     11  C   UNL d   1       6.437   3.650 -13.231  0.00  0.00     0.021 A 
ATOM     12  N   UNL d   1       9.737   4.996 -12.476  0.00  0.00    -0.226 NA
ATOM     13  C   UNL d   1       9.064   3.333 -14.264  0.00  0.00     0.021 A 
ATOM     14  C   UNL d   1       7.986   2.630 -14.823  0.00  0.00     0.002 A 
ATOM     15  C   UNL d   1       6.683   2.777 -14.312  0.00  0.00     0.002 A 
ENDBRANCH   4   7
BRANCH   1  16
ATOM     16  C   UNL d   1      10.820   9.138  -7.488  0.00  0.00     0.277 C 
BRANCH  16  17
ATOM     17  C   UNL d   1      11.133   8.623  -6.093  0.00  0.00     0.011 C 
ATOM     18  C   UNL d   1      11.981   9.365  -5.225  0.00  0.00    -0.002 C 
ATOM     19  C   UNL d   1      12.352   8.838  -3.977  0.00  0.00     0.011 C 
ATOM     20  C   UNL d   1      11.908   7.548  -3.586  0.00  0.00     0.058 C 
ATOM     21 CL   UNL d   1      12.289   6.887  -2.056  0.00  0.00    -0.082 Cl
ATOM     22  C   UNL d   1      11.080   6.818  -4.459  0.00  0.00     0.011 C 
ATOM     23  C   UNL d   1      10.620   7.385  -5.617  0.00  0.00    -0.002 C 
ENDBRANCH  16  17
ENDBRANCH   1  16
TORSDOF 3
