REMARK  9 active torsions:
REMARK  status: ('A' for Active; 'I' for Inactive)
REMARK       I    between atoms: C_2  and  N_4 
REMARK    1  A    between atoms: N_4  and  C_5 
REMARK    2  A    between atoms: C_8  and  C_9 
REMARK    3  A    between atoms: C_12  and  S_13 
REMARK    4  A    between atoms: S_13  and  C_14 
REMARK    5  A    between atoms: C_14  and  C_15 
REMARK    6  A    between atoms: C_15  and  C_16 
REMARK    7  A    between atoms: C_16  and  N_17 
REMARK    8  A    between atoms: C_22  and  C_23 
REMARK    9  A    between atoms: C_26  and  C_27 
ROOT
ATOM      1  C   UNL d   1       8.001   4.162 -13.817  0.00  0.00     0.047 C 
ENDROOT
BRANCH   1   2
ATOM      2  C   UNL d   1       6.817   4.864 -13.136  0.00  0.00     0.067 C 
BRANCH   2   3
ATOM      3  S   UNL d   1       7.406   6.431 -12.450  0.00  0.00    -0.075 SA
BRANCH   3   4
ATOM      4  C   UNL d   1       8.319   5.852 -11.059  0.00  0.00     0.193 A 
ATOM      5  N   UNL d   1       8.260   4.602 -10.627  0.00  0.00    -0.122 NA
ATOM      6  N   UNL d   1       9.045   4.538  -9.516  0.00  0.00    -0.133 NA
ATOM      7  C   UNL d   1       9.501   5.756  -9.358  0.00  0.00     0.143 A 
ATOM      8  N   UNL d   1       9.068   6.642 -10.292  0.00  0.00    -0.292 N 
ATOM      9  C   UNL d   1       9.305   8.079 -10.377  0.00  0.00     0.134 C 
BRANCH   7  10
ATOM     10  C   UNL d   1      10.361   6.075  -8.213  0.00  0.00     0.059 C 
ATOM     11  C   UNL d   1      11.341   7.191  -8.543  0.00  0.00     0.009 C 
ATOM     12  C   UNL d   1      12.283   7.298  -7.401  0.00  0.00     0.025 C 
ATOM     13  C   UNL d   1      11.561   7.627  -6.091  0.00  0.00     0.106 C 
ATOM     14  C   UNL d   1      10.523   6.582  -5.747  0.00  0.00     0.025 C 
ATOM     15  C   UNL d   1       9.572   6.395  -6.943  0.00  0.00     0.009 C 
BRANCH  13  16
ATOM     16  N   UNL d   1      10.996   8.952  -6.148  0.00  0.00    -0.240 NA
ATOM     17  C   UNL d   1      11.034   9.831  -5.158  0.00  0.00     0.252 C 
ATOM     18  C   UNL d   1      11.475   9.476  -3.760  0.00  0.00     0.100 C 
ATOM     19  O   UNL d   1      10.669  10.971  -5.331  0.00  0.00    -0.271 OA
ENDBRANCH  13  16
ENDBRANCH   7  10
ENDBRANCH   3   4
ENDBRANCH   2   3
ENDBRANCH   1   2
BRANCH   1  20
ATOM     20  C   UNL d   1       7.580   2.874 -14.519  0.00  0.00     0.251 C 
BRANCH  20  21
ATOM     21  N   UNL d   1       8.744   2.236 -15.151  0.00  0.00     0.137 N 
ATOM     22  C   UNL d   1       9.225   2.962 -16.322  0.00  0.00     0.251 C 
ATOM     23  C   UNL d   1      10.129   1.988 -17.014  0.00  0.00     0.037 A 
ATOM     24  C   UNL d   1       9.613   0.632 -16.595  0.00  0.00     0.038 C 
ATOM     25  C   UNL d   1      10.720   2.296 -18.393  0.00  0.00     0.024 A 
ATOM     26  C   UNL d   1      11.626   2.247 -17.175  0.00  0.00     0.007 A 
ATOM     27  C   UNL d   1       8.438   0.921 -15.674  0.00  0.00     0.250 C 
BRANCH  25  28
ATOM     28  C   UNL d   1      10.374   3.596 -19.073  0.00  0.00    -0.022 A 
ATOM     29  C   UNL d   1      11.245   4.693 -18.971  0.00  0.00    -0.004 A 
ATOM     30  C   UNL d   1      10.912   5.932 -19.546  0.00  0.00     0.004 A 
ATOM     31  C   UNL d   1       9.699   6.085 -20.250  0.00  0.00     0.071 A 
ATOM     32  C   UNL d   1       8.829   4.981 -20.369  0.00  0.00     0.004 A 
ATOM     33  C   UNL d   1       9.162   3.740 -19.782  0.00  0.00    -0.004 A 
BRANCH  31  34
ATOM     34  C   UNL d   1       9.351   7.415 -20.897  0.00  0.00     0.419 C 
ATOM     35  F   UNL d   1      10.175   8.393 -20.516  0.00  0.00    -0.166 F 
ATOM     36  F   UNL d   1       9.436   7.284 -22.220  0.00  0.00    -0.166 F 
ATOM     37  F   UNL d   1       8.104   7.759 -20.575  0.00  0.00    -0.166 F 
ENDBRANCH  31  34
ENDBRANCH  25  28
ENDBRANCH  20  21
ENDBRANCH   1  20
TORSDOF 9
