REMARK  3 active torsions:
REMARK  status: ('A' for Active; 'I' for Inactive)
REMARK    1  A    between atoms: C_5  and  C_6 
REMARK    2  A    between atoms: C_6  and  N_7 
REMARK    3  A    between atoms: C_10  and  C_11 
ROOT
ATOM      1  N   UNL d   1       8.420   5.443 -12.368  0.00  0.00     0.141 N 
ATOM      2  C   UNL d   1       9.318   6.575 -12.500  0.00  0.00     0.251 C 
ATOM      3  C   UNL d   1       9.580   7.305 -11.173  0.00  0.00     0.041 C 
ATOM      4  C   UNL d   1      10.012   6.358 -10.033  0.00  0.00     0.046 C 
ATOM      5  C   UNL d   1       9.129   5.099 -10.034  0.00  0.00     0.041 C 
ATOM      6  C   UNL d   1       9.018   4.494 -11.441  0.00  0.00     0.251 C 
ENDROOT
BRANCH   4   7
ATOM      7  C   UNL d   1      10.083   6.997  -8.680  0.00  0.00     0.082 A 
ATOM      8  N   UNL d   1       9.149   7.910  -8.271  0.00  0.00    -0.152 NA
ATOM      9  N   UNL d   1       9.405   8.436  -7.066  0.00  0.00    -0.148 NA
ATOM     10  C   UNL d   1      10.481   7.775  -6.670  0.00  0.00     0.104 A 
ATOM     11  C   UNL d   1      10.957   6.857  -7.639  0.00  0.00     0.037 A 
ATOM     12  C   UNL d   1      11.054   8.018  -5.371  0.00  0.00     0.019 A 
ATOM     13  C   UNL d   1      11.543   6.928  -4.617  0.00  0.00     0.002 A 
ATOM     14  C   UNL d   1      11.110   9.336  -4.877  0.00  0.00     0.002 A 
ATOM     15  C   UNL d   1      12.109   7.164  -3.356  0.00  0.00     0.011 A 
ATOM     16  C   UNL d   1      12.192   8.483  -2.887  0.00  0.00     0.058 A 
ATOM     17  C   UNL d   1      11.674   9.562  -3.616  0.00  0.00     0.011 A 
ATOM     18 CL   UNL d   1      12.968   8.775  -1.419  0.00  0.00    -0.082 Cl
ENDBRANCH   4   7
BRANCH   1  19
ATOM     19  C   UNL d   1       8.256   4.811 -13.674  0.00  0.00     0.277 C 
BRANCH  19  20
ATOM     20  C   UNL d   1       7.284   3.629 -13.696  0.00  0.00     0.011 A 
ATOM     21  C   UNL d   1       7.576   2.509 -14.508  0.00  0.00    -0.002 A 
ATOM     22  C   UNL d   1       6.748   1.369 -14.486  0.00  0.00     0.011 A 
ATOM     23  C   UNL d   1       5.621   1.345 -13.643  0.00  0.00     0.058 A 
ATOM     24 CL   UNL d   1       4.568  -0.016 -13.648  0.00  0.00    -0.082 Cl
ATOM     25  C   UNL d   1       5.321   2.458 -12.840  0.00  0.00     0.011 A 
ATOM     26  C   UNL d   1       6.132   3.607 -12.878  0.00  0.00    -0.002 A 
ENDBRANCH  19  20
ENDBRANCH   1  19
TORSDOF 3
