REMARK  7 active torsions:
REMARK  status: ('A' for Active; 'I' for Inactive)
REMARK    1  A    between atoms: C_6  and  C_7 
REMARK    2  A    between atoms: C_10  and  S_11 
REMARK    3  A    between atoms: S_11  and  C_12 
REMARK    4  A    between atoms: C_12  and  C_13 
REMARK    5  A    between atoms: C_13  and  C_14 
REMARK    6  A    between atoms: C_14  and  N_15 
REMARK    7  A    between atoms: C_20  and  C_21 
ROOT
ATOM      1  C   UNL d   1      10.165   3.722 -19.561  0.00  0.00     0.251 C 
ENDROOT
BRANCH   1   2
ATOM      2  C   UNL d   1       9.674   2.334 -20.017  0.00  0.00     0.047 C 
BRANCH   2   3
ATOM      3  C   UNL d   1       9.645   2.201 -21.559  0.00  0.00     0.067 C 
BRANCH   3   4
ATOM      4  S   UNL d   1       9.047   0.586 -22.129  0.00  0.00    -0.075 SA
BRANCH   4   5
ATOM      5  C   UNL d   1       7.529   0.455 -21.250  0.00  0.00     0.193 A 
ATOM      6  N   UNL d   1       6.801   1.493 -20.833  0.00  0.00    -0.122 NA
ATOM      7  N   UNL d   1       5.763   0.941 -20.121  0.00  0.00    -0.126 NA
ATOM      8  C   UNL d   1       5.910  -0.394 -20.195  0.00  0.00     0.191 A 
ATOM      9  N   UNL d   1       7.015  -0.742 -20.891  0.00  0.00    -0.287 N 
ATOM     10  C   UNL d   1       7.521  -2.076 -21.220  0.00  0.00     0.134 C 
BRANCH   8  11
ATOM     11  C   UNL d   1       4.945  -1.301 -19.585  0.00  0.00     0.151 A 
ATOM     12  C   UNL d   1       4.310  -2.438 -20.031  0.00  0.00     0.087 A 
ATOM     13  C   UNL d   1       4.412  -3.167 -21.340  0.00  0.00     0.054 C 
ATOM     14  N   UNL d   1       3.459  -2.882 -19.035  0.00  0.00    -0.221 NA
ATOM     15  C   UNL d   1       3.605  -2.007 -18.046  0.00  0.00     0.225 A 
ATOM     16  O   UNL d   1       4.498  -1.020 -18.320  0.00  0.00    -0.282 OA
ENDBRANCH   8  11
ENDBRANCH   4   5
ENDBRANCH   3   4
ENDBRANCH   2   3
ENDBRANCH   1   2
BRANCH   1  17
ATOM     17  N   UNL d   1       9.816   3.898 -18.163  0.00  0.00     0.137 N 
ATOM     18  C   UNL d   1      10.665   3.104 -17.292  0.00  0.00     0.251 C 
ATOM     19  C   UNL d   1      10.497   3.705 -15.921  0.00  0.00     0.037 A 
ATOM     20  C   UNL d   1      10.060   5.123 -16.179  0.00  0.00     0.038 C 
ATOM     21  C   UNL d   1      10.017   2.915 -14.727  0.00  0.00     0.024 A 
ATOM     22  C   UNL d   1      11.469   3.340 -14.821  0.00  0.00     0.007 A 
ATOM     23  C   UNL d   1      10.030   5.264 -17.708  0.00  0.00     0.250 C 
BRANCH  21  24
ATOM     24  C   UNL d   1       9.071   3.529 -13.737  0.00  0.00    -0.021 A 
ATOM     25  C   UNL d   1       9.571   4.184 -12.584  0.00  0.00     0.007 A 
ATOM     26  C   UNL d   1       8.704   4.801 -11.671  0.00  0.00     0.058 A 
ATOM     27  C   UNL d   1       7.317   4.756 -11.881  0.00  0.00     0.023 A 
ATOM     28 CL   UNL d   1       9.356   5.611 -10.296  0.00  0.00    -0.082 Cl
ATOM     29  C   UNL d   1       6.801   4.071 -13.000  0.00  0.00     0.058 A 
ATOM     30  C   UNL d   1       7.675   3.466 -13.927  0.00  0.00     0.007 A 
ATOM     31 CL   UNL d   1       5.098   3.987 -13.209  0.00  0.00    -0.082 Cl
ENDBRANCH  21  24
ENDBRANCH   1  17
TORSDOF 7
