REMARK  3 active torsions:
REMARK  status: ('A' for Active; 'I' for Inactive)
REMARK    1  A    between atoms: C_2  and  C_3 
REMARK    2  A    between atoms: C_3  and  C_4 
REMARK    3  A    between atoms: C_13  and  O_14 
ROOT
ATOM      1  C   UNL d   1       8.749   5.678 -11.856  0.00  0.00     0.008 A 
ATOM      2  C   UNL d   1       7.390   5.505 -11.529  0.00  0.00    -0.002 A 
ATOM      3  C   UNL d   1       6.592   4.602 -12.227  0.00  0.00    -0.004 A 
ATOM      4  C   UNL d   1       7.131   3.893 -13.309  0.00  0.00    -0.018 A 
ATOM      5  C   UNL d   1       8.465   4.100 -13.736  0.00  0.00     0.021 A 
ATOM      6  C   UNL d   1       9.286   4.977 -12.976  0.00  0.00     0.127 A 
ATOM      7  O   UNL d   1      10.606   5.109 -13.300  0.00  0.00    -0.191 OA
ATOM      8  C   UNL d   1       8.926   3.361 -14.950  0.00  0.00     0.001 A 
ATOM      9  C   UNL d   1       9.936   3.803 -15.858  0.00  0.00     0.024 A 
ATOM     10  C   UNL d   1      10.339   3.088 -16.997  0.00  0.00     0.094 A 
ATOM     11  C   UNL d   1       9.689   1.866 -17.303  0.00  0.00     0.020 A 
ATOM     12  C   UNL d   1       8.644   1.414 -16.492  0.00  0.00    -0.020 A 
ATOM     13  C   UNL d   1       8.273   2.163 -15.361  0.00  0.00     0.005 A 
ATOM     14  C   UNL d   1       7.098   1.671 -14.496  0.00  0.00     0.246 C 
ATOM     15  C   UNL d   1       6.270   2.871 -13.997  0.00  0.00     0.064 C 
ATOM     16  N   UNL d   1       6.219   0.684 -15.139  0.00  0.00     0.142 N 
ATOM     17  C   UNL d   1       5.283   0.067 -14.206  0.00  0.00     0.286 C 
ATOM     18  C   UNL d   1       7.055  -0.381 -15.654  0.00  0.00     0.255 C 
ATOM     19  C   UNL d   1       7.842   0.183 -16.820  0.00  0.00     0.061 C 
ENDROOT
BRANCH   1  20
ATOM     20  C   UNL d   1       9.598   6.607 -10.996  0.00  0.00     0.054 C 
BRANCH  20  21
ATOM     21  C   UNL d   1       9.356   6.536  -9.496  0.00  0.00    -0.021 C 
ATOM     22  C   UNL d   1      10.312   6.663  -8.566  0.00  0.00    -0.005 C 
ENDBRANCH  20  21
ENDBRANCH   1  20
BRANCH  10  23
ATOM     23  O   UNL d   1      11.346   3.628 -17.779  0.00  0.00    -0.328 OA
ATOM     24  C   UNL d   1      11.704   2.907 -18.961  0.00  0.00     0.181 C 
ENDBRANCH  10  23
TORSDOF 3
