REMARK  8 active torsions:
REMARK  status: ('A' for Active; 'I' for Inactive)
REMARK    1  A    between atoms: C_6  and  C_7 
REMARK    2  A    between atoms: C_10  and  S_11 
REMARK    3  A    between atoms: S_11  and  C_12 
REMARK    4  A    between atoms: C_12  and  C_13 
REMARK    5  A    between atoms: C_13  and  C_14 
REMARK    6  A    between atoms: C_14  and  N_15 
REMARK    7  A    between atoms: C_19  and  C_20 
REMARK    8  A    between atoms: C_24  and  C_25 
ROOT
ATOM      1  N   UNL d   1       6.955   1.598 -14.652  0.00  0.00     0.137 N 
ATOM      2  C   UNL d   1       5.964   0.518 -14.694  0.00  0.00     0.251 C 
ATOM      3  C   UNL d   1       6.257  -0.189 -15.987  0.00  0.00     0.040 A 
ATOM      4  C   UNL d   1       5.651   0.226 -17.304  0.00  0.00     0.009 A 
ATOM      5  C   UNL d   1       6.992   0.777 -16.859  0.00  0.00     0.054 A 
ATOM      6  C   UNL d   1       7.112   2.043 -16.040  0.00  0.00     0.254 C 
ENDROOT
BRANCH   1   7
ATOM      7  C   UNL d   1       6.526   2.677 -13.763  0.00  0.00     0.251 C 
BRANCH   7   8
ATOM      8  C   UNL d   1       7.642   3.726 -13.576  0.00  0.00     0.047 C 
BRANCH   8   9
ATOM      9  C   UNL d   1       7.171   4.919 -12.743  0.00  0.00     0.067 C 
BRANCH   9  10
ATOM     10  S   UNL d   1       8.485   6.151 -12.583  0.00  0.00    -0.075 SA
BRANCH  10  11
ATOM     11  C   UNL d   1       8.949   5.927 -10.903  0.00  0.00     0.193 A 
ATOM     12  N   UNL d   1       8.856   4.789 -10.221  0.00  0.00    -0.122 NA
ATOM     13  N   UNL d   1       9.338   5.059  -8.966  0.00  0.00    -0.126 NA
ATOM     14  C   UNL d   1       9.729   6.339  -8.987  0.00  0.00     0.191 A 
ATOM     15  N   UNL d   1       9.500   6.933 -10.184  0.00  0.00    -0.287 N 
ATOM     16  C   UNL d   1       9.796   8.293 -10.620  0.00  0.00     0.134 C 
BRANCH  14  17
ATOM     17  C   UNL d   1      10.320   6.969  -7.809  0.00  0.00     0.151 A 
ATOM     18  C   UNL d   1      11.349   7.876  -7.602  0.00  0.00     0.087 A 
ATOM     19  C   UNL d   1      12.263   8.574  -8.559  0.00  0.00     0.054 C 
ATOM     20  N   UNL d   1      11.463   8.095  -6.229  0.00  0.00    -0.221 NA
ATOM     21  C   UNL d   1      10.538   7.322  -5.696  0.00  0.00     0.225 A 
ATOM     22  O   UNL d   1       9.789   6.634  -6.596  0.00  0.00    -0.282 OA
ENDBRANCH  14  17
ENDBRANCH  10  11
ENDBRANCH   9  10
ENDBRANCH   8   9
ENDBRANCH   7   8
ENDBRANCH   1   7
BRANCH   5  23
ATOM     23  C   UNL d   1       8.271   0.361 -17.541  0.00  0.00     0.007 A 
ATOM     24  C   UNL d   1       8.306   0.141 -18.938  0.00  0.00     0.140 A 
ATOM     25  C   UNL d   1       9.488  -0.285 -19.579  0.00  0.00     0.099 A 
ATOM     26  F   UNL d   1       7.193   0.327 -19.685  0.00  0.00    -0.205 F 
ATOM     27  C   UNL d   1      10.658  -0.470 -18.815  0.00  0.00     0.006 A 
ATOM     28  C   UNL d   1      10.645  -0.218 -17.432  0.00  0.00    -0.000 A 
ATOM     29  C   UNL d   1       9.458   0.189 -16.793  0.00  0.00    -0.002 A 
BRANCH  25  30
ATOM     30  C   UNL d   1       9.470  -0.536 -21.076  0.00  0.00     0.421 C 
ATOM     31  F   UNL d   1       8.776  -1.646 -21.339  0.00  0.00    -0.166 F 
ATOM     32  F   UNL d   1       8.900   0.490 -21.710  0.00  0.00    -0.166 F 
ATOM     33  F   UNL d   1      10.705  -0.683 -21.559  0.00  0.00    -0.166 F 
ENDBRANCH  25  30
ENDBRANCH   5  23
TORSDOF 8
