REMARK  7 active torsions:
REMARK  status: ('A' for Active; 'I' for Inactive)
REMARK    1  A    between atoms: N_12  and  C_13 
REMARK    2  A    between atoms: C_13  and  C_14 
REMARK    3  A    between atoms: C_14  and  C_15 
REMARK    4  A    between atoms: C_15  and  C_16 
REMARK    5  A    between atoms: C_16  and  C_17 
REMARK    6  A    between atoms: C_17  and  N_18 
REMARK    7  A    between atoms: N_21  and  C_22 
ROOT
ATOM      1  C   UNL d   1       8.105   4.063 -12.460  0.00  0.00     0.004 C 
ENDROOT
BRANCH   1   2
ATOM      2  C   UNL d   1       7.540   3.208 -13.608  0.00  0.00     0.025 C 
BRANCH   2   3
ATOM      3  C   UNL d   1       8.512   2.107 -14.098  0.00  0.00     0.122 C 
BRANCH   3   4
ATOM      4  N   UNL d   1       7.813   1.086 -14.893  0.00  0.00    -0.221 N 
ATOM      5  C   UNL d   1       6.709   0.348 -14.418  0.00  0.00     0.271 A 
ATOM      6  O   UNL d   1       6.347   0.242 -13.249  0.00  0.00    -0.266 OA
ATOM      7  C   UNL d   1       5.989  -0.243 -15.584  0.00  0.00     0.069 A 
ATOM      8  C   UNL d   1       6.570   0.024 -16.819  0.00  0.00     0.108 A 
ATOM      9  C   UNL d   1       4.809  -1.006 -15.498  0.00  0.00     0.005 A 
ATOM     10  C   UNL d   1       6.033  -0.455 -18.027  0.00  0.00     0.013 A 
ATOM     11  S   UNL d   1       8.007   1.029 -16.607  0.00  0.00     0.270 S 
ATOM     12  C   UNL d   1       4.855  -1.233 -17.945  0.00  0.00     0.001 A 
ATOM     13  C   UNL d   1       4.247  -1.499 -16.695  0.00  0.00     0.000 A 
ATOM     14  O   UNL d   1       9.220   0.261 -16.916  0.00  0.00    -0.200 OA
ATOM     15  O   UNL d   1       7.770   2.370 -17.169  0.00  0.00    -0.200 OA
ENDBRANCH   3   4
ENDBRANCH   2   3
ENDBRANCH   1   2
BRANCH   1  16
ATOM     16  C   UNL d   1       8.485   5.484 -12.891  0.00  0.00     0.035 C 
BRANCH  16  17
ATOM     17  C   UNL d   1       8.341   6.504 -11.757  0.00  0.00     0.250 C 
BRANCH  17  18
ATOM     18  N   UNL d   1       9.462   6.395 -10.828  0.00  0.00     0.141 N 
ATOM     19  C   UNL d   1      10.059   7.723 -10.653  0.00  0.00     0.274 C 
ATOM     20  C   UNL d   1      11.251   7.640  -9.684  0.00  0.00     0.137 C 
ATOM     21  N   UNL d   1      10.816   7.072  -8.410  0.00  0.00    -0.344 N 
ATOM     22  C   UNL d   1      10.092   5.803  -8.516  0.00  0.00     0.137 C 
ATOM     23  C   UNL d   1       8.956   5.930  -9.529  0.00  0.00     0.274 C 
BRANCH  21  24
ATOM     24  C   UNL d   1      11.072   7.679  -7.174  0.00  0.00     0.056 A 
ATOM     25  C   UNL d   1      11.194   9.086  -7.055  0.00  0.00     0.018 A 
ATOM     26  C   UNL d   1      11.446   9.679  -5.799  0.00  0.00     0.013 A 
ATOM     27  C   UNL d   1      11.573   8.873  -4.655  0.00  0.00     0.058 A 
ATOM     28  C   UNL d   1      11.463   7.480  -4.761  0.00  0.00     0.013 A 
ATOM     29 CL   UNL d   1      11.857   9.582  -3.115  0.00  0.00    -0.082 Cl
ATOM     30  C   UNL d   1      11.219   6.888  -6.012  0.00  0.00     0.018 A 
ENDBRANCH  21  24
ENDBRANCH  17  18
ENDBRANCH  16  17
ENDBRANCH   1  16
TORSDOF 7
