REMARK  6 active torsions:
REMARK  status: ('A' for Active; 'I' for Inactive)
REMARK    1  A    between atoms: N_10  and  C_11 
REMARK    2  A    between atoms: C_11  and  C_12 
REMARK    3  A    between atoms: C_12  and  C_13 
REMARK    4  A    between atoms: C_15  and  C_16 
REMARK    5  A    between atoms: C_16  and  N_17 
REMARK       I    between atoms: N_17  and  C_18 
REMARK    6  A    between atoms: C_18  and  C_20 
ROOT
ATOM      1  N   UNL d   1       7.792  -0.018 -19.506  0.00  0.00    -0.191 NA
ATOM      2  C   UNL d   1       7.340   0.091 -18.450  0.00  0.00     0.101 C 
ATOM      3  C   UNL d   1       6.772   0.231 -17.109  0.00  0.00     0.068 A 
ATOM      4  C   UNL d   1       6.037  -0.822 -16.529  0.00  0.00     0.010 A 
ATOM      5  C   UNL d   1       5.528  -0.696 -15.231  0.00  0.00    -0.004 A 
ATOM      6  C   UNL d   1       5.715   0.494 -14.514  0.00  0.00    -0.022 A 
ATOM      7  C   UNL d   1       6.436   1.558 -15.085  0.00  0.00     0.008 A 
ATOM      8  C   UNL d   1       6.966   1.427 -16.380  0.00  0.00     0.008 A 
ATOM      9  C   UNL d   1       6.501   2.903 -14.371  0.00  0.00     0.276 C 
ATOM     10  N   UNL d   1       6.244   2.818 -12.938  0.00  0.00     0.142 N 
ATOM     11  C   UNL d   1       4.980   2.152 -12.696  0.00  0.00     0.255 C 
ATOM     12  C   UNL d   1       5.106   0.660 -13.145  0.00  0.00     0.061 C 
ENDROOT
BRANCH  10  13
ATOM     13  C   UNL d   1       6.279   4.123 -12.293  0.00  0.00     0.251 C 
BRANCH  13  14
ATOM     14  C   UNL d   1       7.746   4.485 -12.021  0.00  0.00     0.035 C 
BRANCH  14  15
ATOM     15  C   UNL d   1       7.902   5.954 -11.813  0.00  0.00     0.004 A 
ATOM     16  C   UNL d   1       9.280   6.611 -11.870  0.00  0.00     0.025 A 
ATOM     17  C   UNL d   1       8.294   6.758 -13.018  0.00  0.00     0.002 A 
BRANCH  16  18
ATOM     18  C   UNL d   1       9.623   7.803 -11.005  0.00  0.00     0.129 C 
BRANCH  18  19
ATOM     19  N   UNL d   1      10.135   7.454  -9.686  0.00  0.00    -0.233 NA
ATOM     20  C   UNL d   1      11.241   7.967  -9.142  0.00  0.00     0.293 C 
ATOM     21  O   UNL d   1      12.074   8.630  -9.755  0.00  0.00    -0.264 OA
BRANCH  20  22
ATOM     22  C   UNL d   1      11.327   7.842  -7.684  0.00  0.00     0.140 A 
ATOM     23  N   UNL d   1      11.702   8.967  -6.969  0.00  0.00    -0.222 NA
ATOM     24  C   UNL d   1      11.730   8.709  -5.618  0.00  0.00     0.163 A 
ATOM     25  C   UNL d   1      11.436   7.319  -5.502  0.00  0.00     0.037 A 
ATOM     26  N   UNL d   1      12.052   9.578  -4.617  0.00  0.00    -0.225 NA
ATOM     27  C   UNL d   1      11.143   6.801  -6.814  0.00  0.00     0.027 A 
ATOM     28  C   UNL d   1      11.495   6.799  -4.196  0.00  0.00     0.005 A 
ATOM     29  C   UNL d   1      11.868   7.649  -3.131  0.00  0.00     0.021 A 
ATOM     30  C   UNL d   1      12.130   9.010  -3.394  0.00  0.00     0.101 A 
ENDBRANCH  20  22
ENDBRANCH  18  19
ENDBRANCH  16  18
ENDBRANCH  14  15
ENDBRANCH  13  14
ENDBRANCH  10  13
TORSDOF 6
