REMARK  10 active torsions:
REMARK  status: ('A' for Active; 'I' for Inactive)
REMARK    1  A    between atoms: C_2  and  C_5 
REMARK    2  A    between atoms: C_7  and  N_8 
REMARK    3  A    between atoms: N_11  and  C_12 
REMARK    4  A    between atoms: C_12  and  C_13 
REMARK    5  A    between atoms: C_13  and  C_14 
REMARK    6  A    between atoms: C_14  and  C_15 
REMARK    7  A    between atoms: C_15  and  N_16 
REMARK       I    between atoms: N_16  and  C_17 
REMARK       I    between atoms: C_17  and  N_19 
REMARK    8  A    between atoms: N_19  and  C_20 
REMARK    9  A    between atoms: C_20  and  C_21 
REMARK   10  A    between atoms: C_30  and  C_31 
ROOT
ATOM      1  N   UNL d   1       6.524  -0.372 -16.652  0.00  0.00    -0.330 N 
ATOM      2  C   UNL d   1       6.207  -0.892 -15.320  0.00  0.00     0.138 C 
ATOM      3  C   UNL d   1       7.228  -0.357 -14.290  0.00  0.00     0.274 C 
ATOM      4  N   UNL d   1       7.314   1.104 -14.329  0.00  0.00     0.141 N 
ATOM      5  C   UNL d   1       7.829   1.478 -15.666  0.00  0.00     0.274 C 
ATOM      6  C   UNL d   1       6.810   1.065 -16.741  0.00  0.00     0.138 C 
ENDROOT
BRANCH   4   7
ATOM      7  C   UNL d   1       6.059   1.696 -13.890  0.00  0.00     0.251 C 
BRANCH   7   8
ATOM      8  C   UNL d   1       6.066   3.219 -13.855  0.00  0.00     0.037 C 
BRANCH   8   9
ATOM      9  C   UNL d   1       6.941   3.785 -12.757  0.00  0.00     0.029 C 
BRANCH   9  10
ATOM     10  C   UNL d   1       7.084   5.296 -12.885  0.00  0.00     0.131 C 
BRANCH  10  11
ATOM     11  N   UNL d   1       7.660   5.878 -11.683  0.00  0.00    -0.217 NA
ATOM     12  C   UNL d   1       8.955   6.008 -11.440  0.00  0.00     0.360 C 
ATOM     13  O   UNL d   1       9.853   5.545 -12.171  0.00  0.00    -0.243 OA
ATOM     14  N   UNL d   1       9.165   6.722 -10.349  0.00  0.00    -0.217 NA
BRANCH  14  15
ATOM     15  C   UNL d   1      10.469   7.100  -9.835  0.00  0.00     0.131 C 
BRANCH  15  16
ATOM     16  C   UNL d   1      10.360   7.843  -8.495  0.00  0.00     0.025 C 
ATOM     17  C   UNL d   1       9.831   6.915  -7.383  0.00  0.00     0.002 C 
ATOM     18  C   UNL d   1       9.783   7.625  -6.021  0.00  0.00     0.000 C 
ATOM     19  C   UNL d   1      11.146   8.210  -5.637  0.00  0.00     0.000 C 
ATOM     20  C   UNL d   1      11.665   9.155  -6.730  0.00  0.00     0.000 C 
ATOM     21  C   UNL d   1      11.724   8.441  -8.096  0.00  0.00     0.002 C 
ENDBRANCH  15  16
ENDBRANCH  14  15
ENDBRANCH  10  11
ENDBRANCH   9  10
ENDBRANCH   8   9
ENDBRANCH   7   8
ENDBRANCH   4   7
BRANCH   1  22
ATOM     22  C   UNL d   1       6.619  -1.207 -17.768  0.00  0.00     0.143 A 
ATOM     23  N   UNL d   1       5.915  -2.347 -17.749  0.00  0.00    -0.214 NA
ATOM     24  C   UNL d   1       6.041  -3.199 -18.775  0.00  0.00     0.140 A 
ATOM     25  N   UNL d   1       6.761  -2.954 -19.880  0.00  0.00    -0.227 NA
ATOM     26  C   UNL d   1       7.472  -1.810 -19.932  0.00  0.00     0.157 A 
ATOM     27  C   UNL d   1       7.434  -0.882 -18.863  0.00  0.00     0.060 A 
BRANCH  24  28
ATOM     28  C   UNL d   1       5.202  -4.479 -18.735  0.00  0.00     0.052 C 
ATOM     29  C   UNL d   1       5.629  -5.476 -19.840  0.00  0.00     0.008 C 
ATOM     30  C   UNL d   1       3.726  -4.112 -18.959  0.00  0.00     0.008 C 
ATOM     31  C   UNL d   1       5.373  -5.207 -17.377  0.00  0.00     0.008 C 
ENDBRANCH  24  28
BRANCH  26  32
ATOM     32  C   UNL d   1       8.265  -1.530 -21.189  0.00  0.00     0.435 C 
ATOM     33  F   UNL d   1       7.450  -0.994 -22.097  0.00  0.00    -0.165 F 
ATOM     34  F   UNL d   1       9.263  -0.671 -20.956  0.00  0.00    -0.165 F 
ATOM     35  F   UNL d   1       8.789  -2.650 -21.685  0.00  0.00    -0.165 F 
ENDBRANCH  26  32
ENDBRANCH   1  22
TORSDOF 10
