REMARK  8 active torsions:
REMARK  status: ('A' for Active; 'I' for Inactive)
REMARK    1  A    between atoms: O_2  and  C_3 
REMARK    2  A    between atoms: C_9  and  N_10 
REMARK    3  A    between atoms: N_13  and  C_14 
REMARK    4  A    between atoms: C_14  and  C_15 
REMARK    5  A    between atoms: C_15  and  C_16 
REMARK    6  A    between atoms: C_16  and  C_17 
REMARK    7  A    between atoms: C_17  and  N_18 
REMARK       I    between atoms: N_18  and  C_19 
REMARK    8  A    between atoms: C_19  and  C_21 
ROOT
ATOM      1  N   UNL d   1       7.970   4.455 -13.229  0.00  0.00    -0.343 N 
ATOM      2  C   UNL d   1       8.703   5.671 -13.506  0.00  0.00     0.137 C 
ATOM      3  C   UNL d   1       9.707   5.951 -12.381  0.00  0.00     0.274 C 
ATOM      4  N   UNL d   1       9.044   6.061 -11.081  0.00  0.00     0.141 N 
ATOM      5  C   UNL d   1       8.370   4.788 -10.821  0.00  0.00     0.274 C 
ATOM      6  C   UNL d   1       7.327   4.461 -11.919  0.00  0.00     0.137 C 
ENDROOT
BRANCH   4   7
ATOM      7  C   UNL d   1      10.010   6.399 -10.025  0.00  0.00     0.251 C 
BRANCH   7   8
ATOM      8  C   UNL d   1       9.322   6.970  -8.774  0.00  0.00     0.037 C 
BRANCH   8   9
ATOM      9  C   UNL d   1      10.329   7.473  -7.756  0.00  0.00     0.029 C 
BRANCH   9  10
ATOM     10  C   UNL d   1       9.654   8.133  -6.544  0.00  0.00     0.129 C 
BRANCH  10  11
ATOM     11  N   UNL d   1      10.636   8.763  -5.680  0.00  0.00    -0.238 NA
ATOM     12  C   UNL d   1      11.473   8.134  -4.844  0.00  0.00     0.250 C 
ATOM     13  O   UNL d   1      11.540   6.907  -4.754  0.00  0.00    -0.271 OA
BRANCH  12  14
ATOM     14  C   UNL d   1      12.348   9.056  -3.960  0.00  0.00     0.073 C 
ATOM     15  C   UNL d   1      11.460  10.133  -3.322  0.00  0.00     0.009 C 
ATOM     16  C   UNL d   1      13.429   9.758  -4.817  0.00  0.00     0.009 C 
ATOM     17  C   UNL d   1      12.977   8.241  -2.812  0.00  0.00     0.009 C 
ENDBRANCH  12  14
ENDBRANCH  10  11
ENDBRANCH   9  10
ENDBRANCH   8   9
ENDBRANCH   7   8
ENDBRANCH   4   7
BRANCH   1  18
ATOM     18  C   UNL d   1       7.998   3.329 -14.066  0.00  0.00     0.079 A 
ATOM     19  C   UNL d   1       9.170   2.873 -14.753  0.00  0.00     0.110 A 
ATOM     20  C   UNL d   1       9.056   1.804 -15.678  0.00  0.00     0.037 A 
ATOM     21  C   UNL d   1       7.822   1.179 -15.906  0.00  0.00     0.060 A 
ATOM     22 CL   UNL d   1       7.678  -0.007 -17.139  0.00  0.00    -0.082 Cl
ATOM     23  C   UNL d   1       6.685   1.572 -15.170  0.00  0.00     0.013 A 
ATOM     24  C   UNL d   1       6.780   2.654 -14.278  0.00  0.00     0.020 A 
BRANCH  19  25
ATOM     25  O   UNL d   1      10.374   3.491 -14.476  0.00  0.00    -0.327 OA
ATOM     26  C   UNL d   1      11.536   3.094 -15.190  0.00  0.00     0.181 C 
ENDBRANCH  19  25
ENDBRANCH   1  18
TORSDOF 8
