REMARK  2 active torsions:
REMARK  status: ('A' for Active; 'I' for Inactive)
REMARK       I    between atoms: C_2  and  N_4 
REMARK    1  A    between atoms: N_4  and  C_5 
REMARK    2  A    between atoms: C_8  and  S_9 
ROOT
ATOM      1  C   UNL d   1      11.456   8.761  -4.784  0.00  0.00     0.219 A 
ATOM      2  N   UNL d   1      11.053   9.772  -5.570  0.00  0.00    -0.120 NA
ATOM      3  N   UNL d   1      10.450   9.321  -6.763  0.00  0.00    -0.126 NA
ATOM      4  C   UNL d   1      10.452   7.982  -6.806  0.00  0.00     0.241 A 
ATOM      5  S   UNL d   1      11.224   7.174  -5.512  0.00  0.00    -0.013 SA
ENDROOT
BRANCH   1   6
ATOM      6  N   UNL d   1      12.041   9.055  -3.496  0.00  0.00    -0.185 NA
ATOM      7  C   UNL d   1      12.287   8.233  -2.461  0.00  0.00     0.258 C 
ATOM      8  C   UNL d   1      11.918   6.742  -2.448  0.00  0.00     0.100 C 
ATOM      9  O   UNL d   1      12.855   8.656  -1.442  0.00  0.00    -0.270 OA
ENDBRANCH   1   6
BRANCH   4  10
ATOM     10  S   UNL d   1       9.790   6.862  -8.026  0.00  0.00     0.327 S 
ATOM     11  N   UNL d   1       8.270   6.389  -7.378  0.00  0.00    -0.041 N 
ATOM     12  O   UNL d   1       9.618   7.717  -9.233  0.00  0.00    -0.195 OA
ATOM     13  O   UNL d   1      10.633   5.681  -8.049  0.00  0.00    -0.195 OA
ENDBRANCH   4  10
TORSDOF 2
