REMARK  0 active torsions:
REMARK  status: ('A' for Active; 'I' for Inactive)
ROOT
ATOM      1  C   UNL d   1      10.972   7.335  -5.259  0.00  0.00     0.062 C 
ATOM      2  C   UNL d   1      11.463   8.704  -4.841  0.00  0.00     0.116 C 
ATOM      3  N   UNL d   1      11.860   8.961  -3.672  0.00  0.00    -0.145 N 
ATOM      4  S   UNL d   1      11.460   9.986  -6.062  0.00  0.00    -0.033 SA
ENDROOT
TORSDOF 0
