REMARK  8 active torsions:
REMARK  status: ('A' for Active; 'I' for Inactive)
REMARK    1  A    between atoms: S_2  and  N_4 
REMARK    2  A    between atoms: S_2  and  C_29 
REMARK    3  A    between atoms: N_4  and  C_5 
REMARK    4  A    between atoms: C_8  and  N_9 
REMARK    5  A    between atoms: C_12  and  C_13 
REMARK    6  A    between atoms: C_18  and  O_19 
REMARK    7  A    between atoms: O_19  and  C_20 
REMARK    8  A    between atoms: C_20  and  C_21 
ROOT
ATOM      1  C   UNL d   1       8.911   5.987 -11.108  0.00  0.00     0.116 C 
ATOM      2  C   UNL d   1       9.239   4.524 -10.898  0.00  0.00     0.027 C 
ATOM      3  C   UNL d   1       9.160   3.842 -12.261  0.00  0.00     0.035 C 
ATOM      4  C   UNL d   1       7.711   3.874 -12.841  0.00  0.00     0.219 C 
ATOM      5  C   UNL d   1       7.261   5.328 -12.960  0.00  0.00     0.035 C 
ATOM      6  C   UNL d   1       7.457   6.115 -11.638  0.00  0.00     0.027 C 
ENDROOT
BRANCH   4   7
ATOM      7  N   UNL d   1       7.526   3.153 -14.133  0.00  0.00     0.135 N 
ATOM      8  C   UNL d   1       8.659   3.345 -15.055  0.00  0.00     0.251 C 
ATOM      9  C   UNL d   1       8.468   2.649 -16.417  0.00  0.00     0.040 C 
ATOM     10  C   UNL d   1       8.164   1.163 -16.214  0.00  0.00     0.028 C 
ATOM     11  C   UNL d   1       7.011   0.965 -15.213  0.00  0.00     0.040 C 
ATOM     12  C   UNL d   1       7.330   1.706 -13.946  0.00  0.00     0.251 C 
BRANCH  10  13
ATOM     13  C   UNL d   1       7.801   0.546 -17.556  0.00  0.00    -0.000 A 
ATOM     14  C   UNL d   1       8.702  -0.324 -18.226  0.00  0.00     0.090 A 
ATOM     15  C   UNL d   1       8.347  -0.846 -19.484  0.00  0.00     0.024 A 
ATOM     16  C   UNL d   1       7.098  -0.517 -20.060  0.00  0.00     0.002 A 
ATOM     17  C   UNL d   1       6.203   0.346 -19.407  0.00  0.00    -0.000 A 
ATOM     18  C   UNL d   1       6.569   0.890 -18.157  0.00  0.00    -0.002 A 
BRANCH  14  19
ATOM     19  O   UNL d   1       9.877  -0.631 -17.587  0.00  0.00    -0.322 OA
BRANCH  19  20
ATOM     20  C   UNL d   1      10.939  -1.222 -18.299  0.00  0.00     0.252 C 
BRANCH  20  21
ATOM     21  C   UNL d   1      11.903  -0.158 -18.859  0.00  0.00     0.425 C 
ATOM     22  F   UNL d   1      13.005  -0.770 -19.298  0.00  0.00    -0.168 F 
ATOM     23  F   UNL d   1      11.358   0.492 -19.884  0.00  0.00    -0.168 F 
ATOM     24  F   UNL d   1      12.263   0.731 -17.933  0.00  0.00    -0.168 F 
ENDBRANCH  20  21
ENDBRANCH  19  20
ENDBRANCH  14  19
ENDBRANCH  10  13
ENDBRANCH   4   7
BRANCH   1  25
ATOM     25  N   UNL d   1       9.056   6.674  -9.836  0.00  0.00    -0.187 NA
BRANCH  25  26
ATOM     26  S   UNL d   1      10.192   7.925  -9.562  0.00  0.00     0.283 S 
ATOM     27  O   UNL d   1      11.521   7.547 -10.072  0.00  0.00    -0.199 OA
ATOM     28  O   UNL d   1       9.518   9.177  -9.894  0.00  0.00    -0.199 OA
BRANCH  26  29
ATOM     29  C   UNL d   1      10.450   7.870  -7.835  0.00  0.00     0.133 A 
ATOM     30  C   UNL d   1      10.704   6.626  -7.243  0.00  0.00     0.152 A 
ATOM     31  C   UNL d   1      11.029   6.558  -5.880  0.00  0.00     0.031 A 
ATOM     32  F   UNL d   1      10.647   5.504  -8.001  0.00  0.00    -0.203 F 
ATOM     33  C   UNL d   1      11.071   7.747  -5.123  0.00  0.00     0.014 A 
ATOM     34  C   UNL d   1      10.845   8.980  -5.732  0.00  0.00     0.059 A 
ATOM     35  C   UNL d   1      10.548   9.053  -7.090  0.00  0.00     0.027 A 
ATOM     36 CL   UNL d   1      10.883  10.393  -4.768  0.00  0.00    -0.082 Cl
ENDBRANCH  26  29
ENDBRANCH  25  26
ENDBRANCH   1  25
TORSDOF 8
