REMARK  2 active torsions:
REMARK  status: ('A' for Active; 'I' for Inactive)
REMARK    1  A    between atoms: N_5  and  C_6 
REMARK    2  A    between atoms: C_18  and  C_19 
ROOT
ATOM      1  C   UNL d   1       8.845   3.118 -18.242  0.00  0.00     0.246 C 
ATOM      2  C   UNL d   1       9.482   3.691 -19.543  0.00  0.00     0.065 C 
ATOM      3  C   UNL d   1       8.844   3.255 -20.840  0.00  0.00    -0.014 A 
ATOM      4  C   UNL d   1       8.122   4.182 -21.613  0.00  0.00    -0.004 A 
ATOM      5  C   UNL d   1       7.581   3.784 -22.849  0.00  0.00    -0.000 A 
ATOM      6  C   UNL d   1       7.770   2.464 -23.306  0.00  0.00     0.001 A 
ATOM      7  C   UNL d   1       8.500   1.538 -22.534  0.00  0.00     0.006 A 
ATOM      8  C   UNL d   1       9.039   1.943 -21.299  0.00  0.00     0.025 A 
ATOM      9  S   UNL d   1       9.951   0.816 -20.304  0.00  0.00    -0.087 SA
ATOM     10  C   UNL d   1       8.753   0.602 -19.038  0.00  0.00     0.027 A 
ATOM     11  C   UNL d   1       8.215  -0.689 -18.879  0.00  0.00     0.006 A 
ATOM     12  C   UNL d   1       7.233  -0.939 -17.907  0.00  0.00     0.001 A 
ATOM     13  C   UNL d   1       6.780   0.095 -17.066  0.00  0.00    -0.000 A 
ATOM     14  C   UNL d   1       7.320   1.389 -17.233  0.00  0.00    -0.002 A 
ATOM     15  C   UNL d   1       8.306   1.674 -18.214  0.00  0.00     0.015 A 
ENDROOT
BRANCH   1  16
ATOM     16  N   UNL d   1       9.658   3.380 -17.048  0.00  0.00     0.144 N 
ATOM     17  C   UNL d   1       9.953   4.810 -16.854  0.00  0.00     0.286 C 
ATOM     18  C   UNL d   1      10.777   5.051 -15.584  0.00  0.00     0.286 C 
ATOM     19  N   UNL d   1      12.011   4.278 -15.612  0.00  0.00     0.143 N 
ATOM     20  C   UNL d   1      12.800   4.529 -14.434  0.00  0.00     0.285 C 
ATOM     21  C   UNL d   1      11.716   2.860 -15.761  0.00  0.00     0.286 C 
ATOM     22  C   UNL d   1      10.907   2.615 -17.038  0.00  0.00     0.286 C 
ENDBRANCH   1  16
BRANCH  13  23
ATOM     23  C   UNL d   1       5.778  -0.178 -16.021  0.00  0.00     0.003 A 
ATOM     24  C   UNL d   1       4.657  -0.996 -16.285  0.00  0.00     0.021 A 
ATOM     25  C   UNL d   1       3.709  -1.210 -15.271  0.00  0.00     0.099 A 
ATOM     26  N   UNL d   1       3.820  -0.684 -14.037  0.00  0.00    -0.242 NA
ATOM     27  C   UNL d   1       4.900   0.082 -13.773  0.00  0.00     0.099 A 
ATOM     28  C   UNL d   1       5.894   0.361 -14.724  0.00  0.00     0.021 A 
ENDBRANCH  13  23
TORSDOF 2
