REMARK  6 active torsions:
REMARK  status: ('A' for Active; 'I' for Inactive)
REMARK    1  A    between atoms: O_2  and  C_3 
REMARK    2  A    between atoms: C_6  and  C_7 
REMARK    3  A    between atoms: C_9  and  C_10 
REMARK    4  A    between atoms: C_10  and  N_11 
REMARK    5  A    between atoms: N_11  and  C_13 
REMARK    6  A    between atoms: C_13  and  C_14 
ROOT
ATOM      1  C   UNL d   1      11.562   4.800 -15.356  0.00  0.00     0.182 A 
ATOM      2  N   UNL d   1      10.669   5.184 -14.448  0.00  0.00    -0.223 NA
ATOM      3  C   UNL d   1       9.998   4.026 -14.072  0.00  0.00     0.113 A 
ATOM      4  C   UNL d   1      10.519   2.989 -14.807  0.00  0.00     0.095 A 
ATOM      5  C   UNL d   1      10.203   1.535 -14.883  0.00  0.00     0.060 C 
ATOM      6  O   UNL d   1      11.520   3.463 -15.609  0.00  0.00    -0.292 OA
ENDROOT
BRANCH   3   7
ATOM      7  C   UNL d   1       8.895   4.011 -13.046  0.00  0.00     0.297 C 
BRANCH   7   8
ATOM      8  N   UNL d   1       8.593   5.200 -12.243  0.00  0.00     0.148 N 
ATOM      9  C   UNL d   1       7.377   4.972 -11.467  0.00  0.00     0.286 C 
BRANCH   8  10
ATOM     10  C   UNL d   1       9.718   5.472 -11.350  0.00  0.00     0.281 C 
BRANCH  10  11
ATOM     11  C   UNL d   1       9.556   6.735 -10.487  0.00  0.00     0.159 C 
ATOM     12  O   UNL d   1       8.967   6.332  -9.238  0.00  0.00    -0.331 OA
ATOM     13  C   UNL d   1       9.683   6.885  -8.220  0.00  0.00     0.090 A 
ATOM     14  C   UNL d   1      10.810   7.551  -8.660  0.00  0.00     0.003 A 
ATOM     15  C   UNL d   1       9.379   6.800  -6.854  0.00  0.00     0.024 A 
ATOM     16  C   UNL d   1      10.888   7.449 -10.139  0.00  0.00     0.060 C 
ATOM     17  C   UNL d   1      11.703   8.177  -7.775  0.00  0.00    -0.002 A 
ATOM     18  C   UNL d   1      11.417   8.100  -6.394  0.00  0.00    -0.000 A 
ATOM     19  C   UNL d   1      10.273   7.399  -5.939  0.00  0.00     0.002 A 
ENDBRANCH  10  11
ENDBRANCH   8  10
ENDBRANCH   7   8
ENDBRANCH   3   7
BRANCH   1  20
ATOM     20  C   UNL d   1      12.534   5.624 -16.061  0.00  0.00     0.041 A 
ATOM     21  C   UNL d   1      12.340   7.015 -16.161  0.00  0.00     0.005 A 
ATOM     22  C   UNL d   1      13.252   7.815 -16.874  0.00  0.00     0.024 A 
ATOM     23  C   UNL d   1      14.389   7.233 -17.487  0.00  0.00     0.090 A 
ATOM     24  C   UNL d   1      14.593   5.840 -17.359  0.00  0.00     0.001 A 
ATOM     25  C   UNL d   1      13.661   5.040 -16.666  0.00  0.00     0.001 A 
ATOM     26  C   UNL d   1      15.806   5.190 -17.990  0.00  0.00     0.033 C 
BRANCH  23  27
ATOM     27  O   UNL d   1      15.329   7.955 -18.195  0.00  0.00    -0.328 OA
ATOM     28  C   UNL d   1      15.031   9.306 -18.527  0.00  0.00     0.181 C 
ENDBRANCH  23  27
ENDBRANCH   1  20
TORSDOF 6
