REMARK  9 active torsions:
REMARK  status: ('A' for Active; 'I' for Inactive)
REMARK    1  A    between atoms: O_2  and  C_3 
REMARK    2  A    between atoms: C_8  and  C_9 
REMARK    3  A    between atoms: C_11  and  C_12 
REMARK    4  A    between atoms: C_12  and  N_13 
REMARK    5  A    between atoms: N_13  and  C_14 
REMARK    6  A    between atoms: C_14  and  C_15 
REMARK    7  A    between atoms: C_15  and  C_16 
REMARK    8  A    between atoms: C_16  and  O_17 
REMARK    9  A    between atoms: O_17  and  C_18 
ROOT
ATOM      1  C   UNL d   1       8.553   3.998 -12.694  0.00  0.00     0.293 C 
ENDROOT
BRANCH   1   2
ATOM      2  N   UNL d   1       8.102   4.350 -14.036  0.00  0.00     0.339 N 
BRANCH   2   3
ATOM      3  C   UNL d   1       9.210   4.546 -14.945  0.00  0.00     0.290 C 
BRANCH   3   4
ATOM      4  C   UNL d   1       9.862   3.206 -15.256  0.00  0.00     0.041 A 
ATOM      5  C   UNL d   1      11.151   3.146 -16.046  0.00  0.00     0.026 A 
ATOM      6  C   UNL d   1      11.148   2.810 -14.567  0.00  0.00     0.007 A 
BRANCH   5   7
ATOM      7  C   UNL d   1      11.796   4.404 -16.542  0.00  0.00    -0.000 A 
ATOM      8  C   UNL d   1      11.160   5.222 -17.509  0.00  0.00     0.090 A 
ATOM      9  C   UNL d   1      11.781   6.426 -17.913  0.00  0.00     0.024 A 
ATOM     10  C   UNL d   1      13.030   6.803 -17.383  0.00  0.00     0.002 A 
ATOM     11  C   UNL d   1      13.675   5.970 -16.452  0.00  0.00    -0.000 A 
ATOM     12  C   UNL d   1      13.062   4.781 -16.038  0.00  0.00    -0.002 A 
BRANCH   8  13
ATOM     13  O   UNL d   1       9.938   4.795 -17.989  0.00  0.00    -0.328 OA
ATOM     14  C   UNL d   1       9.240   5.644 -18.885  0.00  0.00     0.181 C 
ENDBRANCH   8  13
ENDBRANCH   5   7
ENDBRANCH   3   4
ENDBRANCH   2   3
ENDBRANCH   1   2
BRANCH   1  15
ATOM     15  C   UNL d   1       9.496   5.063 -12.130  0.00  0.00     0.071 C 
BRANCH  15  16
ATOM     16  C   UNL d   1       8.826   6.465 -12.092  0.00  0.00     0.151 C 
BRANCH  16  17
ATOM     17  O   UNL d   1       9.667   7.407 -11.445  0.00  0.00    -0.331 OA
BRANCH  17  18
ATOM     18  C   UNL d   1       9.839   7.295 -10.092  0.00  0.00     0.096 A 
ATOM     19  C   UNL d   1      10.748   8.181  -9.466  0.00  0.00     0.043 A 
ATOM     20  C   UNL d   1      10.896   8.139  -8.070  0.00  0.00     0.082 A 
ATOM     21  C   UNL d   1      10.175   7.204  -7.295  0.00  0.00    -0.004 A 
ATOM     22  N   UNL d   1      11.774   9.037  -7.428  0.00  0.00    -0.212 NA
ATOM     23  C   UNL d   1       9.284   6.316  -7.921  0.00  0.00    -0.001 A 
ATOM     24  C   UNL d   1      10.377   7.143  -5.804  0.00  0.00     0.038 C 
ATOM     25  C   UNL d   1       9.119   6.367  -9.301  0.00  0.00     0.024 A 
ATOM     26  C   UNL d   1      10.737   8.525  -5.245  0.00  0.00     0.095 C 
ATOM     27  C   UNL d   1      11.786   9.237  -6.101  0.00  0.00     0.256 C 
ATOM     28  O   UNL d   1      12.600   9.972  -5.566  0.00  0.00    -0.270 OA
ENDBRANCH  17  18
ENDBRANCH  16  17
ENDBRANCH  15  16
ENDBRANCH   1  15
TORSDOF 9
