REMARK  7 active torsions:
REMARK  status: ('A' for Active; 'I' for Inactive)
REMARK       I    between atoms: C_2  and  N_3 
REMARK    1  A    between atoms: C_2  and  C_22 
REMARK    2  A    between atoms: N_3  and  C_4 
REMARK    3  A    between atoms: C_4  and  C_5 
REMARK    4  A    between atoms: C_6  and  C_7 
REMARK    5  A    between atoms: C_7  and  N_8 
REMARK    6  A    between atoms: N_11  and  C_12 
REMARK    7  A    between atoms: C_25  and  C_26 
ROOT
ATOM      1  C   UNL d   1       5.710   2.298 -12.566  0.00  0.00    -0.003 C 
ATOM      2  C   UNL d   1       6.356   3.175 -13.354  0.00  0.00     0.006 C 
ENDROOT
BRANCH   1   3
ATOM      3  C   UNL d   1       5.636   0.788 -12.730  0.00  0.00     0.155 C 
BRANCH   3   4
ATOM      4  N   UNL d   1       5.645   0.378 -14.123  0.00  0.00    -0.229 NA
ATOM      5  C   UNL d   1       4.710  -0.402 -14.685  0.00  0.00     0.275 C 
ATOM      6  O   UNL d   1       3.732  -0.820 -14.064  0.00  0.00    -0.266 OA
BRANCH   5   7
ATOM      7  C   UNL d   1       4.954  -0.776 -16.121  0.00  0.00     0.058 A 
ATOM      8  C   UNL d   1       6.067  -0.279 -16.839  0.00  0.00     0.005 A 
ATOM      9  C   UNL d   1       6.261  -0.623 -18.188  0.00  0.00     0.003 A 
ATOM     10  C   UNL d   1       5.341  -1.460 -18.851  0.00  0.00     0.036 A 
ATOM     11  C   UNL d   1       4.224  -1.948 -18.142  0.00  0.00     0.003 A 
ATOM     12  C   UNL d   1       4.030  -1.609 -16.790  0.00  0.00     0.005 A 
BRANCH  10  13
ATOM     13  C   UNL d   1       5.557  -1.821 -20.250  0.00  0.00     0.163 A 
ATOM     14  N   UNL d   1       4.806  -2.687 -20.942  0.00  0.00    -0.224 NA
ATOM     15  C   UNL d   1       5.304  -2.784 -22.230  0.00  0.00     0.121 A 
ATOM     16  C   UNL d   1       6.383  -1.936 -22.262  0.00  0.00     0.121 A 
ATOM     17  N   UNL d   1       6.542  -1.342 -21.011  0.00  0.00    -0.224 NA
ENDBRANCH  10  13
ENDBRANCH   5   7
ENDBRANCH   3   4
ENDBRANCH   1   3
BRANCH   2  18
ATOM     18  C   UNL d   1       6.409   4.660 -13.060  0.00  0.00     0.276 C 
BRANCH  18  19
ATOM     19  N   UNL d   1       7.675   5.141 -12.495  0.00  0.00     0.145 N 
ATOM     20  C   UNL d   1       8.008   4.376 -11.305  0.00  0.00     0.275 C 
ATOM     21  C   UNL d   1       9.322   4.759 -10.642  0.00  0.00     0.137 C 
ATOM     22  N   UNL d   1       9.302   6.170 -10.314  0.00  0.00    -0.344 N 
ATOM     23  C   UNL d   1       8.843   7.038 -11.396  0.00  0.00     0.137 C 
ATOM     24  C   UNL d   1       7.526   6.519 -12.043  0.00  0.00     0.275 C 
BRANCH  22  25
ATOM     25  C   UNL d   1       9.542   6.636  -9.026  0.00  0.00     0.068 A 
ATOM     26  C   UNL d   1      10.472   7.689  -8.752  0.00  0.00     0.084 A 
ATOM     27  C   UNL d   1      10.733   8.062  -7.424  0.00  0.00     0.070 A 
ATOM     28 CL   UNL d   1      11.331   8.485 -10.024  0.00  0.00    -0.080 Cl
ATOM     29  C   UNL d   1      10.069   7.460  -6.357  0.00  0.00     0.012 A 
ATOM     30 CL   UNL d   1      11.900   9.241  -7.030  0.00  0.00    -0.081 Cl
ATOM     31  C   UNL d   1       9.126   6.458  -6.617  0.00  0.00     0.002 A 
ATOM     32  C   UNL d   1       8.878   6.021  -7.924  0.00  0.00     0.018 A 
ENDBRANCH  22  25
ENDBRANCH  18  19
ENDBRANCH   2  18
TORSDOF 7
