REMARK  5 active torsions:
REMARK  status: ('A' for Active; 'I' for Inactive)
REMARK    1  A    between atoms: O_2  and  C_3 
REMARK    2  A    between atoms: C_8  and  N_9 
REMARK    3  A    between atoms: N_12  and  C_13 
REMARK    4  A    between atoms: C_13  and  C_14 
REMARK    5  A    between atoms: C_20  and  N_21 
ROOT
ATOM      1  N   UNL d   1      10.900   7.764  -6.502  0.00  0.00    -0.343 N 
ATOM      2  C   UNL d   1      11.479   6.806  -7.434  0.00  0.00     0.137 C 
ATOM      3  C   UNL d   1      10.386   5.900  -8.021  0.00  0.00     0.275 C 
ATOM      4  N   UNL d   1       9.336   6.712  -8.609  0.00  0.00     0.147 N 
ATOM      5  C   UNL d   1       8.719   7.530  -7.552  0.00  0.00     0.275 C 
ATOM      6  C   UNL d   1       9.743   8.501  -6.995  0.00  0.00     0.137 C 
ENDROOT
BRANCH   4   7
ATOM      7  C   UNL d   1       8.362   5.807  -9.192  0.00  0.00     0.296 C 
BRANCH   7   8
ATOM      8  C   UNL d   1       8.668   5.320 -10.571  0.00  0.00     0.094 A 
ATOM      9  N   UNL d   1       7.777   4.518 -11.268  0.00  0.00    -0.229 NA
ATOM     10  C   UNL d   1       8.279   4.239 -12.523  0.00  0.00     0.185 A 
ATOM     11  C   UNL d   1       9.512   4.831 -12.612  0.00  0.00     0.096 A 
ATOM     12  N   UNL d   1       7.688   3.433 -13.491  0.00  0.00    -0.042 NA
ATOM     13  C   UNL d   1       9.701   5.592 -11.423  0.00  0.00     0.025 A 
ATOM     14  C   UNL d   1      10.294   4.582 -13.829  0.00  0.00     0.298 A 
ATOM     15  O   UNL d   1      11.416   5.052 -14.024  0.00  0.00    -0.265 OA
ATOM     16  N   UNL d   1       9.709   3.787 -14.725  0.00  0.00    -0.021 NA
ATOM     17  C   UNL d   1       8.447   3.198 -14.533  0.00  0.00     0.732 A 
BRANCH  17  18
ATOM     18  N   UNL d   1       8.110   2.368 -15.598  0.00  0.00    -0.179 N 
ATOM     19  C   UNL d   1       8.686   2.531 -16.933  0.00  0.00     0.144 C 
ATOM     20  C   UNL d   1       7.133   1.292 -15.453  0.00  0.00     0.144 C 
ENDBRANCH  17  18
ENDBRANCH   7   8
ENDBRANCH   4   7
BRANCH   1  21
ATOM     21  C   UNL d   1      11.389   7.908  -5.200  0.00  0.00     0.079 A 
ATOM     22  C   UNL d   1      11.539   9.187  -4.579  0.00  0.00     0.110 A 
ATOM     23  C   UNL d   1      12.011   9.248  -3.254  0.00  0.00     0.026 A 
ATOM     24  C   UNL d   1      12.386   8.082  -2.553  0.00  0.00     0.002 A 
ATOM     25  C   UNL d   1      12.259   6.833  -3.174  0.00  0.00     0.002 A 
ATOM     26  C   UNL d   1      11.751   6.752  -4.468  0.00  0.00     0.019 A 
BRANCH  22  27
ATOM     27  O   UNL d   1      11.191  10.380  -5.187  0.00  0.00    -0.327 OA
ATOM     28  C   UNL d   1      11.931  10.714  -6.359  0.00  0.00     0.181 C 
ENDBRANCH  22  27
ENDBRANCH   1  21
TORSDOF 5
