REMARK  8 active torsions:
REMARK  status: ('A' for Active; 'I' for Inactive)
REMARK    1  A    between atoms: C_2  and  N_3 
REMARK    2  A    between atoms: N_3  and  C_4 
REMARK    3  A    between atoms: C_4  and  C_5 
REMARK    4  A    between atoms: C_5  and  O_6 
REMARK    5  A    between atoms: O_6  and  C_7 
REMARK    6  A    between atoms: C_7  and  C_9 
REMARK    7  A    between atoms: C_9  and  C_11 
REMARK    8  A    between atoms: C_9  and  C_17 
ROOT
ATOM      1  C   UNL d   1       8.485   5.016 -13.008  0.00  0.00     0.241 C 
ATOM      2  O   UNL d   1       7.854   6.262 -13.239  0.00  0.00    -0.207 OA
ENDROOT
BRANCH   1   3
ATOM      3  C   UNL d   1       8.850   5.112 -11.518  0.00  0.00     0.308 C 
ATOM      4  O   UNL d   1       8.369   4.416 -10.663  0.00  0.00    -0.261 OA
BRANCH   3   5
ATOM      5  O   UNL d   1       9.670   6.126 -11.253  0.00  0.00    -0.297 OA
BRANCH   5   6
ATOM      6  C   UNL d   1      10.148   6.268  -9.929  0.00  0.00     0.185 C 
BRANCH   6   7
ATOM      7  C   UNL d   1      10.096   7.762  -9.545  0.00  0.00     0.249 C 
BRANCH   7   8
ATOM      8  N   UNL d   1      10.855   8.096  -8.299  0.00  0.00    -0.004 N 
ATOM      9  C   UNL d   1      10.653   9.553  -8.044  0.00  0.00     0.217 C 
ATOM     10  C   UNL d   1      11.174  10.053  -6.673  0.00  0.00     0.033 C 
ATOM     11  C   UNL d   1      10.543   9.258  -5.540  0.00  0.00     0.004 C 
ATOM     12  C   UNL d   1      10.755   7.758  -5.767  0.00  0.00     0.033 C 
ATOM     13  C   UNL d   1      10.242   7.328  -7.156  0.00  0.00     0.217 C 
BRANCH   8  14
ATOM     14  C   UNL d   1      12.333   7.815  -8.425  0.00  0.00     0.217 C 
ATOM     15  C   UNL d   1      12.933   7.720  -9.873  0.00  0.00     0.035 C 
ENDBRANCH   8  14
ENDBRANCH   7   8
ENDBRANCH   6   7
ENDBRANCH   5   6
ENDBRANCH   3   5
ENDBRANCH   1   3
BRANCH   1  16
ATOM     16  C   UNL d   1       9.718   4.863 -13.929  0.00  0.00     0.018 A 
ATOM     17  C   UNL d   1      10.931   4.314 -13.470  0.00  0.00    -0.001 A 
ATOM     18  C   UNL d   1      12.058   4.140 -14.296  0.00  0.00    -0.000 A 
ATOM     19  C   UNL d   1      11.979   4.506 -15.644  0.00  0.00    -0.000 A 
ATOM     20  C   UNL d   1      10.770   5.019 -16.146  0.00  0.00    -0.000 A 
ATOM     21  C   UNL d   1       9.655   5.181 -15.303  0.00  0.00    -0.001 A 
ENDBRANCH   1  16
BRANCH   1  22
ATOM     22  C   UNL d   1       7.489   3.866 -13.253  0.00  0.00     0.018 A 
ATOM     23  C   UNL d   1       7.835   2.757 -14.070  0.00  0.00    -0.001 A 
ATOM     24  C   UNL d   1       6.953   1.683 -14.266  0.00  0.00    -0.000 A 
ATOM     25  C   UNL d   1       5.703   1.687 -13.633  0.00  0.00    -0.000 A 
ATOM     26  C   UNL d   1       5.334   2.786 -12.832  0.00  0.00    -0.000 A 
ATOM     27  C   UNL d   1       6.209   3.869 -12.643  0.00  0.00    -0.001 A 
ENDBRANCH   1  22
TORSDOF 8
