REMARK  4 active torsions:
REMARK  status: ('A' for Active; 'I' for Inactive)
REMARK    1  A    between atoms: C_5  and  C_6 
REMARK    2  A    between atoms: C_6  and  N_7 
REMARK    3  A    between atoms: C_10  and  C_11 
REMARK    4  A    between atoms: C_11  and  C_12 
REMARK       I    between atoms: C_12  and  N_14 
ROOT
ATOM      1  N   UNL d   1       9.134   6.251  -8.069  0.00  0.00     0.141 N 
ATOM      2  C   UNL d   1       9.516   7.077  -9.204  0.00  0.00     0.251 C 
ATOM      3  C   UNL d   1       9.999   6.183 -10.309  0.00  0.00     0.036 C 
ATOM      4  C   UNL d   1       8.920   5.183 -10.794  0.00  0.00     0.013 C 
ATOM      5  C   UNL d   1       8.401   4.431  -9.565  0.00  0.00     0.036 C 
ATOM      6  C   UNL d   1       8.023   5.408  -8.486  0.00  0.00     0.251 C 
ENDROOT
BRANCH   4   7
ATOM      7  C   UNL d   1       9.436   4.133 -11.826  0.00  0.00     0.088 C 
BRANCH   7   8
ATOM      8  C   UNL d   1       9.855   4.733 -13.172  0.00  0.00     0.237 C 
ATOM      9  O   UNL d   1       9.826   5.969 -13.284  0.00  0.00    -0.272 OA
ATOM     10  N   UNL d   1      10.175   3.920 -14.196  0.00  0.00    -0.301 N 
ATOM     11  C   UNL d   1       9.745   2.509 -14.299  0.00  0.00     0.093 A 
ATOM     12  C   UNL d   1      11.041   4.253 -15.268  0.00  0.00     0.058 A 
ATOM     13  C   UNL d   1      10.415   1.976 -15.594  0.00  0.00     0.051 A 
ATOM     14  C   UNL d   1       8.188   2.326 -14.362  0.00  0.00     0.025 C 
ATOM     15  C   UNL d   1      11.220   3.155 -16.097  0.00  0.00    -0.004 A 
ATOM     16  C   UNL d   1      12.047   3.193 -17.233  0.00  0.00    -0.003 A 
ATOM     17  C   UNL d   1      12.743   4.392 -17.529  0.00  0.00    -0.000 A 
ATOM     18  C   UNL d   1      12.584   5.515 -16.691  0.00  0.00     0.002 A 
ATOM     19  C   UNL d   1      11.746   5.465 -15.562  0.00  0.00     0.017 A 
ENDBRANCH   7   8
ENDBRANCH   4   7
BRANCH   1  20
ATOM     20  C   UNL d   1       8.653   7.157  -7.050  0.00  0.00     0.277 C 
BRANCH  20  21
ATOM     21  C   UNL d   1       9.816   7.720  -6.282  0.00  0.00     0.013 A 
ATOM     22  C   UNL d   1      10.453   6.960  -5.296  0.00  0.00    -0.003 A 
ATOM     23  C   UNL d   1      11.479   7.518  -4.508  0.00  0.00    -0.002 A 
ATOM     24  C   UNL d   1      11.884   8.839  -4.758  0.00  0.00     0.006 A 
ATOM     25  C   UNL d   1      12.965   9.447  -3.898  0.00  0.00     0.033 C 
ATOM     26  C   UNL d   1      11.296   9.585  -5.792  0.00  0.00     0.136 A 
ATOM     27  C   UNL d   1      10.252   9.034  -6.551  0.00  0.00     0.027 A 
ATOM     28  F   UNL d   1      11.694  10.850  -6.063  0.00  0.00    -0.205 F 
ENDBRANCH  20  21
ENDBRANCH   1  20
TORSDOF 4
