REMARK  4 active torsions:
REMARK  status: ('A' for Active; 'I' for Inactive)
REMARK    1  A    between atoms: C_8  and  C_9 
REMARK    2  A    between atoms: C_13  and  C_14 
REMARK    3  A    between atoms: C_14  and  N_15 
REMARK    4  A    between atoms: N_18  and  C_19 
ROOT
ATOM      1  N   UNL d   1      10.775   1.883 -14.485  0.00  0.00    -0.191 NA
ATOM      2  C   UNL d   1      10.127   1.341 -15.274  0.00  0.00     0.101 C 
ATOM      3  C   UNL d   1       9.310   0.674 -16.280  0.00  0.00     0.068 A 
ATOM      4  C   UNL d   1       9.991   0.073 -17.359  0.00  0.00     0.010 A 
ATOM      5  C   UNL d   1       9.280  -0.592 -18.378  0.00  0.00     0.001 A 
ATOM      6  C   UNL d   1       7.879  -0.661 -18.311  0.00  0.00     0.000 A 
ATOM      7  C   UNL d   1       7.192  -0.063 -17.241  0.00  0.00     0.001 A 
ATOM      8  C   UNL d   1       7.887   0.615 -16.206  0.00  0.00     0.010 A 
ENDROOT
BRANCH   8   9
ATOM      9  C   UNL d   1       7.096   1.206 -15.099  0.00  0.00     0.000 A 
ATOM     10  C   UNL d   1       7.302   2.533 -14.658  0.00  0.00    -0.002 A 
ATOM     11  C   UNL d   1       6.554   3.102 -13.607  0.00  0.00     0.011 A 
ATOM     12  C   UNL d   1       5.550   2.334 -12.975  0.00  0.00    -0.002 A 
ATOM     13  C   UNL d   1       5.327   1.007 -13.402  0.00  0.00    -0.000 A 
ATOM     14  C   UNL d   1       6.091   0.457 -14.453  0.00  0.00     0.000 A 
BRANCH  11  15
ATOM     15  C   UNL d   1       6.853   4.536 -13.189  0.00  0.00     0.277 C 
BRANCH  15  16
ATOM     16  N   UNL d   1       8.041   4.667 -12.370  0.00  0.00     0.145 N 
ATOM     17  C   UNL d   1       7.649   4.483 -10.975  0.00  0.00     0.275 C 
ATOM     18  C   UNL d   1       8.851   4.610 -10.005  0.00  0.00     0.137 C 
ATOM     19  N   UNL d   1       9.455   5.900 -10.182  0.00  0.00    -0.343 N 
ATOM     20  C   UNL d   1       9.760   6.245 -11.560  0.00  0.00     0.137 C 
ATOM     21  C   UNL d   1       8.524   6.056 -12.447  0.00  0.00     0.275 C 
BRANCH  19  22
ATOM     22  C   UNL d   1       9.760   6.712  -9.088  0.00  0.00     0.081 A 
ATOM     23  C   UNL d   1      10.946   7.472  -9.031  0.00  0.00     0.137 A 
ATOM     24  C   UNL d   1      11.296   8.264  -7.915  0.00  0.00     0.110 A 
ATOM     25  O   UNL d   1      11.956   7.569  -9.954  0.00  0.00    -0.266 OA
ATOM     26  C   UNL d   1      10.360   8.413  -6.880  0.00  0.00     0.021 A 
ATOM     27  N   UNL d   1      12.577   8.739  -8.084  0.00  0.00    -0.196 NA
ATOM     28  C   UNL d   1       9.146   7.704  -6.937  0.00  0.00     0.003 A 
ATOM     29  C   UNL d   1       8.869   6.822  -8.001  0.00  0.00     0.019 A 
ATOM     30  C   UNL d   1      12.902   8.262  -9.291  0.00  0.00     0.323 C 
ATOM     31  O   UNL d   1      14.087   8.387  -9.926  0.00  0.00    -0.141 OA
ENDBRANCH  19  22
ENDBRANCH  15  16
ENDBRANCH  11  15
ENDBRANCH   8   9
TORSDOF 4
