REMARK  8 active torsions:
REMARK  status: ('A' for Active; 'I' for Inactive)
REMARK       I    between atoms: N_2  and  C_3 
REMARK    1  A    between atoms: C_3  and  C_5 
REMARK    2  A    between atoms: C_9  and  O_10 
REMARK    3  A    between atoms: O_10  and  C_11 
REMARK    4  A    between atoms: C_11  and  C_12 
REMARK    5  A    between atoms: C_12  and  C_13 
REMARK    6  A    between atoms: C_13  and  C_14 
REMARK    7  A    between atoms: C_14  and  N_15 
REMARK    8  A    between atoms: N_18  and  C_19 
ROOT
ATOM      1  C   UNL d   1       9.612   6.065 -10.081  0.00  0.00     0.251 C 
ENDROOT
BRANCH   1   2
ATOM      2  C   UNL d   1       8.270   6.123 -10.825  0.00  0.00     0.038 C 
BRANCH   2   3
ATOM      3  C   UNL d   1       8.002   4.874 -11.627  0.00  0.00     0.035 C 
BRANCH   3   4
ATOM      4  C   UNL d   1       6.673   4.928 -12.420  0.00  0.00     0.151 C 
BRANCH   4   5
ATOM      5  O   UNL d   1       6.262   3.676 -12.970  0.00  0.00    -0.315 OA
BRANCH   5   6
ATOM      6  C   UNL d   1       7.042   3.048 -13.924  0.00  0.00     0.178 A 
ATOM      7  C   UNL d   1       6.599   1.825 -14.463  0.00  0.00     0.044 A 
ATOM      8  C   UNL d   1       7.420   1.149 -15.390  0.00  0.00     0.005 A 
ATOM      9  C   UNL d   1       8.671   1.711 -15.718  0.00  0.00     0.024 A 
ATOM     10  C   UNL d   1       9.056   2.922 -15.102  0.00  0.00     0.141 A 
ATOM     11  N   UNL d   1       8.235   3.586 -14.271  0.00  0.00    -0.217 NA
BRANCH  10  12
ATOM     12  C   UNL d   1      10.380   3.562 -15.404  0.00  0.00     0.293 C 
ATOM     13  N   UNL d   1      11.103   3.939 -14.336  0.00  0.00    -0.231 NA
ATOM     14  C   UNL d   1      12.413   4.567 -14.429  0.00  0.00     0.155 C 
ATOM     15  O   UNL d   1      10.775   3.659 -16.563  0.00  0.00    -0.264 OA
ENDBRANCH  10  12
ENDBRANCH   5   6
ENDBRANCH   4   5
ENDBRANCH   3   4
ENDBRANCH   2   3
ENDBRANCH   1   2
BRANCH   1  16
ATOM     16  N   UNL d   1       9.852   7.244  -9.271  0.00  0.00     0.141 N 
ATOM     17  C   UNL d   1       9.018   7.198  -8.056  0.00  0.00     0.274 C 
ATOM     18  C   UNL d   1       9.210   8.481  -7.226  0.00  0.00     0.137 C 
ATOM     19  N   UNL d   1      10.609   8.655  -6.890  0.00  0.00    -0.344 N 
ATOM     20  C   UNL d   1      11.555   8.496  -7.974  0.00  0.00     0.137 C 
ATOM     21  C   UNL d   1      11.232   7.239  -8.812  0.00  0.00     0.274 C 
BRANCH  19  22
ATOM     22  C   UNL d   1      11.039   8.716  -5.537  0.00  0.00     0.068 A 
ATOM     23  C   UNL d   1      11.601   7.612  -4.858  0.00  0.00     0.084 A 
ATOM     24  C   UNL d   1      12.003   7.697  -3.494  0.00  0.00     0.070 A 
ATOM     25 CL   UNL d   1      11.859   6.194  -5.745  0.00  0.00    -0.080 Cl
ATOM     26  C   UNL d   1      11.915   8.923  -2.843  0.00  0.00     0.012 A 
ATOM     27 CL   UNL d   1      12.654   6.392  -2.595  0.00  0.00    -0.081 Cl
ATOM     28  C   UNL d   1      11.422  10.008  -3.548  0.00  0.00     0.002 A 
ATOM     29  C   UNL d   1      10.942   9.940  -4.870  0.00  0.00     0.018 A 
ENDBRANCH  19  22
ENDBRANCH   1  16
TORSDOF 8
