REMARK  1 active torsions:
REMARK  status: ('A' for Active; 'I' for Inactive)
REMARK    1  A    between atoms: O_2  and  C_3 
ROOT
ATOM      1  C   UNL d   1      11.857   8.198  -3.858  0.00  0.00     0.094 A 
ATOM      2  C   UNL d   1      11.611   9.541  -4.215  0.00  0.00     0.024 A 
ATOM      3  C   UNL d   1      11.064   9.860  -5.476  0.00  0.00    -0.003 A 
ATOM      4  C   UNL d   1      10.753   8.838  -6.398  0.00  0.00    -0.026 A 
ATOM      5  C   UNL d   1      10.999   7.493  -6.044  0.00  0.00    -0.022 A 
ATOM      6  C   UNL d   1      11.519   7.178  -4.783  0.00  0.00     0.020 A 
ATOM      7  C   UNL d   1      10.672   6.351  -6.979  0.00  0.00     0.065 C 
ATOM      8  C   UNL d   1      10.449   6.773  -8.431  0.00  0.00     0.307 C 
ATOM      9  N   UNL d   1       9.862   5.667  -9.161  0.00  0.00     0.616 N 
ATOM     10  C   UNL d   1       9.540   8.003  -8.493  0.00  0.00     0.044 C 
ATOM     11  C   UNL d   1      10.173   9.187  -7.759  0.00  0.00     0.028 C 
ENDROOT
BRANCH   1  12
ATOM     12  O   UNL d   1      12.387   7.959  -2.611  0.00  0.00    -0.328 OA
ATOM     13  C   UNL d   1      12.450   6.598  -2.196  0.00  0.00     0.181 C 
ENDBRANCH   1  12
TORSDOF 1
