REMARK  3 active torsions:
REMARK  status: ('A' for Active; 'I' for Inactive)
REMARK    1  A    between atoms: C_5  and  C_6 
REMARK    2  A    between atoms: C_6  and  N_7 
REMARK    3  A    between atoms: C_10  and  C_11 
ROOT
ATOM      1  N   UNL d   1       8.859   5.868 -11.968  0.00  0.00     0.146 N 
ATOM      2  C   UNL d   1       9.280   7.273 -11.886  0.00  0.00     0.277 C 
ATOM      3  C   UNL d   1       9.865   7.640 -10.520  0.00  0.00     0.008 C 
ATOM      4  C   UNL d   1       9.706   6.877  -9.432  0.00  0.00     0.013 C 
ATOM      5  C   UNL d   1       8.877   5.608  -9.539  0.00  0.00     0.065 C 
ATOM      6  C   UNL d   1       8.040   5.565 -10.802  0.00  0.00     0.256 C 
ENDROOT
BRANCH   4   7
ATOM      7  C   UNL d   1      10.251   7.275  -8.136  0.00  0.00     0.158 A 
ATOM      8  N   UNL d   1      10.778   8.487  -7.890  0.00  0.00    -0.226 NA
ATOM      9  C   UNL d   1      11.218   8.471  -6.576  0.00  0.00     0.101 A 
ATOM     10  C   UNL d   1      10.893   7.162  -6.127  0.00  0.00     0.102 A 
ATOM     11  C   UNL d   1      11.860   9.411  -5.753  0.00  0.00     0.022 A 
ATOM     12  N   UNL d   1      10.285   6.418  -7.122  0.00  0.00    -0.226 NA
ATOM     13  C   UNL d   1      11.235   6.807  -4.807  0.00  0.00     0.032 A 
ATOM     14  C   UNL d   1      11.872   7.742  -3.965  0.00  0.00     0.059 A 
ATOM     15 CL   UNL d   1      12.248   7.285  -2.347  0.00  0.00    -0.082 Cl
ATOM     16  C   UNL d   1      12.186   9.036  -4.430  0.00  0.00     0.013 A 
ENDBRANCH   4   7
BRANCH   1  17
ATOM     17  C   UNL d   1       8.084   5.730 -13.199  0.00  0.00     0.277 C 
BRANCH  17  18
ATOM     18  C   UNL d   1       7.424   4.379 -13.413  0.00  0.00     0.011 A 
ATOM     19  C   UNL d   1       6.161   4.116 -12.843  0.00  0.00    -0.002 A 
ATOM     20  C   UNL d   1       5.582   2.832 -12.949  0.00  0.00     0.011 A 
ATOM     21  C   UNL d   1       6.229   1.837 -13.706  0.00  0.00     0.058 A 
ATOM     22 CL   UNL d   1       5.534   0.256 -13.791  0.00  0.00    -0.082 Cl
ATOM     23  C   UNL d   1       7.458   2.112 -14.336  0.00  0.00     0.011 A 
ATOM     24  C   UNL d   1       8.068   3.372 -14.169  0.00  0.00    -0.002 A 
ENDBRANCH  17  18
ENDBRANCH   1  17
TORSDOF 3
