REMARK  5 active torsions:
REMARK  status: ('A' for Active; 'I' for Inactive)
REMARK    1  A    between atoms: C_9  and  C_10 
REMARK    2  A    between atoms: N_20  and  C_21 
REMARK    3  A    between atoms: C_21  and  C_22 
REMARK    4  A    between atoms: C_22  and  C_23 
REMARK    5  A    between atoms: C_23  and  C_24 
ROOT
ATOM      1  C   UNL d   1       9.927   4.976  -8.384  0.00  0.00     0.005 C 
ATOM      2  C   UNL d   1       9.546   6.361  -8.785  0.00  0.00     0.025 C 
ATOM      3  C   UNL d   1      10.488   7.393  -8.205  0.00  0.00    -0.007 A 
ATOM      4  C   UNL d   1      11.020   8.379  -8.975  0.00  0.00     0.055 A 
ATOM      5  N   UNL d   1      11.843   9.172  -8.219  0.00  0.00    -0.250 NA
ATOM      6  C   UNL d   1      11.793   8.809  -6.892  0.00  0.00     0.081 A 
ATOM      7  C   UNL d   1      12.399   9.357  -5.747  0.00  0.00     0.019 A 
ATOM      8  C   UNL d   1      12.285   8.694  -4.518  0.00  0.00     0.005 A 
ATOM      9  C   UNL d   1      11.535   7.516  -4.421  0.00  0.00     0.072 A 
ATOM     10  C   UNL d   1      10.851   7.027  -5.574  0.00  0.00     0.005 A 
ATOM     11  C   UNL d   1      10.980   7.639  -6.851  0.00  0.00     0.015 A 
ATOM     12  C   UNL d   1      10.808   8.588 -10.413  0.00  0.00     0.046 C 
ATOM     13  C   UNL d   1       9.533   7.873 -10.889  0.00  0.00     0.010 C 
ATOM     14  C   UNL d   1       9.291   7.839 -12.398  0.00  0.00     0.036 C 
ATOM     15  C   UNL d   1       7.986   7.076 -12.721  0.00  0.00     0.250 C 
ATOM     16  N   UNL d   1       7.964   5.693 -12.228  0.00  0.00     0.137 N 
ATOM     17  C   UNL d   1       8.107   5.717 -10.775  0.00  0.00     0.251 C 
ATOM     18  C   UNL d   1       9.413   6.429 -10.318  0.00  0.00     0.038 C 
ENDROOT
BRANCH  16  19
ATOM     19  C   UNL d   1       8.937   4.798 -12.842  0.00  0.00     0.251 C 
BRANCH  19  20
ATOM     20  C   UNL d   1       8.548   4.477 -14.292  0.00  0.00     0.045 C 
BRANCH  20  21
ATOM     21  C   UNL d   1       9.657   3.811 -15.154  0.00  0.00     0.080 C 
ATOM     22  C   UNL d   1       9.086   3.441 -16.574  0.00  0.00     0.010 C 
ATOM     23  C   UNL d   1       7.992   2.353 -16.511  0.00  0.00     0.001 C 
ATOM     24  C   UNL d   1       8.513   1.093 -15.808  0.00  0.00     0.000 C 
ATOM     25  C   UNL d   1       9.080   1.411 -14.421  0.00  0.00     0.001 C 
ATOM     26  C   UNL d   1      10.169   2.496 -14.477  0.00  0.00     0.010 C 
BRANCH  21  27
ATOM     27  C   UNL d   1      10.847   4.809 -15.296  0.00  0.00     0.184 C 
ATOM     28  O   UNL d   1      11.746   4.921 -14.463  0.00  0.00    -0.647 OA
ATOM     29  O   UNL d   1      10.765   5.567 -16.427  0.00  0.00    -0.647 OA
ENDBRANCH  21  27
ENDBRANCH  20  21
ENDBRANCH  19  20
ENDBRANCH  16  19
BRANCH   9  30
ATOM     30  C   UNL d   1      11.505   6.816  -3.069  0.00  0.00     0.419 C 
ATOM     31  F   UNL d   1      12.632   6.151  -2.805  0.00  0.00    -0.166 F 
ATOM     32  F   UNL d   1      11.314   7.700  -2.100  0.00  0.00    -0.166 F 
ATOM     33  F   UNL d   1      10.497   5.999  -3.033  0.00  0.00    -0.166 F 
ENDBRANCH   9  30
TORSDOF 5
