REMARK  8 active torsions:
REMARK  status: ('A' for Active; 'I' for Inactive)
REMARK    1  A    between atoms: O_2  and  C_3 
REMARK    2  A    between atoms: C_8  and  N_9 
REMARK    3  A    between atoms: N_12  and  C_13 
REMARK    4  A    between atoms: C_13  and  C_14 
REMARK    5  A    between atoms: C_14  and  C_16 
REMARK    6  A    between atoms: C_16  and  C_17 
REMARK    7  A    between atoms: C_17  and  N_18 
REMARK    8  A    between atoms: C_20  and  C_21 
ROOT
ATOM      1  C   UNL d   1       8.470   5.761 -12.205  0.00  0.00     0.188 C 
ATOM      2  O   UNL d   1       8.246   7.157 -12.249  0.00  0.00    -0.221 OA
ENDROOT
BRANCH   1   3
ATOM      3  C   UNL d   1       7.837   5.153 -13.464  0.00  0.00     0.283 C 
BRANCH   3   4
ATOM      4  N   UNL d   1       7.700   3.698 -13.464  0.00  0.00     0.144 N 
ATOM      5  C   UNL d   1       8.549   3.042 -14.461  0.00  0.00     0.274 C 
ATOM      6  C   UNL d   1       8.406   1.506 -14.431  0.00  0.00     0.137 C 
ATOM      7  N   UNL d   1       6.997   1.128 -14.572  0.00  0.00    -0.343 N 
ATOM      8  C   UNL d   1       6.090   1.801 -13.643  0.00  0.00     0.137 C 
ATOM      9  C   UNL d   1       6.306   3.318 -13.688  0.00  0.00     0.274 C 
BRANCH   7  10
ATOM     10  C   UNL d   1       6.542   0.246 -15.579  0.00  0.00     0.079 A 
ATOM     11  C   UNL d   1       5.408  -0.605 -15.400  0.00  0.00     0.110 A 
ATOM     12  C   UNL d   1       5.029  -1.481 -16.448  0.00  0.00     0.026 A 
ATOM     13  C   UNL d   1       5.757  -1.537 -17.650  0.00  0.00     0.002 A 
ATOM     14  C   UNL d   1       6.869  -0.699 -17.827  0.00  0.00     0.002 A 
ATOM     15  C   UNL d   1       7.241   0.199 -16.810  0.00  0.00     0.019 A 
BRANCH  11  16
ATOM     16  O   UNL d   1       4.731  -0.616 -14.192  0.00  0.00    -0.327 OA
ATOM     17  C   UNL d   1       3.324  -0.831 -14.222  0.00  0.00     0.181 C 
ENDBRANCH  11  16
ENDBRANCH   7  10
ENDBRANCH   3   4
ENDBRANCH   1   3
BRANCH   1  18
ATOM     18  C   UNL d   1       7.932   5.202 -10.866  0.00  0.00     0.061 C 
BRANCH  18  19
ATOM     19  C   UNL d   1       9.064   4.742  -9.934  0.00  0.00     0.132 C 
BRANCH  19  20
ATOM     20  N   UNL d   1       9.703   5.857  -9.252  0.00  0.00    -0.230 N 
ATOM     21  N   UNL d   1      10.237   6.910  -9.915  0.00  0.00    -0.064 NA
ATOM     22  N   UNL d   1      10.703   7.726  -9.021  0.00  0.00    -0.129 NA
ATOM     23  C   UNL d   1      10.501   7.190  -7.749  0.00  0.00     0.123 A 
ATOM     24  C   UNL d   1       9.872   5.989  -7.904  0.00  0.00     0.118 A 
BRANCH  23  25
ATOM     25  C   UNL d   1      10.952   7.870  -6.536  0.00  0.00     0.021 A 
ATOM     26  C   UNL d   1      11.334   7.134  -5.392  0.00  0.00     0.003 A 
ATOM     27  C   UNL d   1      11.782   7.782  -4.216  0.00  0.00     0.019 A 
ATOM     28  C   UNL d   1      11.806   9.209  -4.224  0.00  0.00     0.081 A 
ATOM     29  C   UNL d   1      12.235   7.335  -2.928  0.00  0.00     0.022 A 
ATOM     30  C   UNL d   1      11.415   9.953  -5.349  0.00  0.00     0.019 A 
ATOM     31  N   UNL d   1      12.257   9.578  -2.974  0.00  0.00    -0.244 NA
ATOM     32  C   UNL d   1      10.994   9.279  -6.507  0.00  0.00     0.003 A 
ATOM     33  C   UNL d   1      12.515   8.463  -2.200  0.00  0.00     0.099 A 
ENDBRANCH  23  25
ENDBRANCH  19  20
ENDBRANCH  18  19
ENDBRANCH   1  18
TORSDOF 8
