REMARK  4 active torsions:
REMARK  status: ('A' for Active; 'I' for Inactive)
REMARK       I    between atoms: N_10  and  C_11 
REMARK    1  A    between atoms: C_11  and  C_13 
REMARK    2  A    between atoms: C_13  and  N_14 
REMARK    3  A    between atoms: N_17  and  C_18 
REMARK    4  A    between atoms: C_18  and  C_19 
ROOT
ATOM      1  N   UNL d   1       9.663   4.712 -13.799  0.00  0.00     0.151 N 
ATOM      2  C   UNL d   1       8.929   3.724 -14.563  0.00  0.00     0.286 C 
ATOM      3  C   UNL d   1       9.466   3.587 -15.986  0.00  0.00     0.286 C 
ATOM      4  N   UNL d   1      10.883   3.194 -16.010  0.00  0.00     0.146 N 
ATOM      5  C   UNL d   1      11.642   4.181 -15.237  0.00  0.00     0.286 C 
ATOM      6  C   UNL d   1      11.081   4.323 -13.806  0.00  0.00     0.286 C 
ENDROOT
BRANCH   1   7
ATOM      7  C   UNL d   1       9.104   4.809 -12.447  0.00  0.00     0.337 C 
BRANCH   7   8
ATOM      8  C   UNL d   1       9.394   6.156 -11.757  0.00  0.00     0.271 C 
ATOM      9  N   UNL d   1       9.668   6.177 -10.433  0.00  0.00    -0.299 N 
ATOM     10  C   UNL d   1       9.496   5.028  -9.530  0.00  0.00     0.093 A 
ATOM     11  C   UNL d   1      10.215   7.267  -9.717  0.00  0.00     0.058 A 
ATOM     12  C   UNL d   1       8.014   4.766  -9.314  0.00  0.00     0.025 C 
ATOM     13  C   UNL d   1      10.158   5.447  -8.206  0.00  0.00     0.051 A 
ATOM     14  C   UNL d   1      10.538   6.872  -8.427  0.00  0.00    -0.004 A 
ATOM     15  C   UNL d   1      11.145   7.738  -7.504  0.00  0.00    -0.003 A 
ATOM     16  C   UNL d   1      11.407   9.058  -7.923  0.00  0.00    -0.000 A 
ATOM     17  C   UNL d   1      11.067   9.461  -9.229  0.00  0.00     0.002 A 
ATOM     18  C   UNL d   1      10.460   8.584 -10.140  0.00  0.00     0.017 A 
ATOM     19  O   UNL d   1       9.327   7.169 -12.452  0.00  0.00    -0.270 OA
ENDBRANCH   7   8
ENDBRANCH   1   7
BRANCH   4  20
ATOM     20  C   UNL d   1      11.402   3.059 -17.374  0.00  0.00     0.277 C 
BRANCH  20  21
ATOM     21  C   UNL d   1      11.049   1.748 -18.070  0.00  0.00     0.015 A 
ATOM     22  C   UNL d   1      12.082   0.847 -18.428  0.00  0.00     0.028 A 
ATOM     23  C   UNL d   1      11.774  -0.372 -19.070  0.00  0.00     0.142 A 
ATOM     24  C   UNL d   1      10.430  -0.706 -19.333  0.00  0.00     0.059 A 
ATOM     25  F   UNL d   1      12.773  -1.212 -19.447  0.00  0.00    -0.204 F 
ATOM     26  C   UNL d   1       9.402   0.185 -18.986  0.00  0.00     0.142 A 
ATOM     27  C   UNL d   1       9.709   1.422 -18.394  0.00  0.00     0.028 A 
ATOM     28  F   UNL d   1       8.113  -0.135 -19.235  0.00  0.00    -0.204 F 
ENDBRANCH  20  21
ENDBRANCH   4  20
TORSDOF 4
