REMARK  8 active torsions:
REMARK  status: ('A' for Active; 'I' for Inactive)
REMARK    1  A    between atoms: C_2  and  N_3 
REMARK    2  A    between atoms: C_2  and  C_21 
REMARK    3  A    between atoms: N_3  and  C_4 
REMARK    4  A    between atoms: C_8  and  N_9 
REMARK    5  A    between atoms: N_9  and  C_10 
REMARK    6  A    between atoms: C_10  and  C_11 
REMARK    7  A    between atoms: C_11  and  O_12 
REMARK    8  A    between atoms: O_12  and  C_13 
ROOT
ATOM      1  C   UNL d   1       6.155   2.443 -13.529  0.00  0.00     0.747 A 
ATOM      2  N   UNL d   1       5.461   1.760 -12.615  0.00  0.00    -0.058 NA
ATOM      3  C   UNL d   1       5.076   0.516 -12.965  0.00  0.00     0.121 A 
ATOM      4  C   UNL d   1       5.354  -0.068 -14.210  0.00  0.00     0.060 A 
ATOM      5  C   UNL d   1       6.089   0.739 -15.087  0.00  0.00     0.178 A 
ATOM      6  N   UNL d   1       6.474   1.994 -14.740  0.00  0.00    -0.041 NA
ENDROOT
BRANCH   5   7
ATOM      7  N   UNL d   1       6.412   0.251 -16.367  0.00  0.00    -0.250 NA
BRANCH   7   8
ATOM      8  C   UNL d   1       7.110   1.073 -17.354  0.00  0.00     0.160 C 
BRANCH   8   9
ATOM      9  C   UNL d   1       8.514   1.462 -16.896  0.00  0.00     0.175 C 
BRANCH   9  10
ATOM     10  O   UNL d   1       9.417   0.413 -17.137  0.00  0.00    -0.329 OA
BRANCH  10  11
ATOM     11  C   UNL d   1      10.555   0.615 -17.866  0.00  0.00     0.094 A 
ATOM     12  C   UNL d   1      10.942   1.853 -18.438  0.00  0.00     0.026 A 
ATOM     13  C   UNL d   1      12.085   1.927 -19.237  0.00  0.00     0.032 A 
ATOM     14  C   UNL d   1      12.874   0.784 -19.453  0.00  0.00     0.140 A 
ATOM     15  C   UNL d   1      12.513  -0.445 -18.863  0.00  0.00     0.032 A 
ATOM     16  F   UNL d   1      13.981   0.867 -20.221  0.00  0.00    -0.204 F 
ATOM     17  C   UNL d   1      11.357  -0.527 -18.062  0.00  0.00     0.026 A 
ENDBRANCH  10  11
ENDBRANCH   9  10
ENDBRANCH   8   9
ENDBRANCH   7   8
ENDBRANCH   5   7
BRANCH   1  18
ATOM     18  N   UNL d   1       6.585   3.712 -13.169  0.00  0.00    -0.083 NA
BRANCH  18  19
ATOM     19  C   UNL d   1       8.017   4.079 -13.029  0.00  0.00     0.144 C 
ATOM     20  C   UNL d   1       8.846   3.831 -14.284  0.00  0.00     0.032 C 
BRANCH  19  21
ATOM     21  C   UNL d   1       8.216   5.511 -12.594  0.00  0.00     0.001 C 
ATOM     22  C   UNL d   1       7.205   6.473 -12.792  0.00  0.00    -0.002 C 
ATOM     23  C   UNL d   1       7.435   7.798 -12.465  0.00  0.00    -0.000 C 
ATOM     24  C   UNL d   1       8.692   8.210 -11.977  0.00  0.00    -0.000 C 
ATOM     25  C   UNL d   1       9.634   7.244 -11.670  0.00  0.00    -0.000 C 
ATOM     26  C   UNL d   1       9.437   5.899 -12.002  0.00  0.00    -0.002 C 
ENDBRANCH  19  21
ENDBRANCH  18  19
ENDBRANCH   1  18
TORSDOF 8
