REMARK  5 active torsions:
REMARK  status: ('A' for Active; 'I' for Inactive)
REMARK    1  A    between atoms: N_10  and  C_11 
REMARK    2  A    between atoms: C_11  and  C_12 
REMARK    3  A    between atoms: C_12  and  C_13 
REMARK    4  A    between atoms: C_13  and  N_14 
REMARK    5  A    between atoms: C_17  and  N_18 
ROOT
ATOM      1  N   UNL d   1       9.351   5.880 -10.371  0.00  0.00     0.137 N 
ATOM      2  C   UNL d   1       8.278   6.367 -11.243  0.00  0.00     0.252 C 
ATOM      3  C   UNL d   1       8.520   5.916 -12.679  0.00  0.00     0.058 C 
ATOM      4  C   UNL d   1       8.626   4.384 -12.758  0.00  0.00     0.094 C 
ATOM      5  C   UNL d   1       9.672   3.894 -11.755  0.00  0.00     0.058 C 
ATOM      6  C   UNL d   1       9.380   4.428 -10.349  0.00  0.00     0.252 C 
ENDROOT
BRANCH   1   7
ATOM      7  C   UNL d   1       9.130   6.295  -8.985  0.00  0.00     0.252 C 
BRANCH   7   8
ATOM      8  C   UNL d   1      10.413   6.970  -8.484  0.00  0.00     0.060 C 
BRANCH   8   9
ATOM      9  C   UNL d   1      10.615   6.727  -6.943  0.00  0.00     0.113 C 
BRANCH   9  10
ATOM     10  N   UNL d   1      11.045   7.865  -6.114  0.00  0.00    -0.279 N 
ATOM     11  C   UNL d   1      11.096   9.162  -6.459  0.00  0.00     0.350 A 
ATOM     12  O   UNL d   1      10.878   9.610  -7.576  0.00  0.00    -0.244 OA
ATOM     13  N   UNL d   1      11.460   9.922  -5.419  0.00  0.00    -0.191 NA
ATOM     14  C   UNL d   1      11.757   9.072  -4.355  0.00  0.00     0.102 A 
ATOM     15  C   UNL d   1      11.465   7.789  -4.779  0.00  0.00     0.082 A 
ATOM     16  C   UNL d   1      12.236   9.357  -3.081  0.00  0.00     0.021 A 
ATOM     17  C   UNL d   1      11.654   6.687  -3.945  0.00  0.00     0.019 A 
ATOM     18  C   UNL d   1      12.137   6.944  -2.645  0.00  0.00     0.002 A 
ATOM     19  C   UNL d   1      12.428   8.262  -2.213  0.00  0.00     0.002 A 
ENDBRANCH   9  10
ENDBRANCH   8   9
ENDBRANCH   7   8
ENDBRANCH   1   7
BRANCH   4  20
ATOM     20  N   UNL d   1       8.976   3.922 -14.106  0.00  0.00    -0.281 N 
ATOM     21  C   UNL d   1       8.283   2.908 -14.790  0.00  0.00     0.082 A 
ATOM     22  C   UNL d   1       8.907   2.755 -16.013  0.00  0.00     0.103 A 
ATOM     23  C   UNL d   1       7.143   2.154 -14.445  0.00  0.00     0.020 A 
ATOM     24  N   UNL d   1       9.965   3.662 -16.044  0.00  0.00    -0.191 NA
ATOM     25  C   UNL d   1       8.452   1.856 -16.986  0.00  0.00     0.032 A 
ATOM     26  C   UNL d   1      10.030   4.322 -14.874  0.00  0.00     0.350 A 
ATOM     27  O   UNL d   1      10.917   5.118 -14.573  0.00  0.00    -0.244 OA
ATOM     28  C   UNL d   1       7.315   1.083 -16.660  0.00  0.00     0.059 A 
ATOM     29 CL   UNL d   1       6.700  -0.037 -17.815  0.00  0.00    -0.082 Cl
ATOM     30  C   UNL d   1       6.677   1.223 -15.402  0.00  0.00     0.013 A 
ENDBRANCH   4  20
TORSDOF 5
