REMARK  5 active torsions:
REMARK  status: ('A' for Active; 'I' for Inactive)
REMARK    1  A    between atoms: C_4  and  C_5 
REMARK    2  A    between atoms: N_16  and  C_17 
REMARK    3  A    between atoms: C_17  and  C_18 
REMARK    4  A    between atoms: C_18  and  N_19 
REMARK    5  A    between atoms: C_22  and  C_23 
ROOT
ATOM      1  C   UNL d   1       9.246   5.357 -11.213  0.00  0.00     0.147 C 
ENDROOT
BRANCH   1   2
ATOM      2  N   UNL d   1       8.794   4.748 -12.460  0.00  0.00    -0.268 N 
ATOM      3  C   UNL d   1       7.590   4.192 -12.644  0.00  0.00     0.240 A 
ATOM      4  O   UNL d   1       6.683   4.080 -11.825  0.00  0.00    -0.272 OA
ATOM      5  C   UNL d   1       7.438   3.601 -14.007  0.00  0.00     0.102 A 
ATOM      6  C   UNL d   1       8.797   3.934 -14.663  0.00  0.00     0.113 A 
ATOM      7  C   UNL d   1       9.543   4.678 -13.567  0.00  0.00     0.244 A 
ATOM      8  O   UNL d   1      10.672   5.130 -13.708  0.00  0.00    -0.272 OA
BRANCH   6   9
ATOM      9  C   UNL d   1       9.583   2.720 -15.106  0.00  0.00     0.007 A 
ATOM     10  C   UNL d   1      10.465   2.635 -16.235  0.00  0.00     0.016 A 
ATOM     11  C   UNL d   1      10.975   1.300 -16.296  0.00  0.00     0.081 A 
ATOM     12  C   UNL d   1      10.888   3.539 -17.239  0.00  0.00     0.001 A 
ATOM     13  N   UNL d   1      10.419   0.637 -15.224  0.00  0.00    -0.244 NA
ATOM     14  C   UNL d   1      11.855   0.890 -17.309  0.00  0.00     0.019 A 
ATOM     15  C   UNL d   1       9.590   1.483 -14.518  0.00  0.00     0.095 A 
ATOM     16  C   UNL d   1      12.262   1.812 -18.289  0.00  0.00     0.002 A 
ATOM     17  C   UNL d   1      11.778   3.137 -18.257  0.00  0.00     0.000 A 
ENDBRANCH   6   9
ENDBRANCH   1   2
BRANCH   1  18
ATOM     18  C   UNL d   1       9.319   6.895 -11.300  0.00  0.00     0.275 C 
BRANCH  18  19
ATOM     19  N   UNL d   1       9.682   7.532 -10.021  0.00  0.00     0.139 N 
ATOM     20  C   UNL d   1       9.116   6.841  -8.863  0.00  0.00     0.251 C 
ATOM     21  C   UNL d   1       9.299   7.639  -7.582  0.00  0.00     0.040 C 
ATOM     22  C   UNL d   1      10.796   7.864  -7.374  0.00  0.00     0.028 C 
ATOM     23  C   UNL d   1      11.401   8.547  -8.608  0.00  0.00     0.040 C 
ATOM     24  C   UNL d   1      11.111   7.750  -9.894  0.00  0.00     0.251 C 
BRANCH  22  25
ATOM     25  C   UNL d   1      11.009   8.648  -6.129  0.00  0.00    -0.002 A 
ATOM     26  C   UNL d   1      11.456   8.185  -4.846  0.00  0.00     0.017 A 
ATOM     27  C   UNL d   1      11.496   9.311  -3.965  0.00  0.00     0.081 A 
ATOM     28  C   UNL d   1      11.855   6.932  -4.309  0.00  0.00     0.031 A 
ATOM     29  N   UNL d   1      11.058  10.386  -4.711  0.00  0.00    -0.244 NA
ATOM     30  C   UNL d   1      11.903   9.216  -2.643  0.00  0.00     0.021 A 
ATOM     31  C   UNL d   1      10.798   9.991  -5.999  0.00  0.00     0.095 A 
ATOM     32  C   UNL d   1      12.300   7.968  -2.140  0.00  0.00     0.031 A 
ATOM     33  C   UNL d   1      12.316   6.847  -2.980  0.00  0.00     0.140 A 
ATOM     34  F   UNL d   1      12.861   5.725  -2.487  0.00  0.00    -0.204 F 
ENDBRANCH  22  25
ENDBRANCH  18  19
ENDBRANCH   1  18
TORSDOF 5
