REMARK  10 active torsions:
REMARK  status: ('A' for Active; 'I' for Inactive)
REMARK    1  A    between atoms: O_2  and  C_3 
REMARK    2  A    between atoms: C_9  and  C_10 
REMARK    3  A    between atoms: C_12  and  C_13 
REMARK    4  A    between atoms: C_13  and  N_14 
REMARK    5  A    between atoms: N_14  and  C_15 
REMARK    6  A    between atoms: C_15  and  C_16 
REMARK    7  A    between atoms: C_16  and  C_17 
REMARK    8  A    between atoms: C_17  and  C_18 
REMARK    9  A    between atoms: C_18  and  O_19 
REMARK   10  A    between atoms: O_19  and  C_20 
ROOT
ATOM      1  C   UNL d   1       6.100   4.672 -13.108  0.00  0.00     0.290 C 
ENDROOT
BRANCH   1   2
ATOM      2  N   UNL d   1       6.936   5.439 -12.196  0.00  0.00     0.339 N 
BRANCH   2   3
ATOM      3  C   UNL d   1       7.818   6.349 -12.925  0.00  0.00     0.290 C 
BRANCH   3   4
ATOM      4  C   UNL d   1       8.661   7.124 -11.951  0.00  0.00     0.041 A 
ATOM      5  C   UNL d   1       9.991   6.674 -11.457  0.00  0.00     0.026 A 
ATOM      6  C   UNL d   1       9.855   7.852 -12.396  0.00  0.00     0.007 A 
BRANCH   5   7
ATOM      7  C   UNL d   1      10.340   6.928 -10.035  0.00  0.00     0.002 A 
ATOM      8  C   UNL d   1       9.734   6.183  -9.016  0.00  0.00     0.090 A 
ATOM      9  C   UNL d   1      10.098   6.421  -7.663  0.00  0.00     0.026 A 
ATOM     10  C   UNL d   1      11.076   7.380  -7.346  0.00  0.00     0.032 A 
ATOM     11  C   UNL d   1      11.712   8.074  -8.382  0.00  0.00     0.140 A 
ATOM     12  F   UNL d   1      12.692   8.948  -8.063  0.00  0.00    -0.204 F 
ATOM     13  C   UNL d   1      11.336   7.868  -9.713  0.00  0.00     0.027 A 
BRANCH   8  14
ATOM     14  O   UNL d   1       8.819   5.240  -9.429  0.00  0.00    -0.328 OA
ATOM     15  C   UNL d   1       8.277   4.395  -8.445  0.00  0.00     0.181 C 
ENDBRANCH   8  14
ENDBRANCH   5   7
ENDBRANCH   3   4
ENDBRANCH   2   3
ENDBRANCH   1   2
BRANCH   1  16
ATOM     16  C   UNL d   1       5.758   3.374 -12.350  0.00  0.00     0.041 C 
BRANCH  16  17
ATOM     17  C   UNL d   1       5.126   2.338 -13.247  0.00  0.00     0.035 C 
BRANCH  17  18
ATOM     18  C   UNL d   1       5.421   0.829 -12.967  0.00  0.00     0.149 C 
BRANCH  18  19
ATOM     19  O   UNL d   1       4.835   0.017 -13.998  0.00  0.00    -0.331 OA
BRANCH  19  20
ATOM     20  C   UNL d   1       5.430  -0.049 -15.248  0.00  0.00     0.096 A 
ATOM     21  C   UNL d   1       4.787  -0.812 -16.266  0.00  0.00     0.043 A 
ATOM     22  C   UNL d   1       5.352  -0.878 -17.560  0.00  0.00     0.082 A 
ATOM     23  C   UNL d   1       6.565  -0.212 -17.843  0.00  0.00    -0.004 A 
ATOM     24  N   UNL d   1       4.714  -1.631 -18.579  0.00  0.00    -0.212 NA
ATOM     25  C   UNL d   1       7.198   0.546 -16.842  0.00  0.00    -0.001 A 
ATOM     26  C   UNL d   1       7.200  -0.350 -19.207  0.00  0.00     0.038 C 
ATOM     27  C   UNL d   1       6.636   0.629 -15.568  0.00  0.00     0.024 A 
ATOM     28  C   UNL d   1       6.136  -0.562 -20.296  0.00  0.00     0.095 C 
ATOM     29  C   UNL d   1       5.076  -1.587 -19.869  0.00  0.00     0.256 C 
ATOM     30  O   UNL d   1       4.581  -2.338 -20.708  0.00  0.00    -0.270 OA
ENDBRANCH  19  20
ENDBRANCH  18  19
ENDBRANCH  17  18
ENDBRANCH  16  17
ENDBRANCH   1  16
TORSDOF 10
