REMARK  6 active torsions:
REMARK  status: ('A' for Active; 'I' for Inactive)
REMARK    1  A    between atoms: C_5  and  S_6 
REMARK    2  A    between atoms: S_6  and  C_7 
REMARK    3  A    between atoms: C_7  and  C_8 
REMARK    4  A    between atoms: C_8  and  C_9 
REMARK    5  A    between atoms: C_9  and  N_10 
REMARK    6  A    between atoms: C_13  and  C_14 
ROOT
ATOM      1  N   UNL d   1       9.595   3.508 -14.113  0.00  0.00     0.137 N 
ATOM      2  C   UNL d   1      10.771   2.642 -14.190  0.00  0.00     0.251 C 
ATOM      3  C   UNL d   1      10.631   1.685 -15.373  0.00  0.00     0.040 C 
ATOM      4  C   UNL d   1      10.475   2.433 -16.710  0.00  0.00     0.026 C 
ATOM      5  C   UNL d   1       9.331   3.453 -16.558  0.00  0.00     0.040 C 
ATOM      6  C   UNL d   1       9.519   4.338 -15.316  0.00  0.00     0.251 C 
ENDROOT
BRANCH   1   7
ATOM      7  C   UNL d   1       9.693   4.351 -12.926  0.00  0.00     0.251 C 
BRANCH   7   8
ATOM      8  C   UNL d   1       8.306   4.860 -12.495  0.00  0.00     0.047 C 
BRANCH   8   9
ATOM      9  C   UNL d   1       8.363   5.883 -11.355  0.00  0.00     0.064 C 
BRANCH   9  10
ATOM     10  S   UNL d   1       9.062   5.192  -9.827  0.00  0.00    -0.114 SA
BRANCH  10  11
ATOM     11  C   UNL d   1       9.627   6.572  -8.881  0.00  0.00     0.025 A 
ATOM     12  C   UNL d   1       9.063   6.831  -7.615  0.00  0.00     0.009 A 
ATOM     13  C   UNL d   1       9.529   7.917  -6.847  0.00  0.00     0.030 A 
ATOM     14  C   UNL d   1      10.566   8.734  -7.339  0.00  0.00     0.140 A 
ATOM     15  F   UNL d   1      11.024   9.768  -6.593  0.00  0.00    -0.204 F 
ATOM     16  C   UNL d   1      11.131   8.474  -8.603  0.00  0.00     0.030 A 
ATOM     17  C   UNL d   1      10.659   7.393  -9.374  0.00  0.00     0.009 A 
ENDBRANCH  10  11
ENDBRANCH   9  10
ENDBRANCH   8   9
ENDBRANCH   7   8
ENDBRANCH   1   7
BRANCH   4  18
ATOM     18  C   UNL d   1      10.241   1.496 -17.905  0.00  0.00    -0.022 A 
ATOM     19  C   UNL d   1      10.250   0.085 -17.759  0.00  0.00    -0.003 A 
ATOM     20  C   UNL d   1      10.008  -0.748 -18.869  0.00  0.00     0.011 A 
ATOM     21  C   UNL d   1       9.758  -0.190 -20.139  0.00  0.00     0.058 A 
ATOM     22  C   UNL d   1       9.759   1.207 -20.298  0.00  0.00     0.011 A 
ATOM     23 CL   UNL d   1       9.449  -1.214 -21.495  0.00  0.00    -0.082 Cl
ATOM     24  C   UNL d   1      10.005   2.045 -19.189  0.00  0.00    -0.003 A 
ENDBRANCH   4  18
TORSDOF 6
