REMARK  5 active torsions:
REMARK  status: ('A' for Active; 'I' for Inactive)
REMARK    1  A    between atoms: C_2  and  C_3 
REMARK    2  A    between atoms: C_6  and  C_7 
REMARK    3  A    between atoms: C_7  and  N_8 
REMARK    4  A    between atoms: N_11  and  C_12 
REMARK    5  A    between atoms: C_12  and  C_13 
REMARK       I    between atoms: C_13  and  N_15 
ROOT
ATOM      1  N   UNL d   1       8.251   4.518 -11.982  0.00  0.00     0.146 N 
ATOM      2  C   UNL d   1       7.969   5.412 -13.109  0.00  0.00     0.286 C 
ATOM      3  C   UNL d   1       8.395   4.785 -14.436  0.00  0.00     0.286 C 
ATOM      4  N   UNL d   1       9.805   4.408 -14.402  0.00  0.00     0.151 N 
ATOM      5  C   UNL d   1      10.077   3.485 -13.307  0.00  0.00     0.286 C 
ATOM      6  C   UNL d   1       9.637   4.085 -11.988  0.00  0.00     0.286 C 
ENDROOT
BRANCH   4   7
ATOM      7  C   UNL d   1      10.280   3.918 -15.694  0.00  0.00     0.337 C 
BRANCH   7   8
ATOM      8  C   UNL d   1       9.527   2.726 -16.295  0.00  0.00     0.271 C 
ATOM      9  O   UNL d   1       9.245   1.755 -15.578  0.00  0.00    -0.270 OA
ATOM     10  N   UNL d   1       9.215   2.723 -17.624  0.00  0.00    -0.299 N 
ATOM     11  C   UNL d   1       9.742   3.713 -18.606  0.00  0.00     0.093 A 
ATOM     12  C   UNL d   1       8.308   1.806 -18.273  0.00  0.00     0.058 A 
ATOM     13  C   UNL d   1       9.142   3.271 -19.969  0.00  0.00     0.051 A 
ATOM     14  C   UNL d   1      11.289   3.741 -18.673  0.00  0.00     0.025 C 
ATOM     15  C   UNL d   1       8.256   2.107 -19.603  0.00  0.00    -0.004 A 
ATOM     16  C   UNL d   1       7.419   1.386 -20.483  0.00  0.00    -0.003 A 
ATOM     17  C   UNL d   1       6.626   0.339 -19.956  0.00  0.00    -0.000 A 
ATOM     18  C   UNL d   1       6.693   0.039 -18.578  0.00  0.00     0.002 A 
ATOM     19  C   UNL d   1       7.546   0.785 -17.719  0.00  0.00     0.017 A 
ENDBRANCH   7   8
ENDBRANCH   4   7
BRANCH   1  20
ATOM     20  C   UNL d   1       7.859   5.079 -10.692  0.00  0.00     0.277 C 
BRANCH  20  21
ATOM     21  C   UNL d   1       8.884   5.987 -10.010  0.00  0.00     0.011 A 
ATOM     22  C   UNL d   1       9.283   5.722  -8.690  0.00  0.00    -0.003 A 
ATOM     23  C   UNL d   1      10.261   6.526  -8.063  0.00  0.00    -0.004 A 
ATOM     24  C   UNL d   1      10.846   7.594  -8.783  0.00  0.00    -0.022 A 
ATOM     25  C   UNL d   1      10.452   7.875 -10.089  0.00  0.00    -0.004 A 
ATOM     26  C   UNL d   1       9.455   7.082 -10.710  0.00  0.00    -0.003 A 
BRANCH  24  27
ATOM     27  C   UNL d   1      11.905   8.471  -8.157  0.00  0.00     0.026 C 
ATOM     28  C   UNL d   1      11.354   9.234  -6.948  0.00  0.00     0.005 C 
ENDBRANCH  24  27
ENDBRANCH  20  21
ENDBRANCH   1  20
TORSDOF 5
