REMARK  7 active torsions:
REMARK  status: ('A' for Active; 'I' for Inactive)
REMARK    1  A    between atoms: S_2  and  C_4 
REMARK    2  A    between atoms: S_2  and  C_23 
REMARK    3  A    between atoms: C_4  and  C_5 
REMARK    4  A    between atoms: N_8  and  C_9 
REMARK    5  A    between atoms: C_9  and  C_10 
REMARK    6  A    between atoms: C_10  and  C_11 
REMARK    7  A    between atoms: C_11  and  C_12 
ROOT
ATOM      1  C   UNL d   1       7.233   4.540 -12.146  0.00  0.00     0.052 C 
ATOM      2  C   UNL d   1       5.854   3.926 -11.934  0.00  0.00     0.038 C 
ATOM      3  C   UNL d   1       5.583   3.115 -13.198  0.00  0.00     0.250 C 
ATOM      4  N   UNL d   1       6.926   2.806 -13.689  0.00  0.00     0.137 N 
ATOM      5  C   UNL d   1       7.649   4.058 -13.525  0.00  0.00     0.251 C 
ENDROOT
BRANCH   1   6
ATOM      6  C   UNL d   1       7.243   6.072 -12.013  0.00  0.00     0.129 C 
BRANCH   6   7
ATOM      7  S   UNL d   1       8.937   6.801 -12.027  0.00  0.00     0.190 S 
ATOM      8  O   UNL d   1       9.855   5.896 -12.756  0.00  0.00    -0.222 OA
ATOM      9  O   UNL d   1       8.825   8.216 -12.435  0.00  0.00    -0.222 OA
BRANCH   7  10
ATOM     10  C   UNL d   1       9.459   6.805 -10.328  0.00  0.00     0.084 A 
ATOM     11  C   UNL d   1      10.088   7.957  -9.786  0.00  0.00     0.011 A 
ATOM     12  C   UNL d   1      10.473   7.979  -8.426  0.00  0.00     0.001 A 
ATOM     13  C   UNL d   1      10.253   6.837  -7.616  0.00  0.00     0.000 A 
ATOM     14  C   UNL d   1      11.079   9.142  -7.876  0.00  0.00     0.000 A 
ATOM     15  C   UNL d   1       9.659   5.683  -8.184  0.00  0.00     0.001 A 
ATOM     16  C   UNL d   1      10.633   6.871  -6.256  0.00  0.00     0.000 A 
ATOM     17  C   UNL d   1       9.272   5.659  -9.530  0.00  0.00     0.011 A 
ATOM     18  C   UNL d   1      11.229   8.032  -5.701  0.00  0.00     0.000 A 
ATOM     19  C   UNL d   1      11.456   9.161  -6.518  0.00  0.00     0.000 A 
ENDBRANCH   7  10
ENDBRANCH   6   7
ENDBRANCH   1   6
BRANCH   4  20
ATOM     20  C   UNL d   1       6.908   2.339 -15.063  0.00  0.00     0.251 C 
BRANCH  20  21
ATOM     21  C   UNL d   1       8.309   2.248 -15.712  0.00  0.00     0.042 C 
BRANCH  21  22
ATOM     22  C   UNL d   1       9.068   0.968 -15.301  0.00  0.00     0.050 C 
BRANCH  22  23
ATOM     23  C   UNL d   1      10.009   0.516 -16.383  0.00  0.00     0.088 A 
ATOM     24  C   UNL d   1      11.057   1.198 -17.040  0.00  0.00     0.041 A 
ATOM     25  C   UNL d   1      11.595   0.364 -18.024  0.00  0.00     0.129 A 
ATOM     26  C   UNL d   1      11.580   2.501 -16.873  0.00  0.00     0.006 A 
ATOM     27  O   UNL d   1      10.856  -0.806 -17.956  0.00  0.00    -0.211 OA
ATOM     28  C   UNL d   1      12.661   0.746 -18.849  0.00  0.00     0.057 A 
ATOM     29  N   UNL d   1       9.867  -0.688 -16.940  0.00  0.00    -0.131 NA
ATOM     30  C   UNL d   1      13.194   2.042 -18.676  0.00  0.00     0.142 A 
ATOM     31  F   UNL d   1      14.241   2.447 -19.434  0.00  0.00    -0.204 F 
ATOM     32  C   UNL d   1      12.651   2.914 -17.700  0.00  0.00     0.030 A 
ENDBRANCH  22  23
ENDBRANCH  21  22
ENDBRANCH  20  21
ENDBRANCH   4  20
TORSDOF 7
