REMARK  6 active torsions:
REMARK  status: ('A' for Active; 'I' for Inactive)
REMARK    1  A    between atoms: C_2  and  C_3 
REMARK    2  A    between atoms: C_2  and  C_19 
REMARK    3  A    between atoms: C_3  and  C_4 
REMARK    4  A    between atoms: C_4  and  C_5 
REMARK    5  A    between atoms: C_5  and  N_6 
REMARK    6  A    between atoms: C_9  and  C_11 
ROOT
ATOM      1  N   UNL d   1       9.208   6.407 -10.136  0.00  0.00     0.140 N 
ATOM      2  C   UNL d   1       9.816   6.812 -11.360  0.00  0.00     0.253 C 
ATOM      3  C   UNL d   1       8.724   6.724 -12.421  0.00  0.00     0.072 C 
ATOM      4  C   UNL d   1       7.759   5.651 -11.870  0.00  0.00     0.179 C 
ATOM      5  O   UNL d   1       6.535   6.327 -11.642  0.00  0.00    -0.219 OA
ATOM      6  C   UNL d   1       8.387   5.278 -10.507  0.00  0.00     0.284 C 
ENDROOT
BRANCH   1   7
ATOM      7  C   UNL d   1      10.148   6.159  -9.078  0.00  0.00     0.251 C 
BRANCH   7   8
ATOM      8  C   UNL d   1       9.478   6.156  -7.707  0.00  0.00     0.043 C 
BRANCH   8   9
ATOM      9  C   UNL d   1       9.169   7.576  -7.160  0.00  0.00     0.071 C 
BRANCH   9  10
ATOM     10  C   UNL d   1      10.406   8.435  -6.846  0.00  0.00     0.173 C 
ATOM     11  O   UNL d   1      10.837   9.207  -7.682  0.00  0.00    -0.291 OA
BRANCH  10  12
ATOM     12  C   UNL d   1      10.989   8.339  -5.471  0.00  0.00     0.035 A 
ATOM     13  C   UNL d   1      11.313   9.520  -4.756  0.00  0.00     0.005 A 
ATOM     14  C   UNL d   1      11.870   9.425  -3.457  0.00  0.00     0.030 A 
ATOM     15  C   UNL d   1      12.145   8.164  -2.892  0.00  0.00     0.140 A 
ATOM     16  C   UNL d   1      11.863   6.998  -3.609  0.00  0.00     0.030 A 
ATOM     17  F   UNL d   1      12.652   8.067  -1.642  0.00  0.00    -0.204 F 
ATOM     18  C   UNL d   1      11.287   7.084  -4.894  0.00  0.00     0.005 A 
ENDBRANCH  10  12
ENDBRANCH   9  10
ENDBRANCH   8   9
ENDBRANCH   7   8
ENDBRANCH   1   7
BRANCH   4  19
ATOM     19  C   UNL d   1       7.627   4.413 -12.769  0.00  0.00     0.007 A 
ATOM     20  C   UNL d   1       8.754   3.879 -13.431  0.00  0.00    -0.001 A 
ATOM     21  C   UNL d   1       8.640   2.776 -14.290  0.00  0.00     0.011 A 
ATOM     22  C   UNL d   1       7.386   2.150 -14.458  0.00  0.00     0.058 A 
ATOM     23  C   UNL d   1       6.268   2.645 -13.762  0.00  0.00     0.011 A 
ATOM     24 CL   UNL d   1       7.234   0.780 -15.494  0.00  0.00    -0.082 Cl
ATOM     25  C   UNL d   1       6.371   3.768 -12.931  0.00  0.00    -0.001 A 
ENDBRANCH   4  19
TORSDOF 6
