REMARK  6 active torsions:
REMARK  status: ('A' for Active; 'I' for Inactive)
REMARK    1  A    between atoms: N_10  and  C_11 
REMARK    2  A    between atoms: C_11  and  C_12 
REMARK    3  A    between atoms: C_12  and  C_13 
REMARK    4  A    between atoms: C_13  and  C_14 
REMARK    5  A    between atoms: C_14  and  N_15 
REMARK    6  A    between atoms: N_18  and  C_19 
ROOT
ATOM      1  C   UNL d   1       9.020   6.630 -10.877  0.00  0.00     0.037 C 
ENDROOT
BRANCH   1   2
ATOM      2  C   UNL d   1       9.158   5.470 -11.866  0.00  0.00     0.027 C 
BRANCH   2   3
ATOM      3  C   UNL d   1       8.045   5.436 -12.940  0.00  0.00     0.109 C 
BRANCH   3   4
ATOM      4  N   UNL d   1       7.885   4.118 -13.574  0.00  0.00    -0.299 N 
ATOM      5  C   UNL d   1       6.726   3.417 -13.642  0.00  0.00     0.242 A 
ATOM      6  O   UNL d   1       5.624   3.775 -13.222  0.00  0.00    -0.272 OA
ATOM      7  C   UNL d   1       6.937   2.064 -14.339  0.00  0.00     0.116 A 
ATOM      8  C   UNL d   1       8.411   2.164 -14.642  0.00  0.00     0.003 A 
ATOM      9  C   UNL d   1       8.919   3.381 -14.195  0.00  0.00     0.059 A 
ATOM     10  C   UNL d   1       9.225   1.216 -15.291  0.00  0.00    -0.002 A 
ATOM     11  C   UNL d   1      10.274   3.717 -14.401  0.00  0.00     0.017 A 
ATOM     12  C   UNL d   1      11.108   2.767 -15.021  0.00  0.00     0.002 A 
ATOM     13  C   UNL d   1      10.594   1.527 -15.470  0.00  0.00    -0.000 A 
ENDBRANCH   3   4
ENDBRANCH   2   3
ENDBRANCH   1   2
BRANCH   1  14
ATOM     14  C   UNL d   1      10.344   6.920 -10.140  0.00  0.00     0.251 C 
BRANCH  14  15
ATOM     15  N   UNL d   1      10.160   7.704  -8.930  0.00  0.00     0.141 N 
ATOM     16  C   UNL d   1      11.441   8.281  -8.498  0.00  0.00     0.274 C 
ATOM     17  C   UNL d   1      11.251   9.148  -7.233  0.00  0.00     0.137 C 
ATOM     18  N   UNL d   1      10.617   8.356  -6.192  0.00  0.00    -0.344 N 
ATOM     19  C   UNL d   1       9.408   7.636  -6.572  0.00  0.00     0.137 C 
ATOM     20  C   UNL d   1       9.650   6.834  -7.856  0.00  0.00     0.274 C 
BRANCH  18  21
ATOM     21  C   UNL d   1      11.199   8.204  -4.937  0.00  0.00     0.056 A 
ATOM     22  C   UNL d   1      11.458   6.917  -4.397  0.00  0.00     0.017 A 
ATOM     23  C   UNL d   1      12.019   6.787  -3.113  0.00  0.00     0.002 A 
ATOM     24  C   UNL d   1      12.298   7.929  -2.345  0.00  0.00     0.000 A 
ATOM     25  C   UNL d   1      12.039   9.207  -2.871  0.00  0.00     0.002 A 
ATOM     26  C   UNL d   1      11.499   9.349  -4.155  0.00  0.00     0.017 A 
ENDBRANCH  18  21
ENDBRANCH  14  15
ENDBRANCH   1  14
TORSDOF 6
