REMARK  2 active torsions:
REMARK  status: ('A' for Active; 'I' for Inactive)
REMARK    1  A    between atoms: O_2  and  C_3 
REMARK    2  A    between atoms: C_8  and  N_9 
ROOT
ATOM      1  N   UNL d   1      10.389   7.065  -6.154  0.00  0.00    -0.347 N 
ATOM      2  C   UNL d   1      10.918   6.090  -7.085  0.00  0.00     0.102 C 
ATOM      3  C   UNL d   1      10.865   6.635  -8.505  0.00  0.00     0.024 C 
ATOM      4  C   UNL d   1       9.478   7.141  -8.929  0.00  0.00     0.008 C 
ATOM      5  C   UNL d   1       9.574   7.713 -10.385  0.00  0.00     0.038 C 
ATOM      6  C   UNL d   1       9.748   6.612 -11.435  0.00  0.00     0.290 C 
ATOM      7  N   UNL d   1       8.710   5.596 -11.363  0.00  0.00     0.339 N 
ATOM      8  C   UNL d   1       8.759   4.909 -10.065  0.00  0.00     0.290 C 
ATOM      9  C   UNL d   1       8.470   5.928  -8.963  0.00  0.00     0.038 C 
ATOM     10  C   UNL d   1       9.123   8.239  -7.893  0.00  0.00     0.024 C 
ATOM     11  C   UNL d   1       9.117   7.685  -6.472  0.00  0.00     0.102 C 
ENDROOT
BRANCH   1  12
ATOM     12  C   UNL d   1      11.165   7.530  -5.093  0.00  0.00     0.079 A 
ATOM     13  C   UNL d   1      11.577   8.874  -5.021  0.00  0.00     0.110 A 
ATOM     14  C   UNL d   1      12.309   9.280  -3.864  0.00  0.00     0.026 A 
ATOM     15  C   UNL d   1      12.614   8.393  -2.832  0.00  0.00     0.002 A 
ATOM     16  C   UNL d   1      12.203   7.058  -2.914  0.00  0.00     0.002 A 
ATOM     17  C   UNL d   1      11.489   6.639  -4.061  0.00  0.00     0.019 A 
BRANCH  13  18
ATOM     18  O   UNL d   1      11.265   9.704  -6.071  0.00  0.00    -0.327 OA
ATOM     19  C   UNL d   1      11.813  10.995  -6.096  0.00  0.00     0.181 C 
ENDBRANCH  13  18
ENDBRANCH   1  12
TORSDOF 2
