REMARK  6 active torsions:
REMARK  status: ('A' for Active; 'I' for Inactive)
REMARK       I    between atoms: C_2  and  N_3 
REMARK    1  A    between atoms: C_2  and  C_22 
REMARK    2  A    between atoms: N_3  and  C_4 
REMARK    3  A    between atoms: C_4  and  C_5 
REMARK    4  A    between atoms: C_6  and  C_7 
REMARK    5  A    between atoms: C_7  and  N_8 
REMARK    6  A    between atoms: N_11  and  C_12 
ROOT
ATOM      1  N   UNL d   1       6.838   4.115 -12.660  0.00  0.00     0.145 N 
ATOM      2  C   UNL d   1       5.644   3.462 -13.195  0.00  0.00     0.275 C 
ATOM      3  C   UNL d   1       5.953   2.014 -13.619  0.00  0.00     0.137 C 
ATOM      4  N   UNL d   1       7.068   1.966 -14.542  0.00  0.00    -0.344 N 
ATOM      5  C   UNL d   1       8.257   2.697 -14.131  0.00  0.00     0.137 C 
ATOM      6  C   UNL d   1       7.895   4.129 -13.678  0.00  0.00     0.275 C 
ENDROOT
BRANCH   1   7
ATOM      7  C   UNL d   1       6.455   5.472 -12.269  0.00  0.00     0.276 C 
BRANCH   7   8
ATOM      8  C   UNL d   1       7.649   6.267 -11.809  0.00  0.00     0.006 C 
ATOM      9  C   UNL d   1       8.053   7.410 -12.391  0.00  0.00    -0.003 C 
BRANCH   9  10
ATOM     10  C   UNL d   1       9.245   8.240 -11.954  0.00  0.00     0.155 C 
BRANCH  10  11
ATOM     11  N   UNL d   1       9.481   8.092 -10.525  0.00  0.00    -0.229 NA
ATOM     12  C   UNL d   1      10.610   8.350  -9.864  0.00  0.00     0.275 C 
ATOM     13  O   UNL d   1      11.627   8.820 -10.390  0.00  0.00    -0.266 OA
BRANCH  12  14
ATOM     14  C   UNL d   1      10.589   8.101  -8.386  0.00  0.00     0.058 A 
ATOM     15  C   UNL d   1       9.761   7.089  -7.837  0.00  0.00     0.005 A 
ATOM     16  C   UNL d   1       9.786   6.840  -6.454  0.00  0.00     0.000 A 
ATOM     17  C   UNL d   1      10.651   7.567  -5.614  0.00  0.00     0.000 A 
ATOM     18  C   UNL d   1      11.461   8.581  -6.147  0.00  0.00     0.000 A 
ATOM     19  C   UNL d   1      11.445   8.826  -7.532  0.00  0.00     0.005 A 
ENDBRANCH  12  14
ENDBRANCH  10  11
ENDBRANCH   9  10
ENDBRANCH   7   8
ENDBRANCH   1   7
BRANCH   4  20
ATOM     20  C   UNL d   1       7.007   1.242 -15.789  0.00  0.00     0.068 A 
ATOM     21  C   UNL d   1       6.351   0.005 -15.931  0.00  0.00     0.084 A 
ATOM     22  C   UNL d   1       6.294  -0.624 -17.215  0.00  0.00     0.070 A 
ATOM     23 CL   UNL d   1       5.645  -0.854 -14.597  0.00  0.00    -0.080 Cl
ATOM     24  C   UNL d   1       6.939  -0.032 -18.311  0.00  0.00     0.012 A 
ATOM     25 CL   UNL d   1       5.453  -2.115 -17.454  0.00  0.00    -0.081 Cl
ATOM     26  C   UNL d   1       7.610   1.185 -18.162  0.00  0.00     0.002 A 
ATOM     27  C   UNL d   1       7.635   1.825 -16.901  0.00  0.00     0.018 A 
ENDBRANCH   4  20
TORSDOF 6
