REMARK  12 active torsions:
REMARK  status: ('A' for Active; 'I' for Inactive)
REMARK    1  A    between atoms: C_2  and  C_3 
REMARK    2  A    between atoms: C_3  and  N_4 
REMARK    3  A    between atoms: N_4  and  C_5 
REMARK    4  A    between atoms: N_4  and  C_21 
REMARK    5  A    between atoms: C_5  and  C_6 
REMARK    6  A    between atoms: C_6  and  C_7 
REMARK    7  A    between atoms: C_7  and  S_8 
REMARK    8  A    between atoms: S_8  and  C_9 
REMARK    9  A    between atoms: C_12  and  C_13 
REMARK   10  A    between atoms: C_21  and  C_22 
REMARK   11  A    between atoms: C_24  and  C_25 
REMARK   12  A    between atoms: C_31  and  O_32 
ROOT
ATOM      1  N   UNL d   1       9.834   3.723 -16.677  0.00  0.00     0.137 N 
ENDROOT
BRANCH   1   2
ATOM      2  C   UNL d   1      10.742   2.631 -16.310  0.00  0.00     0.250 C 
BRANCH   2   3
ATOM      3  C   UNL d   1      10.432   1.373 -17.157  0.00  0.00     0.035 C 
ATOM      4  C   UNL d   1      11.448   0.293 -16.852  0.00  0.00     0.002 C 
ENDBRANCH   2   3
ENDBRANCH   1   2
BRANCH   1   5
ATOM      5  C   UNL d   1       9.869   4.816 -15.688  0.00  0.00     0.251 C 
BRANCH   5   6
ATOM      6  C   UNL d   1       9.523   4.449 -14.228  0.00  0.00     0.047 C 
BRANCH   6   7
ATOM      7  C   UNL d   1       8.090   4.842 -13.849  0.00  0.00     0.067 C 
BRANCH   7   8
ATOM      8  S   UNL d   1       7.765   4.600 -12.085  0.00  0.00    -0.075 SA
BRANCH   8   9
ATOM      9  C   UNL d   1       8.688   5.958 -11.418  0.00  0.00     0.193 A 
ATOM     10  N   UNL d   1       9.090   5.987 -10.136  0.00  0.00    -0.289 N 
ATOM     11  C   UNL d   1       9.694   7.200 -10.062  0.00  0.00     0.167 A 
ATOM     12  C   UNL d   1       8.899   4.997  -9.094  0.00  0.00     0.134 C 
ATOM     13  N   UNL d   1       9.700   7.849 -11.227  0.00  0.00    -0.128 NA
ATOM     14  N   UNL d   1       9.040   7.033 -12.117  0.00  0.00    -0.122 NA
BRANCH  11  15
ATOM     15  C   UNL d   1      10.266   7.777  -8.858  0.00  0.00     0.036 A 
ATOM     16  C   UNL d   1       9.489   7.918  -7.690  0.00  0.00     0.003 A 
ATOM     17  C   UNL d   1      10.052   8.486  -6.529  0.00  0.00     0.000 A 
ATOM     18  C   UNL d   1      11.397   8.921  -6.539  0.00  0.00     0.000 A 
ATOM     19  C   UNL d   1      12.174   8.782  -7.701  0.00  0.00     0.000 A 
ATOM     20  C   UNL d   1      11.605   8.219  -8.865  0.00  0.00     0.003 A 
ENDBRANCH  11  15
ENDBRANCH   8   9
ENDBRANCH   7   8
ENDBRANCH   6   7
ENDBRANCH   5   6
ENDBRANCH   1   5
BRANCH   1  21
ATOM     21  C   UNL d   1      10.281   4.290 -17.945  0.00  0.00     0.251 C 
BRANCH  21  22
ATOM     22  C   UNL d   1       9.238   5.145 -18.656  0.00  0.00     0.038 A 
ATOM     23  C   UNL d   1       9.709   6.095 -19.751  0.00  0.00     0.026 A 
ATOM     24  C   UNL d   1       9.168   6.636 -18.452  0.00  0.00     0.007 A 
BRANCH  23  25
ATOM     25  C   UNL d   1      11.158   6.194 -20.097  0.00  0.00     0.001 A 
ATOM     26  C   UNL d   1      11.816   5.125 -20.756  0.00  0.00     0.090 A 
ATOM     27  C   UNL d   1      13.210   5.205 -20.987  0.00  0.00     0.025 A 
ATOM     28  C   UNL d   1      13.939   6.328 -20.566  0.00  0.00     0.013 A 
ATOM     29  C   UNL d   1      13.289   7.396 -19.924  0.00  0.00     0.058 A 
ATOM     30  C   UNL d   1      11.908   7.330 -19.686  0.00  0.00     0.009 A 
ATOM     31 CL   UNL d   1      14.202   8.767 -19.401  0.00  0.00    -0.082 Cl
BRANCH  26  32
ATOM     32  O   UNL d   1      11.042   4.039 -21.116  0.00  0.00    -0.328 OA
ATOM     33  C   UNL d   1      11.676   2.937 -21.752  0.00  0.00     0.181 C 
ENDBRANCH  26  32
ENDBRANCH  23  25
ENDBRANCH  21  22
ENDBRANCH   1  21
TORSDOF 12
