REMARK  8 active torsions:
REMARK  status: ('A' for Active; 'I' for Inactive)
REMARK    1  A    between atoms: C_6  and  N_7 
REMARK    2  A    between atoms: N_10  and  C_11 
REMARK    3  A    between atoms: C_11  and  C_12 
REMARK    4  A    between atoms: C_12  and  C_13 
REMARK    5  A    between atoms: C_13  and  C_14 
REMARK    6  A    between atoms: C_14  and  N_15 
REMARK       I    between atoms: N_15  and  C_16 
REMARK    7  A    between atoms: C_16  and  C_18 
REMARK    8  A    between atoms: C_21  and  C_22 
ROOT
ATOM      1  N   UNL d   1       7.597  -6.118 -21.189  0.00  0.00    -0.191 NA
ATOM      2  C   UNL d   1       7.264  -5.258 -20.491  0.00  0.00     0.101 C 
ATOM      3  C   UNL d   1       6.846  -4.178 -19.613  0.00  0.00     0.068 A 
ATOM      4  C   UNL d   1       7.455  -2.910 -19.698  0.00  0.00     0.012 A 
ATOM      5  C   UNL d   1       7.054  -1.871 -18.835  0.00  0.00     0.018 A 
ATOM      6  C   UNL d   1       6.024  -2.075 -17.880  0.00  0.00     0.056 A 
ATOM      7  C   UNL d   1       5.416  -3.354 -17.817  0.00  0.00     0.018 A 
ATOM      8  C   UNL d   1       5.828  -4.395 -18.668  0.00  0.00     0.012 A 
ENDROOT
BRANCH   6   9
ATOM      9  N   UNL d   1       5.620  -1.051 -16.996  0.00  0.00    -0.344 N 
ATOM     10  C   UNL d   1       5.855   0.368 -17.251  0.00  0.00     0.137 C 
ATOM     11  C   UNL d   1       6.585   1.010 -16.057  0.00  0.00     0.274 C 
ATOM     12  N   UNL d   1       5.827   0.799 -14.816  0.00  0.00     0.141 N 
ATOM     13  C   UNL d   1       5.724  -0.640 -14.566  0.00  0.00     0.274 C 
ATOM     14  C   UNL d   1       4.971  -1.332 -15.716  0.00  0.00     0.137 C 
BRANCH  12  15
ATOM     15  C   UNL d   1       6.479   1.446 -13.682  0.00  0.00     0.251 C 
BRANCH  15  16
ATOM     16  C   UNL d   1       6.313   2.983 -13.710  0.00  0.00     0.037 C 
BRANCH  16  17
ATOM     17  C   UNL d   1       7.056   3.674 -12.562  0.00  0.00     0.029 C 
BRANCH  17  18
ATOM     18  C   UNL d   1       6.987   5.204 -12.593  0.00  0.00     0.129 C 
BRANCH  18  19
ATOM     19  N   UNL d   1       7.692   5.776 -11.451  0.00  0.00    -0.234 NA
ATOM     20  C   UNL d   1       9.024   5.886 -11.323  0.00  0.00     0.275 C 
ATOM     21  O   UNL d   1       9.820   5.590 -12.217  0.00  0.00    -0.266 OA
BRANCH  20  22
ATOM     22  C   UNL d   1       9.494   6.416  -9.999  0.00  0.00     0.058 A 
ATOM     23  C   UNL d   1      10.503   7.406  -9.935  0.00  0.00     0.005 A 
ATOM     24  C   UNL d   1      10.953   7.893  -8.692  0.00  0.00     0.000 A 
ATOM     25  C   UNL d   1      10.417   7.387  -7.493  0.00  0.00     0.001 A 
ATOM     26  C   UNL d   1       9.410   6.400  -7.553  0.00  0.00     0.000 A 
ATOM     27  C   UNL d   1       8.959   5.911  -8.794  0.00  0.00     0.005 A 
BRANCH  25  28
ATOM     28  C   UNL d   1      10.894   7.881  -6.201  0.00  0.00     0.007 A 
ATOM     29  C   UNL d   1      11.381   7.136  -5.157  0.00  0.00     0.035 A 
ATOM     30  S   UNL d   1      11.862   8.122  -3.802  0.00  0.00    -0.086 SA
ATOM     31  C   UNL d   1      11.364   9.564  -4.640  0.00  0.00     0.035 A 
ATOM     32  C   UNL d   1      10.886   9.279  -5.894  0.00  0.00     0.007 A 
ENDBRANCH  25  28
ENDBRANCH  20  22
ENDBRANCH  18  19
ENDBRANCH  17  18
ENDBRANCH  16  17
ENDBRANCH  15  16
ENDBRANCH  12  15
ENDBRANCH   6   9
TORSDOF 8
