REMARK  6 active torsions:
REMARK  status: ('A' for Active; 'I' for Inactive)
REMARK    1  A    between atoms: C_7  and  C_8 
REMARK    2  A    between atoms: N_12  and  C_13 
REMARK    3  A    between atoms: C_13  and  C_14 
REMARK    4  A    between atoms: C_14  and  C_15 
REMARK    5  A    between atoms: C_15  and  C_16 
REMARK    6  A    between atoms: C_16  and  C_18 
ROOT
ATOM      1  C   UNL d   1       8.392   5.297 -11.515  0.00  0.00     0.149 C 
ATOM      2  O   UNL d   1       7.246   5.962 -11.155  0.00  0.00    -0.221 OA
ATOM      3  C   UNL d   1       8.929   4.587 -10.240  0.00  0.00     0.070 C 
ATOM      4  C   UNL d   1       9.231   5.608  -9.145  0.00  0.00     0.253 C 
ATOM      5  N   UNL d   1      10.226   6.601  -9.581  0.00  0.00     0.137 N 
ATOM      6  C   UNL d   1       9.787   7.343 -10.763  0.00  0.00     0.253 C 
ATOM      7  C   UNL d   1       9.437   6.390 -11.916  0.00  0.00     0.070 C 
ENDROOT
BRANCH   5   8
ATOM      8  C   UNL d   1      10.556   7.567  -8.544  0.00  0.00     0.251 C 
BRANCH   8   9
ATOM      9  C   UNL d   1       9.401   7.805  -7.517  0.00  0.00     0.043 C 
BRANCH   9  10
ATOM     10  C   UNL d   1       9.510   9.162  -6.829  0.00  0.00     0.071 C 
BRANCH  10  11
ATOM     11  C   UNL d   1      10.888   9.512  -6.229  0.00  0.00     0.173 C 
ATOM     12  O   UNL d   1      11.569  10.433  -6.681  0.00  0.00    -0.291 OA
BRANCH  11  13
ATOM     13  C   UNL d   1      11.307   8.767  -5.050  0.00  0.00     0.035 A 
ATOM     14  C   UNL d   1      11.596   9.470  -3.857  0.00  0.00     0.005 A 
ATOM     15  C   UNL d   1      12.067   8.765  -2.730  0.00  0.00     0.030 A 
ATOM     16  C   UNL d   1      12.195   7.363  -2.777  0.00  0.00     0.140 A 
ATOM     17  C   UNL d   1      11.867   6.673  -3.966  0.00  0.00     0.030 A 
ATOM     18  F   UNL d   1      12.655   6.673  -1.710  0.00  0.00    -0.204 F 
ATOM     19  C   UNL d   1      11.457   7.361  -5.102  0.00  0.00     0.005 A 
ENDBRANCH  11  13
ENDBRANCH  10  11
ENDBRANCH   9  10
ENDBRANCH   8   9
ENDBRANCH   5   8
BRANCH   1  20
ATOM     20  C   UNL d   1       8.152   4.303 -12.656  0.00  0.00     0.001 A 
ATOM     21  C   UNL d   1       6.852   3.901 -13.119  0.00  0.00    -0.024 A 
ATOM     22  C   UNL d   1       6.790   2.919 -14.126  0.00  0.00    -0.005 A 
ATOM     23  C   UNL d   1       5.474   4.363 -12.595  0.00  0.00     0.031 C 
ATOM     24  C   UNL d   1       7.939   2.363 -14.711  0.00  0.00    -0.005 A 
ATOM     25  C   UNL d   1       9.208   2.769 -14.268  0.00  0.00    -0.022 A 
ATOM     26  C   UNL d   1      10.469   2.181 -14.879  0.00  0.00     0.031 C 
ATOM     27  C   UNL d   1       9.311   3.721 -13.237  0.00  0.00    -0.006 A 
ENDBRANCH   1  20
TORSDOF 6
