REMARK  6 active torsions:
REMARK  status: ('A' for Active; 'I' for Inactive)
REMARK    1  A    between atoms: C_2  and  C_3 
REMARK    2  A    between atoms: N_13  and  C_14 
REMARK    3  A    between atoms: C_14  and  C_15 
REMARK    4  A    between atoms: C_15  and  C_17 
REMARK    5  A    between atoms: C_17  and  N_18 
REMARK    6  A    between atoms: N_21  and  C_22 
ROOT
ATOM      1  C   UNL d   1       9.486   6.378  -9.550  0.00  0.00     0.208 C 
ATOM      2  O   UNL d   1       8.680   6.311  -8.399  0.00  0.00    -0.219 OA
ENDROOT
BRANCH   1   3
ATOM      3  C   UNL d   1       9.951   7.837  -9.802  0.00  0.00     0.148 C 
BRANCH   3   4
ATOM      4  N   UNL d   1      10.849   8.328  -8.747  0.00  0.00    -0.247 N 
ATOM      5  C   UNL d   1      12.192   8.332  -8.785  0.00  0.00     0.348 A 
ATOM      6  N   UNL d   1      12.650   8.834  -7.637  0.00  0.00    -0.209 NA
ATOM      7  O   UNL d   1      12.907   7.972  -9.720  0.00  0.00    -0.245 OA
ATOM      8  C   UNL d   1      11.605   9.277  -6.732  0.00  0.00     0.179 A 
ATOM      9  C   UNL d   1      11.589  10.792  -6.454  0.00  0.00     0.039 C 
ATOM     10  C   UNL d   1      10.416   8.872  -7.601  0.00  0.00     0.265 A 
ATOM     11  O   UNL d   1       9.250   8.992  -7.239  0.00  0.00    -0.269 OA
BRANCH   8  12
ATOM     12  C   UNL d   1      11.723   8.527  -5.415  0.00  0.00     0.006 A 
ATOM     13  C   UNL d   1      12.495   9.061  -4.342  0.00  0.00     0.000 A 
ATOM     14  C   UNL d   1      12.643   8.357  -3.134  0.00  0.00     0.029 A 
ATOM     15  C   UNL d   1      12.030   7.109  -3.006  0.00  0.00     0.140 A 
ATOM     16  C   UNL d   1      11.286   6.599  -4.066  0.00  0.00     0.029 A 
ATOM     17  F   UNL d   1      12.163   6.397  -1.880  0.00  0.00    -0.204 F 
ATOM     18  C   UNL d   1      11.124   7.265  -5.266  0.00  0.00     0.000 A 
ENDBRANCH   8  12
ENDBRANCH   3   4
ENDBRANCH   1   3
BRANCH   1  19
ATOM     19  C   UNL d   1       8.586   5.874 -10.693  0.00  0.00     0.285 C 
BRANCH  19  20
ATOM     20  N   UNL d   1       9.309   5.451 -11.889  0.00  0.00     0.144 N 
ATOM     21  C   UNL d   1       8.488   5.609 -13.092  0.00  0.00     0.274 C 
ATOM     22  C   UNL d   1       9.231   5.179 -14.371  0.00  0.00     0.137 C 
ATOM     23  N   UNL d   1       9.704   3.821 -14.245  0.00  0.00    -0.344 N 
ATOM     24  C   UNL d   1      10.442   3.514 -13.040  0.00  0.00     0.137 C 
ATOM     25  C   UNL d   1       9.685   4.042 -11.810  0.00  0.00     0.274 C 
BRANCH  23  26
ATOM     26  C   UNL d   1       9.383   2.829 -15.176  0.00  0.00     0.068 A 
ATOM     27  C   UNL d   1       8.096   2.224 -15.227  0.00  0.00     0.084 A 
ATOM     28  C   UNL d   1       7.817   1.252 -16.214  0.00  0.00     0.070 A 
ATOM     29 CL   UNL d   1       6.861   2.674 -14.098  0.00  0.00    -0.080 Cl
ATOM     30  C   UNL d   1       8.800   0.884 -17.144  0.00  0.00     0.012 A 
ATOM     31 CL   UNL d   1       6.268   0.502 -16.304  0.00  0.00    -0.081 Cl
ATOM     32  C   UNL d   1      10.078   1.463 -17.094  0.00  0.00     0.002 A 
ATOM     33  C   UNL d   1      10.373   2.429 -16.108  0.00  0.00     0.018 A 
ENDBRANCH  23  26
ENDBRANCH  19  20
ENDBRANCH   1  19
TORSDOF 6
