REMARK  4 active torsions:
REMARK  status: ('A' for Active; 'I' for Inactive)
REMARK    1  A    between atoms: N_5  and  C_6 
REMARK    2  A    between atoms: N_15  and  C_16 
REMARK    3  A    between atoms: C_16  and  C_17 
REMARK    4  A    between atoms: CA_25  and  C_26 
ROOT
ATOM      1  O   UNL d   1      13.184   6.140 -15.787  0.00  0.00    -0.269 OA
ATOM      2  C   UNL d   1      12.935   5.024 -16.256  0.00  0.00     0.271 A 
ATOM      3  N   UNL d   1      13.620   4.417 -17.220  0.00  0.00    -0.211 NA
ATOM      4  C   UNL d   1      13.059   3.130 -17.601  0.00  0.00     0.234 A 
ATOM      5  N   UNL d   1      11.842   2.977 -16.789  0.00  0.00    -0.323 N 
ATOM      6  C   UNL d   1      11.752   4.141 -15.871  0.00  0.00     0.142 A 
ATOM      7  C   UNL d   1      11.873   3.737 -14.386  0.00  0.00     0.065 C 
ATOM      8  C   UNL d   1      10.558   3.194 -13.829  0.00  0.00     0.253 C 
ATOM      9  N   UNL d   1       9.454   4.132 -14.039  0.00  0.00     0.140 N 
ATOM     10  C   UNL d   1       9.263   4.456 -15.457  0.00  0.00     0.253 C 
ATOM     11  C   UNL d   1      10.520   5.032 -16.092  0.00  0.00     0.065 C 
ENDROOT
BRANCH   9  12
ATOM     12  C   UNL d   1       9.654   5.354 -13.277  0.00  0.00     0.283 C 
BRANCH  12  13
ATOM     13  C   UNL d   1       9.508   5.127 -11.785  0.00  0.00     0.185 C 
ATOM     14  O   UNL d   1      10.041   6.288 -11.100  0.00  0.00    -0.327 OA
ATOM     15  C   UNL d   1       9.743   6.370  -9.754  0.00  0.00     0.118 A 
ATOM     16  C   UNL d   1       8.669   5.559  -9.300  0.00  0.00     0.116 A 
ATOM     17  C   UNL d   1      10.442   7.245  -8.830  0.00  0.00     0.043 A 
ATOM     18  O   UNL d   1       7.966   4.672 -10.094  0.00  0.00    -0.326 OA
ATOM     19  C   UNL d   1       8.269   5.594  -7.970  0.00  0.00     0.028 A 
ATOM     20  C   UNL d   1       8.038   4.924 -11.479  0.00  0.00     0.181 C 
ATOM     21  C   UNL d   1       8.915   6.408  -7.057  0.00  0.00     0.021 A 
ATOM     22  C   UNL d   1       9.952   7.196  -7.488  0.00  0.00     0.083 A 
ATOM     23  N   UNL d   1      10.702   8.031  -6.728  0.00  0.00    -0.247 NA
ATOM     24  CA  UNL d   1      11.646   8.654  -7.501  0.00  0.00     0.092 A 
ATOM     25  C   UNL d   1      11.531   8.207  -8.801  0.00  0.00     0.021 A 
BRANCH  24  26
ATOM     26  C   UNL d   1      12.552   9.608  -6.814  0.00  0.00     0.228 C 
ATOM     27  O   UNL d   1      11.897  10.816  -6.475  0.00  0.00    -0.214 OA
ENDBRANCH  24  26
ENDBRANCH  12  13
ENDBRANCH   9  12
BRANCH   5  28
ATOM     28  C   UNL d   1      10.707   2.292 -17.322  0.00  0.00     0.058 A 
ATOM     29  C   UNL d   1      10.263   2.559 -18.636  0.00  0.00     0.017 A 
ATOM     30  C   UNL d   1       9.111   1.921 -19.168  0.00  0.00     0.002 A 
ATOM     31  C   UNL d   1       8.328   1.045 -18.387  0.00  0.00     0.000 A 
ATOM     32  C   UNL d   1       8.736   0.787 -17.078  0.00  0.00     0.002 A 
ATOM     33  C   UNL d   1       9.934   1.337 -16.581  0.00  0.00     0.017 A 
ENDBRANCH   5  28
TORSDOF 4
