REMARK  1 active torsions:
REMARK  status: ('A' for Active; 'I' for Inactive)
REMARK    1  A    between atoms: C_2  and  C_3 
ROOT
ATOM      1  C   UNL d   1       8.453   5.767 -12.133  0.00  0.00     0.222 C 
ATOM      2  O   UNL d   1       9.634   6.458 -11.757  0.00  0.00    -0.211 OA
ATOM      3  C   UNL d   1       7.967   4.969 -10.952  0.00  0.00     0.304 C 
ATOM      4  O   UNL d   1       8.301   5.228  -9.798  0.00  0.00    -0.261 OA
ATOM      5  O   UNL d   1       7.053   4.000 -11.270  0.00  0.00    -0.295 OA
ATOM      6  C   UNL d   1       6.780   3.547 -12.612  0.00  0.00     0.183 C 
ATOM      7  C   UNL d   1       7.971   3.753 -13.569  0.00  0.00     0.063 A 
ATOM      8  C   UNL d   1       8.783   4.801 -13.298  0.00  0.00     0.019 A 
ATOM      9  C   UNL d   1       9.967   4.987 -14.104  0.00  0.00     0.017 A 
ATOM     10  C   UNL d   1      10.222   4.136 -15.101  0.00  0.00     0.080 A 
ATOM     11  N   UNL d   1       9.377   3.066 -15.410  0.00  0.00    -0.290 N 
ATOM     12  C   UNL d   1       8.237   2.817 -14.692  0.00  0.00     0.259 A 
ATOM     13  O   UNL d   1       7.471   1.907 -15.000  0.00  0.00    -0.267 OA
ATOM     14  C   UNL d   1       9.935   2.329 -16.599  0.00  0.00     0.138 A 
ATOM     15  C   UNL d   1      11.212   3.113 -16.895  0.00  0.00     0.020 A 
ATOM     16  C   UNL d   1      12.210   2.947 -17.878  0.00  0.00     0.001 A 
ATOM     17  C   UNL d   1      13.286   3.875 -17.878  0.00  0.00     0.018 A 
ATOM     18  C   UNL d   1      14.317   3.782 -18.841  0.00  0.00     0.002 A 
ATOM     19  C   UNL d   1      15.368   4.716 -18.837  0.00  0.00     0.000 A 
ATOM     20  C   UNL d   1      15.417   5.734 -17.870  0.00  0.00     0.002 A 
ATOM     21  C   UNL d   1      14.389   5.827 -16.911  0.00  0.00     0.019 A 
ATOM     22  C   UNL d   1      13.317   4.910 -16.898  0.00  0.00     0.081 A 
ATOM     23  N   UNL d   1      12.351   5.045 -15.960  0.00  0.00    -0.244 NA
ATOM     24  C   UNL d   1      11.341   4.155 -15.997  0.00  0.00     0.095 A 
ENDROOT
BRANCH   1  25
ATOM     25  C   UNL d   1       7.457   6.888 -12.583  0.00  0.00     0.045 C 
ATOM     26  C   UNL d   1       5.939   6.596 -12.451  0.00  0.00     0.004 C 
ENDBRANCH   1  25
TORSDOF 1
