REMARK  7 active torsions:
REMARK  status: ('A' for Active; 'I' for Inactive)
REMARK    1  A    between atoms: C_2  and  C_3 
REMARK    2  A    between atoms: C_3  and  N_4 
REMARK    3  A    between atoms: N_4  and  C_5 
REMARK    4  A    between atoms: N_4  and  C_24 
REMARK    5  A    between atoms: C_5  and  C_6 
REMARK    6  A    between atoms: C_6  and  N_7 
REMARK    7  A    between atoms: N_10  and  C_11 
ROOT
ATOM      1  N   UNL d   1       9.432   5.664 -12.138  0.00  0.00     0.143 N 
ATOM      2  C   UNL d   1       9.487   4.231 -11.856  0.00  0.00     0.274 C 
ATOM      3  C   UNL d   1       9.848   3.416 -13.103  0.00  0.00     0.137 C 
ATOM      4  N   UNL d   1       8.920   3.728 -14.175  0.00  0.00    -0.344 N 
ATOM      5  C   UNL d   1       8.773   5.142 -14.468  0.00  0.00     0.137 C 
ATOM      6  C   UNL d   1       8.432   5.891 -13.175  0.00  0.00     0.274 C 
ENDROOT
BRANCH   1   7
ATOM      7  C   UNL d   1       9.102   6.425 -10.947  0.00  0.00     0.286 C 
BRANCH   7   8
ATOM      8  C   UNL d   1      10.301   6.711 -10.056  0.00  0.00     0.285 C 
BRANCH   8   9
ATOM      9  N   UNL d   1      10.061   7.791  -9.085  0.00  0.00     0.137 N 
BRANCH   9  10
ATOM     10  C   UNL d   1      10.354   9.089  -9.717  0.00  0.00     0.250 C 
BRANCH  10  11
ATOM     11  C   UNL d   1      11.792   9.313 -10.227  0.00  0.00     0.035 C 
ATOM     12  C   UNL d   1      12.927   8.672  -9.423  0.00  0.00     0.002 C 
ENDBRANCH  10  11
ENDBRANCH   9  10
BRANCH   9  13
ATOM     13  C   UNL d   1      10.686   7.628  -7.747  0.00  0.00     0.224 C 
ATOM     14  C   UNL d   1      10.438   8.792  -6.779  0.00  0.00     0.059 C 
ATOM     15  C   UNL d   1      11.099   8.600  -5.440  0.00  0.00    -0.022 A 
ATOM     16  C   UNL d   1      11.607   7.356  -5.022  0.00  0.00    -0.026 A 
ATOM     17  C   UNL d   1      11.203   9.691  -4.586  0.00  0.00     0.023 A 
ATOM     18  C   UNL d   1      11.580   6.191  -5.947  0.00  0.00     0.028 C 
ATOM     19  C   UNL d   1      12.189   7.179  -3.751  0.00  0.00    -0.003 A 
ATOM     20  C   UNL d   1      10.537   6.283  -7.064  0.00  0.00     0.038 C 
ATOM     21  C   UNL d   1      12.289   8.259  -2.893  0.00  0.00     0.027 A 
ATOM     22  C   UNL d   1      11.805   9.474  -3.340  0.00  0.00     0.131 A 
ATOM     23  O   UNL d   1      11.837  10.442  -2.464  0.00  0.00    -0.190 OA
ENDBRANCH   9  13
ENDBRANCH   8   9
ENDBRANCH   7   8
ENDBRANCH   1   7
BRANCH   4  24
ATOM     24  C   UNL d   1       8.236   2.737 -14.900  0.00  0.00     0.059 A 
ATOM     25  C   UNL d   1       8.616   2.358 -16.215  0.00  0.00     0.035 A 
ATOM     26  C   UNL d   1       7.836   1.379 -16.902  0.00  0.00     0.108 A 
ATOM     27  C   UNL d   1       9.741   2.936 -16.847  0.00  0.00     0.003 A 
ATOM     28  N   UNL d   1       6.750   0.808 -16.331  0.00  0.00    -0.242 NA
ATOM     29  C   UNL d   1       8.219   1.012 -18.219  0.00  0.00     0.148 A 
ATOM     30  C   UNL d   1       6.402   1.159 -15.081  0.00  0.00     0.101 A 
ATOM     31  C   UNL d   1       7.098   2.126 -14.337  0.00  0.00     0.038 A 
ATOM     32  O   UNL d   1       7.506   0.081 -18.923  0.00  0.00    -0.189 OA
ATOM     33  C   UNL d   1       9.345   1.593 -18.833  0.00  0.00     0.029 A 
ATOM     34  C   UNL d   1      10.105   2.553 -18.149  0.00  0.00     0.002 A 
ENDBRANCH   4  24
TORSDOF 7
