REMARK  9 active torsions:
REMARK  status: ('A' for Active; 'I' for Inactive)
REMARK    1  A    between atoms: S_2  and  N_4 
REMARK    2  A    between atoms: S_2  and  C_28 
REMARK    3  A    between atoms: N_4  and  C_5 
REMARK    4  A    between atoms: N_8  and  C_9 
REMARK    5  A    between atoms: C_9  and  C_10 
REMARK    6  A    between atoms: C_10  and  C_12 
REMARK    7  A    between atoms: C_12  and  O_13 
REMARK    8  A    between atoms: O_13  and  C_14 
REMARK    9  A    between atoms: C_19  and  C_20 
ROOT
ATOM      1  C   UNL d   1       9.351   6.730  -9.661  0.00  0.00     0.120 C 
ATOM      2  C   UNL d   1       9.832   5.298  -9.573  0.00  0.00     0.060 C 
ATOM      3  C   UNL d   1       9.414   4.497 -10.838  0.00  0.00     0.252 C 
ATOM      4  N   UNL d   1       9.772   5.100 -12.114  0.00  0.00     0.140 N 
ATOM      5  C   UNL d   1       9.236   6.448 -12.194  0.00  0.00     0.252 C 
ATOM      6  C   UNL d   1       9.671   7.359 -11.016  0.00  0.00     0.060 C 
ENDROOT
BRANCH   4   7
ATOM      7  C   UNL d   1       9.331   4.252 -13.257  0.00  0.00     0.285 C 
BRANCH   7   8
ATOM      8  C   UNL d   1      10.391   4.135 -14.366  0.00  0.00     0.215 C 
ATOM      9  O   UNL d   1      11.177   2.987 -14.134  0.00  0.00    -0.219 OA
BRANCH   8  10
ATOM     10  C   UNL d   1       9.829   3.989 -15.779  0.00  0.00     0.184 C 
BRANCH  10  11
ATOM     11  O   UNL d   1       8.898   2.911 -15.753  0.00  0.00    -0.328 OA
BRANCH  11  12
ATOM     12  C   UNL d   1       8.403   2.364 -16.914  0.00  0.00     0.094 A 
ATOM     13  C   UNL d   1       7.341   1.421 -16.803  0.00  0.00     0.022 A 
ATOM     14  C   UNL d   1       6.871   0.782 -17.978  0.00  0.00     0.002 A 
ATOM     15  C   UNL d   1       7.441   1.061 -19.239  0.00  0.00     0.000 A 
ATOM     16  C   UNL d   1       8.472   2.006 -19.340  0.00  0.00     0.002 A 
ATOM     17  C   UNL d   1       8.939   2.673 -18.198  0.00  0.00     0.024 A 
BRANCH  13  18
ATOM     18  C   UNL d   1       6.716   1.082 -15.495  0.00  0.00     0.002 A 
ATOM     19  C   UNL d   1       6.347  -0.254 -15.207  0.00  0.00     0.000 A 
ATOM     20  C   UNL d   1       5.748  -0.595 -13.983  0.00  0.00     0.000 A 
ATOM     21  C   UNL d   1       5.500   0.391 -13.011  0.00  0.00     0.000 A 
ATOM     22  C   UNL d   1       5.843   1.728 -13.277  0.00  0.00     0.000 A 
ATOM     23  C   UNL d   1       6.442   2.066 -14.505  0.00  0.00     0.000 A 
ENDBRANCH  13  18
ENDBRANCH  11  12
ENDBRANCH  10  11
ENDBRANCH   8  10
ENDBRANCH   7   8
ENDBRANCH   4   7
BRANCH   1  24
ATOM     24  N   UNL d   1      10.104   7.456  -8.648  0.00  0.00    -0.187 NA
BRANCH  24  25
ATOM     25  S   UNL d   1       9.349   7.670  -7.179  0.00  0.00     0.281 S 
ATOM     26  O   UNL d   1       8.621   8.918  -7.357  0.00  0.00    -0.199 OA
ATOM     27  O   UNL d   1       8.687   6.398  -6.816  0.00  0.00    -0.199 OA
BRANCH  25  28
ATOM     28  C   UNL d   1      10.639   8.045  -6.060  0.00  0.00     0.106 A 
ATOM     29  C   UNL d   1      10.913   7.231  -4.945  0.00  0.00     0.024 A 
ATOM     30  C   UNL d   1      11.893   7.661  -4.030  0.00  0.00     0.059 A 
ATOM     31  C   UNL d   1      12.616   8.846  -4.282  0.00  0.00     0.011 A 
ATOM     32 CL   UNL d   1      12.242   6.768  -2.601  0.00  0.00    -0.082 Cl
ATOM     33  C   UNL d   1      12.354   9.609  -5.432  0.00  0.00     0.002 A 
ATOM     34  C   UNL d   1      11.319   9.240  -6.301  0.00  0.00     0.013 A 
ENDBRANCH  25  28
ENDBRANCH  24  25
ENDBRANCH   1  24
TORSDOF 9
