REMARK  3 active torsions:
REMARK  status: ('A' for Active; 'I' for Inactive)
REMARK    1  A    between atoms: C_4  and  C_5 
REMARK    2  A    between atoms: C_5  and  O_6 
REMARK    3  A    between atoms: O_6  and  C_7 
ROOT
ATOM      1  C   UNL d   1       7.999   5.141 -12.950  0.00  0.00     0.090 A 
ATOM      2  C   UNL d   1       6.868   5.301 -12.121  0.00  0.00     0.024 A 
ATOM      3  C   UNL d   1       5.846   4.327 -12.121  0.00  0.00     0.002 A 
ATOM      4  C   UNL d   1       5.909   3.218 -12.981  0.00  0.00    -0.003 A 
ATOM      5  C   UNL d   1       7.021   3.064 -13.822  0.00  0.00     0.009 A 
ATOM      6  C   UNL d   1       8.067   4.014 -13.804  0.00  0.00     0.000 A 
ATOM      7  C   UNL d   1       9.294   3.782 -14.680  0.00  0.00     0.066 C 
ATOM      8  C   UNL d   1       9.062   2.744 -15.806  0.00  0.00     0.246 C 
ATOM      9  C   UNL d   1      10.343   2.469 -16.599  0.00  0.00     0.007 A 
ATOM     10  C   UNL d   1      11.140   3.543 -17.068  0.00  0.00     0.024 A 
ATOM     11  C   UNL d   1      12.289   3.239 -17.817  0.00  0.00     0.119 A 
ATOM     12  C   UNL d   1      12.636   1.939 -18.113  0.00  0.00     0.119 A 
ATOM     13  C   UNL d   1      11.861   0.854 -17.686  0.00  0.00     0.022 A 
ATOM     14  C   UNL d   1      10.697   1.130 -16.927  0.00  0.00    -0.020 A 
ATOM     15  C   UNL d   1       9.819  -0.013 -16.459  0.00  0.00     0.061 C 
ATOM     16  C   UNL d   1       8.391   0.453 -16.141  0.00  0.00     0.256 C 
ATOM     17  N   UNL d   1       8.464   1.551 -15.185  0.00  0.00     0.144 N 
ATOM     18  C   UNL d   1       7.107   1.858 -14.736  0.00  0.00     0.277 C 
ATOM     19  O   UNL d   1      13.781   1.930 -18.840  0.00  0.00    -0.300 OA
ATOM     20  C   UNL d   1      14.147   3.276 -18.996  0.00  0.00     0.304 A 
ATOM     21  O   UNL d   1      13.200   4.089 -18.353  0.00  0.00    -0.300 OA
ENDROOT
BRANCH   1  22
ATOM     22  O   UNL d   1       9.060   6.016 -12.961  0.00  0.00    -0.326 OA
BRANCH  22  23
ATOM     23  C   UNL d   1       9.060   7.133 -12.079  0.00  0.00     0.175 C 
BRANCH  23  24
ATOM     24  C   UNL d   1       9.490   6.795 -10.650  0.00  0.00     0.008 A 
ATOM     25  C   UNL d   1      10.267   7.728  -9.920  0.00  0.00    -0.002 A 
ATOM     26  C   UNL d   1      10.656   7.454  -8.588  0.00  0.00    -0.000 A 
ATOM     27  C   UNL d   1      10.245   6.252  -7.970  0.00  0.00    -0.000 A 
ATOM     28  C   UNL d   1       9.466   5.325  -8.691  0.00  0.00    -0.000 A 
ATOM     29  C   UNL d   1       9.105   5.582 -10.027  0.00  0.00    -0.002 A 
ENDBRANCH  23  24
ENDBRANCH  22  23
ENDBRANCH   1  22
TORSDOF 3
