REMARK  2 active torsions:
REMARK  status: ('A' for Active; 'I' for Inactive)
REMARK    1  A    between atoms: C_18  and  C_19 
REMARK    2  A    between atoms: C_23  and  N_24 
ROOT
ATOM      1  C   UNL d   1      10.727   3.505 -16.831  0.00  0.00     0.285 C 
ATOM      2  N   UNL d   1      10.581   2.375 -15.910  0.00  0.00     0.138 N 
ATOM      3  C   UNL d   1      10.129   1.166 -16.593  0.00  0.00     0.255 C 
ATOM      4  C   UNL d   1       8.667   1.205 -17.087  0.00  0.00     0.061 C 
ATOM      5  C   UNL d   1       7.663   0.931 -15.985  0.00  0.00    -0.023 A 
ATOM      6  C   UNL d   1       6.847  -0.210 -16.064  0.00  0.00     0.009 A 
ATOM      7  C   UNL d   1       5.934  -0.550 -15.069  0.00  0.00     0.083 A 
ATOM      8 CL   UNL d   1       4.986  -1.962 -15.272  0.00  0.00    -0.080 Cl
ATOM      9  C   UNL d   1       5.838   0.273 -13.944  0.00  0.00     0.141 A 
ATOM     10  O   UNL d   1       5.032  -0.008 -12.891  0.00  0.00    -0.189 OA
ATOM     11  C   UNL d   1       6.576   1.427 -13.870  0.00  0.00     0.024 A 
ATOM     12  C   UNL d   1       7.518   1.782 -14.869  0.00  0.00    -0.018 A 
ATOM     13  C   UNL d   1       8.371   3.028 -14.733  0.00  0.00     0.075 C 
ATOM     14  C   UNL d   1       7.839   3.934 -13.631  0.00  0.00    -0.021 A 
ATOM     15  C   UNL d   1       6.504   4.395 -13.716  0.00  0.00    -0.004 A 
ATOM     16  C   UNL d   1       6.004   5.342 -12.835  0.00  0.00    -0.000 A 
ATOM     17  C   UNL d   1       6.808   5.829 -11.795  0.00  0.00    -0.000 A 
ATOM     18  C   UNL d   1       8.110   5.333 -11.644  0.00  0.00    -0.004 A 
ATOM     19  C   UNL d   1       8.623   4.386 -12.563  0.00  0.00    -0.026 A 
ATOM     20  C   UNL d   1      10.031   3.871 -12.469  0.00  0.00     0.028 C 
ATOM     21  C   UNL d   1      10.703   3.655 -13.812  0.00  0.00     0.039 C 
ATOM     22  C   UNL d   1       9.892   2.653 -14.636  0.00  0.00     0.228 C 
ENDROOT
BRANCH  18  23
ATOM     23  C   UNL d   1       8.862   5.764 -10.470  0.00  0.00     0.001 A 
ATOM     24  C   UNL d   1       9.543   7.004 -10.391  0.00  0.00     0.024 A 
ATOM     25  C   UNL d   1      10.197   7.397  -9.196  0.00  0.00     0.127 A 
ATOM     26  C   UNL d   1      10.160   6.544  -8.085  0.00  0.00     0.024 A 
ATOM     27  C   UNL d   1       9.430   5.367  -8.151  0.00  0.00     0.002 A 
ATOM     28  C   UNL d   1       8.795   4.947  -9.326  0.00  0.00     0.000 A 
BRANCH  25  29
ATOM     29  N   UNL d   1      10.892   8.679  -9.082  0.00  0.00    -0.114 N 
ATOM     30  O   UNL d   1      11.243   9.213 -10.120  0.00  0.00    -0.532 OA
ATOM     31  O   UNL d   1      11.096   9.124  -7.956  0.00  0.00    -0.532 OA
ENDBRANCH  25  29
ENDBRANCH  18  23
TORSDOF 2
