REMARK  6 active torsions:
REMARK  status: ('A' for Active; 'I' for Inactive)
REMARK    1  A    between atoms: C_2  and  C_4 
REMARK    2  A    between atoms: C_4  and  S_5 
REMARK    3  A    between atoms: S_5  and  N_8 
REMARK    4  A    between atoms: C_12  and  C_13 
REMARK    5  A    between atoms: C_16  and  C_17 
REMARK       I    between atoms: C_17  and  N_19 
REMARK    6  A    between atoms: C_25  and  N_26 
ROOT
ATOM      1  N   UNL d   1      11.350   4.545 -17.041  0.00  0.00    -0.218 N 
ATOM      2  C   UNL d   1      10.910   3.893 -18.183  0.00  0.00     0.093 A 
ATOM      3  C   UNL d   1       9.863   3.076 -17.868  0.00  0.00     0.023 A 
ATOM      4  C   UNL d   1       9.590   3.266 -16.467  0.00  0.00     0.037 A 
ATOM      5  C   UNL d   1       8.657   2.774 -15.517  0.00  0.00     0.006 A 
ATOM      6  C   UNL d   1       8.734   3.260 -14.200  0.00  0.00     0.037 A 
ATOM      7  C   UNL d   1       9.697   4.230 -13.845  0.00  0.00     0.142 A 
ATOM      8  N   UNL d   1      10.603   4.723 -14.712  0.00  0.00    -0.211 NA
ATOM      9  C   UNL d   1      10.530   4.221 -15.975  0.00  0.00     0.158 A 
ENDROOT
BRANCH   5  10
ATOM     10  C   UNL d   1       7.594   1.812 -15.893  0.00  0.00     0.000 A 
ATOM     11  C   UNL d   1       7.054   1.792 -17.199  0.00  0.00     0.000 A 
ATOM     12  C   UNL d   1       6.044   0.887 -17.560  0.00  0.00     0.005 A 
ATOM     13  C   UNL d   1       5.561  -0.051 -16.624  0.00  0.00     0.056 A 
ATOM     14  C   UNL d   1       6.039   0.006 -15.298  0.00  0.00     0.005 A 
ATOM     15  C   UNL d   1       7.049   0.920 -14.942  0.00  0.00     0.000 A 
BRANCH  13  16
ATOM     16  C   UNL d   1       4.497  -1.047 -16.982  0.00  0.00     0.257 C 
ATOM     17  O   UNL d   1       3.584  -1.207 -16.172  0.00  0.00    -0.267 OA
ATOM     18  N   UNL d   1       4.586  -1.710 -18.168  0.00  0.00    -0.313 N 
ATOM     19  C   UNL d   1       3.564  -2.676 -18.558  0.00  0.00     0.129 C 
ATOM     20  C   UNL d   1       5.693  -1.618 -19.126  0.00  0.00     0.129 C 
ENDBRANCH  13  16
ENDBRANCH   5  10
BRANCH   7  21
ATOM     21  N   UNL d   1       9.710   4.709 -12.541  0.00  0.00    -0.330 N 
ATOM     22  C   UNL d   1       9.620   3.793 -11.416  0.00  0.00     0.138 C 
ATOM     23  C   UNL d   1       8.602   4.390 -10.406  0.00  0.00     0.274 C 
ATOM     24  N   UNL d   1       8.915   5.733  -9.989  0.00  0.00     0.143 N 
ATOM     25  C   UNL d   1       8.753   6.535 -11.212  0.00  0.00     0.274 C 
ATOM     26  C   UNL d   1       7.877   6.005  -9.039  0.00  0.00     0.286 C 
ATOM     27  C   UNL d   1       9.852   6.122 -12.207  0.00  0.00     0.138 C 
ENDBRANCH   7  21
BRANCH   1  28
ATOM     28  S   UNL d   1      12.649   5.657 -17.044  0.00  0.00     0.252 S 
ATOM     29  O   UNL d   1      13.062   5.846 -15.635  0.00  0.00    -0.204 OA
ATOM     30  O   UNL d   1      12.173   6.767 -17.863  0.00  0.00    -0.204 OA
BRANCH  28  31
ATOM     31  C   UNL d   1      13.968   4.677 -17.912  0.00  0.00     0.145 C 
BRANCH  31  32
ATOM     32  C   UNL d   1      15.234   5.504 -18.231  0.00  0.00     0.018 C 
ATOM     33  C   UNL d   1      15.983   5.949 -16.965  0.00  0.00     0.001 C 
ATOM     34  C   UNL d   1      14.938   6.711 -19.140  0.00  0.00     0.001 C 
ENDBRANCH  31  32
ENDBRANCH  28  31
ENDBRANCH   1  28
TORSDOF 6
