REMARK  5 active torsions:
REMARK  status: ('A' for Active; 'I' for Inactive)
REMARK    1  A    between atoms: C_2  and  C_3 
REMARK    2  A    between atoms: C_3  and  N_4 
REMARK    3  A    between atoms: C_12  and  O_13 
REMARK    4  A    between atoms: O_13  and  S_14 
REMARK    5  A    between atoms: S_14  and  C_17 
ROOT
ATOM      1  N   UNL d   1       7.357   5.485 -12.449  0.00  0.00     0.135 N 
ATOM      2  C   UNL d   1       5.972   5.045 -12.292  0.00  0.00     0.251 C 
ATOM      3  C   UNL d   1       5.997   3.612 -12.785  0.00  0.00     0.042 C 
ATOM      4  C   UNL d   1       6.863   3.747 -14.015  0.00  0.00     0.055 C 
ATOM      5  C   UNL d   1       7.440   2.484 -14.579  0.00  0.00    -0.023 A 
ATOM      6  C   UNL d   1       6.532   1.433 -14.844  0.00  0.00    -0.004 A 
ATOM      7  C   UNL d   1       7.023   0.252 -15.385  0.00  0.00     0.002 A 
ATOM      8  C   UNL d   1       8.390   0.115 -15.659  0.00  0.00     0.025 A 
ATOM      9  C   UNL d   1       9.308   1.162 -15.446  0.00  0.00     0.109 A 
ATOM     10  C   UNL d   1       8.819   2.367 -14.881  0.00  0.00    -0.002 A 
ATOM     11  C   UNL d   1       9.784   3.509 -14.626  0.00  0.00     0.030 C 
ATOM     12  C   UNL d   1       9.312   4.338 -13.442  0.00  0.00     0.038 C 
ATOM     13  C   UNL d   1       7.884   4.862 -13.667  0.00  0.00     0.224 C 
ENDROOT
BRANCH   9  14
ATOM     14  O   UNL d   1      10.634   0.969 -15.758  0.00  0.00    -0.225 OA
BRANCH  14  15
ATOM     15  S   UNL d   1      11.110   1.195 -17.371  0.00  0.00     0.374 S 
ATOM     16  O   UNL d   1      10.087   2.022 -18.031  0.00  0.00    -0.189 OA
ATOM     17  O   UNL d   1      12.496   1.641 -17.359  0.00  0.00    -0.189 OA
BRANCH  15  18
ATOM     18  C   UNL d   1      11.055  -0.551 -18.040  0.00  0.00     0.524 C 
ATOM     19  F   UNL d   1      12.280  -0.916 -18.420  0.00  0.00    -0.155 F 
ATOM     20  F   UNL d   1      10.573  -1.412 -17.121  0.00  0.00    -0.155 F 
ATOM     21  F   UNL d   1      10.256  -0.592 -19.099  0.00  0.00    -0.155 F 
ENDBRANCH  15  18
ENDBRANCH  14  15
ENDBRANCH   9  14
BRANCH   1  22
ATOM     22  C   UNL d   1       7.487   6.932 -12.445  0.00  0.00     0.250 C 
BRANCH  22  23
ATOM     23  C   UNL d   1       8.774   7.377 -11.723  0.00  0.00     0.035 C 
ATOM     24  C   UNL d   1       9.013   8.887 -11.801  0.00  0.00     0.002 C 
ENDBRANCH  22  23
ENDBRANCH   1  22
TORSDOF 5
