REMARK  9 active torsions:
REMARK  status: ('A' for Active; 'I' for Inactive)
REMARK    1  A    between atoms: C_3  and  S_4 
REMARK    2  A    between atoms: S_4  and  C_5 
REMARK    3  A    between atoms: C_5  and  C_6 
REMARK    4  A    between atoms: C_6  and  C_7 
REMARK    5  A    between atoms: C_7  and  N_8 
REMARK    6  A    between atoms: C_13  and  C_14 
REMARK    7  A    between atoms: C_17  and  C_18 
REMARK    8  A    between atoms: C_27  and  C_28 
REMARK    9  A    between atoms: C_31  and  C_32 
ROOT
ATOM      1  C   UNL d   1       9.334   4.430 -13.915  0.00  0.00     0.047 C 
ENDROOT
BRANCH   1   2
ATOM      2  C   UNL d   1       7.940   4.872 -13.414  0.00  0.00     0.067 C 
BRANCH   2   3
ATOM      3  S   UNL d   1       7.680   4.490 -11.665  0.00  0.00    -0.075 SA
BRANCH   3   4
ATOM      4  C   UNL d   1       8.691   5.701 -10.899  0.00  0.00     0.193 A 
ATOM      5  N   UNL d   1       8.946   5.721  -9.567  0.00  0.00    -0.289 N 
ATOM      6  C   UNL d   1       8.451   4.811  -8.529  0.00  0.00     0.134 C 
ATOM      7  C   UNL d   1       9.678   6.857  -9.438  0.00  0.00     0.167 A 
ATOM      8  N   UNL d   1       9.879   7.480 -10.602  0.00  0.00    -0.128 NA
ATOM      9  N   UNL d   1       9.252   6.707 -11.562  0.00  0.00    -0.122 NA
BRANCH   7  10
ATOM     10  C   UNL d   1      10.212   7.427  -8.208  0.00  0.00     0.036 A 
ATOM     11  C   UNL d   1      10.155   8.819  -8.004  0.00  0.00     0.003 A 
ATOM     12  C   UNL d   1      10.674   9.381  -6.820  0.00  0.00     0.005 A 
ATOM     13  C   UNL d   1      11.213   8.540  -5.816  0.00  0.00     0.059 A 
ATOM     14  C   UNL d   1      11.275   7.152  -6.035  0.00  0.00     0.005 A 
ATOM     15  C   UNL d   1      10.819   6.603  -7.242  0.00  0.00     0.003 A 
BRANCH  13  16
ATOM     16  C   UNL d   1      11.771   9.098  -4.550  0.00  0.00     0.297 C 
ATOM     17  N   UNL d   1      11.058  10.059  -3.997  0.00  0.00    -0.102 N 
ATOM     18  O   UNL d   1      12.779   8.642  -4.025  0.00  0.00    -0.264 OA
ENDBRANCH  13  16
ENDBRANCH   7  10
ENDBRANCH   3   4
ENDBRANCH   2   3
ENDBRANCH   1   2
BRANCH   1  19
ATOM     19  C   UNL d   1       9.547   4.799 -15.391  0.00  0.00     0.251 C 
BRANCH  19  20
ATOM     20  N   UNL d   1      10.942   5.101 -15.659  0.00  0.00     0.137 N 
ATOM     21  C   UNL d   1      11.098   5.689 -16.975  0.00  0.00     0.251 C 
ATOM     22  C   UNL d   1      12.574   5.562 -17.282  0.00  0.00     0.037 A 
ATOM     23  C   UNL d   1      13.021   4.389 -16.461  0.00  0.00     0.038 C 
ATOM     24  C   UNL d   1      13.138   5.898 -18.647  0.00  0.00     0.024 A 
ATOM     25  C   UNL d   1      13.457   6.781 -17.456  0.00  0.00     0.007 A 
ATOM     26  C   UNL d   1      11.758   3.902 -15.725  0.00  0.00     0.250 C 
BRANCH  24  27
ATOM     27  C   UNL d   1      12.218   6.374 -19.732  0.00  0.00    -0.022 A 
ATOM     28  C   UNL d   1      12.277   7.708 -20.181  0.00  0.00    -0.004 A 
ATOM     29  C   UNL d   1      11.371   8.165 -21.157  0.00  0.00     0.004 A 
ATOM     30  C   UNL d   1      10.409   7.293 -21.706  0.00  0.00     0.071 A 
ATOM     31  C   UNL d   1      10.349   5.958 -21.256  0.00  0.00     0.004 A 
ATOM     32  C   UNL d   1      11.261   5.498 -20.287  0.00  0.00    -0.004 A 
BRANCH  30  33
ATOM     33  C   UNL d   1       9.453   7.802 -22.773  0.00  0.00     0.419 C 
ATOM     34  F   UNL d   1      10.104   8.597 -23.623  0.00  0.00    -0.166 F 
ATOM     35  F   UNL d   1       8.914   6.802 -23.471  0.00  0.00    -0.166 F 
ATOM     36  F   UNL d   1       8.475   8.499 -22.195  0.00  0.00    -0.166 F 
ENDBRANCH  30  33
ENDBRANCH  24  27
ENDBRANCH  19  20
ENDBRANCH   1  19
TORSDOF 9
