REMARK  9 active torsions:
REMARK  status: ('A' for Active; 'I' for Inactive)
REMARK    1  A    between atoms: O_2  and  C_3 
REMARK    2  A    between atoms: C_8  and  N_9 
REMARK    3  A    between atoms: N_12  and  C_13 
REMARK    4  A    between atoms: C_13  and  C_14 
REMARK    5  A    between atoms: C_14  and  O_15 
REMARK    6  A    between atoms: O_15  and  C_16 
REMARK    7  A    between atoms: C_16  and  C_17 
REMARK    8  A    between atoms: C_17  and  O_18 
REMARK    9  A    between atoms: O_18  and  C_19 
ROOT
ATOM      1  N   UNL d   1      10.029   7.512  -7.200  0.00  0.00    -0.343 N 
ATOM      2  C   UNL d   1      10.275   8.174  -8.488  0.00  0.00     0.137 C 
ATOM      3  C   UNL d   1      10.380   7.147  -9.609  0.00  0.00     0.274 C 
ATOM      4  N   UNL d   1       9.213   6.274  -9.674  0.00  0.00     0.144 N 
ATOM      5  C   UNL d   1       9.046   5.591  -8.391  0.00  0.00     0.274 C 
ATOM      6  C   UNL d   1       8.896   6.582  -7.216  0.00  0.00     0.137 C 
ENDROOT
BRANCH   4   7
ATOM      7  C   UNL d   1       9.286   5.329 -10.773  0.00  0.00     0.282 C 
BRANCH   7   8
ATOM      8  C   UNL d   1       9.205   5.986 -12.169  0.00  0.00     0.178 C 
BRANCH   8   9
ATOM      9  O   UNL d   1       9.380   5.040 -13.203  0.00  0.00    -0.349 OA
BRANCH   9  10
ATOM     10  C   UNL d   1       8.254   4.205 -13.360  0.00  0.00     0.175 C 
BRANCH  10  11
ATOM     11  C   UNL d   1       8.478   3.330 -14.580  0.00  0.00     0.181 C 
BRANCH  11  12
ATOM     12  O   UNL d   1       9.498   2.382 -14.300  0.00  0.00    -0.329 OA
BRANCH  12  13
ATOM     13  C   UNL d   1       9.838   1.597 -15.372  0.00  0.00     0.086 A 
ATOM     14  C   UNL d   1      11.066   1.828 -16.038  0.00  0.00     0.000 A 
ATOM     15  C   UNL d   1      11.436   1.024 -17.137  0.00  0.00    -0.002 A 
ATOM     16  C   UNL d   1      11.990   2.940 -15.578  0.00  0.00     0.033 C 
ATOM     17  C   UNL d   1      10.586  -0.008 -17.574  0.00  0.00    -0.001 A 
ATOM     18  C   UNL d   1       9.368  -0.241 -16.910  0.00  0.00    -0.002 A 
ATOM     19  C   UNL d   1       8.991   0.546 -15.803  0.00  0.00     0.000 A 
ATOM     20  C   UNL d   1       7.683   0.238 -15.089  0.00  0.00     0.033 C 
ENDBRANCH  12  13
ENDBRANCH  11  12
ENDBRANCH  10  11
ENDBRANCH   9  10
ENDBRANCH   8   9
ENDBRANCH   7   8
ENDBRANCH   4   7
BRANCH   1  21
ATOM     21  C   UNL d   1      10.825   7.728  -6.052  0.00  0.00     0.079 A 
ATOM     22  C   UNL d   1      11.450   8.971  -5.783  0.00  0.00     0.110 A 
ATOM     23  C   UNL d   1      12.255   9.102  -4.610  0.00  0.00     0.026 A 
ATOM     24  C   UNL d   1      12.420   8.043  -3.696  0.00  0.00     0.002 A 
ATOM     25  C   UNL d   1      11.801   6.823  -3.968  0.00  0.00     0.002 A 
ATOM     26  C   UNL d   1      11.042   6.673  -5.139  0.00  0.00     0.019 A 
BRANCH  22  27
ATOM     27  O   UNL d   1      11.244   9.990  -6.683  0.00  0.00    -0.327 OA
ATOM     28  C   UNL d   1      11.858  11.218  -6.426  0.00  0.00     0.181 C 
ENDBRANCH  22  27
ENDBRANCH   1  21
TORSDOF 9
