REMARK  9 active torsions:
REMARK  status: ('A' for Active; 'I' for Inactive)
REMARK    1  A    between atoms: O_2  and  C_3 
REMARK    2  A    between atoms: C_7  and  C_8 
REMARK    3  A    between atoms: C_8  and  C_9 
REMARK    4  A    between atoms: C_9  and  C_10 
REMARK    5  A    between atoms: C_15  and  O_16 
REMARK    6  A    between atoms: O_16  and  C_17 
REMARK    7  A    between atoms: C_17  and  C_18 
REMARK    8  A    between atoms: C_18  and  N_19 
REMARK    9  A    between atoms: N_22  and  C_23 
ROOT
ATOM      1  C   UNL d   1       8.874   2.231 -14.873  0.00  0.00     0.001 A 
ATOM      2  C   UNL d   1       8.728   0.955 -15.456  0.00  0.00    -0.002 A 
ATOM      3  C   UNL d   1       7.525   0.243 -15.306  0.00  0.00    -0.000 A 
ATOM      4  C   UNL d   1       6.466   0.793 -14.566  0.00  0.00     0.002 A 
ATOM      5  C   UNL d   1       6.598   2.078 -14.012  0.00  0.00     0.024 A 
ATOM      6  C   UNL d   1       7.809   2.803 -14.146  0.00  0.00     0.090 A 
ENDROOT
BRANCH   6   7
ATOM      7  O   UNL d   1       8.016   4.051 -13.598  0.00  0.00    -0.329 OA
BRANCH   7   8
ATOM      8  C   UNL d   1       6.980   4.641 -12.827  0.00  0.00     0.184 C 
BRANCH   8   9
ATOM      9  C   UNL d   1       7.473   6.020 -12.359  0.00  0.00     0.283 C 
BRANCH   9  10
ATOM     10  N   UNL d   1       8.655   5.893 -11.510  0.00  0.00     0.144 N 
ATOM     11  C   UNL d   1       9.307   7.200 -11.414  0.00  0.00     0.274 C 
ATOM     12  C   UNL d   1      10.538   7.115 -10.499  0.00  0.00     0.137 C 
ATOM     13  N   UNL d   1      10.179   6.614  -9.186  0.00  0.00    -0.344 N 
ATOM     14  C   UNL d   1       9.482   5.315  -9.250  0.00  0.00     0.137 C 
ATOM     15  C   UNL d   1       8.263   5.459 -10.160  0.00  0.00     0.274 C 
BRANCH  13  16
ATOM     16  C   UNL d   1      10.601   7.261  -8.024  0.00  0.00     0.056 A 
ATOM     17  C   UNL d   1      10.105   6.834  -6.769  0.00  0.00     0.019 A 
ATOM     18  C   UNL d   1      10.525   7.452  -5.593  0.00  0.00     0.031 A 
ATOM     19  C   UNL d   1      11.364   8.573  -5.614  0.00  0.00     0.140 A 
ATOM     20  C   UNL d   1      11.867   9.032  -6.839  0.00  0.00     0.031 A 
ATOM     21  F   UNL d   1      11.709   9.196  -4.457  0.00  0.00    -0.204 F 
ATOM     22  C   UNL d   1      11.525   8.354  -8.031  0.00  0.00     0.019 A 
ENDBRANCH  13  16
ENDBRANCH   9  10
ENDBRANCH   8   9
ENDBRANCH   7   8
ENDBRANCH   6   7
BRANCH   1  23
ATOM     23  C   UNL d   1      10.185   2.978 -15.057  0.00  0.00     0.033 C 
BRANCH  23  24
ATOM     24  C   UNL d   1      10.101   3.996 -16.203  0.00  0.00     0.031 C 
BRANCH  24  25
ATOM     25  C   UNL d   1      11.468   4.508 -16.613  0.00  0.00    -0.020 A 
ATOM     26  C   UNL d   1      11.951   5.737 -16.123  0.00  0.00    -0.004 A 
ATOM     27  C   UNL d   1      13.221   6.198 -16.513  0.00  0.00     0.002 A 
ATOM     28  C   UNL d   1      14.012   5.429 -17.390  0.00  0.00     0.024 A 
ATOM     29  C   UNL d   1      13.546   4.197 -17.890  0.00  0.00     0.094 A 
ATOM     30  C   UNL d   1      12.263   3.742 -17.494  0.00  0.00     0.020 A 
BRANCH  29  31
ATOM     31  O   UNL d   1      14.385   3.509 -18.744  0.00  0.00    -0.328 OA
ATOM     32  C   UNL d   1      13.928   2.276 -19.282  0.00  0.00     0.181 C 
ENDBRANCH  29  31
ENDBRANCH  24  25
ENDBRANCH  23  24
ENDBRANCH   1  23
TORSDOF 9
