REMARK  3 active torsions:
REMARK  status: ('A' for Active; 'I' for Inactive)
REMARK    1  A    between atoms: C_7  and  C_8 
REMARK    2  A    between atoms: C_8  and  CA_9 
REMARK    3  A    between atoms: CA_9  and  C_11 
ROOT
ATOM      1  C   UNL d   1      11.485   6.384  -4.139  0.00  0.00     0.060 C 
ATOM      2  C   UNL d   1      11.460   7.781  -4.612  0.00  0.00     0.103 A 
ATOM      3  O   UNL d   1      11.470   8.737  -3.642  0.00  0.00    -0.214 OA
ATOM      4  N   UNL d   1      11.432   9.985  -4.258  0.00  0.00    -0.099 NA
ATOM      5  C   UNL d   1      11.439   9.726  -5.549  0.00  0.00     0.235 A 
ATOM      6  O   UNL d   1      11.476  10.768  -6.413  0.00  0.00    -0.167 OA
ATOM      7  C   UNL d   1      11.399   8.345  -5.856  0.00  0.00     0.047 A 
ENDROOT
BRANCH   7   8
ATOM      8  C   UNL d   1      11.396   7.684  -7.214  0.00  0.00     0.082 C 
BRANCH   8   9
ATOM      9  CA  UNL d   1      10.159   8.047  -8.093  0.00  0.00     0.392 C 
ATOM     10  N   UNL d   1       9.106   7.051  -7.933  0.00  0.00     0.628 N 
BRANCH   9  11
ATOM     11  C   UNL d   1      10.492   8.294  -9.571  0.00  0.00     0.224 C 
ATOM     12  O   UNL d   1      11.656   8.373  -9.951  0.00  0.00    -0.646 OA
ATOM     13  OXT UNL d   1       9.468   8.485 -10.435  0.00  0.00    -0.646 OA
ENDBRANCH   9  11
ENDBRANCH   8   9
ENDBRANCH   7   8
TORSDOF 3
