REMARK  7 active torsions:
REMARK  status: ('A' for Active; 'I' for Inactive)
REMARK    1  A    between atoms: C_2  and  C_3 
REMARK    2  A    between atoms: N_8  and  C_9 
REMARK    3  A    between atoms: C_9  and  C_10 
REMARK    4  A    between atoms: C_10  and  C_11 
REMARK    5  A    between atoms: C_11  and  C_12 
REMARK    6  A    between atoms: C_12  and  N_13 
REMARK    7  A    between atoms: N_16  and  C_17 
ROOT
ATOM      1  N   UNL d   1       8.207   4.859 -12.518  0.00  0.00     0.141 N 
ATOM      2  C   UNL d   1       7.744   4.460 -11.194  0.00  0.00     0.274 C 
ATOM      3  C   UNL d   1       8.944   4.479 -10.236  0.00  0.00     0.137 C 
ATOM      4  N   UNL d   1       9.463   5.837 -10.173  0.00  0.00    -0.344 N 
ATOM      5  C   UNL d   1       9.721   6.462 -11.454  0.00  0.00     0.137 C 
ATOM      6  C   UNL d   1       8.541   6.287 -12.412  0.00  0.00     0.274 C 
ENDROOT
BRANCH   1   7
ATOM      7  C   UNL d   1       7.148   4.709 -13.503  0.00  0.00     0.251 C 
BRANCH   7   8
ATOM      8  C   UNL d   1       6.744   3.259 -13.845  0.00  0.00     0.037 C 
BRANCH   8   9
ATOM      9  C   UNL d   1       7.841   2.543 -14.660  0.00  0.00     0.027 C 
BRANCH   9  10
ATOM     10  C   UNL d   1       7.313   1.242 -15.292  0.00  0.00     0.112 C 
BRANCH  10  11
ATOM     11  N   UNL d   1       8.204   0.768 -16.362  0.00  0.00    -0.271 N 
ATOM     12  C   UNL d   1       7.880   0.993 -17.654  0.00  0.00     0.239 C 
ATOM     13  C   UNL d   1       8.803   0.503 -18.788  0.00  0.00     0.089 C 
ATOM     14  O   UNL d   1       6.878   1.592 -18.001  0.00  0.00    -0.272 OA
ATOM     15  C   UNL d   1      10.288   0.455 -18.393  0.00  0.00     0.018 C 
ATOM     16  C   UNL d   1      10.350  -0.327 -17.071  0.00  0.00     0.089 C 
ATOM     17  C   UNL d   1      10.848   1.897 -18.220  0.00  0.00     0.001 C 
ATOM     18  C   UNL d   1       9.377   0.165 -16.000  0.00  0.00     0.239 C 
ATOM     19  O   UNL d   1       9.719  -0.002 -14.823  0.00  0.00    -0.272 OA
BRANCH  15  20
ATOM     20  C   UNL d   1      11.083  -0.301 -19.491  0.00  0.00     0.001 C 
ATOM     21  C   UNL d   1      12.577  -0.544 -19.187  0.00  0.00     0.000 C 
ENDBRANCH  15  20
ENDBRANCH  10  11
ENDBRANCH   9  10
ENDBRANCH   8   9
ENDBRANCH   7   8
ENDBRANCH   1   7
BRANCH   4  22
ATOM     22  C   UNL d   1       9.638   6.484  -8.965  0.00  0.00     0.057 A 
ATOM     23  C   UNL d   1      10.747   7.328  -8.675  0.00  0.00     0.022 A 
ATOM     24  C   UNL d   1      10.762   8.018  -7.431  0.00  0.00     0.031 A 
ATOM     25  C   UNL d   1      11.883   7.617  -9.467  0.00  0.00     0.009 A 
ATOM     26  C   UNL d   1       9.751   7.881  -6.491  0.00  0.00     0.007 A 
ATOM     27  S   UNL d   1      12.177   8.989  -7.246  0.00  0.00    -0.086 SA
ATOM     28  C   UNL d   1       8.691   7.018  -6.789  0.00  0.00     0.002 A 
ATOM     29  C   UNL d   1       8.669   6.306  -7.977  0.00  0.00     0.017 A 
ATOM     30  C   UNL d   1      12.748   8.411  -8.777  0.00  0.00     0.035 A 
ENDBRANCH   4  22
TORSDOF 7
