REMARK  2 active torsions:
REMARK  status: ('A' for Active; 'I' for Inactive)
REMARK    1  A    between atoms: N_5  and  C_6 
REMARK    2  A    between atoms: C_20  and  C_21 
ROOT
ATOM      1  C   UNL d   1       9.135   5.007 -12.226  0.00  0.00     0.252 A 
ATOM      2  N   UNL d   1       8.286   4.025 -12.530  0.00  0.00    -0.205 NA
ATOM      3  C   UNL d   1       8.838   3.525 -13.682  0.00  0.00     0.107 A 
ATOM      4  C   UNL d   1       8.421   2.496 -14.532  0.00  0.00     0.017 A 
ATOM      5  C   UNL d   1       9.185   2.117 -15.671  0.00  0.00    -0.019 A 
ATOM      6  C   UNL d   1      10.371   2.855 -15.966  0.00  0.00    -0.022 A 
ATOM      7  C   UNL d   1      10.785   3.920 -15.133  0.00  0.00     0.022 A 
ATOM      8  C   UNL d   1      10.009   4.223 -14.012  0.00  0.00     0.120 A 
ATOM      9  O   UNL d   1      10.197   5.196 -13.060  0.00  0.00    -0.275 OA
ATOM     10  C   UNL d   1      11.230   2.536 -17.176  0.00  0.00     0.061 C 
ATOM     11  C   UNL d   1      11.853   1.133 -17.105  0.00  0.00     0.255 C 
ATOM     12  N   UNL d   1      10.962   0.042 -17.499  0.00  0.00     0.140 N 
ATOM     13  C   UNL d   1      10.666   0.036 -18.929  0.00  0.00     0.285 C 
ATOM     14  C   UNL d   1       9.786  -0.191 -16.654  0.00  0.00     0.259 C 
ATOM     15  C   UNL d   1       8.744   0.958 -16.584  0.00  0.00     0.078 C 
ENDROOT
BRANCH   1  16
ATOM     16  N   UNL d   1       9.087   5.834 -11.118  0.00  0.00    -0.310 N 
ATOM     17  C   UNL d   1       8.463   5.495  -9.844  0.00  0.00     0.140 C 
ATOM     18  C   UNL d   1       9.440   5.721  -8.668  0.00  0.00     0.274 C 
ATOM     19  N   UNL d   1       9.888   7.111  -8.639  0.00  0.00     0.143 N 
ATOM     20  C   UNL d   1      10.789   7.327  -7.521  0.00  0.00     0.286 C 
ATOM     21  C   UNL d   1      10.566   7.409  -9.895  0.00  0.00     0.274 C 
ATOM     22  C   UNL d   1       9.585   7.206 -11.064  0.00  0.00     0.140 C 
ENDBRANCH   1  16
BRANCH  15  23
ATOM     23  C   UNL d   1       7.351   0.398 -16.267  0.00  0.00    -0.017 A 
ATOM     24  C   UNL d   1       6.352   0.436 -17.261  0.00  0.00    -0.004 A 
ATOM     25  C   UNL d   1       5.063  -0.085 -16.997  0.00  0.00    -0.000 A 
ATOM     26  C   UNL d   1       4.766  -0.622 -15.729  0.00  0.00    -0.000 A 
ATOM     27  C   UNL d   1       5.755  -0.671 -14.737  0.00  0.00    -0.000 A 
ATOM     28  C   UNL d   1       7.061  -0.202 -15.022  0.00  0.00    -0.004 A 
ENDBRANCH  15  23
TORSDOF 2
