REMARK  6 active torsions:
REMARK  status: ('A' for Active; 'I' for Inactive)
REMARK    1  A    between atoms: C_6  and  C_7 
REMARK    2  A    between atoms: C_10  and  S_11 
REMARK    3  A    between atoms: S_11  and  C_12 
REMARK    4  A    between atoms: C_12  and  C_13 
REMARK    5  A    between atoms: C_13  and  C_14 
REMARK    6  A    between atoms: C_14  and  N_15 
ROOT
ATOM      1  C   UNL d   1       7.338   4.103 -13.607  0.00  0.00     0.067 C 
ENDROOT
BRANCH   1   2
ATOM      2  S   UNL d   1       7.782   2.658 -14.612  0.00  0.00    -0.075 SA
BRANCH   2   3
ATOM      3  C   UNL d   1       9.061   3.359 -15.618  0.00  0.00     0.193 A 
ATOM      4  N   UNL d   1       9.187   4.655 -15.919  0.00  0.00    -0.122 NA
ATOM      5  N   UNL d   1      10.244   4.750 -16.770  0.00  0.00    -0.128 NA
ATOM      6  C   UNL d   1      10.745   3.515 -16.855  0.00  0.00     0.167 A 
ATOM      7  N   UNL d   1      10.027   2.605 -16.162  0.00  0.00    -0.289 N 
ATOM      8  C   UNL d   1      10.233   1.176 -16.019  0.00  0.00     0.134 C 
BRANCH   6   9
ATOM      9  C   UNL d   1      11.935   3.211 -17.637  0.00  0.00     0.037 A 
ATOM     10  C   UNL d   1      13.143   3.940 -17.487  0.00  0.00     0.021 A 
ATOM     11  C   UNL d   1      13.270   5.006 -16.563  0.00  0.00     0.003 A 
ATOM     12  C   UNL d   1      14.277   3.606 -18.276  0.00  0.00     0.081 A 
ATOM     13  C   UNL d   1      14.486   5.699 -16.464  0.00  0.00     0.015 A 
ATOM     14  C   UNL d   1      15.547   5.294 -17.287  0.00  0.00     0.059 A 
ATOM     15  C   UNL d   1      16.893   5.982 -17.221  0.00  0.00     0.052 C 
ATOM     16  N   UNL d   1      15.441   4.287 -18.173  0.00  0.00    -0.250 NA
ATOM     17  C   UNL d   1      14.180   2.534 -19.190  0.00  0.00     0.019 A 
ATOM     18  C   UNL d   1      12.986   1.807 -19.333  0.00  0.00     0.002 A 
ATOM     19  C   UNL d   1      11.866   2.151 -18.564  0.00  0.00     0.003 A 
ENDBRANCH   6   9
ENDBRANCH   2   3
ENDBRANCH   1   2
BRANCH   1  20
ATOM     20  C   UNL d   1       8.535   4.635 -12.809  0.00  0.00     0.047 C 
BRANCH  20  21
ATOM     21  C   UNL d   1       8.195   5.807 -11.880  0.00  0.00     0.251 C 
BRANCH  21  22
ATOM     22  N   UNL d   1       9.361   6.123 -11.054  0.00  0.00     0.138 N 
ATOM     23  C   UNL d   1       9.479   7.573 -10.898  0.00  0.00     0.255 C 
ATOM     24  C   UNL d   1      10.825   8.042 -10.341  0.00  0.00     0.061 C 
ATOM     25  C   UNL d   1      10.942   7.934  -8.835  0.00  0.00    -0.024 A 
ATOM     26  C   UNL d   1      10.761   6.705  -8.153  0.00  0.00    -0.024 A 
ATOM     27  C   UNL d   1      11.198   9.098  -8.092  0.00  0.00    -0.000 A 
ATOM     28  C   UNL d   1      10.414   5.465  -8.896  0.00  0.00     0.061 C 
ATOM     29  C   UNL d   1      10.950   6.594  -6.766  0.00  0.00    -0.007 A 
ATOM     30  C   UNL d   1       9.203   5.428  -9.769  0.00  0.00     0.255 C 
ATOM     31  C   UNL d   1      11.215   7.765  -6.072  0.00  0.00     0.004 A 
ATOM     32  C   UNL d   1      11.472   7.991  -4.626  0.00  0.00     0.131 C 
ATOM     33  C   UNL d   1      11.299   8.960  -6.707  0.00  0.00     0.053 A 
ATOM     34  N   UNL d   1      11.569   9.432  -4.497  0.00  0.00    -0.311 N 
ATOM     35  C   UNL d   1      11.551  10.046  -5.730  0.00  0.00     0.257 C 
ATOM     36  C   UNL d   1      11.768  10.046  -3.194  0.00  0.00     0.129 C 
ATOM     37  O   UNL d   1      11.716  11.176  -6.056  0.00  0.00    -0.267 OA
ENDBRANCH  21  22
ENDBRANCH  20  21
ENDBRANCH   1  20
TORSDOF 6
