REMARK  5 active torsions:
REMARK  status: ('A' for Active; 'I' for Inactive)
REMARK    1  A    between atoms: O_2  and  C_3 
REMARK    2  A    between atoms: C_6  and  S_7 
REMARK    3  A    between atoms: S_7  and  N_10 
REMARK    4  A    between atoms: C_22  and  N_23 
REMARK    5  A    between atoms: N_23  and  C_24 
ROOT
ATOM      1  C   UNL d   1       8.900   2.547 -19.672  0.00  0.00     0.111 A 
ATOM      2  C   UNL d   1       9.931   3.186 -18.932  0.00  0.00     0.026 A 
ATOM      3  C   UNL d   1      10.185   2.825 -17.597  0.00  0.00     0.015 A 
ATOM      4  C   UNL d   1       9.426   1.799 -17.007  0.00  0.00     0.106 A 
ATOM      5  C   UNL d   1       8.410   1.148 -17.723  0.00  0.00     0.034 A 
ATOM      6  C   UNL d   1       8.130   1.530 -19.051  0.00  0.00     0.099 A 
ENDROOT
BRANCH   4   7
ATOM      7  S   UNL d   1       9.693   1.347 -15.309  0.00  0.00     0.273 S 
ATOM      8  O   UNL d   1       9.262  -0.041 -15.107  0.00  0.00    -0.200 OA
ATOM      9  O   UNL d   1      11.032   1.785 -14.880  0.00  0.00    -0.200 OA
BRANCH   7  10
ATOM     10  N   UNL d   1       8.527   2.303 -14.468  0.00  0.00    -0.215 N 
ATOM     11  C   UNL d   1       8.709   3.582 -13.995  0.00  0.00     0.157 A 
ATOM     12  C   UNL d   1       7.501   3.949 -13.328  0.00  0.00     0.034 A 
ATOM     13  N   UNL d   1       9.831   4.339 -14.117  0.00  0.00    -0.225 NA
ATOM     14  C   UNL d   1       6.571   2.868 -13.464  0.00  0.00    -0.001 A 
ATOM     15  C   UNL d   1       7.504   5.211 -12.689  0.00  0.00     0.016 A 
ATOM     16  C   UNL d   1       7.236   1.885 -14.160  0.00  0.00     0.089 A 
ATOM     17  C   UNL d   1       5.224   2.761 -12.824  0.00  0.00     0.033 C 
ATOM     18  C   UNL d   1       8.656   6.012 -12.790  0.00  0.00     0.077 A 
ATOM     19 CL   UNL d   1       8.731   7.573 -12.069  0.00  0.00    -0.081 Cl
ATOM     20  C   UNL d   1       9.760   5.532 -13.512  0.00  0.00     0.112 A 
ENDBRANCH   7  10
ENDBRANCH   4   7
BRANCH   6  21
ATOM     21  N   UNL d   1       7.072   0.960 -19.779  0.00  0.00    -0.271 NA
BRANCH  21  22
ATOM     22  C   UNL d   1       6.200  -0.080 -19.234  0.00  0.00     0.107 C 
ATOM     23  C   UNL d   1       4.878  -0.142 -20.007  0.00  0.00     0.060 C 
ATOM     24  C   UNL d   1       3.980  -1.260 -19.454  0.00  0.00     0.252 C 
ATOM     25  N   UNL d   1       4.667  -2.548 -19.552  0.00  0.00     0.139 N 
ATOM     26  C   UNL d   1       5.881  -2.546 -18.732  0.00  0.00     0.252 C 
ATOM     27  C   UNL d   1       3.778  -3.606 -19.091  0.00  0.00     0.285 C 
ATOM     28  C   UNL d   1       6.861  -1.477 -19.247  0.00  0.00     0.060 C 
ENDBRANCH  21  22
ENDBRANCH   6  21
BRANCH   1  29
ATOM     29  O   UNL d   1       8.580   2.872 -20.976  0.00  0.00    -0.327 OA
ATOM     30  C   UNL d   1       9.321   3.905 -21.612  0.00  0.00     0.181 C 
ENDBRANCH   1  29
TORSDOF 5
