REMARK  4 active torsions:
REMARK  status: ('A' for Active; 'I' for Inactive)
REMARK    1  A    between atoms: C_11  and  C_12 
REMARK    2  A    between atoms: C_12  and  C_13 
REMARK    3  A    between atoms: C_13  and  N_14 
REMARK    4  A    between atoms: N_17  and  C_18 
ROOT
ATOM      1  N   UNL d   1       8.614   4.853 -12.695  0.00  0.00     0.141 N 
ATOM      2  C   UNL d   1       9.723   5.802 -12.687  0.00  0.00     0.274 C 
ATOM      3  C   UNL d   1       9.384   7.023 -11.808  0.00  0.00     0.137 C 
ATOM      4  N   UNL d   1       9.142   6.559 -10.447  0.00  0.00    -0.344 N 
ATOM      5  C   UNL d   1       8.070   5.569 -10.381  0.00  0.00     0.137 C 
ATOM      6  C   UNL d   1       8.411   4.403 -11.314  0.00  0.00     0.274 C 
ENDROOT
BRANCH   1   7
ATOM      7  C   UNL d   1       8.972   3.702 -13.526  0.00  0.00     0.253 C 
BRANCH   7   8
ATOM      8  C   UNL d   1       7.720   2.906 -13.944  0.00  0.00     0.062 C 
BRANCH   8   9
ATOM      9  C   UNL d   1       8.020   1.456 -14.385  0.00  0.00     0.109 A 
ATOM     10  N   UNL d   1       8.663   1.393 -15.716  0.00  0.00    -0.313 N 
ATOM     11  C   UNL d   1      10.082   1.683 -15.893  0.00  0.00     0.129 C 
ATOM     12  C   UNL d   1       7.878   0.832 -16.660  0.00  0.00     0.257 A 
ATOM     13  O   UNL d   1       8.130   0.653 -17.853  0.00  0.00    -0.267 OA
ATOM     14  C   UNL d   1       6.649   0.384 -15.967  0.00  0.00     0.054 A 
ATOM     15  C   UNL d   1       6.727   0.714 -14.627  0.00  0.00     0.003 A 
ATOM     16  C   UNL d   1       5.548  -0.308 -16.498  0.00  0.00     0.004 A 
ATOM     17  C   UNL d   1       5.698   0.384 -13.726  0.00  0.00    -0.002 A 
ATOM     18  C   UNL d   1       4.573  -0.303 -14.240  0.00  0.00    -0.000 A 
ATOM     19  C   UNL d   1       4.505  -0.657 -15.610  0.00  0.00     0.000 A 
ENDBRANCH   8   9
ENDBRANCH   7   8
ENDBRANCH   1   7
BRANCH   4  20
ATOM     20  C   UNL d   1       9.730   7.137  -9.306  0.00  0.00     0.056 A 
ATOM     21  C   UNL d   1       9.098   7.062  -8.034  0.00  0.00     0.018 A 
ATOM     22  C   UNL d   1       9.694   7.633  -6.892  0.00  0.00     0.013 A 
ATOM     23  C   UNL d   1      10.928   8.296  -6.995  0.00  0.00     0.058 A 
ATOM     24  C   UNL d   1      11.570   8.377  -8.247  0.00  0.00     0.013 A 
ATOM     25 CL   UNL d   1      11.635   9.009  -5.592  0.00  0.00    -0.082 Cl
ATOM     26  C   UNL d   1      10.976   7.805  -9.390  0.00  0.00     0.018 A 
ENDBRANCH   4  20
TORSDOF 4
