REMARK  3 active torsions:
REMARK  status: ('A' for Active; 'I' for Inactive)
REMARK    1  A    between atoms: C_2  and  C_3 
REMARK    2  A    between atoms: C_3  and  N_4 
REMARK    3  A    between atoms: C_20  and  O_21 
ROOT
ATOM      1  N   UNL d   1       5.296   0.226 -14.339  0.00  0.00     0.140 N 
ATOM      2  C   UNL d   1       4.526  -1.016 -14.333  0.00  0.00     0.255 C 
ATOM      3  C   UNL d   1       3.926  -1.203 -15.715  0.00  0.00     0.061 C 
ATOM      4  C   UNL d   1       4.922  -1.185 -16.847  0.00  0.00    -0.022 A 
ATOM      5  C   UNL d   1       4.672  -1.693 -18.142  0.00  0.00    -0.004 A 
ATOM      6  C   UNL d   1       5.672  -1.565 -19.115  0.00  0.00    -0.000 A 
ATOM      7  C   UNL d   1       6.892  -0.981 -18.820  0.00  0.00    -0.000 A 
ATOM      8  C   UNL d   1       7.239  -0.469 -17.545  0.00  0.00    -0.001 A 
ATOM      9  C   UNL d   1       6.194  -0.573 -16.597  0.00  0.00     0.005 A 
ATOM     10  C   UNL d   1       6.488  -0.018 -15.187  0.00  0.00     0.245 C 
ATOM     11  C   UNL d   1       7.337   1.233 -15.355  0.00  0.00     0.064 C 
ATOM     12  C   UNL d   1       8.567   1.106 -16.145  0.00  0.00    -0.018 A 
ATOM     13  C   UNL d   1       9.683   1.886 -15.809  0.00  0.00    -0.004 A 
ATOM     14  C   UNL d   1      10.881   1.739 -16.515  0.00  0.00    -0.003 A 
ATOM     15  C   UNL d   1      10.944   0.786 -17.571  0.00  0.00     0.000 A 
ATOM     16  C   UNL d   1      12.284   0.586 -18.251  0.00  0.00     0.033 C 
ATOM     17  C   UNL d   1       9.778   0.041 -17.921  0.00  0.00     0.090 A 
ATOM     18  C   UNL d   1       8.551   0.212 -17.228  0.00  0.00     0.018 A 
ENDROOT
BRANCH   1  19
ATOM     19  C   UNL d   1       5.633   0.609 -12.962  0.00  0.00     0.251 C 
BRANCH  19  20
ATOM     20  C   UNL d   1       5.325   2.115 -12.649  0.00  0.00     0.035 C 
ATOM     21  C   UNL d   1       6.097   3.197 -13.392  0.00  0.00     0.002 C 
ENDBRANCH  19  20
ENDBRANCH   1  19
BRANCH  17  22
ATOM     22  O   UNL d   1       9.882  -0.903 -18.932  0.00  0.00    -0.328 OA
ATOM     23  C   UNL d   1       9.834  -0.369 -20.246  0.00  0.00     0.181 C 
ENDBRANCH  17  22
TORSDOF 3
