REMARK  7 active torsions:
REMARK  status: ('A' for Active; 'I' for Inactive)
REMARK    1  A    between atoms: S_2  and  C_5 
REMARK    2  A    between atoms: N_13  and  C_14 
REMARK    3  A    between atoms: C_14  and  C_15 
REMARK    4  A    between atoms: C_15  and  C_16 
REMARK    5  A    between atoms: C_19  and  N_20 
REMARK       I    between atoms: N_20  and  C_21 
REMARK    6  A    between atoms: C_21  and  C_23 
REMARK    7  A    between atoms: C_24  and  C_25 
ROOT
ATOM      1  C   UNL d   1       7.693   3.799 -12.822  0.00  0.00     0.002 C 
ATOM      2  C   UNL d   1       6.961   4.090 -14.091  0.00  0.00     0.002 C 
ATOM      3  C   UNL d   1       6.758   2.794 -14.914  0.00  0.00     0.024 C 
ATOM      4  C   UNL d   1       8.085   2.154 -15.333  0.00  0.00     0.107 C 
ATOM      5  C   UNL d   1       8.838   1.801 -14.071  0.00  0.00     0.024 C 
ATOM      6  C   UNL d   1       9.028   3.065 -13.185  0.00  0.00     0.002 C 
ENDROOT
BRANCH   1   7
ATOM      7  C   UNL d   1       7.944   5.062 -12.005  0.00  0.00     0.035 C 
BRANCH   7   8
ATOM      8  C   UNL d   1       8.407   4.711 -10.573  0.00  0.00     0.250 C 
BRANCH   8   9
ATOM      9  N   UNL d   1       8.761   5.906  -9.833  0.00  0.00     0.138 N 
ATOM     10  C   UNL d   1       8.776   5.580  -8.414  0.00  0.00     0.255 C 
ATOM     11  C   UNL d   1       8.666   6.820  -7.535  0.00  0.00     0.061 C 
ATOM     12  C   UNL d   1       9.929   7.632  -7.407  0.00  0.00    -0.023 A 
ATOM     13  C   UNL d   1      10.674   8.087  -8.538  0.00  0.00    -0.024 A 
ATOM     14  C   UNL d   1      10.337   7.960  -6.100  0.00  0.00     0.006 A 
ATOM     15  C   UNL d   1      11.850   8.810  -8.310  0.00  0.00    -0.004 A 
ATOM     16  C   UNL d   1      10.264   7.866  -9.981  0.00  0.00     0.061 C 
ATOM     17  C   UNL d   1      12.212   9.177  -7.013  0.00  0.00     0.011 A 
ATOM     18  C   UNL d   1      11.475   8.733  -5.920  0.00  0.00     0.084 A 
ATOM     19  C   UNL d   1      10.048   6.405 -10.300  0.00  0.00     0.255 C 
BRANCH  18  20
ATOM     20  S   UNL d   1      12.032   9.106  -4.296  0.00  0.00     0.191 S 
ATOM     21  C   UNL d   1      12.063   7.460  -3.467  0.00  0.00     0.145 C 
ATOM     22  O   UNL d   1      11.035   9.958  -3.649  0.00  0.00    -0.222 OA
ATOM     23  O   UNL d   1      13.412   9.584  -4.435  0.00  0.00    -0.222 OA
ENDBRANCH  18  20
ENDBRANCH   8   9
ENDBRANCH   7   8
ENDBRANCH   1   7
BRANCH   4  24
ATOM     24  N   UNL d   1       7.846   0.958 -16.134  0.00  0.00    -0.236 NA
ATOM     25  C   UNL d   1       7.567   0.953 -17.449  0.00  0.00     0.275 C 
ATOM     26  O   UNL d   1       7.459   1.974 -18.123  0.00  0.00    -0.266 OA
BRANCH  25  27
ATOM     27  C   UNL d   1       7.431  -0.404 -17.937  0.00  0.00     0.062 C 
ATOM     28  C   UNL d   1       7.019  -0.639 -19.197  0.00  0.00     0.005 C 
BRANCH  28  29
ATOM     29  C   UNL d   1       6.857  -1.964 -19.819  0.00  0.00     0.002 A 
ATOM     30  C   UNL d   1       7.198  -3.166 -19.155  0.00  0.00     0.030 A 
ATOM     31  C   UNL d   1       7.023  -4.409 -19.793  0.00  0.00     0.140 A 
ATOM     32  C   UNL d   1       6.497  -4.463 -21.096  0.00  0.00     0.030 A 
ATOM     33  F   UNL d   1       7.368  -5.552 -19.154  0.00  0.00    -0.204 F 
ATOM     34  C   UNL d   1       6.149  -3.273 -21.763  0.00  0.00     0.002 A 
ATOM     35  C   UNL d   1       6.330  -2.031 -21.126  0.00  0.00     0.000 A 
ENDBRANCH  28  29
ENDBRANCH  25  27
ENDBRANCH   4  24
TORSDOF 7
