REMARK  6 active torsions:
REMARK  status: ('A' for Active; 'I' for Inactive)
REMARK    1  A    between atoms: N_7  and  C_8 
REMARK    2  A    between atoms: C_8  and  C_9 
REMARK    3  A    between atoms: C_9  and  C_10 
REMARK    4  A    between atoms: C_10  and  C_11 
REMARK    5  A    between atoms: C_11  and  N_12 
REMARK    6  A    between atoms: N_15  and  C_16 
ROOT
ATOM      1  C   UNL d   1       8.156   5.285 -11.575  0.00  0.00     0.037 C 
ENDROOT
BRANCH   1   2
ATOM      2  C   UNL d   1       8.234   4.298 -12.725  0.00  0.00     0.027 C 
BRANCH   2   3
ATOM      3  C   UNL d   1       8.739   4.878 -14.051  0.00  0.00     0.112 C 
BRANCH   3   4
ATOM      4  N   UNL d   1       9.021   3.825 -15.051  0.00  0.00    -0.271 N 
ATOM      5  C   UNL d   1       9.995   3.952 -15.969  0.00  0.00     0.239 A 
ATOM      6  O   UNL d   1      10.808   4.875 -16.070  0.00  0.00    -0.272 OA
ATOM      7  C   UNL d   1       9.975   2.789 -16.951  0.00  0.00     0.091 A 
ATOM      8  C   UNL d   1      11.157   1.800 -16.802  0.00  0.00     0.043 C 
ATOM      9  C   UNL d   1       8.795   1.941 -16.462  0.00  0.00     0.091 A 
ATOM     10  C   UNL d   1      10.804   1.009 -15.533  0.00  0.00     0.006 C 
ATOM     11  C   UNL d   1      11.020   0.710 -17.898  0.00  0.00     0.183 C 
ATOM     12  C   UNL d   1       9.433   0.590 -16.074  0.00  0.00     0.043 C 
ATOM     13  C   UNL d   1       9.811  -0.126 -17.383  0.00  0.00     0.183 C 
ATOM     14  O   UNL d   1      10.141  -1.468 -17.127  0.00  0.00    -0.221 OA
ATOM     15  O   UNL d   1      12.207  -0.055 -18.065  0.00  0.00    -0.221 OA
ATOM     16  C   UNL d   1       8.286   2.717 -15.266  0.00  0.00     0.239 A 
ATOM     17  O   UNL d   1       7.279   2.340 -14.655  0.00  0.00    -0.272 OA
ENDBRANCH   3   4
ENDBRANCH   2   3
ENDBRANCH   1   2
BRANCH   1  18
ATOM     18  C   UNL d   1       9.271   5.046 -10.587  0.00  0.00     0.251 C 
BRANCH  18  19
ATOM     19  N   UNL d   1       9.065   5.877  -9.417  0.00  0.00     0.141 N 
ATOM     20  C   UNL d   1       9.528   7.250  -9.646  0.00  0.00     0.274 C 
ATOM     21  C   UNL d   1       9.297   8.114  -8.386  0.00  0.00     0.137 C 
ATOM     22  N   UNL d   1      10.005   7.504  -7.257  0.00  0.00    -0.344 N 
ATOM     23  C   UNL d   1       9.683   6.115  -7.047  0.00  0.00     0.137 C 
ATOM     24  C   UNL d   1       9.870   5.331  -8.330  0.00  0.00     0.274 C 
BRANCH  22  25
ATOM     25  C   UNL d   1      10.879   8.227  -6.401  0.00  0.00     0.057 C 
ATOM     26  C   UNL d   1      11.307   7.726  -5.126  0.00  0.00     0.022 A 
ATOM     27  C   UNL d   1      12.253   8.500  -4.378  0.00  0.00     0.031 A 
ATOM     28  C   UNL d   1      11.020   6.561  -4.340  0.00  0.00     0.009 A 
ATOM     29  C   UNL d   1      12.729   9.684  -4.868  0.00  0.00     0.007 C 
ATOM     30  S   UNL d   1      12.695   7.847  -2.813  0.00  0.00    -0.086 SA
ATOM     31  C   UNL d   1      12.221  10.237  -6.057  0.00  0.00     0.002 C 
ATOM     32  C   UNL d   1      11.362   9.495  -6.847  0.00  0.00     0.017 C 
ATOM     33  C   UNL d   1      11.701   6.471  -3.164  0.00  0.00     0.035 A 
ENDBRANCH  22  25
ENDBRANCH  18  19
ENDBRANCH   1  18
TORSDOF 6
