REMARK  9 active torsions:
REMARK  status: ('A' for Active; 'I' for Inactive)
REMARK    1  A    between atoms: C_5  and  O_6 
REMARK    2  A    between atoms: O_6  and  C_7 
REMARK    3  A    between atoms: C_7  and  C_8 
REMARK    4  A    between atoms: C_8  and  N_9 
REMARK    5  A    between atoms: N_9  and  C_10 
REMARK    6  A    between atoms: C_10  and  C_11 
REMARK    7  A    between atoms: C_11  and  C_12 
REMARK    8  A    between atoms: C_12  and  O_13 
REMARK    9  A    between atoms: O_13  and  C_14 
ROOT
ATOM      1  N   UNL d   1       8.914   5.986 -10.134  0.00  0.00     0.342 N 
ENDROOT
BRANCH   1   2
ATOM      2  C   UNL d   1       9.439   5.590  -8.838  0.00  0.00     0.323 C 
BRANCH   2   3
ATOM      3  C   UNL d   1       9.933   6.829  -8.089  0.00  0.00     0.187 C 
BRANCH   3   4
ATOM      4  O   UNL d   1      10.654   6.409  -6.938  0.00  0.00    -0.329 OA
BRANCH   4   5
ATOM      5  C   UNL d   1      10.948   7.346  -5.974  0.00  0.00     0.094 A 
ATOM      6  C   UNL d   1      11.544   6.875  -4.785  0.00  0.00     0.026 A 
ATOM      7  C   UNL d   1      11.875   7.757  -3.739  0.00  0.00     0.029 A 
ATOM      8  C   UNL d   1      11.593   9.131  -3.867  0.00  0.00     0.131 A 
ATOM      9  O   UNL d   1      11.859   9.990  -2.848  0.00  0.00    -0.190 OA
ATOM     10  C   UNL d   1      11.004   9.615  -5.050  0.00  0.00     0.029 A 
ATOM     11  C   UNL d   1      10.681   8.735  -6.099  0.00  0.00     0.026 A 
ENDBRANCH   4   5
ENDBRANCH   3   4
ENDBRANCH   2   3
ENDBRANCH   1   2
BRANCH   1  12
ATOM     12  C   UNL d   1       8.351   4.826 -10.795  0.00  0.00     0.293 C 
BRANCH  12  13
ATOM     13  C   UNL d   1       7.934   5.183 -12.220  0.00  0.00     0.071 C 
BRANCH  13  14
ATOM     14  C   UNL d   1       9.114   5.117 -13.200  0.00  0.00     0.151 C 
BRANCH  14  15
ATOM     15  O   UNL d   1       8.643   4.584 -14.435  0.00  0.00    -0.331 OA
BRANCH  15  16
ATOM     16  C   UNL d   1       8.903   3.248 -14.625  0.00  0.00     0.094 A 
ATOM     17  C   UNL d   1       7.826   2.376 -14.882  0.00  0.00     0.024 A 
ATOM     18  C   UNL d   1       8.060   1.000 -15.097  0.00  0.00     0.002 A 
ATOM     19  C   UNL d   1       9.377   0.503 -15.076  0.00  0.00     0.000 A 
ATOM     20  C   UNL d   1      10.454   1.377 -14.845  0.00  0.00     0.002 A 
ATOM     21  C   UNL d   1      10.223   2.747 -14.631  0.00  0.00     0.024 A 
ENDBRANCH  15  16
ENDBRANCH  14  15
ENDBRANCH  13  14
ENDBRANCH  12  13
ENDBRANCH   1  12
TORSDOF 9
