REMARK  8 active torsions:
REMARK  status: ('A' for Active; 'I' for Inactive)
REMARK    1  A    between atoms: C_2  and  C_3 
REMARK    2  A    between atoms: C_3  and  N_4 
REMARK    3  A    between atoms: N_4  and  C_5 
REMARK    4  A    between atoms: N_4  and  C_23 
REMARK    5  A    between atoms: C_5  and  C_6 
REMARK    6  A    between atoms: C_6  and  N_7 
REMARK    7  A    between atoms: N_10  and  C_11 
REMARK    8  A    between atoms: C_31  and  O_32 
ROOT
ATOM      1  C   UNL d   1       9.047   5.195 -11.101  0.00  0.00     0.285 C 
ENDROOT
BRANCH   1   2
ATOM      2  N   UNL d   1       8.010   5.370 -12.138  0.00  0.00     0.137 N 
BRANCH   2   3
ATOM      3  C   UNL d   1       7.073   6.390 -11.699  0.00  0.00     0.250 C 
BRANCH   3   4
ATOM      4  C   UNL d   1       6.244   7.041 -12.828  0.00  0.00     0.035 C 
ATOM      5  C   UNL d   1       5.395   8.231 -12.348  0.00  0.00     0.002 C 
ENDBRANCH   3   4
ENDBRANCH   2   3
BRANCH   2   6
ATOM      6  C   UNL d   1       7.380   4.074 -12.433  0.00  0.00     0.224 C 
ATOM      7  C   UNL d   1       8.042   3.362 -13.642  0.00  0.00     0.059 C 
ATOM      8  C   UNL d   1       7.340   2.096 -14.116  0.00  0.00    -0.022 A 
ATOM      9  C   UNL d   1       6.035   1.740 -13.672  0.00  0.00    -0.004 A 
ATOM     10  C   UNL d   1       8.034   1.233 -14.982  0.00  0.00    -0.004 A 
ATOM     11  C   UNL d   1       5.294   2.604 -12.668  0.00  0.00     0.030 C 
ATOM     12  C   UNL d   1       5.417   0.553 -14.128  0.00  0.00     0.090 A 
ATOM     13  C   UNL d   1       5.846   4.026 -12.660  0.00  0.00     0.038 C 
ATOM     14  C   UNL d   1       6.141  -0.309 -14.982  0.00  0.00     0.024 A 
ATOM     15  C   UNL d   1       7.431   0.041 -15.406  0.00  0.00     0.002 A 
BRANCH  12  16
ATOM     16  O   UNL d   1       4.130   0.305 -13.701  0.00  0.00    -0.328 OA
ATOM     17  C   UNL d   1       3.402  -0.723 -14.327  0.00  0.00     0.181 C 
ENDBRANCH  12  16
ENDBRANCH   2   6
ENDBRANCH   1   2
BRANCH   1  18
ATOM     18  C   UNL d   1       9.918   6.440 -10.750  0.00  0.00     0.286 C 
BRANCH  18  19
ATOM     19  N   UNL d   1      10.575   6.453  -9.436  0.00  0.00     0.143 N 
ATOM     20  C   UNL d   1      11.423   7.663  -9.330  0.00  0.00     0.274 C 
ATOM     21  C   UNL d   1      12.165   7.759  -7.976  0.00  0.00     0.137 C 
ATOM     22  N   UNL d   1      11.212   7.577  -6.904  0.00  0.00    -0.344 N 
ATOM     23  C   UNL d   1      10.300   6.464  -6.980  0.00  0.00     0.137 C 
ATOM     24  C   UNL d   1       9.592   6.465  -8.337  0.00  0.00     0.274 C 
BRANCH  22  25
ATOM     25  C   UNL d   1      11.214   8.405  -5.801  0.00  0.00     0.059 A 
ATOM     26  C   UNL d   1      11.659   8.017  -4.521  0.00  0.00     0.033 A 
ATOM     27  C   UNL d   1      11.626   8.965  -3.472  0.00  0.00     0.083 A 
ATOM     28  C   UNL d   1      12.135   6.728  -4.247  0.00  0.00     0.003 A 
ATOM     29  N   UNL d   1      11.083  10.175  -3.650  0.00  0.00    -0.244 NA
ATOM     30  C   UNL d   1      12.124   8.644  -2.202  0.00  0.00     0.019 A 
ATOM     31  C   UNL d   1      10.641  10.509  -4.861  0.00  0.00     0.100 A 
ATOM     32  C   UNL d   1      10.695   9.685  -5.984  0.00  0.00     0.038 A 
ATOM     33  C   UNL d   1      12.617   7.364  -1.955  0.00  0.00     0.002 A 
ATOM     34  C   UNL d   1      12.608   6.405  -2.966  0.00  0.00     0.000 A 
ENDBRANCH  22  25
ENDBRANCH  18  19
ENDBRANCH   1  18
TORSDOF 8
