REMARK  8 active torsions:
REMARK  status: ('A' for Active; 'I' for Inactive)
REMARK    1  A    between atoms: S_2  and  N_4 
REMARK    2  A    between atoms: S_2  and  C_25 
REMARK    3  A    between atoms: N_4  and  C_5 
REMARK    4  A    between atoms: C_5  and  C_6 
REMARK    5  A    between atoms: C_6  and  C_7 
REMARK    6  A    between atoms: C_7  and  C_8 
REMARK    7  A    between atoms: C_8  and  N_9 
REMARK    8  A    between atoms: C_12  and  C_13 
ROOT
ATOM      1  N   UNL d   1       8.758   6.046 -12.342  0.00  0.00     0.137 N 
ATOM      2  C   UNL d   1       7.317   5.963 -12.556  0.00  0.00     0.251 C 
ATOM      3  C   UNL d   1       7.052   4.875 -13.624  0.00  0.00     0.041 C 
ATOM      4  C   UNL d   1       7.613   3.515 -13.253  0.00  0.00     0.047 C 
ATOM      5  C   UNL d   1       9.092   3.677 -12.916  0.00  0.00     0.041 C 
ATOM      6  C   UNL d   1       9.228   4.750 -11.869  0.00  0.00     0.251 C 
ENDROOT
BRANCH   1   7
ATOM      7  C   UNL d   1       9.100   7.118 -11.403  0.00  0.00     0.250 C 
BRANCH   7   8
ATOM      8  C   UNL d   1       9.068   6.681  -9.914  0.00  0.00     0.037 C 
BRANCH   8   9
ATOM      9  C   UNL d   1       9.511   7.781  -8.962  0.00  0.00     0.029 C 
BRANCH   9  10
ATOM     10  C   UNL d   1       9.277   7.359  -7.500  0.00  0.00     0.139 C 
BRANCH  10  11
ATOM     11  N   UNL d   1       9.521   8.484  -6.616  0.00  0.00    -0.184 NA
BRANCH  11  12
ATOM     12  S   UNL d   1      11.120   9.048  -6.322  0.00  0.00     0.287 S 
ATOM     13  O   UNL d   1      12.029   8.456  -7.303  0.00  0.00    -0.198 OA
ATOM     14  O   UNL d   1      11.056  10.499  -6.104  0.00  0.00    -0.198 OA
BRANCH  12  15
ATOM     15  C   UNL d   1      11.534   8.328  -4.765  0.00  0.00     0.134 A 
ATOM     16  S   UNL d   1      12.092   9.321  -3.452  0.00  0.00    -0.073 SA
ATOM     17  C   UNL d   1      12.258   7.931  -2.428  0.00  0.00     0.036 A 
ATOM     18  C   UNL d   1      11.874   6.785  -3.070  0.00  0.00     0.008 A 
ATOM     19  C   UNL d   1      11.459   7.007  -4.417  0.00  0.00     0.020 A 
ENDBRANCH  12  15
ENDBRANCH  11  12
ENDBRANCH  10  11
ENDBRANCH   9  10
ENDBRANCH   8   9
ENDBRANCH   7   8
ENDBRANCH   1   7
BRANCH   4  20
ATOM     20  C   UNL d   1       7.413   2.478 -14.321  0.00  0.00     0.087 A 
ATOM     21  C   UNL d   1       6.466   1.438 -14.417  0.00  0.00     0.041 A 
ATOM     22  C   UNL d   1       6.662   0.741 -15.608  0.00  0.00     0.129 A 
ATOM     23  C   UNL d   1       5.425   1.054 -13.543  0.00  0.00     0.006 A 
ATOM     24  O   UNL d   1       7.726   1.368 -16.234  0.00  0.00    -0.211 OA
ATOM     25  C   UNL d   1       5.861  -0.331 -16.006  0.00  0.00     0.057 A 
ATOM     26  N   UNL d   1       8.175   2.440 -15.423  0.00  0.00    -0.131 NA
ATOM     27  C   UNL d   1       4.806  -0.706 -15.155  0.00  0.00     0.142 A 
ATOM     28  F   UNL d   1       3.987  -1.717 -15.510  0.00  0.00    -0.204 F 
ATOM     29  C   UNL d   1       4.579  -0.012 -13.937  0.00  0.00     0.030 A 
ENDBRANCH   4  20
TORSDOF 8
