REMARK  7 active torsions:
REMARK  status: ('A' for Active; 'I' for Inactive)
REMARK    1  A    between atoms: C_6  and  C_7 
REMARK    2  A    between atoms: C_10  and  S_11 
REMARK    3  A    between atoms: S_11  and  C_12 
REMARK    4  A    between atoms: C_12  and  C_13 
REMARK    5  A    between atoms: C_13  and  C_14 
REMARK    6  A    between atoms: C_14  and  N_15 
REMARK    7  A    between atoms: C_19  and  C_20 
ROOT
ATOM      1  C   UNL d   1       7.976   5.045 -11.093  0.00  0.00     0.067 C 
ENDROOT
BRANCH   1   2
ATOM      2  S   UNL d   1       8.053   5.874 -12.711  0.00  0.00    -0.075 SA
BRANCH   2   3
ATOM      3  C   UNL d   1       9.161   4.759 -13.489  0.00  0.00     0.193 A 
ATOM      4  N   UNL d   1      10.485   4.906 -13.535  0.00  0.00    -0.122 NA
ATOM      5  N   UNL d   1      10.951   3.793 -14.190  0.00  0.00    -0.126 NA
ATOM      6  C   UNL d   1       9.872   3.050 -14.482  0.00  0.00     0.191 A 
ATOM      7  N   UNL d   1       8.717   3.637 -14.082  0.00  0.00    -0.287 N 
ATOM      8  C   UNL d   1       7.330   3.202 -14.213  0.00  0.00     0.134 C 
BRANCH   6   9
ATOM      9  C   UNL d   1      10.004   1.774 -15.184  0.00  0.00     0.151 A 
ATOM     10  C   UNL d   1       9.306   0.588 -15.173  0.00  0.00     0.087 A 
ATOM     11  C   UNL d   1       8.097   0.177 -14.387  0.00  0.00     0.054 C 
ATOM     12  N   UNL d   1       9.900  -0.285 -16.078  0.00  0.00    -0.221 NA
ATOM     13  C   UNL d   1      10.910   0.410 -16.598  0.00  0.00     0.225 A 
ATOM     14  O   UNL d   1      11.024   1.664 -16.100  0.00  0.00    -0.282 OA
ENDBRANCH   6   9
ENDBRANCH   2   3
ENDBRANCH   1   2
BRANCH   1  15
ATOM     15  C   UNL d   1       9.203   5.398 -10.239  0.00  0.00     0.047 C 
BRANCH  15  16
ATOM     16  C   UNL d   1       8.896   5.553  -8.720  0.00  0.00     0.251 C 
BRANCH  16  17
ATOM     17  N   UNL d   1       9.859   6.386  -7.987  0.00  0.00     0.137 N 
ATOM     18  C   UNL d   1       9.253   7.065  -6.825  0.00  0.00     0.254 C 
ATOM     19  C   UNL d   1      10.213   8.216  -6.519  0.00  0.00     0.052 A 
ATOM     20  C   UNL d   1      10.964   8.435  -7.784  0.00  0.00     0.039 A 
ATOM     21  C   UNL d   1      10.090   9.531  -7.258  0.00  0.00     0.008 A 
ATOM     22  C   UNL d   1      10.434   7.476  -8.782  0.00  0.00     0.251 C 
BRANCH  19  23
ATOM     23  C   UNL d   1      10.994   8.112  -5.245  0.00  0.00    -0.021 A 
ATOM     24  C   UNL d   1      11.285   9.286  -4.487  0.00  0.00    -0.004 A 
ATOM     25  C   UNL d   1      12.032   9.198  -3.305  0.00  0.00    -0.000 A 
ATOM     26  C   UNL d   1      12.486   7.952  -2.842  0.00  0.00    -0.000 A 
ATOM     27  C   UNL d   1      12.198   6.798  -3.573  0.00  0.00    -0.000 A 
ATOM     28  C   UNL d   1      11.468   6.872  -4.774  0.00  0.00    -0.004 A 
ENDBRANCH  19  23
ENDBRANCH  16  17
ENDBRANCH  15  16
ENDBRANCH   1  15
TORSDOF 7
