REMARK  6 active torsions:
REMARK  status: ('A' for Active; 'I' for Inactive)
REMARK    1  A    between atoms: C_2  and  C_3 
REMARK    2  A    between atoms: C_3  and  N_4 
REMARK    3  A    between atoms: N_4  and  C_5 
REMARK    4  A    between atoms: C_12  and  C_13 
REMARK    5  A    between atoms: C_13  and  S_14 
REMARK    6  A    between atoms: S_14  and  C_17 
ROOT
ATOM      1  C   UNL d   1       8.003   5.518 -12.288  0.00  0.00     0.261 C 
ATOM      2  C   UNL d   1       6.798   4.766 -11.718  0.00  0.00     0.041 C 
ATOM      3  C   UNL d   1       6.083   3.943 -12.789  0.00  0.00     0.028 C 
ATOM      4  C   UNL d   1       7.035   3.166 -13.690  0.00  0.00    -0.026 A 
ATOM      5  C   UNL d   1       6.518   2.077 -14.418  0.00  0.00    -0.005 A 
ATOM      6  C   UNL d   1       7.349   1.321 -15.267  0.00  0.00    -0.001 A 
ATOM      7  C   UNL d   1       8.714   1.635 -15.373  0.00  0.00    -0.004 A 
ATOM      8  C   UNL d   1       9.260   2.707 -14.628  0.00  0.00    -0.010 A 
ATOM      9  C   UNL d   1       8.420   3.474 -13.783  0.00  0.00    -0.027 A 
ATOM     10  C   UNL d   1       9.025   4.570 -12.920  0.00  0.00     0.062 C 
ENDROOT
BRANCH   8  11
ATOM     11  C   UNL d   1      10.752   2.999 -14.749  0.00  0.00     0.157 C 
BRANCH  11  12
ATOM     12  S   UNL d   1      11.051   4.470 -15.835  0.00  0.00     0.262 S 
ATOM     13  O   UNL d   1       9.905   4.644 -16.735  0.00  0.00    -0.217 OA
ATOM     14  O   UNL d   1      11.489   5.585 -14.980  0.00  0.00    -0.217 OA
BRANCH  12  15
ATOM     15  C   UNL d   1      12.504   3.953 -16.834  0.00  0.00     0.499 C 
ATOM     16  F   UNL d   1      12.666   4.825 -17.829  0.00  0.00    -0.157 F 
ATOM     17  F   UNL d   1      13.570   3.979 -16.050  0.00  0.00    -0.157 F 
ATOM     18  F   UNL d   1      12.311   2.728 -17.326  0.00  0.00    -0.157 F 
ENDBRANCH  12  15
ENDBRANCH  11  12
ENDBRANCH   8  11
BRANCH   1  19
ATOM     19  N   UNL d   1       8.649   6.405 -11.320  0.00  0.00     0.337 N 
BRANCH  19  20
ATOM     20  C   UNL d   1       9.055   5.738 -10.092  0.00  0.00     0.290 C 
BRANCH  20  21
ATOM     21  C   UNL d   1       9.748   6.732  -9.162  0.00  0.00     0.038 C 
ATOM     22  C   UNL d   1      10.133   6.037  -7.854  0.00  0.00     0.002 C 
ENDBRANCH  20  21
ENDBRANCH  19  20
ENDBRANCH   1  19
TORSDOF 6
