REMARK  4 active torsions:
REMARK  status: ('A' for Active; 'I' for Inactive)
REMARK    1  A    between atoms: N_7  and  C_8 
REMARK    2  A    between atoms: C_8  and  C_9 
REMARK    3  A    between atoms: C_9  and  C_10 
REMARK    4  A    between atoms: C_20  and  C_21 
ROOT
ATOM      1  O   UNL d   1       9.271   3.203 -18.312  0.00  0.00    -0.296 OA
ATOM      2  C   UNL d   1      10.004   3.446 -17.337  0.00  0.00     0.159 C 
ATOM      3  C   UNL d   1       9.836   2.687 -16.040  0.00  0.00     0.092 C 
ATOM      4  C   UNL d   1       9.887   3.651 -14.848  0.00  0.00     0.104 C 
ATOM      5  C   UNL d   1       8.668   4.583 -14.767  0.00  0.00     0.063 C 
ATOM      6  C   UNL d   1       8.646   5.468 -13.524  0.00  0.00     0.253 C 
ATOM      7  N   UNL d   1       8.585   4.608 -12.348  0.00  0.00     0.138 N 
ATOM      8  C   UNL d   1       9.774   3.735 -12.356  0.00  0.00     0.253 C 
ATOM      9  C   UNL d   1       9.827   2.805 -13.568  0.00  0.00     0.063 C 
ATOM     10  O   UNL d   1      11.100   4.413 -14.903  0.00  0.00    -0.358 OA
ATOM     11  C   UNL d   1      11.223   5.273 -16.042  0.00  0.00     0.154 C 
ATOM     12  C   UNL d   1      11.144   4.474 -17.365  0.00  0.00     0.110 C 
ENDROOT
BRANCH  12  13
ATOM     13  C   UNL d   1      11.045   5.408 -18.558  0.00  0.00    -0.013 A 
ATOM     14  C   UNL d   1      12.080   5.408 -19.521  0.00  0.00    -0.002 A 
ATOM     15  C   UNL d   1      11.999   6.245 -20.648  0.00  0.00     0.029 A 
ATOM     16  C   UNL d   1      10.888   7.092 -20.825  0.00  0.00     0.140 A 
ATOM     17  C   UNL d   1       9.857   7.112 -19.870  0.00  0.00     0.029 A 
ATOM     18  F   UNL d   1      10.807   7.885 -21.924  0.00  0.00    -0.204 F 
ATOM     19  C   UNL d   1       9.939   6.270 -18.735  0.00  0.00    -0.002 A 
ENDBRANCH  12  13
BRANCH   7  20
ATOM     20  C   UNL d   1       8.468   5.440 -11.139  0.00  0.00     0.255 C 
BRANCH  20  21
ATOM     21  C   UNL d   1       9.822   5.798 -10.503  0.00  0.00     0.062 C 
BRANCH  21  22
ATOM     22  C   UNL d   1       9.779   6.742  -9.344  0.00  0.00    -0.020 A 
ATOM     23  C   UNL d   1       9.069   6.400  -8.184  0.00  0.00    -0.004 A 
ATOM     24  C   UNL d   1       9.063   7.281  -7.091  0.00  0.00    -0.000 A 
ATOM     25  C   UNL d   1       9.786   8.488  -7.162  0.00  0.00    -0.000 A 
ATOM     26  C   UNL d   1      10.524   8.813  -8.315  0.00  0.00    -0.000 A 
ATOM     27  C   UNL d   1      10.523   7.937  -9.415  0.00  0.00    -0.004 A 
ENDBRANCH  21  22
ENDBRANCH  20  21
ENDBRANCH   7  20
TORSDOF 4
