REMARK  8 active torsions:
REMARK  status: ('A' for Active; 'I' for Inactive)
REMARK       I    between atoms: C_2  and  N_3 
REMARK    1  A    between atoms: C_2  and  C_22 
REMARK    2  A    between atoms: N_3  and  C_4 
REMARK    3  A    between atoms: C_4  and  C_5 
REMARK    4  A    between atoms: C_5  and  C_6 
REMARK    5  A    between atoms: C_6  and  C_7 
REMARK    6  A    between atoms: C_7  and  N_8 
REMARK    7  A    between atoms: N_11  and  C_12 
REMARK    8  A    between atoms: C_25  and  C_26 
ROOT
ATOM      1  C   UNL d   1       9.985   5.012 -12.963  0.00  0.00     0.029 C 
ENDROOT
BRANCH   1   2
ATOM      2  C   UNL d   1       9.188   6.181 -12.366  0.00  0.00     0.129 C 
BRANCH   2   3
ATOM      3  N   UNL d   1       9.568   6.438 -10.982  0.00  0.00    -0.234 NA
ATOM      4  C   UNL d   1       9.864   7.665 -10.491  0.00  0.00     0.275 C 
ATOM      5  O   UNL d   1       9.846   8.686 -11.151  0.00  0.00    -0.266 OA
BRANCH   4   6
ATOM      6  C   UNL d   1      10.282   7.691  -9.046  0.00  0.00     0.058 A 
ATOM      7  C   UNL d   1       9.698   6.831  -8.103  0.00  0.00     0.005 A 
ATOM      8  C   UNL d   1      10.084   6.893  -6.754  0.00  0.00     0.000 A 
ATOM      9  C   UNL d   1      11.057   7.824  -6.324  0.00  0.00     0.001 A 
ATOM     10  C   UNL d   1      11.625   8.704  -7.271  0.00  0.00     0.000 A 
ATOM     11  C   UNL d   1      11.242   8.645  -8.621  0.00  0.00     0.005 A 
BRANCH   9  12
ATOM     12  C   UNL d   1      11.464   7.851  -4.914  0.00  0.00     0.007 A 
ATOM     13  C   UNL d   1      11.466   6.786  -4.044  0.00  0.00     0.035 A 
ATOM     14  S   UNL d   1      12.031   7.220  -2.456  0.00  0.00    -0.086 SA
ATOM     15  C   UNL d   1      12.266   8.867  -2.962  0.00  0.00     0.035 A 
ATOM     16  C   UNL d   1      11.929   9.046  -4.282  0.00  0.00     0.007 A 
ENDBRANCH   9  12
ENDBRANCH   4   6
ENDBRANCH   2   3
ENDBRANCH   1   2
BRANCH   1  17
ATOM     17  C   UNL d   1       9.733   4.801 -14.461  0.00  0.00     0.037 C 
BRANCH  17  18
ATOM     18  C   UNL d   1      10.242   3.422 -14.937  0.00  0.00     0.251 C 
BRANCH  18  19
ATOM     19  N   UNL d   1       9.334   2.302 -14.682  0.00  0.00     0.141 N 
ATOM     20  C   UNL d   1       9.695   1.196 -15.584  0.00  0.00     0.274 C 
ATOM     21  C   UNL d   1       8.766  -0.013 -15.367  0.00  0.00     0.137 C 
ATOM     22  N   UNL d   1       7.367   0.392 -15.477  0.00  0.00    -0.344 N 
ATOM     23  C   UNL d   1       6.982   1.534 -14.677  0.00  0.00     0.137 C 
ATOM     24  C   UNL d   1       7.941   2.689 -14.928  0.00  0.00     0.274 C 
BRANCH  22  25
ATOM     25  C   UNL d   1       6.436  -0.285 -16.263  0.00  0.00     0.067 A 
ATOM     26  C   UNL d   1       5.168  -0.703 -15.767  0.00  0.00     0.074 A 
ATOM     27  C   UNL d   1       4.279  -1.390 -16.605  0.00  0.00     0.024 A 
ATOM     28 CL   UNL d   1       4.664  -0.434 -14.128  0.00  0.00    -0.081 Cl
ATOM     29  C   UNL d   1       4.625  -1.671 -17.938  0.00  0.00     0.059 A 
ATOM     30  C   UNL d   1       5.870  -1.251 -18.443  0.00  0.00     0.013 A 
ATOM     31 CL   UNL d   1       3.531  -2.538 -18.929  0.00  0.00    -0.082 Cl
ATOM     32  C   UNL d   1       6.769  -0.564 -17.614  0.00  0.00     0.019 A 
ENDBRANCH  22  25
ENDBRANCH  18  19
ENDBRANCH  17  18
ENDBRANCH   1  17
TORSDOF 8
