REMARK  5 active torsions:
REMARK  status: ('A' for Active; 'I' for Inactive)
REMARK    1  A    between atoms: C_2  and  C_3 
REMARK    2  A    between atoms: C_6  and  C_7 
REMARK    3  A    between atoms: C_7  and  C_9 
REMARK    4  A    between atoms: C_9  and  C_11 
REMARK    5  A    between atoms: C_11  and  N_12 
ROOT
ATOM      1  C   UNL d   1      10.998   7.631  -8.160  0.00  0.00     0.174 C 
ATOM      2  O   UNL d   1      11.675   7.901  -9.143  0.00  0.00    -0.291 OA
ENDROOT
BRANCH   1   3
ATOM      3  C   UNL d   1      11.432   7.955  -6.780  0.00  0.00     0.035 C 
ATOM      4  C   UNL d   1      12.062   9.186  -6.476  0.00  0.00     0.003 C 
ATOM      5  C   UNL d   1      12.450   9.456  -5.152  0.00  0.00    -0.004 C 
ATOM      6  C   UNL d   1      12.145   8.561  -4.104  0.00  0.00    -0.022 C 
ATOM      7  C   UNL d   1      11.515   7.340  -4.435  0.00  0.00    -0.004 C 
ATOM      8  C   UNL d   1      11.283   6.996  -5.739  0.00  0.00     0.003 C 
BRANCH   6   9
ATOM      9  C   UNL d   1      12.527   8.826  -2.678  0.00  0.00     0.026 C 
ATOM     10  C   UNL d   1      12.566   7.564  -1.804  0.00  0.00     0.005 C 
ENDBRANCH   6   9
ENDBRANCH   1   3
BRANCH   1  11
ATOM     11  C   UNL d   1       9.588   6.963  -8.335  0.00  0.00     0.095 C 
ATOM     12  C   UNL d   1       8.668   6.823  -7.110  0.00  0.00     0.010 C 
BRANCH  11  13
ATOM     13  C   UNL d   1       9.633   5.641  -9.159  0.00  0.00     0.258 C 
BRANCH  13  14
ATOM     14  N   UNL d   1       9.724   5.784 -10.623  0.00  0.00     0.137 N 
ATOM     15  C   UNL d   1       8.686   6.683 -11.144  0.00  0.00     0.250 C 
ATOM     16  C   UNL d   1       8.810   6.877 -12.641  0.00  0.00     0.035 C 
ATOM     17  C   UNL d   1       8.676   5.538 -13.359  0.00  0.00     0.004 C 
ATOM     18  C   UNL d   1       9.689   4.552 -12.765  0.00  0.00     0.035 C 
ATOM     19  C   UNL d   1       9.526   4.464 -11.237  0.00  0.00     0.250 C 
ENDBRANCH  13  14
ENDBRANCH  11  13
ENDBRANCH   1  11
TORSDOF 5
