REMARK  3 active torsions:
REMARK  status: ('A' for Active; 'I' for Inactive)
REMARK    1  A    between atoms: S_2  and  C_4 
REMARK    2  A    between atoms: S_2  and  N_10 
REMARK    3  A    between atoms: C_20  and  C_21 
ROOT
ATOM      1  N   UNL d   1      10.710   8.776  -6.591  0.00  0.00    -0.231 N 
ATOM      2  C   UNL d   1       9.473   8.124  -6.733  0.00  0.00     0.092 C 
ATOM      3  C   UNL d   1       9.639   7.389  -7.868  0.00  0.00     0.023 A 
ATOM      4  C   UNL d   1      10.813   7.677  -8.471  0.00  0.00     0.041 A 
ATOM      5  C   UNL d   1      11.177   7.233  -9.703  0.00  0.00     0.101 A 
ATOM      6  C   UNL d   1      12.507   7.583 -10.057  0.00  0.00     0.025 A 
ATOM      7  C   UNL d   1      13.336   8.319  -9.218  0.00  0.00     0.004 A 
ATOM      8  C   UNL d   1      12.820   8.801  -8.027  0.00  0.00     0.018 A 
ATOM      9  C   UNL d   1      11.507   8.481  -7.634  0.00  0.00     0.077 A 
ATOM     10  O   UNL d   1      10.354   6.343 -10.381  0.00  0.00    -0.309 OA
ATOM     11  C   UNL d   1       9.173   5.951  -9.767  0.00  0.00     0.111 A 
ATOM     12  C   UNL d   1       8.795   6.478  -8.515  0.00  0.00     0.025 A 
ENDROOT
BRANCH   1  13
ATOM     13  S   UNL d   1      11.174   9.771  -5.315  0.00  0.00     0.271 S 
ATOM     14  O   UNL d   1       9.972  10.393  -4.800  0.00  0.00    -0.200 OA
ATOM     15  O   UNL d   1      12.230  10.574  -5.906  0.00  0.00    -0.200 OA
BRANCH  13  16
ATOM     16  C   UNL d   1      11.791   8.693  -4.046  0.00  0.00     0.104 A 
ATOM     17  C   UNL d   1      12.186   9.221  -2.799  0.00  0.00     0.013 A 
ATOM     18  C   UNL d   1      12.644   8.353  -1.791  0.00  0.00     0.001 A 
ATOM     19  C   UNL d   1      12.662   6.971  -2.044  0.00  0.00     0.000 A 
ATOM     20  C   UNL d   1      12.226   6.470  -3.259  0.00  0.00     0.001 A 
ATOM     21  C   UNL d   1      11.773   7.311  -4.264  0.00  0.00     0.013 A 
ENDBRANCH  13  16
ENDBRANCH   1  13
BRANCH  11  22
ATOM     22  C   UNL d   1       8.240   5.037 -10.529  0.00  0.00     0.233 C 
ATOM     23  O   UNL d   1       7.405   5.757 -11.415  0.00  0.00    -0.213 OA
ENDBRANCH  11  22
TORSDOF 3
