REMARK  7 active torsions:
REMARK  status: ('A' for Active; 'I' for Inactive)
REMARK    1  A    between atoms: C_8  and  O_9 
REMARK    2  A    between atoms: O_9  and  C_10 
REMARK    3  A    between atoms: C_10  and  C_11 
REMARK    4  A    between atoms: C_11  and  C_12 
REMARK    5  A    between atoms: C_12  and  C_13 
REMARK    6  A    between atoms: C_13  and  N_14 
REMARK    7  A    between atoms: N_18  and  C_19 
ROOT
ATOM      1  C   UNL d   1       8.241   5.956 -10.276  0.00  0.00     0.250 C 
ENDROOT
BRANCH   1   2
ATOM      2  C   UNL d   1       8.953   5.644  -8.963  0.00  0.00     0.038 C 
BRANCH   2   3
ATOM      3  C   UNL d   1       9.432   6.942  -8.322  0.00  0.00     0.035 C 
BRANCH   3   4
ATOM      4  C   UNL d   1      10.719   7.493  -8.972  0.00  0.00     0.149 C 
BRANCH   4   5
ATOM      5  O   UNL d   1      11.079   8.770  -8.495  0.00  0.00    -0.331 OA
BRANCH   5   6
ATOM      6  C   UNL d   1      11.281   8.880  -7.144  0.00  0.00     0.096 C 
ATOM      7  C   UNL d   1      11.269  10.181  -6.616  0.00  0.00     0.024 C 
ATOM      8  C   UNL d   1      11.291  10.389  -5.234  0.00  0.00    -0.001 C 
ATOM      9  C   UNL d   1      11.525   9.319  -4.377  0.00  0.00    -0.004 C 
ATOM     10  C   UNL d   1      11.678   9.511  -2.891  0.00  0.00     0.038 C 
ATOM     11  C   UNL d   1      11.594   8.008  -4.888  0.00  0.00     0.082 C 
ATOM     12  C   UNL d   1      12.509   8.402  -2.222  0.00  0.00     0.095 C 
ATOM     13  C   UNL d   1      12.216   7.014  -2.786  0.00  0.00     0.256 C 
ATOM     14  O   UNL d   1      12.428   6.030  -2.090  0.00  0.00    -0.270 OA
ATOM     15  N   UNL d   1      11.783   6.907  -4.052  0.00  0.00    -0.212 NA
ATOM     16  C   UNL d   1      11.462   7.768  -6.286  0.00  0.00     0.043 C 
ENDBRANCH   5   6
ENDBRANCH   4   5
ENDBRANCH   3   4
ENDBRANCH   2   3
ENDBRANCH   1   2
BRANCH   1  17
ATOM     17  N   UNL d   1       8.162   4.825 -11.182  0.00  0.00     0.139 N 
ATOM     18  C   UNL d   1       9.435   4.825 -11.896  0.00  0.00     0.274 C 
ATOM     19  C   UNL d   1       9.561   3.595 -12.803  0.00  0.00     0.137 C 
ATOM     20  N   UNL d   1       8.800   3.728 -14.031  0.00  0.00    -0.345 N 
ATOM     21  C   UNL d   1       7.343   3.487 -14.045  0.00  0.00     0.104 C 
ATOM     22  C   UNL d   1       6.535   3.787 -12.760  0.00  0.00     0.059 C 
ATOM     23  C   UNL d   1       7.005   5.063 -12.045  0.00  0.00     0.252 C 
BRANCH  20  24
ATOM     24  C   UNL d   1       9.548   4.041 -15.205  0.00  0.00     0.068 A 
ATOM     25  C   UNL d   1       9.430   3.331 -16.427  0.00  0.00     0.084 A 
ATOM     26  C   UNL d   1      10.134   3.761 -17.576  0.00  0.00     0.070 A 
ATOM     27 CL   UNL d   1       8.417   1.925 -16.579  0.00  0.00    -0.080 Cl
ATOM     28  C   UNL d   1      10.999   4.883 -17.513  0.00  0.00     0.012 A 
ATOM     29 CL   UNL d   1       9.944   2.966 -19.100  0.00  0.00    -0.081 Cl
ATOM     30  C   UNL d   1      11.165   5.551 -16.282  0.00  0.00     0.002 A 
ATOM     31  C   UNL d   1      10.464   5.113 -15.151  0.00  0.00     0.018 A 
ENDBRANCH  20  24
ENDBRANCH   1  17
TORSDOF 7
