REMARK  8 active torsions:
REMARK  status: ('A' for Active; 'I' for Inactive)
REMARK    1  A    between atoms: O_2  and  C_3 
REMARK    2  A    between atoms: C_8  and  N_9 
REMARK    3  A    between atoms: N_12  and  C_13 
REMARK    4  A    between atoms: C_13  and  C_14 
REMARK    5  A    between atoms: C_14  and  C_15 
REMARK    6  A    between atoms: C_15  and  C_16 
REMARK    7  A    between atoms: C_16  and  C_17 
REMARK    8  A    between atoms: N_19  and  C_20 
ROOT
ATOM      1  C   UNL d   1       9.196   5.824 -11.041  0.00  0.00     0.250 C 
ENDROOT
BRANCH   1   2
ATOM      2  N   UNL d   1       8.497   5.398 -12.254  0.00  0.00     0.141 N 
ATOM      3  C   UNL d   1       7.920   4.073 -12.019  0.00  0.00     0.274 C 
ATOM      4  C   UNL d   1       7.111   3.578 -13.240  0.00  0.00     0.137 C 
ATOM      5  N   UNL d   1       8.002   3.560 -14.395  0.00  0.00    -0.343 N 
ATOM      6  C   UNL d   1       8.678   4.832 -14.629  0.00  0.00     0.137 C 
ATOM      7  C   UNL d   1       9.440   5.267 -13.373  0.00  0.00     0.274 C 
BRANCH   5   8
ATOM      8  C   UNL d   1       8.196   2.417 -15.191  0.00  0.00     0.079 A 
ATOM      9  C   UNL d   1       9.481   2.078 -15.704  0.00  0.00     0.110 A 
ATOM     10  C   UNL d   1       9.610   0.945 -16.548  0.00  0.00     0.026 A 
ATOM     11  C   UNL d   1       8.495   0.150 -16.864  0.00  0.00     0.002 A 
ATOM     12  C   UNL d   1       7.230   0.476 -16.346  0.00  0.00     0.002 A 
ATOM     13  C   UNL d   1       7.086   1.604 -15.516  0.00  0.00     0.019 A 
BRANCH   9  14
ATOM     14  O   UNL d   1      10.556   2.854 -15.322  0.00  0.00    -0.327 OA
ATOM     15  C   UNL d   1      11.807   2.647 -15.946  0.00  0.00     0.181 C 
ENDBRANCH   9  14
ENDBRANCH   5   8
ENDBRANCH   1   2
BRANCH   1  16
ATOM     16  C   UNL d   1       9.585   7.315 -11.095  0.00  0.00     0.036 C 
BRANCH  16  17
ATOM     17  C   UNL d   1      10.351   7.786  -9.851  0.00  0.00     0.009 C 
BRANCH  17  18
ATOM     18  C   UNL d   1       9.455   7.920  -8.617  0.00  0.00     0.049 C 
BRANCH  18  19
ATOM     19  C   UNL d   1      10.199   8.298  -7.392  0.00  0.00     0.101 A 
ATOM     20  N   UNL d   1      10.732   9.580  -7.240  0.00  0.00    -0.133 NA
ATOM     21  N   UNL d   1      11.279   9.677  -6.085  0.00  0.00    -0.060 NA
ATOM     22  N   UNL d   1      11.127   8.479  -5.481  0.00  0.00    -0.209 N 
ATOM     23  C   UNL d   1      10.440   7.576  -6.268  0.00  0.00     0.119 A 
BRANCH  22  24
ATOM     24  C   UNL d   1      11.624   8.276  -4.197  0.00  0.00     0.085 A 
ATOM     25  C   UNL d   1      11.793   9.370  -3.319  0.00  0.00     0.019 A 
ATOM     26  C   UNL d   1      12.269   9.142  -2.029  0.00  0.00     0.002 A 
ATOM     27  C   UNL d   1      12.628   7.846  -1.647  0.00  0.00     0.000 A 
ATOM     28  C   UNL d   1      12.454   6.753  -2.500  0.00  0.00     0.002 A 
ATOM     29  C   UNL d   1      11.939   6.962  -3.784  0.00  0.00     0.019 A 
ENDBRANCH  22  24
ENDBRANCH  18  19
ENDBRANCH  17  18
ENDBRANCH  16  17
ENDBRANCH   1  16
TORSDOF 8
