REMARK  0 active torsions:
REMARK  status: ('A' for Active; 'I' for Inactive)
ROOT
ATOM      1  C   UNL d   1      11.108   6.399  -3.066  0.00  0.00     0.031 C 
ATOM      2  C   UNL d   1      11.500   7.533  -3.970  0.00  0.00    -0.026 C 
ATOM      3  C   UNL d   1      11.614   8.763  -3.323  0.00  0.00    -0.005 C 
ATOM      4  C   UNL d   1      11.668   9.924  -4.078  0.00  0.00    -0.005 C 
ATOM      5  C   UNL d   1      11.713   9.868  -5.497  0.00  0.00    -0.021 C 
ATOM      6  C   UNL d   1      11.988  11.118  -6.290  0.00  0.00     0.031 C 
ATOM      7  C   UNL d   1      11.524   8.648  -6.170  0.00  0.00     0.011 C 
ATOM      8  C   UNL d   1      11.423   7.503  -5.380  0.00  0.00    -0.025 C 
ATOM      9  C   UNL d   1      11.201   6.240  -6.146  0.00  0.00     0.026 C 
ATOM     10  C   UNL d   1       9.821   6.070  -6.885  0.00  0.00     0.009 C 
ATOM     11  C   UNL d   1       9.416   7.105  -7.918  0.00  0.00     0.030 C 
ATOM     12  C   UNL d   1      10.584   7.835  -8.400  0.00  0.00     0.018 C 
ATOM     13  C   UNL d   1      11.087   7.995  -9.714  0.00  0.00     0.119 C 
ATOM     14  N   UNL d   1      12.224   8.650  -9.729  0.00  0.00    -0.147 NA
ATOM     15  N   UNL d   1      12.518   8.806  -8.428  0.00  0.00    -0.148 NA
ATOM     16  C   UNL d   1      11.483   8.505  -7.617  0.00  0.00     0.100 C 
ENDROOT
TORSDOF 0
