REMARK  9 active torsions:
REMARK  status: ('A' for Active; 'I' for Inactive)
REMARK    1  A    between atoms: S_2  and  N_5 
REMARK    2  A    between atoms: N_5  and  C_6 
REMARK    3  A    between atoms: C_6  and  C_7 
REMARK    4  A    between atoms: C_7  and  C_8 
REMARK    5  A    between atoms: C_8  and  C_9 
REMARK    6  A    between atoms: C_9  and  C_10 
REMARK    7  A    between atoms: C_10  and  C_11 
REMARK    8  A    between atoms: C_11  and  N_12 
REMARK    9  A    between atoms: N_15  and  C_16 
ROOT
ATOM      1  N   UNL d   1       9.090   5.979  -9.864  0.00  0.00     0.141 N 
ATOM      2  C   UNL d   1       9.035   5.465  -8.482  0.00  0.00     0.274 C 
ATOM      3  C   UNL d   1       8.817   6.609  -7.475  0.00  0.00     0.137 C 
ATOM      4  N   UNL d   1       9.858   7.630  -7.633  0.00  0.00    -0.344 N 
ATOM      5  C   UNL d   1       9.999   8.109  -9.009  0.00  0.00     0.137 C 
ATOM      6  C   UNL d   1      10.200   6.940  -9.961  0.00  0.00     0.274 C 
ENDROOT
BRANCH   1   7
ATOM      7  C   UNL d   1       9.226   4.860 -10.785  0.00  0.00     0.250 C 
BRANCH   7   8
ATOM      8  C   UNL d   1       9.329   5.301 -12.257  0.00  0.00     0.035 C 
BRANCH   8   9
ATOM      9  C   UNL d   1       9.477   4.134 -13.228  0.00  0.00     0.002 C 
BRANCH   9  10
ATOM     10  C   UNL d   1       8.129   3.536 -13.623  0.00  0.00     0.002 C 
BRANCH  10  11
ATOM     11  C   UNL d   1       8.313   2.289 -14.480  0.00  0.00     0.027 C 
BRANCH  11  12
ATOM     12  C   UNL d   1       6.965   1.625 -14.819  0.00  0.00     0.141 C 
BRANCH  12  13
ATOM     13  N   UNL d   1       7.133   0.473 -15.715  0.00  0.00    -0.168 NA
BRANCH  13  14
ATOM     14  S   UNL d   1       7.693   0.716 -17.327  0.00  0.00     0.379 S 
ATOM     15  N   UNL d   1       7.521  -0.875 -17.907  0.00  0.00    -0.026 N 
ATOM     16  O   UNL d   1       9.129   1.034 -17.285  0.00  0.00    -0.177 OA
ATOM     17  O   UNL d   1       6.740   1.577 -18.035  0.00  0.00    -0.177 OA
ENDBRANCH  13  14
ENDBRANCH  12  13
ENDBRANCH  11  12
ENDBRANCH  10  11
ENDBRANCH   9  10
ENDBRANCH   8   9
ENDBRANCH   7   8
ENDBRANCH   1   7
BRANCH   4  18
ATOM     18  C   UNL d   1      10.673   8.082  -6.590  0.00  0.00     0.057 A 
ATOM     19  C   UNL d   1      10.895   7.306  -5.410  0.00  0.00     0.028 A 
ATOM     20  C   UNL d   1      11.687   7.795  -4.362  0.00  0.00     0.059 A 
ATOM     21  C   UNL d   1      12.305   9.052  -4.459  0.00  0.00     0.011 A 
ATOM     22 CL   UNL d   1      11.902   6.825  -2.956  0.00  0.00    -0.082 Cl
ATOM     23  C   UNL d   1      12.135   9.813  -5.629  0.00  0.00     0.002 A 
ATOM     24  C   UNL d   1      11.320   9.342  -6.674  0.00  0.00     0.017 A 
ENDBRANCH   4  18
TORSDOF 9
