REMARK  4 active torsions:
REMARK  status: ('A' for Active; 'I' for Inactive)
REMARK    1  A    between atoms: C_8  and  C_9 
REMARK    2  A    between atoms: C_9  and  C_10 
REMARK    3  A    between atoms: C_10  and  N_11 
REMARK    4  A    between atoms: N_14  and  C_15 
ROOT
ATOM      1  N   UNL d   1       9.610   5.913  -9.568  0.00  0.00     0.141 N 
ATOM      2  C   UNL d   1       9.911   7.340  -9.758  0.00  0.00     0.274 C 
ATOM      3  C   UNL d   1      11.148   7.736  -8.935  0.00  0.00     0.138 C 
ATOM      4  N   UNL d   1      10.963   7.395  -7.531  0.00  0.00    -0.329 N 
ATOM      5  C   UNL d   1      10.505   6.045  -7.297  0.00  0.00     0.138 C 
ATOM      6  C   UNL d   1       9.293   5.693  -8.163  0.00  0.00     0.274 C 
ENDROOT
BRANCH   1   7
ATOM      7  C   UNL d   1       8.461   5.476 -10.345  0.00  0.00     0.255 C 
BRANCH   7   8
ATOM      8  C   UNL d   1       8.770   5.564 -11.845  0.00  0.00     0.063 C 
BRANCH   8   9
ATOM      9  C   UNL d   1       7.956   4.570 -12.661  0.00  0.00    -0.003 A 
ATOM     10  C   UNL d   1       6.559   4.493 -12.471  0.00  0.00    -0.003 A 
ATOM     11  C   UNL d   1       5.801   3.541 -13.176  0.00  0.00    -0.001 A 
ATOM     12  C   UNL d   1       6.433   2.657 -14.073  0.00  0.00    -0.003 A 
ATOM     13  C   UNL d   1       7.819   2.741 -14.289  0.00  0.00    -0.004 A 
ATOM     14  C   UNL d   1       8.531   1.776 -15.218  0.00  0.00     0.037 C 
ATOM     15  C   UNL d   1       8.579   3.696 -13.583  0.00  0.00     0.076 A 
ATOM     16  C   UNL d   1       9.815   2.383 -15.824  0.00  0.00     0.086 C 
ATOM     17  C   UNL d   1      10.657   1.316 -16.551  0.00  0.00     0.010 C 
ATOM     18  C   UNL d   1      10.638   3.144 -14.768  0.00  0.00     0.256 C 
ATOM     19  N   UNL d   1       9.980   3.737 -13.769  0.00  0.00    -0.212 NA
ATOM     20  O   UNL d   1      11.862   3.245 -14.859  0.00  0.00    -0.270 OA
ENDBRANCH   8   9
ENDBRANCH   7   8
ENDBRANCH   1   7
BRANCH   4  21
ATOM     21  C   UNL d   1      11.070   8.315  -6.469  0.00  0.00     0.148 A 
ATOM     22  C   UNL d   1      11.462   7.960  -5.110  0.00  0.00     0.042 A 
ATOM     23  C   UNL d   1      11.498   9.131  -4.298  0.00  0.00     0.050 A 
ATOM     24  C   UNL d   1      11.855   6.762  -4.467  0.00  0.00     0.004 A 
ATOM     25  S   UNL d   1      11.057  10.470  -5.319  0.00  0.00     0.015 SA
ATOM     26  C   UNL d   1      11.865   9.118  -2.939  0.00  0.00     0.008 A 
ATOM     27  N   UNL d   1      10.859   9.588  -6.712  0.00  0.00    -0.192 NA
ATOM     28  C   UNL d   1      12.227   7.903  -2.333  0.00  0.00     0.001 A 
ATOM     29  C   UNL d   1      12.215   6.731  -3.108  0.00  0.00     0.000 A 
ENDBRANCH   4  21
TORSDOF 4
