REMARK  8 active torsions:
REMARK  status: ('A' for Active; 'I' for Inactive)
REMARK    1  A    between atoms: O_2  and  C_3 
REMARK    2  A    between atoms: C_7  and  C_8 
REMARK    3  A    between atoms: C_8  and  C_9 
REMARK    4  A    between atoms: C_9  and  C_10 
REMARK    5  A    between atoms: C_15  and  O_16 
REMARK    6  A    between atoms: O_16  and  C_17 
REMARK    7  A    between atoms: C_17  and  C_18 
REMARK    8  A    between atoms: C_22  and  O_23 
ROOT
ATOM      1  C   UNL d   1       8.758   2.800 -14.459  0.00  0.00     0.001 A 
ATOM      2  C   UNL d   1       9.911   2.204 -15.024  0.00  0.00    -0.002 A 
ATOM      3  C   UNL d   1      11.178   2.783 -14.850  0.00  0.00    -0.000 A 
ATOM      4  C   UNL d   1      11.311   3.985 -14.137  0.00  0.00     0.002 A 
ATOM      5  C   UNL d   1      10.163   4.609 -13.610  0.00  0.00     0.024 A 
ATOM      6  C   UNL d   1       8.876   4.025 -13.752  0.00  0.00     0.090 A 
ENDROOT
BRANCH   1   7
ATOM      7  C   UNL d   1       7.389   2.152 -14.654  0.00  0.00     0.033 C 
BRANCH   7   8
ATOM      8  C   UNL d   1       7.398   0.624 -14.482  0.00  0.00     0.031 C 
BRANCH   8   9
ATOM      9  C   UNL d   1       6.091   0.008 -14.926  0.00  0.00    -0.020 A 
ATOM     10  C   UNL d   1       5.028  -0.136 -14.018  0.00  0.00    -0.004 A 
ATOM     11  C   UNL d   1       3.834  -0.755 -14.440  0.00  0.00     0.002 A 
ATOM     12  C   UNL d   1       3.708  -1.211 -15.766  0.00  0.00     0.024 A 
ATOM     13  C   UNL d   1       4.768  -1.052 -16.695  0.00  0.00     0.094 A 
ATOM     14  C   UNL d   1       5.953  -0.427 -16.258  0.00  0.00     0.020 A 
BRANCH  13  15
ATOM     15  O   UNL d   1       4.727  -1.464 -18.010  0.00  0.00    -0.328 OA
ATOM     16  C   UNL d   1       3.586  -2.191 -18.444  0.00  0.00     0.181 C 
ENDBRANCH  13  15
ENDBRANCH   8   9
ENDBRANCH   7   8
ENDBRANCH   1   7
BRANCH   6  17
ATOM     17  O   UNL d   1       7.719   4.593 -13.248  0.00  0.00    -0.326 OA
BRANCH  17  18
ATOM     18  C   UNL d   1       7.780   5.863 -12.605  0.00  0.00     0.175 C 
BRANCH  18  19
ATOM     19  C   UNL d   1       8.514   5.818 -11.277  0.00  0.00     0.010 A 
ATOM     20  C   UNL d   1       9.454   6.823 -10.978  0.00  0.00     0.022 A 
ATOM     21  C   UNL d   1      10.132   6.838  -9.733  0.00  0.00     0.094 A 
ATOM     22  C   UNL d   1       9.891   5.798  -8.814  0.00  0.00     0.024 A 
ATOM     23  C   UNL d   1       8.958   4.788  -9.109  0.00  0.00     0.002 A 
ATOM     24  C   UNL d   1       8.261   4.803 -10.334  0.00  0.00    -0.002 A 
BRANCH  21  25
ATOM     25  O   UNL d   1      11.033   7.815  -9.384  0.00  0.00    -0.328 OA
ATOM     26  C   UNL d   1      10.741   9.121  -9.866  0.00  0.00     0.181 C 
ENDBRANCH  21  25
ENDBRANCH  18  19
ENDBRANCH  17  18
ENDBRANCH   6  17
TORSDOF 8
