REMARK  9 active torsions:
REMARK  status: ('A' for Active; 'I' for Inactive)
REMARK    1  A    between atoms: C_2  and  C_3 
REMARK    2  A    between atoms: C_7  and  O_8 
REMARK    3  A    between atoms: C_10  and  N_11 
REMARK    4  A    between atoms: N_14  and  C_15 
REMARK    5  A    between atoms: C_15  and  C_16 
REMARK    6  A    between atoms: C_16  and  C_18 
REMARK    7  A    between atoms: C_18  and  C_19 
REMARK    8  A    between atoms: C_19  and  N_20 
REMARK       I    between atoms: N_20  and  C_21 
REMARK    9  A    between atoms: C_21  and  C_23 
ROOT
ATOM      1  N   UNL d   1       7.347   2.740 -14.044  0.00  0.00    -0.343 N 
ATOM      2  C   UNL d   1       8.724   3.224 -13.893  0.00  0.00     0.137 C 
ATOM      3  C   UNL d   1       8.722   4.759 -13.795  0.00  0.00     0.274 C 
ATOM      4  N   UNL d   1       7.830   5.226 -12.720  0.00  0.00     0.144 N 
ATOM      5  C   UNL d   1       6.462   4.763 -12.939  0.00  0.00     0.274 C 
ATOM      6  C   UNL d   1       6.390   3.240 -13.055  0.00  0.00     0.137 C 
ENDROOT
BRANCH   4   7
ATOM      7  C   UNL d   1       7.838   6.682 -12.536  0.00  0.00     0.283 C 
BRANCH   7   8
ATOM      8  C   UNL d   1       9.191   7.265 -12.135  0.00  0.00     0.188 C 
ATOM      9  O   UNL d   1       9.024   8.662 -12.042  0.00  0.00    -0.221 OA
BRANCH   8  10
ATOM     10  C   UNL d   1       9.859   6.690 -10.850  0.00  0.00     0.061 C 
BRANCH  10  11
ATOM     11  C   UNL d   1       9.305   7.233  -9.532  0.00  0.00     0.132 C 
BRANCH  11  12
ATOM     12  N   UNL d   1      10.212   7.061  -8.411  0.00  0.00    -0.233 NA
ATOM     13  C   UNL d   1      10.829   8.130  -7.887  0.00  0.00     0.298 C 
ATOM     14  O   UNL d   1      10.969   9.217  -8.454  0.00  0.00    -0.263 OA
BRANCH  13  15
ATOM     15  C   UNL d   1      11.178   7.994  -6.487  0.00  0.00     0.157 A 
ATOM     16  O   UNL d   1      11.294   9.127  -5.716  0.00  0.00    -0.302 OA
ATOM     17  C   UNL d   1      11.633   8.709  -4.453  0.00  0.00     0.100 A 
ATOM     18  C   UNL d   1      11.745   7.296  -4.447  0.00  0.00     0.025 A 
ATOM     19  C   UNL d   1      11.859   9.491  -3.304  0.00  0.00     0.025 A 
ATOM     20  C   UNL d   1      11.445   6.856  -5.768  0.00  0.00     0.032 A 
ATOM     21  C   UNL d   1      12.121   6.679  -3.245  0.00  0.00     0.002 A 
ATOM     22  C   UNL d   1      12.387   7.448  -2.106  0.00  0.00     0.000 A 
ATOM     23  C   UNL d   1      12.280   8.851  -2.132  0.00  0.00     0.002 A 
ENDBRANCH  13  15
ENDBRANCH  11  12
ENDBRANCH  10  11
ENDBRANCH   8  10
ENDBRANCH   7   8
ENDBRANCH   4   7
BRANCH   1  24
ATOM     24  C   UNL d   1       6.998   1.827 -15.059  0.00  0.00     0.079 A 
ATOM     25  C   UNL d   1       6.038   0.797 -14.864  0.00  0.00     0.120 A 
ATOM     26  C   UNL d   1       5.644  -0.039 -15.933  0.00  0.00     0.081 A 
ATOM     27  C   UNL d   1       6.229   0.110 -17.197  0.00  0.00     0.009 A 
ATOM     28 CL   UNL d   1       4.410  -1.219 -15.710  0.00  0.00    -0.080 Cl
ATOM     29  C   UNL d   1       7.187   1.127 -17.422  0.00  0.00    -0.020 A 
ATOM     30  C   UNL d   1       7.573   1.959 -16.343  0.00  0.00     0.015 A 
BRANCH  25  31
ATOM     31  O   UNL d   1       5.454   0.594 -13.650  0.00  0.00    -0.326 OA
ATOM     32  C   UNL d   1       6.193  -0.319 -12.881  0.00  0.00     0.181 C 
ENDBRANCH  25  31
BRANCH  29  33
ATOM     33  C   UNL d   1       7.792   1.331 -18.808  0.00  0.00     0.026 C 
ATOM     34  C   UNL d   1       6.788   1.214 -19.972  0.00  0.00     0.005 C 
ENDBRANCH  29  33
ENDBRANCH   1  24
TORSDOF 9
