REMARK  4 active torsions:
REMARK  status: ('A' for Active; 'I' for Inactive)
REMARK    1  A    between atoms: O_2  and  C_3 
REMARK    2  A    between atoms: C_9  and  C_10 
REMARK    3  A    between atoms: N_17  and  S_18 
REMARK    4  A    between atoms: S_18  and  C_21 
ROOT
ATOM      1  C   UNL d   1       6.142   2.070 -13.657  0.00  0.00     0.094 A 
ATOM      2  C   UNL d   1       5.694   3.111 -12.827  0.00  0.00     0.026 A 
ATOM      3  C   UNL d   1       6.468   4.272 -12.655  0.00  0.00     0.020 A 
ATOM      4  C   UNL d   1       7.728   4.368 -13.280  0.00  0.00     0.075 A 
ATOM      5  C   UNL d   1       8.209   3.343 -14.150  0.00  0.00     0.020 A 
ATOM      6  C   UNL d   1       7.361   2.225 -14.359  0.00  0.00     0.026 A 
ATOM      7  C   UNL d   1       9.489   3.802 -14.650  0.00  0.00     0.016 A 
ATOM      8  C   UNL d   1       9.761   5.001 -14.047  0.00  0.00     0.091 A 
ATOM      9  N   UNL d   1       8.712   5.337 -13.215  0.00  0.00    -0.231 N 
ENDROOT
BRANCH   9  10
ATOM     10  S   UNL d   1       8.591   6.795 -12.331  0.00  0.00     0.273 S 
ATOM     11  O   UNL d   1       9.688   7.642 -12.836  0.00  0.00    -0.200 OA
ATOM     12  O   UNL d   1       7.207   7.213 -12.491  0.00  0.00    -0.200 OA
BRANCH  10  13
ATOM     13  C   UNL d   1       9.049   6.383 -10.640  0.00  0.00     0.123 A 
ATOM     14  C   UNL d   1       9.790   7.253  -9.789  0.00  0.00     0.015 A 
ATOM     15  C   UNL d   1      10.010   6.826  -8.457  0.00  0.00     0.020 A 
ATOM     16  C   UNL d   1      10.324   8.511 -10.138  0.00  0.00     0.001 A 
ATOM     17  C   UNL d   1       9.457   5.608  -8.056  0.00  0.00     0.099 A 
ATOM     18  C   UNL d   1      10.741   7.586  -7.519  0.00  0.00     0.002 A 
ATOM     19  N   UNL d   1       8.780   4.780  -8.852  0.00  0.00    -0.242 NA
ATOM     20  C   UNL d   1       8.570   5.176 -10.110  0.00  0.00     0.112 A 
ATOM     21  C   UNL d   1      11.296   8.813  -7.914  0.00  0.00     0.000 A 
ATOM     22  C   UNL d   1      11.090   9.246  -9.233  0.00  0.00     0.000 A 
ENDBRANCH  10  13
ENDBRANCH   9  10
BRANCH   7  23
ATOM     23  C   UNL d   1      10.389   3.159 -15.633  0.00  0.00    -0.021 C 
ATOM     24  C   UNL d   1      11.313   4.007 -16.488  0.00  0.00     0.064 C 
ATOM     25  C   UNL d   1      12.414   3.156 -17.165  0.00  0.00     0.295 C 
ATOM     26  N   UNL d   1      11.822   2.035 -17.876  0.00  0.00     0.344 N 
ATOM     27  C   UNL d   1      11.154   1.133 -16.943  0.00  0.00     0.316 C 
ATOM     28  C   UNL d   1      10.350   1.833 -15.871  0.00  0.00     0.007 C 
ENDBRANCH   7  23
BRANCH   1  29
ATOM     29  O   UNL d   1       5.369   0.939 -13.720  0.00  0.00    -0.328 OA
ATOM     30  C   UNL d   1       5.795  -0.120 -14.567  0.00  0.00     0.181 C 
ENDBRANCH   1  29
TORSDOF 4
