REMARK  8 active torsions:
REMARK  status: ('A' for Active; 'I' for Inactive)
REMARK    1  A    between atoms: N_13  and  C_14 
REMARK    2  A    between atoms: C_14  and  C_15 
REMARK    3  A    between atoms: C_15  and  C_16 
REMARK    4  A    between atoms: C_16  and  C_17 
REMARK    5  A    between atoms: C_17  and  C_18 
REMARK    6  A    between atoms: C_18  and  C_19 
REMARK    7  A    between atoms: C_19  and  N_20 
REMARK    8  A    between atoms: N_23  and  C_24 
ROOT
ATOM      1  C   UNL d   1       8.600   4.324 -14.092  0.00  0.00     0.002 C 
ENDROOT
BRANCH   1   2
ATOM      2  C   UNL d   1       9.944   4.324 -14.830  0.00  0.00     0.025 C 
BRANCH   2   3
ATOM      3  C   UNL d   1       9.813   4.692 -16.317  0.00  0.00     0.109 C 
BRANCH   3   4
ATOM      4  N   UNL d   1      11.087   4.529 -17.005  0.00  0.00    -0.296 N 
ATOM      5  C   UNL d   1      11.471   3.443 -17.718  0.00  0.00     0.261 A 
ATOM      6  O   UNL d   1      10.854   2.401 -17.934  0.00  0.00    -0.267 OA
ATOM      7  C   UNL d   1      12.834   3.777 -18.214  0.00  0.00     0.058 A 
ATOM      8  C   UNL d   1      13.194   5.030 -17.772  0.00  0.00     0.021 A 
ATOM      9  C   UNL d   1      13.746   3.068 -19.015  0.00  0.00     0.005 A 
ATOM     10  C   UNL d   1      14.394   5.693 -18.035  0.00  0.00     0.002 A 
ATOM     11  C   UNL d   1      12.130   5.498 -17.023  0.00  0.00     0.063 A 
ATOM     12  C   UNL d   1      15.307   4.981 -18.842  0.00  0.00     0.000 A 
ATOM     13  C   UNL d   1      14.512   6.979 -17.462  0.00  0.00     0.000 A 
ATOM     14  C   UNL d   1      14.983   3.685 -19.330  0.00  0.00     0.000 A 
ATOM     15  C   UNL d   1      13.453   7.516 -16.681  0.00  0.00     0.002 A 
ATOM     16  C   UNL d   1      12.260   6.781 -16.453  0.00  0.00     0.017 A 
ENDBRANCH   3   4
ENDBRANCH   2   3
ENDBRANCH   1   2
BRANCH   1  17
ATOM     17  C   UNL d   1       8.735   4.010 -12.592  0.00  0.00     0.002 C 
BRANCH  17  18
ATOM     18  C   UNL d   1       9.209   5.207 -11.753  0.00  0.00     0.035 C 
BRANCH  18  19
ATOM     19  C   UNL d   1       8.996   4.980 -10.248  0.00  0.00     0.250 C 
BRANCH  19  20
ATOM     20  N   UNL d   1       9.237   6.202  -9.487  0.00  0.00     0.141 N 
ATOM     21  C   UNL d   1      10.660   6.407  -9.239  0.00  0.00     0.274 C 
ATOM     22  C   UNL d   1      10.932   7.706  -8.457  0.00  0.00     0.137 C 
ATOM     23  N   UNL d   1      10.157   7.695  -7.235  0.00  0.00    -0.344 N 
ATOM     24  C   UNL d   1       8.740   7.417  -7.381  0.00  0.00     0.137 C 
ATOM     25  C   UNL d   1       8.545   6.121  -8.198  0.00  0.00     0.274 C 
BRANCH  23  26
ATOM     26  C   UNL d   1      10.742   7.956  -5.994  0.00  0.00     0.056 A 
ATOM     27  C   UNL d   1      10.825   9.276  -5.510  0.00  0.00     0.018 A 
ATOM     28  C   UNL d   1      11.418   9.526  -4.251  0.00  0.00     0.013 A 
ATOM     29  C   UNL d   1      11.937   8.461  -3.490  0.00  0.00     0.058 A 
ATOM     30  C   UNL d   1      11.857   7.145  -3.977  0.00  0.00     0.013 A 
ATOM     31 CL   UNL d   1      12.656   8.755  -1.956  0.00  0.00    -0.082 Cl
ATOM     32  C   UNL d   1      11.262   6.898  -5.229  0.00  0.00     0.018 A 
ENDBRANCH  23  26
ENDBRANCH  19  20
ENDBRANCH  18  19
ENDBRANCH  17  18
ENDBRANCH   1  17
TORSDOF 8
