REMARK  9 active torsions:
REMARK  status: ('A' for Active; 'I' for Inactive)
REMARK    1  A    between atoms: O_2  and  C_3 
REMARK    2  A    between atoms: C_8  and  N_9 
REMARK    3  A    between atoms: N_12  and  C_13 
REMARK    4  A    between atoms: C_13  and  C_14 
REMARK    5  A    between atoms: C_14  and  C_15 
REMARK    6  A    between atoms: C_15  and  C_16 
REMARK    7  A    between atoms: C_16  and  C_17 
REMARK    8  A    between atoms: C_17  and  C_18 
REMARK    9  A    between atoms: C_18  and  N_19 
ROOT
ATOM      1  C   UNL d   1       8.317   3.177 -14.934  0.00  0.00     0.002 C 
ENDROOT
BRANCH   1   2
ATOM      2  C   UNL d   1       8.753   4.647 -14.821  0.00  0.00     0.035 C 
BRANCH   2   3
ATOM      3  C   UNL d   1       7.889   5.403 -13.784  0.00  0.00     0.250 C 
BRANCH   3   4
ATOM      4  N   UNL d   1       8.329   5.192 -12.422  0.00  0.00     0.141 N 
ATOM      5  C   UNL d   1       7.356   5.810 -11.509  0.00  0.00     0.274 C 
ATOM      6  C   UNL d   1       7.794   5.526 -10.056  0.00  0.00     0.137 C 
ATOM      7  N   UNL d   1       9.121   6.063  -9.840  0.00  0.00    -0.343 N 
ATOM      8  C   UNL d   1      10.100   5.609 -10.765  0.00  0.00     0.137 C 
ATOM      9  C   UNL d   1       9.621   5.857 -12.195  0.00  0.00     0.274 C 
BRANCH   7  10
ATOM     10  C   UNL d   1       9.461   6.928  -8.793  0.00  0.00     0.079 A 
ATOM     11  C   UNL d   1      10.340   8.038  -8.955  0.00  0.00     0.110 A 
ATOM     12  C   UNL d   1      10.634   8.871  -7.843  0.00  0.00     0.026 A 
ATOM     13  C   UNL d   1      10.034   8.630  -6.601  0.00  0.00     0.002 A 
ATOM     14  C   UNL d   1       9.175   7.535  -6.475  0.00  0.00     0.002 A 
ATOM     15  C   UNL d   1       8.893   6.683  -7.537  0.00  0.00     0.019 A 
BRANCH  11  16
ATOM     16  O   UNL d   1      10.831   8.312 -10.211  0.00  0.00    -0.327 OA
ATOM     17  C   UNL d   1      11.966   9.147 -10.292  0.00  0.00     0.181 C 
ENDBRANCH  11  16
ENDBRANCH   7  10
ENDBRANCH   3   4
ENDBRANCH   2   3
ENDBRANCH   1   2
BRANCH   1  18
ATOM     18  C   UNL d   1       8.987   2.472 -16.120  0.00  0.00     0.002 C 
BRANCH  18  19
ATOM     19  C   UNL d   1       8.278   1.164 -16.511  0.00  0.00     0.025 C 
BRANCH  19  20
ATOM     20  C   UNL d   1       8.433   0.840 -18.004  0.00  0.00     0.111 C 
BRANCH  20  21
ATOM     21  N   UNL d   1       7.811  -0.435 -18.345  0.00  0.00    -0.280 N 
ATOM     22  C   UNL d   1       6.452  -0.687 -18.545  0.00  0.00     0.080 A 
ATOM     23  C   UNL d   1       6.306  -2.023 -18.847  0.00  0.00     0.076 A 
ATOM     24  C   UNL d   1       5.288   0.099 -18.506  0.00  0.00     0.019 A 
ATOM     25  N   UNL d   1       7.588  -2.565 -18.822  0.00  0.00    -0.281 N 
ATOM     26  C   UNL d   1       5.124  -2.712 -19.115  0.00  0.00    -0.005 A 
ATOM     27  C   UNL d   1       8.483  -1.595 -18.510  0.00  0.00     0.331 A 
ATOM     28  C   UNL d   1       7.819  -3.990 -19.054  0.00  0.00     0.111 C 
ATOM     29  O   UNL d   1       9.696  -1.719 -18.377  0.00  0.00    -0.246 OA
ATOM     30  C   UNL d   1       6.545  -4.805 -18.769  0.00  0.00     0.029 C 
ATOM     31  C   UNL d   1       5.298  -4.189 -19.431  0.00  0.00     0.030 C 
ATOM     32  C   UNL d   1       3.958  -1.924 -19.072  0.00  0.00    -0.003 A 
ATOM     33  C   UNL d   1       4.046  -0.537 -18.785  0.00  0.00     0.001 A 
ENDBRANCH  20  21
ENDBRANCH  19  20
ENDBRANCH  18  19
ENDBRANCH   1  18
TORSDOF 9
