REMARK  2 active torsions:
REMARK  status: ('A' for Active; 'I' for Inactive)
REMARK    1  A    between atoms: S_2  and  C_5 
REMARK    2  A    between atoms: C_5  and  C_6 
ROOT
ATOM      1  O   UNL d   1      11.387   7.716  -4.832  0.00  0.00    -0.594 OA
ATOM      2  S   UNL d   1      11.442   9.142  -5.176  0.00  0.00     0.117 S 
ATOM      3  O   UNL d   1      10.668  10.148  -4.440  0.00  0.00    -0.594 OA
ATOM      4  O   UNL d   1      13.061   9.588  -5.097  0.00  0.00    -0.594 OA
ENDROOT
BRANCH   2   5
ATOM      5  C   UNL d   1      11.131   9.364  -6.964  0.00  0.00     0.158 C 
BRANCH   5   6
ATOM      6  C   UNL d   1      11.825   8.285  -7.795  0.00  0.00     0.089 C 
ATOM      7  S   UNL d   1      11.435   8.521  -9.546  0.00  0.00    -0.081 SA
ENDBRANCH   5   6
ENDBRANCH   2   5
TORSDOF 2
