REMARK  9 active torsions:
REMARK  status: ('A' for Active; 'I' for Inactive)
REMARK    1  A    between atoms: C_6  and  O_7 
REMARK    2  A    between atoms: O_7  and  C_8 
REMARK    3  A    between atoms: C_8  and  C_9 
REMARK    4  A    between atoms: C_9  and  N_10 
REMARK    5  A    between atoms: N_10  and  C_11 
REMARK    6  A    between atoms: C_11  and  C_12 
REMARK    7  A    between atoms: C_12  and  C_13 
REMARK    8  A    between atoms: C_13  and  O_14 
REMARK    9  A    between atoms: O_14  and  C_15 
ROOT
ATOM      1  N   UNL d   1       8.768   6.399  -8.342  0.00  0.00     0.342 N 
ENDROOT
BRANCH   1   2
ATOM      2  C   UNL d   1       8.589   5.882  -9.656  0.00  0.00     0.323 C 
BRANCH   2   3
ATOM      3  C   UNL d   1       9.741   5.128 -10.302  0.00  0.00     0.187 C 
BRANCH   3   4
ATOM      4  O   UNL d   1       9.612   5.062 -11.720  0.00  0.00    -0.329 OA
BRANCH   4   5
ATOM      5  C   UNL d   1       8.488   4.529 -12.321  0.00  0.00     0.094 A 
ATOM      6  C   UNL d   1       7.161   4.820 -11.925  0.00  0.00     0.024 A 
ATOM      7  C   UNL d   1       6.097   4.183 -12.524  0.00  0.00     0.002 A 
ATOM      8  C   UNL d   1       6.303   3.317 -13.619  0.00  0.00    -0.004 A 
ATOM      9  C   UNL d   1       7.618   3.086 -14.083  0.00  0.00    -0.020 A 
ATOM     10  C   UNL d   1       7.843   2.209 -15.287  0.00  0.00     0.031 C 
ATOM     11  C   UNL d   1       8.731   3.675 -13.417  0.00  0.00     0.020 A 
ENDBRANCH   4   5
ENDBRANCH   3   4
ENDBRANCH   2   3
ENDBRANCH   1   2
BRANCH   1  12
ATOM     12  C   UNL d   1       9.739   7.489  -8.404  0.00  0.00     0.293 C 
BRANCH  12  13
ATOM     13  C   UNL d   1       9.709   8.156  -7.041  0.00  0.00     0.071 C 
BRANCH  13  14
ATOM     14  C   UNL d   1      10.941   9.085  -6.930  0.00  0.00     0.151 C 
BRANCH  14  15
ATOM     15  O   UNL d   1      11.046   9.712  -5.660  0.00  0.00    -0.331 OA
BRANCH  15  16
ATOM     16  C   UNL d   1      11.473   8.937  -4.614  0.00  0.00     0.094 A 
ATOM     17  C   UNL d   1      11.792   9.575  -3.385  0.00  0.00     0.024 A 
ATOM     18  C   UNL d   1      12.260   8.790  -2.289  0.00  0.00     0.002 A 
ATOM     19  C   UNL d   1      12.301   7.376  -2.393  0.00  0.00     0.000 A 
ATOM     20  C   UNL d   1      11.949   6.779  -3.614  0.00  0.00     0.002 A 
ATOM     21  C   UNL d   1      11.604   7.533  -4.720  0.00  0.00     0.024 A 
ENDBRANCH  15  16
ENDBRANCH  14  15
ENDBRANCH  13  14
ENDBRANCH  12  13
ENDBRANCH   1  12
TORSDOF 9
