REMARK  2 active torsions:
REMARK  status: ('A' for Active; 'I' for Inactive)
REMARK    1  A    between atoms: N_2  and  C_4 
REMARK    2  A    between atoms: C_4  and  C_5 
ROOT
ATOM      1  C   UNL d   1       6.157   0.293 -15.488  0.00  0.00     0.149 C 
ATOM      2  C   UNL d   1       7.646   0.568 -15.378  0.00  0.00     0.039 C 
ATOM      3  C   UNL d   1       7.942   1.335 -16.666  0.00  0.00     0.058 C 
ATOM      4  C   UNL d   1       9.360   1.064 -17.147  0.00  0.00     0.003 A 
ATOM      5  C   UNL d   1      10.375   1.979 -16.792  0.00  0.00    -0.002 A 
ATOM      6  C   UNL d   1      11.708   1.735 -17.163  0.00  0.00    -0.000 A 
ATOM      7  C   UNL d   1      12.035   0.577 -17.892  0.00  0.00     0.002 A 
ATOM      8  C   UNL d   1      11.034  -0.350 -18.235  0.00  0.00     0.024 A 
ATOM      9  C   UNL d   1       9.699  -0.105 -17.870  0.00  0.00     0.096 A 
ATOM     10  O   UNL d   1       8.736  -0.984 -18.270  0.00  0.00    -0.308 OA
ATOM     11  C   UNL d   1       7.956  -0.508 -19.284  0.00  0.00     0.098 A 
ATOM     12  C   UNL d   1       8.134  -1.002 -20.591  0.00  0.00     0.025 A 
ATOM     13  C   UNL d   1       7.363  -0.484 -21.652  0.00  0.00     0.013 A 
ATOM     14  C   UNL d   1       6.410   0.522 -21.399  0.00  0.00     0.058 A 
ATOM     15 CL   UNL d   1       5.483   1.185 -22.695  0.00  0.00    -0.082 Cl
ATOM     16  C   UNL d   1       6.223   1.000 -20.090  0.00  0.00     0.011 A 
ATOM     17  C   UNL d   1       7.006   0.501 -19.024  0.00  0.00     0.029 A 
ATOM     18  C   UNL d   1       6.752   0.994 -17.601  0.00  0.00     0.143 C 
ATOM     19  O   UNL d   1       6.049   0.006 -16.870  0.00  0.00    -0.352 OA
ENDROOT
BRANCH   1  20
ATOM     20  C   UNL d   1       5.636  -0.874 -14.625  0.00  0.00     0.280 C 
BRANCH  20  21
ATOM     21  N   UNL d   1       4.213  -1.199 -14.771  0.00  0.00     0.144 N 
ATOM     22  C   UNL d   1       3.324  -0.166 -14.286  0.00  0.00     0.286 C 
ATOM     23  C   UNL d   1       3.831  -1.661 -16.101  0.00  0.00     0.286 C 
ENDBRANCH  20  21
ENDBRANCH   1  20
TORSDOF 2
