REMARK  9 active torsions:
REMARK  status: ('A' for Active; 'I' for Inactive)
REMARK    1  A    between atoms: S_2  and  N_4 
REMARK    2  A    between atoms: S_2  and  C_23 
REMARK    3  A    between atoms: N_4  and  C_5 
REMARK    4  A    between atoms: C_5  and  C_6 
REMARK    5  A    between atoms: C_6  and  C_7 
REMARK    6  A    between atoms: C_7  and  N_8 
REMARK    7  A    between atoms: N_11  and  C_12 
REMARK    8  A    between atoms: C_26  and  O_27 
REMARK    9  A    between atoms: O_27  and  C_28 
ROOT
ATOM      1  C   UNL d   1       7.611   4.104 -13.620  0.00  0.00     0.062 C 
ENDROOT
BRANCH   1   2
ATOM      2  C   UNL d   1       8.863   3.447 -14.214  0.00  0.00     0.141 C 
BRANCH   2   3
ATOM      3  N   UNL d   1       8.673   2.002 -14.331  0.00  0.00    -0.185 NA
BRANCH   3   4
ATOM      4  S   UNL d   1       7.939   1.272 -15.700  0.00  0.00     0.281 S 
ATOM      5  O   UNL d   1       7.335   0.018 -15.239  0.00  0.00    -0.199 OA
ATOM      6  O   UNL d   1       7.129   2.288 -16.386  0.00  0.00    -0.199 OA
BRANCH   4   7
ATOM      7  C   UNL d   1       9.343   0.912 -16.749  0.00  0.00     0.105 A 
ATOM      8  C   UNL d   1      10.352   1.877 -16.930  0.00  0.00     0.015 A 
ATOM      9  C   UNL d   1      11.466   1.591 -17.729  0.00  0.00     0.025 A 
ATOM     10  C   UNL d   1      11.600   0.329 -18.359  0.00  0.00     0.102 A 
ATOM     11  C   UNL d   1      10.568  -0.626 -18.186  0.00  0.00     0.025 A 
ATOM     12  C   UNL d   1       9.439  -0.340 -17.385  0.00  0.00     0.015 A 
BRANCH  10  13
ATOM     13  O   UNL d   1      12.715  -0.058 -19.076  0.00  0.00    -0.253 OA
BRANCH  13  14
ATOM     14  C   UNL d   1      13.504   0.847 -19.723  0.00  0.00     0.530 C 
ATOM     15  F   UNL d   1      14.514   0.187 -20.341  0.00  0.00    -0.144 F 
ATOM     16  F   UNL d   1      12.824   1.513 -20.687  0.00  0.00    -0.144 F 
ATOM     17  F   UNL d   1      14.079   1.744 -18.884  0.00  0.00    -0.144 F 
ENDBRANCH  13  14
ENDBRANCH  10  13
ENDBRANCH   4   7
ENDBRANCH   3   4
ENDBRANCH   2   3
ENDBRANCH   1   2
BRANCH   1  18
ATOM     18  C   UNL d   1       7.899   5.529 -13.114  0.00  0.00     0.253 C 
BRANCH  18  19
ATOM     19  N   UNL d   1       8.821   5.526 -11.979  0.00  0.00     0.141 N 
ATOM     20  C   UNL d   1       8.155   5.001 -10.775  0.00  0.00     0.274 C 
ATOM     21  C   UNL d   1       9.143   4.930  -9.604  0.00  0.00     0.138 C 
ATOM     22  N   UNL d   1       9.742   6.236  -9.373  0.00  0.00    -0.328 N 
ATOM     23  C   UNL d   1      10.248   6.933 -10.539  0.00  0.00     0.138 C 
ATOM     24  C   UNL d   1       9.239   6.906 -11.695  0.00  0.00     0.274 C 
BRANCH  22  25
ATOM     25  C   UNL d   1       9.679   6.855  -8.119  0.00  0.00     0.169 A 
ATOM     26  C   UNL d   1      10.601   7.779  -7.580  0.00  0.00     0.061 A 
ATOM     27  C   UNL d   1      10.200   8.110  -6.283  0.00  0.00     0.128 A 
ATOM     28  C   UNL d   1      11.811   8.312  -8.076  0.00  0.00     0.005 A 
ATOM     29  O   UNL d   1       9.071   7.348  -6.066  0.00  0.00    -0.210 OA
ATOM     30  C   UNL d   1      10.903   8.997  -5.456  0.00  0.00     0.027 A 
ATOM     31  N   UNL d   1       8.751   6.578  -7.218  0.00  0.00    -0.109 NA
ATOM     32  C   UNL d   1      12.089   9.558  -5.956  0.00  0.00     0.002 A 
ATOM     33  C   UNL d   1      12.536   9.182  -7.247  0.00  0.00     0.000 A 
ENDBRANCH  22  25
ENDBRANCH  18  19
ENDBRANCH   1  18
TORSDOF 9
