REMARK  7 active torsions:
REMARK  status: ('A' for Active; 'I' for Inactive)
REMARK    1  A    between atoms: C_6  and  C_7 
REMARK    2  A    between atoms: C_10  and  S_11 
REMARK    3  A    between atoms: S_11  and  C_12 
REMARK    4  A    between atoms: C_12  and  C_13 
REMARK    5  A    between atoms: C_13  and  C_14 
REMARK    6  A    between atoms: C_14  and  N_15 
REMARK    7  A    between atoms: C_20  and  C_21 
ROOT
ATOM      1  C   UNL d   1      13.983   5.787 -17.059  0.00  0.00     0.251 C 
ENDROOT
BRANCH   1   2
ATOM      2  C   UNL d   1      14.007   6.782 -18.239  0.00  0.00     0.047 C 
BRANCH   2   3
ATOM      3  C   UNL d   1      15.393   7.378 -18.488  0.00  0.00     0.067 C 
BRANCH   3   4
ATOM      4  S   UNL d   1      16.625   6.111 -18.858  0.00  0.00    -0.075 SA
BRANCH   4   5
ATOM      5  C   UNL d   1      18.062   7.130 -18.918  0.00  0.00     0.193 A 
ATOM      6  N   UNL d   1      18.202   8.276 -18.246  0.00  0.00    -0.122 NA
ATOM      7  N   UNL d   1      19.445   8.744 -18.587  0.00  0.00    -0.126 NA
ATOM      8  C   UNL d   1      19.962   7.859 -19.453  0.00  0.00     0.191 A 
ATOM      9  N   UNL d   1      19.129   6.813 -19.676  0.00  0.00    -0.287 N 
ATOM     10  C   UNL d   1      19.306   5.647 -20.539  0.00  0.00     0.134 C 
BRANCH   8  11
ATOM     11  C   UNL d   1      21.291   8.072 -20.028  0.00  0.00     0.151 A 
ATOM     12  C   UNL d   1      21.895   7.741 -21.224  0.00  0.00     0.087 A 
ATOM     13  C   UNL d   1      21.369   7.015 -22.421  0.00  0.00     0.054 C 
ATOM     14  N   UNL d   1      23.203   8.209 -21.200  0.00  0.00    -0.221 NA
ATOM     15  C   UNL d   1      23.331   8.794 -20.016  0.00  0.00     0.225 A 
ATOM     16  O   UNL d   1      22.205   8.747 -19.258  0.00  0.00    -0.282 OA
ENDBRANCH   8  11
ENDBRANCH   4   5
ENDBRANCH   3   4
ENDBRANCH   2   3
ENDBRANCH   1   2
BRANCH   1  17
ATOM     17  N   UNL d   1      12.642   5.564 -16.545  0.00  0.00     0.137 N 
ATOM     18  C   UNL d   1      12.637   4.531 -15.519  0.00  0.00     0.251 C 
ATOM     19  C   UNL d   1      11.171   4.171 -15.373  0.00  0.00     0.038 A 
ATOM     20  C   UNL d   1      10.542   4.510 -16.703  0.00  0.00     0.038 C 
ATOM     21  C   UNL d   1      10.697   3.017 -14.514  0.00  0.00     0.026 A 
ATOM     22  C   UNL d   1      10.456   4.439 -14.067  0.00  0.00     0.007 A 
ATOM     23  C   UNL d   1      11.723   5.046 -17.551  0.00  0.00     0.250 C 
BRANCH  21  24
ATOM     24  C   UNL d   1       9.556   2.152 -14.968  0.00  0.00     0.005 A 
ATOM     25  C   UNL d   1       9.754   1.147 -15.942  0.00  0.00     0.138 A 
ATOM     26  C   UNL d   1       8.665   0.370 -16.386  0.00  0.00     0.059 A 
ATOM     27  F   UNL d   1      10.982   0.953 -16.480  0.00  0.00    -0.204 F 
ATOM     28  C   UNL d   1       7.380   0.585 -15.855  0.00  0.00     0.142 A 
ATOM     29  C   UNL d   1       7.180   1.571 -14.871  0.00  0.00     0.029 A 
ATOM     30  F   UNL d   1       6.329  -0.151 -16.287  0.00  0.00    -0.204 F 
ATOM     31  C   UNL d   1       8.264   2.344 -14.433  0.00  0.00     0.000 A 
ENDBRANCH  21  24
ENDBRANCH   1  17
TORSDOF 7
