REMARK  3 active torsions:
REMARK  status: ('A' for Active; 'I' for Inactive)
REMARK    1  A    between atoms: C_2  and  N_3 
REMARK    2  A    between atoms: C_7  and  C_8 
REMARK    3  A    between atoms: C_14  and  C_15 
ROOT
ATOM      1  C   UNL d   1       6.815   3.606 -13.084  0.00  0.00     0.040 A 
ATOM      2  C   UNL d   1       5.697   3.299 -12.348  0.00  0.00     0.101 A 
ATOM      3  N   UNL d   1       5.118   2.148 -12.837  0.00  0.00    -0.244 NA
ATOM      4  C   UNL d   1       5.869   1.627 -13.868  0.00  0.00     0.084 A 
ATOM      5  C   UNL d   1       5.701   0.486 -14.668  0.00  0.00     0.019 A 
ATOM      6  C   UNL d   1       6.628   0.219 -15.690  0.00  0.00     0.009 A 
ATOM      7  C   UNL d   1       7.744   1.068 -15.884  0.00  0.00     0.087 A 
ATOM      8  C   UNL d   1       7.891   2.221 -15.072  0.00  0.00     0.146 A 
ATOM      9  F   UNL d   1       8.941   3.051 -15.282  0.00  0.00    -0.204 F 
ATOM     10  C   UNL d   1       6.958   2.532 -14.050  0.00  0.00     0.048 A 
ENDROOT
BRANCH   1  11
ATOM     11  C   UNL d   1       7.708   4.740 -12.879  0.00  0.00     0.082 A 
ATOM     12  N   UNL d   1       7.289   6.009 -12.453  0.00  0.00    -0.309 N 
ATOM     13  C   UNL d   1       8.409   6.742 -12.408  0.00  0.00     0.179 A 
ATOM     14  N   UNL d   1       9.505   6.100 -12.765  0.00  0.00    -0.223 NA
ATOM     15  C   UNL d   1       9.072   4.821 -13.051  0.00  0.00     0.118 A 
BRANCH  12  16
ATOM     16  C   UNL d   1       5.955   6.459 -12.081  0.00  0.00     0.108 C 
ATOM     17  C   UNL d   1       5.657   7.911 -12.483  0.00  0.00     0.027 C 
ENDBRANCH  12  16
ENDBRANCH   1  11
BRANCH   7  18
ATOM     18  C   UNL d   1       8.734   0.779 -16.981  0.00  0.00     0.299 C 
ATOM     19  N   UNL d   1       8.920  -0.509 -17.251  0.00  0.00    -0.102 N 
ATOM     20  O   UNL d   1       9.365   1.660 -17.559  0.00  0.00    -0.264 OA
ENDBRANCH   7  18
TORSDOF 3
