REMARK  6 active torsions:
REMARK  status: ('A' for Active; 'I' for Inactive)
REMARK    1  A    between atoms: S_2  and  C_4 
REMARK    2  A    between atoms: S_2  and  N_14 
REMARK    3  A    between atoms: C_18  and  C_19 
REMARK    4  A    between atoms: C_19  and  C_20 
REMARK    5  A    between atoms: C_20  and  N_21 
REMARK    6  A    between atoms: C_24  and  C_25 
ROOT
ATOM      1  N   UNL d   1       8.338   0.507 -17.865  0.00  0.00    -0.276 N 
ATOM      2  C   UNL d   1       7.266   0.255 -18.834  0.00  0.00     0.113 C 
ATOM      3  C   UNL d   1       6.206  -0.465 -18.005  0.00  0.00     0.027 C 
ATOM      4  C   UNL d   1       6.296   0.214 -16.644  0.00  0.00     0.025 C 
ATOM      5  C   UNL d   1       7.739   0.694 -16.520  0.00  0.00     0.094 C 
ENDROOT
BRANCH   5   6
ATOM      6  C   UNL d   1       7.787   2.171 -16.078  0.00  0.00     0.058 C 
BRANCH   6   7
ATOM      7  C   UNL d   1       7.181   2.430 -14.687  0.00  0.00     0.252 C 
BRANCH   7   8
ATOM      8  N   UNL d   1       7.625   3.671 -14.032  0.00  0.00     0.137 N 
ATOM      9  C   UNL d   1       6.798   3.997 -12.907  0.00  0.00     0.251 C 
ATOM     10  C   UNL d   1       7.294   5.291 -12.239  0.00  0.00     0.041 C 
ATOM     11  C   UNL d   1       8.748   5.176 -11.742  0.00  0.00     0.047 C 
ATOM     12  C   UNL d   1       9.617   4.697 -12.886  0.00  0.00     0.041 C 
ATOM     13  C   UNL d   1       8.914   3.480 -13.466  0.00  0.00     0.251 C 
BRANCH  11  14
ATOM     14  C   UNL d   1       9.248   6.478 -11.197  0.00  0.00     0.087 A 
ATOM     15  C   UNL d   1       9.761   6.799  -9.924  0.00  0.00     0.041 A 
ATOM     16  C   UNL d   1      10.089   8.155  -9.895  0.00  0.00     0.129 A 
ATOM     17  C   UNL d   1       9.954   6.014  -8.768  0.00  0.00     0.006 A 
ATOM     18  O   UNL d   1       9.777   8.630 -11.158  0.00  0.00    -0.211 OA
ATOM     19  C   UNL d   1      10.620   8.788  -8.762  0.00  0.00     0.057 A 
ATOM     20  N   UNL d   1       9.260   7.573 -11.957  0.00  0.00    -0.131 NA
ATOM     21  C   UNL d   1      10.819   8.005  -7.606  0.00  0.00     0.142 A 
ATOM     22  F   UNL d   1      11.329   8.572  -6.486  0.00  0.00    -0.204 F 
ATOM     23  C   UNL d   1      10.490   6.628  -7.612  0.00  0.00     0.030 A 
ENDBRANCH  11  14
ENDBRANCH   7   8
ENDBRANCH   6   7
ENDBRANCH   5   6
BRANCH   1  24
ATOM     24  S   UNL d   1       9.877  -0.305 -18.048  0.00  0.00     0.264 S 
ATOM     25  O   UNL d   1       9.913  -0.938 -19.376  0.00  0.00    -0.200 OA
ATOM     26  O   UNL d   1      10.112  -1.131 -16.855  0.00  0.00    -0.200 OA
BRANCH  24  27
ATOM     27  C   UNL d   1      11.060   1.059 -18.072  0.00  0.00     0.105 A 
ATOM     28  C   UNL d   1      11.320   1.879 -16.946  0.00  0.00     0.030 A 
ATOM     29  C   UNL d   1      12.263   2.944 -17.020  0.00  0.00     0.082 A 
ATOM     30  C   UNL d   1      10.768   1.616 -15.688  0.00  0.00     0.004 C 
ATOM     31  C   UNL d   1      12.957   3.136 -18.222  0.00  0.00     0.019 A 
ATOM     32  N   UNL d   1      12.523   3.776 -15.985  0.00  0.00    -0.244 NA
ATOM     33  C   UNL d   1      12.729   2.312 -19.335  0.00  0.00     0.002 A 
ATOM     34  C   UNL d   1      11.784   1.276 -19.259  0.00  0.00     0.013 A 
ATOM     35  C   UNL d   1      11.924   3.543 -14.812  0.00  0.00     0.099 C 
ATOM     36  C   UNL d   1      11.204   2.371 -14.606  0.00  0.00     0.021 C 
ENDBRANCH  24  27
ENDBRANCH   1  24
TORSDOF 6
