REMARK  7 active torsions:
REMARK  status: ('A' for Active; 'I' for Inactive)
REMARK    1  A    between atoms: C_2  and  C_3 
REMARK    2  A    between atoms: C_3  and  N_4 
REMARK    3  A    between atoms: N_4  and  C_5 
REMARK    4  A    between atoms: N_4  and  C_23 
REMARK    5  A    between atoms: C_5  and  C_6 
REMARK    6  A    between atoms: C_6  and  N_7 
REMARK    7  A    between atoms: N_10  and  C_11 
ROOT
ATOM      1  C   UNL d   1       9.736   4.099 -14.252  0.00  0.00     0.286 C 
ENDROOT
BRANCH   1   2
ATOM      2  C   UNL d   1       9.766   4.576 -12.792  0.00  0.00     0.285 C 
BRANCH   2   3
ATOM      3  N   UNL d   1       8.871   5.681 -12.437  0.00  0.00     0.137 N 
BRANCH   3   4
ATOM      4  C   UNL d   1       7.495   5.558 -12.946  0.00  0.00     0.250 C 
BRANCH   4   5
ATOM      5  C   UNL d   1       6.634   4.481 -12.287  0.00  0.00     0.035 C 
ATOM      6  C   UNL d   1       5.430   4.063 -13.127  0.00  0.00     0.002 C 
ENDBRANCH   4   5
ENDBRANCH   3   4
BRANCH   3   7
ATOM      7  C   UNL d   1       8.924   6.063 -11.007  0.00  0.00     0.224 C 
ATOM      8  C   UNL d   1      10.140   6.934 -10.597  0.00  0.00     0.059 C 
ATOM      9  C   UNL d   1      10.217   7.240  -9.110  0.00  0.00    -0.022 A 
ATOM     10  C   UNL d   1       9.459   6.505  -8.165  0.00  0.00    -0.026 A 
ATOM     11  C   UNL d   1      11.059   8.278  -8.655  0.00  0.00     0.023 A 
ATOM     12  C   UNL d   1       8.525   5.404  -8.602  0.00  0.00     0.028 C 
ATOM     13  C   UNL d   1       9.526   6.820  -6.794  0.00  0.00    -0.003 A 
ATOM     14  C   UNL d   1       8.813   4.896  -9.997  0.00  0.00     0.038 C 
ATOM     15  C   UNL d   1      10.366   7.851  -6.343  0.00  0.00     0.027 A 
ATOM     16  C   UNL d   1      11.134   8.575  -7.275  0.00  0.00     0.131 A 
ATOM     17  O   UNL d   1      11.955   9.561  -6.821  0.00  0.00    -0.190 OA
ENDBRANCH   3   7
ENDBRANCH   2   3
ENDBRANCH   1   2
BRANCH   1  18
ATOM     18  N   UNL d   1      11.040   3.989 -14.894  0.00  0.00     0.143 N 
ATOM     19  C   UNL d   1      10.942   3.131 -16.075  0.00  0.00     0.274 C 
ATOM     20  C   UNL d   1      12.300   2.991 -16.790  0.00  0.00     0.137 C 
ATOM     21  N   UNL d   1      12.841   4.309 -17.074  0.00  0.00    -0.344 N 
ATOM     22  C   UNL d   1      12.869   5.250 -15.970  0.00  0.00     0.137 C 
ATOM     23  C   UNL d   1      11.493   5.316 -15.302  0.00  0.00     0.274 C 
BRANCH  21  24
ATOM     24  C   UNL d   1      13.330   4.653 -18.360  0.00  0.00     0.059 A 
ATOM     25  C   UNL d   1      14.593   5.239 -18.556  0.00  0.00     0.033 A 
ATOM     26  C   UNL d   1      14.987   5.567 -19.898  0.00  0.00     0.083 A 
ATOM     27  C   UNL d   1      15.514   5.492 -17.500  0.00  0.00     0.003 A 
ATOM     28  N   UNL d   1      14.180   5.329 -20.953  0.00  0.00    -0.244 NA
ATOM     29  C   UNL d   1      16.262   6.137 -20.114  0.00  0.00     0.019 A 
ATOM     30  C   UNL d   1      12.975   4.766 -20.749  0.00  0.00     0.100 A 
ATOM     31  C   UNL d   1      12.504   4.406 -19.465  0.00  0.00     0.038 A 
ATOM     32  C   UNL d   1      17.138   6.411 -19.048  0.00  0.00     0.002 A 
ATOM     33  C   UNL d   1      16.754   6.089 -17.736  0.00  0.00     0.000 A 
ENDBRANCH  21  24
ENDBRANCH   1  18
TORSDOF 7
