REMARK  5 active torsions:
REMARK  status: ('A' for Active; 'I' for Inactive)
REMARK    1  A    between atoms: C_2  and  C_3 
REMARK    2  A    between atoms: N_12  and  C_13 
REMARK    3  A    between atoms: C_13  and  C_14 
REMARK    4  A    between atoms: C_14  and  C_15 
REMARK    5  A    between atoms: C_17  and  C_18 
ROOT
ATOM      1  O   UNL d   1       8.945   8.711  -7.609  0.00  0.00    -0.221 OA
ATOM      2  C   UNL d   1       9.971   7.754  -7.443  0.00  0.00     0.149 C 
ATOM      3  C   UNL d   1       9.340   6.348  -7.584  0.00  0.00     0.070 C 
ATOM      4  C   UNL d   1       8.801   6.082  -8.982  0.00  0.00     0.253 C 
ATOM      5  N   UNL d   1       9.870   6.256  -9.957  0.00  0.00     0.137 N 
ATOM      6  C   UNL d   1      10.345   7.649  -9.948  0.00  0.00     0.253 C 
ATOM      7  C   UNL d   1      10.968   7.985  -8.583  0.00  0.00     0.070 C 
ENDROOT
BRANCH   5   8
ATOM      8  C   UNL d   1       9.378   5.939 -11.287  0.00  0.00     0.250 C 
BRANCH   8   9
ATOM      9  C   UNL d   1       9.202   4.429 -11.483  0.00  0.00     0.036 C 
BRANCH   9  10
ATOM     10  C   UNL d   1       9.095   3.989 -12.937  0.00  0.00     0.006 A 
ATOM     11  C   UNL d   1      10.336   3.952 -13.808  0.00  0.00     0.022 A 
ATOM     12  C   UNL d   1       9.242   4.941 -14.100  0.00  0.00     0.005 A 
BRANCH  11  13
ATOM     13  C   UNL d   1      10.576   2.832 -14.790  0.00  0.00    -0.022 A 
ATOM     14  C   UNL d   1      10.036   1.554 -14.567  0.00  0.00    -0.002 A 
ATOM     15  C   UNL d   1      10.214   0.531 -15.518  0.00  0.00     0.029 A 
ATOM     16  C   UNL d   1      10.943   0.783 -16.693  0.00  0.00     0.140 A 
ATOM     17  C   UNL d   1      11.503   2.057 -16.910  0.00  0.00     0.029 A 
ATOM     18  F   UNL d   1      11.101  -0.197 -17.616  0.00  0.00    -0.204 F 
ATOM     19  C   UNL d   1      11.321   3.079 -15.959  0.00  0.00    -0.002 A 
ENDBRANCH  11  13
ENDBRANCH   9  10
ENDBRANCH   8   9
ENDBRANCH   5   8
BRANCH   2  20
ATOM     20  C   UNL d   1      10.678   7.936  -6.084  0.00  0.00     0.005 A 
ATOM     21  C   UNL d   1      10.827   9.227  -5.533  0.00  0.00    -0.001 A 
ATOM     22  C   UNL d   1      11.447   9.405  -4.277  0.00  0.00     0.011 A 
ATOM     23  C   UNL d   1      11.933   8.293  -3.563  0.00  0.00     0.058 A 
ATOM     24  C   UNL d   1      11.815   7.006  -4.113  0.00  0.00     0.011 A 
ATOM     25 CL   UNL d   1      12.653   8.492  -2.013  0.00  0.00    -0.082 Cl
ATOM     26  C   UNL d   1      11.199   6.832  -5.368  0.00  0.00    -0.001 A 
ENDBRANCH   2  20
TORSDOF 5
