REMARK  11 active torsions:
REMARK  status: ('A' for Active; 'I' for Inactive)
REMARK    1  A    between atoms: C_3  and  C_4 
REMARK    2  A    between atoms: C_3  and  C_27 
REMARK    3  A    between atoms: C_3  and  C_33 
REMARK    4  A    between atoms: C_4  and  C_5 
REMARK    5  A    between atoms: C_5  and  N_6 
REMARK    6  A    between atoms: N_6  and  C_7 
REMARK    7  A    between atoms: C_7  and  C_8 
REMARK    8  A    between atoms: C_8  and  C_9 
REMARK    9  A    between atoms: C_9  and  C_10 
REMARK   10  A    between atoms: C_10  and  C_11 
REMARK       I    between atoms: C_11  and  N_13 
REMARK   11  A    between atoms: N_16  and  C_17 
ROOT
ATOM      1  N   UNL d   1       8.614   2.893 -19.763  0.00  0.00    -0.196 NA
ATOM      2  C   UNL d   1       9.332   2.310 -19.069  0.00  0.00     0.080 C 
ATOM      3  C   UNL d   1      10.243   1.558 -18.186  0.00  0.00     0.119 C 
ENDROOT
BRANCH   3   4
ATOM      4  C   UNL d   1       9.344   0.618 -17.328  0.00  0.00     0.060 C 
BRANCH   4   5
ATOM      5  C   UNL d   1       8.232   1.333 -16.544  0.00  0.00     0.292 C 
BRANCH   5   6
ATOM      6  N   UNL d   1       7.478   0.375 -15.753  0.00  0.00     0.339 N 
BRANCH   6   7
ATOM      7  C   UNL d   1       6.418   1.050 -15.019  0.00  0.00     0.290 C 
BRANCH   7   8
ATOM      8  C   UNL d   1       6.985   1.912 -13.896  0.00  0.00     0.039 C 
BRANCH   8   9
ATOM      9  C   UNL d   1       5.921   2.636 -13.002  0.00  0.00     0.012 C 
BRANCH   9  10
ATOM     10  C   UNL d   1       6.411   3.683 -11.939  0.00  0.00     0.088 C 
BRANCH  10  11
ATOM     11  C   UNL d   1       7.436   4.723 -12.477  0.00  0.00     0.234 C 
ATOM     12  O   UNL d   1       7.383   5.049 -13.646  0.00  0.00    -0.272 OA
ATOM     13  N   UNL d   1       8.427   5.203 -11.691  0.00  0.00    -0.316 N 
ATOM     14  C   UNL d   1       8.745   4.789 -10.310  0.00  0.00     0.128 C 
ATOM     15  C   UNL d   1       9.364   6.222 -12.210  0.00  0.00     0.128 C 
ATOM     16  C   UNL d   1       8.642   6.009  -9.415  0.00  0.00     0.126 C 
ATOM     17  N   UNL d   1       9.495   7.076  -9.907  0.00  0.00    -0.344 N 
ATOM     18  C   UNL d   1       9.334   7.465 -11.307  0.00  0.00     0.126 C 
BRANCH  17  19
ATOM     19  C   UNL d   1      10.476   7.663  -9.083  0.00  0.00     0.068 A 
ATOM     20  C   UNL d   1      10.230   8.064  -7.743  0.00  0.00     0.084 A 
ATOM     21  C   UNL d   1      11.278   8.627  -6.985  0.00  0.00     0.070 A 
ATOM     22 CL   UNL d   1       8.691   7.924  -6.972  0.00  0.00    -0.080 Cl
ATOM     23  C   UNL d   1      12.538   8.800  -7.556  0.00  0.00     0.012 A 
ATOM     24 CL   UNL d   1      11.054   9.090  -5.338  0.00  0.00    -0.081 Cl
ATOM     25  C   UNL d   1      12.800   8.381  -8.857  0.00  0.00     0.002 A 
ATOM     26  C   UNL d   1      11.761   7.848  -9.618  0.00  0.00     0.018 A 
ENDBRANCH  17  19
ENDBRANCH  10  11
ENDBRANCH   9  10
ENDBRANCH   8   9
ENDBRANCH   7   8
ENDBRANCH   6   7
ENDBRANCH   5   6
ENDBRANCH   4   5
ENDBRANCH   3   4
BRANCH   3  27
ATOM     27  C   UNL d   1      11.201   0.701 -19.024  0.00  0.00    -0.006 A 
ATOM     28  C   UNL d   1      11.160   0.670 -20.441  0.00  0.00    -0.003 A 
ATOM     29  C   UNL d   1      12.076  -0.117 -21.167  0.00  0.00    -0.000 A 
ATOM     30  C   UNL d   1      13.041  -0.882 -20.490  0.00  0.00    -0.000 A 
ATOM     31  C   UNL d   1      13.075  -0.870 -19.088  0.00  0.00    -0.000 A 
ATOM     32  C   UNL d   1      12.173  -0.075 -18.361  0.00  0.00    -0.003 A 
ENDBRANCH   3  27
BRANCH   3  33
ATOM     33  C   UNL d   1      11.072   2.579 -17.376  0.00  0.00    -0.006 A 
ATOM     34  C   UNL d   1      11.148   2.570 -15.958  0.00  0.00    -0.003 A 
ATOM     35  C   UNL d   1      11.873   3.557 -15.266  0.00  0.00    -0.000 A 
ATOM     36  C   UNL d   1      12.609   4.521 -15.978  0.00  0.00    -0.000 A 
ATOM     37  C   UNL d   1      12.591   4.513 -17.385  0.00  0.00    -0.000 A 
ATOM     38  C   UNL d   1      11.815   3.560 -18.076  0.00  0.00    -0.003 A 
ENDBRANCH   3  33
TORSDOF 11
