REMARK  8 active torsions:
REMARK  status: ('A' for Active; 'I' for Inactive)
REMARK       I    between atoms: N_2  and  C_3 
REMARK    1  A    between atoms: C_3  and  C_5 
REMARK    2  A    between atoms: C_7  and  O_8 
REMARK    3  A    between atoms: O_8  and  C_9 
REMARK    4  A    between atoms: C_9  and  C_10 
REMARK    5  A    between atoms: C_10  and  C_11 
REMARK    6  A    between atoms: C_11  and  C_12 
REMARK    7  A    between atoms: C_12  and  N_13 
REMARK    8  A    between atoms: N_16  and  C_17 
ROOT
ATOM      1  C   UNL d   1       7.572   4.027 -13.385  0.00  0.00     0.038 C 
ENDROOT
BRANCH   1   2
ATOM      2  C   UNL d   1       7.222   2.558 -13.643  0.00  0.00     0.035 C 
BRANCH   2   3
ATOM      3  C   UNL d   1       6.325   2.336 -14.848  0.00  0.00     0.149 C 
BRANCH   3   4
ATOM      4  O   UNL d   1       5.994   0.963 -15.092  0.00  0.00    -0.331 OA
BRANCH   4   5
ATOM      5  C   UNL d   1       6.466   0.397 -16.268  0.00  0.00     0.094 A 
ATOM      6  C   UNL d   1       5.796  -0.750 -16.758  0.00  0.00     0.029 A 
ATOM      7  C   UNL d   1       6.167  -1.362 -17.983  0.00  0.00     0.056 A 
ATOM      8  C   UNL d   1       7.243  -0.800 -18.728  0.00  0.00    -0.017 A 
ATOM      9  C   UNL d   1       7.925   0.322 -18.234  0.00  0.00    -0.002 A 
ATOM     10  C   UNL d   1       7.714  -1.370 -20.058  0.00  0.00     0.031 C 
ATOM     11  C   UNL d   1       7.575   0.888 -17.007  0.00  0.00     0.024 A 
BRANCH   7  12
ATOM     12  C   UNL d   1       5.457  -2.605 -18.454  0.00  0.00     0.275 C 
ATOM     13  N   UNL d   1       4.118  -2.560 -18.404  0.00  0.00    -0.232 NA
ATOM     14  C   UNL d   1       3.251  -3.632 -18.869  0.00  0.00     0.155 C 
ATOM     15  O   UNL d   1       6.083  -3.572 -18.901  0.00  0.00    -0.266 OA
ENDBRANCH   7  12
ENDBRANCH   4   5
ENDBRANCH   3   4
ENDBRANCH   2   3
ENDBRANCH   1   2
BRANCH   1  16
ATOM     16  C   UNL d   1       8.818   4.148 -12.492  0.00  0.00     0.251 C 
BRANCH  16  17
ATOM     17  N   UNL d   1       8.696   5.295 -11.590  0.00  0.00     0.141 N 
ATOM     18  C   UNL d   1       9.621   6.350 -12.012  0.00  0.00     0.274 C 
ATOM     19  C   UNL d   1       9.563   7.576 -11.096  0.00  0.00     0.137 C 
ATOM     20  N   UNL d   1       9.747   7.144  -9.713  0.00  0.00    -0.344 N 
ATOM     21  C   UNL d   1       8.906   6.057  -9.251  0.00  0.00     0.137 C 
ATOM     22  C   UNL d   1       9.021   4.880 -10.217  0.00  0.00     0.274 C 
BRANCH  20  23
ATOM     23  C   UNL d   1      10.620   7.803  -8.840  0.00  0.00     0.068 A 
ATOM     24  C   UNL d   1      10.261   8.252  -7.534  0.00  0.00     0.084 A 
ATOM     25  C   UNL d   1      11.203   8.929  -6.740  0.00  0.00     0.070 A 
ATOM     26 CL   UNL d   1       8.697   8.009  -6.845  0.00  0.00    -0.080 Cl
ATOM     27  C   UNL d   1      12.491   9.124  -7.220  0.00  0.00     0.012 A 
ATOM     28 CL   UNL d   1      10.863   9.508  -5.154  0.00  0.00    -0.081 Cl
ATOM     29  C   UNL d   1      12.874   8.635  -8.473  0.00  0.00     0.002 A 
ATOM     30  C   UNL d   1      11.938   8.021  -9.303  0.00  0.00     0.018 A 
ENDBRANCH  20  23
ENDBRANCH  16  17
ENDBRANCH   1  16
TORSDOF 8
