REMARK  7 active torsions:
REMARK  status: ('A' for Active; 'I' for Inactive)
REMARK    1  A    between atoms: C_4  and  C_5 
REMARK    2  A    between atoms: N_16  and  C_17 
REMARK    3  A    between atoms: C_17  and  C_18 
REMARK    4  A    between atoms: C_18  and  C_19 
REMARK    5  A    between atoms: C_19  and  S_20 
REMARK    6  A    between atoms: S_20  and  C_21 
REMARK    7  A    between atoms: C_24  and  C_25 
ROOT
ATOM      1  C   UNL d   1       8.496   1.425 -15.577  0.00  0.00     0.200 A 
ATOM      2  N   UNL d   1       8.889   0.229 -16.043  0.00  0.00    -0.219 NA
ATOM      3  C   UNL d   1       9.955   0.532 -16.866  0.00  0.00     0.106 A 
ATOM      4  C   UNL d   1      10.805  -0.265 -17.660  0.00  0.00     0.017 A 
ATOM      5  C   UNL d   1      11.848   0.325 -18.417  0.00  0.00    -0.022 A 
ATOM      6  C   UNL d   1      12.042   1.732 -18.386  0.00  0.00    -0.022 A 
ATOM      7  C   UNL d   1      11.191   2.539 -17.597  0.00  0.00     0.022 A 
ATOM      8  C   UNL d   1      10.168   1.924 -16.858  0.00  0.00     0.119 A 
ATOM      9  O   UNL d   1       9.223   2.499 -16.029  0.00  0.00    -0.287 OA
ATOM     10  C   UNL d   1      13.147   2.399 -19.191  0.00  0.00     0.061 C 
ATOM     11  C   UNL d   1      13.028   2.172 -20.712  0.00  0.00     0.255 C 
ATOM     12  N   UNL d   1      13.498   0.868 -21.193  0.00  0.00     0.138 N 
ATOM     13  C   UNL d   1      12.681  -0.266 -20.766  0.00  0.00     0.255 C 
ATOM     14  C   UNL d   1      12.741  -0.575 -19.258  0.00  0.00     0.061 C 
ENDROOT
BRANCH  12  15
ATOM     15  C   UNL d   1      14.935   0.610 -21.067  0.00  0.00     0.251 C 
BRANCH  15  16
ATOM     16  C   UNL d   1      15.747   1.543 -21.975  0.00  0.00     0.047 C 
BRANCH  16  17
ATOM     17  C   UNL d   1      17.234   1.159 -22.041  0.00  0.00     0.067 C 
BRANCH  17  18
ATOM     18  S   UNL d   1      18.192   2.162 -23.221  0.00  0.00    -0.075 SA
BRANCH  18  19
ATOM     19  C   UNL d   1      17.975   3.755 -22.494  0.00  0.00     0.193 A 
ATOM     20  N   UNL d   1      18.825   4.280 -21.591  0.00  0.00    -0.287 N 
ATOM     21  C   UNL d   1      18.233   5.465 -21.296  0.00  0.00     0.191 A 
ATOM     22  C   UNL d   1      20.050   3.713 -21.054  0.00  0.00     0.134 C 
ATOM     23  N   UNL d   1      17.090   5.645 -21.966  0.00  0.00    -0.126 NA
ATOM     24  N   UNL d   1      16.929   4.539 -22.763  0.00  0.00    -0.122 NA
BRANCH  21  25
ATOM     25  C   UNL d   1      18.724   6.468 -20.345  0.00  0.00     0.151 A 
ATOM     26  C   UNL d   1      18.179   7.626 -19.840  0.00  0.00     0.087 A 
ATOM     27  N   UNL d   1      19.093   8.204 -18.967  0.00  0.00    -0.221 NA
ATOM     28  C   UNL d   1      16.844   8.259 -20.094  0.00  0.00     0.054 C 
ATOM     29  C   UNL d   1      20.140   7.387 -18.996  0.00  0.00     0.225 A 
ATOM     30  O   UNL d   1      19.972   6.309 -19.802  0.00  0.00    -0.282 OA
ENDBRANCH  21  25
ENDBRANCH  18  19
ENDBRANCH  17  18
ENDBRANCH  16  17
ENDBRANCH  15  16
ENDBRANCH  12  15
BRANCH   1  31
ATOM     31  C   UNL d   1       7.391   1.739 -14.665  0.00  0.00     0.120 A 
ATOM     32  C   UNL d   1       7.026   2.946 -14.138  0.00  0.00     0.039 A 
ATOM     33  C   UNL d   1       5.891   2.655 -13.333  0.00  0.00     0.081 A 
ATOM     34  C   UNL d   1       5.074   3.605 -12.520  0.00  0.00     0.054 C 
ATOM     35  N   UNL d   1       5.582   1.368 -13.350  0.00  0.00    -0.174 NA
ATOM     36  N   UNL d   1       6.497   0.799 -14.166  0.00  0.00    -0.246 N 
ATOM     37  C   UNL d   1       6.430  -0.630 -14.387  0.00  0.00     0.154 C 
ENDBRANCH   1  31
TORSDOF 7
