REMARK  6 active torsions:
REMARK  status: ('A' for Active; 'I' for Inactive)
REMARK    1  A    between atoms: O_2  and  C_3 
REMARK    2  A    between atoms: C_8  and  C_9 
REMARK       I    between atoms: C_9  and  N_11 
REMARK    3  A    between atoms: N_14  and  C_15 
REMARK    4  A    between atoms: C_15  and  C_16 
REMARK    5  A    between atoms: C_16  and  O_17 
REMARK    6  A    between atoms: O_17  and  C_18 
ROOT
ATOM      1  C   UNL d   1       9.473   7.380 -11.114  0.00  0.00     0.275 C 
ATOM      2  O   UNL d   1       9.394   8.460 -11.716  0.00  0.00    -0.266 OA
ATOM      3  N   UNL d   1       9.028   6.242 -11.665  0.00  0.00    -0.311 N 
ATOM      4  C   UNL d   1       9.365   4.872 -11.191  0.00  0.00     0.140 C 
ATOM      5  C   UNL d   1       9.867   4.049 -12.376  0.00  0.00     0.274 C 
ATOM      6  N   UNL d   1       8.841   3.937 -13.415  0.00  0.00     0.144 N 
ATOM      7  C   UNL d   1       8.649   5.290 -13.920  0.00  0.00     0.274 C 
ATOM      8  C   UNL d   1       8.096   6.217 -12.825  0.00  0.00     0.140 C 
ENDROOT
BRANCH   1   9
ATOM      9  C   UNL d   1       9.953   7.411  -9.684  0.00  0.00     0.137 A 
ATOM     10  C   UNL d   1      10.417   6.459  -8.804  0.00  0.00     0.025 A 
ATOM     11  C   UNL d   1      10.741   7.121  -7.611  0.00  0.00     0.019 A 
ATOM     12  C   UNL d   1      11.266   6.651  -6.388  0.00  0.00     0.004 A 
ATOM     13  C   UNL d   1      10.463   8.512  -7.723  0.00  0.00     0.084 A 
ATOM     14  C   UNL d   1      11.455   7.492  -5.312  0.00  0.00     0.024 A 
ATOM     15  C   UNL d   1      11.178   8.875  -5.408  0.00  0.00     0.096 A 
ATOM     16  C   UNL d   1      10.670   9.391  -6.646  0.00  0.00     0.043 A 
ATOM     17  N   UNL d   1       9.986   8.647  -9.026  0.00  0.00    -0.241 NA
BRANCH  15  18
ATOM     18  O   UNL d   1      11.364   9.744  -4.360  0.00  0.00    -0.328 OA
ATOM     19  C   UNL d   1      11.976   9.201  -3.197  0.00  0.00     0.181 C 
ENDBRANCH  15  18
ENDBRANCH   1   9
BRANCH   6  20
ATOM     20  C   UNL d   1       9.357   3.139 -14.514  0.00  0.00     0.283 C 
BRANCH  20  21
ATOM     21  C   UNL d   1       9.703   1.686 -14.100  0.00  0.00     0.184 C 
BRANCH  21  22
ATOM     22  O   UNL d   1       9.599   0.746 -15.141  0.00  0.00    -0.327 OA
BRANCH  22  23
ATOM     23  C   UNL d   1      10.491   0.862 -16.191  0.00  0.00     0.113 A 
ATOM     24  C   UNL d   1      10.412  -0.057 -17.287  0.00  0.00     0.123 A 
ATOM     25  N   UNL d   1      11.259  -0.003 -18.342  0.00  0.00    -0.240 NA
ATOM     26  C   UNL d   1      12.161   1.007 -18.401  0.00  0.00     0.099 A 
ATOM     27  C   UNL d   1      12.287   1.976 -17.368  0.00  0.00     0.023 A 
ATOM     28  C   UNL d   1      11.492   1.871 -16.216  0.00  0.00     0.027 A 
ENDBRANCH  22  23
ENDBRANCH  21  22
ENDBRANCH  20  21
ENDBRANCH   6  20
TORSDOF 6
