REMARK  6 active torsions:
REMARK  status: ('A' for Active; 'I' for Inactive)
REMARK    1  A    between atoms: C_2  and  C_3 
REMARK    2  A    between atoms: C_3  and  C_4 
REMARK    3  A    between atoms: C_4  and  C_5 
REMARK    4  A    between atoms: C_5  and  C_6 
REMARK    5  A    between atoms: C_6  and  N_7 
REMARK    6  A    between atoms: C_10  and  C_11 
ROOT
ATOM      1  N   UNL d   1       9.615   6.715  -8.206  0.00  0.00     0.137 N 
ATOM      2  C   UNL d   1      10.002   7.599  -9.300  0.00  0.00     0.251 C 
ATOM      3  C   UNL d   1      10.386   6.639 -10.406  0.00  0.00     0.042 C 
ATOM      4  C   UNL d   1       9.556   5.386 -10.140  0.00  0.00     0.058 C 
ATOM      5  C   UNL d   1       8.786   5.712  -8.851  0.00  0.00     0.255 C 
ENDROOT
BRANCH   4   6
ATOM      6  C   UNL d   1       8.712   4.961 -11.341  0.00  0.00    -0.018 A 
ATOM      7  C   UNL d   1       7.472   5.584 -11.579  0.00  0.00     0.023 A 
ATOM      8  C   UNL d   1       6.681   5.200 -12.667  0.00  0.00     0.131 A 
ATOM      9  C   UNL d   1       7.115   4.212 -13.563  0.00  0.00     0.027 A 
ATOM     10  O   UNL d   1       5.479   5.812 -12.835  0.00  0.00    -0.190 OA
ATOM     11  C   UNL d   1       8.375   3.611 -13.364  0.00  0.00     0.002 A 
ATOM     12  C   UNL d   1       9.176   3.990 -12.257  0.00  0.00    -0.004 A 
ENDBRANCH   4   6
BRANCH   1  13
ATOM     13  C   UNL d   1       8.845   7.443  -7.202  0.00  0.00     0.250 C 
BRANCH  13  14
ATOM     14  C   UNL d   1       9.749   8.362  -6.390  0.00  0.00     0.035 C 
BRANCH  14  15
ATOM     15  C   UNL d   1      10.608   7.564  -5.400  0.00  0.00     0.002 C 
BRANCH  15  16
ATOM     16  C   UNL d   1      11.360   8.469  -4.415  0.00  0.00     0.000 C 
BRANCH  16  17
ATOM     17  C   UNL d   1      11.977   7.674  -3.257  0.00  0.00     0.000 C 
ATOM     18  C   UNL d   1      12.614   8.579  -2.200  0.00  0.00     0.000 C 
ENDBRANCH  16  17
ENDBRANCH  15  16
ENDBRANCH  14  15
ENDBRANCH  13  14
ENDBRANCH   1  13
TORSDOF 6
