REMARK  4 active torsions:
REMARK  status: ('A' for Active; 'I' for Inactive)
REMARK    1  A    between atoms: O_2  and  C_3 
REMARK    2  A    between atoms: C_9  and  C_10 
REMARK    3  A    between atoms: N_21  and  S_22 
REMARK    4  A    between atoms: S_22  and  C_25 
ROOT
ATOM      1  C   UNL d   1       5.315   1.278 -13.394  0.00  0.00     0.094 A 
ATOM      2  C   UNL d   1       4.924   2.381 -12.630  0.00  0.00     0.026 A 
ATOM      3  C   UNL d   1       5.648   3.546 -12.530  0.00  0.00     0.020 A 
ATOM      4  C   UNL d   1       6.840   3.620 -13.233  0.00  0.00     0.075 A 
ATOM      5  C   UNL d   1       7.300   2.554 -14.066  0.00  0.00     0.022 A 
ATOM      6  C   UNL d   1       6.497   1.385 -14.143  0.00  0.00     0.026 A 
ATOM      7  C   UNL d   1       8.556   2.962 -14.630  0.00  0.00     0.039 A 
ATOM      8  C   UNL d   1       8.802   4.214 -14.125  0.00  0.00     0.093 A 
ATOM      9  N   UNL d   1       7.794   4.605 -13.271  0.00  0.00    -0.231 N 
ENDROOT
BRANCH   7  10
ATOM     10  C   UNL d   1       9.357   2.146 -15.535  0.00  0.00     0.113 A 
ATOM     11  C   UNL d   1      10.608   2.377 -16.074  0.00  0.00     0.073 A 
ATOM     12  N   UNL d   1      10.869   1.314 -16.922  0.00  0.00    -0.164 N 
ATOM     13  C   UNL d   1      11.556   3.502 -15.891  0.00  0.00     0.052 C 
ATOM     14  C   UNL d   1       9.828   0.482 -16.812  0.00  0.00     0.727 A 
ATOM     15  C   UNL d   1      12.052   1.073 -17.727  0.00  0.00     0.126 C 
ATOM     16  N   UNL d   1       8.877   0.920 -16.009  0.00  0.00    -0.060 NA
ATOM     17  N   UNL d   1       9.847  -0.696 -17.532  0.00  0.00    -0.087 NA
ATOM     18  C   UNL d   1      10.957  -1.178 -18.314  0.00  0.00     0.147 C 
ATOM     19  C   UNL d   1      11.814   0.001 -18.812  0.00  0.00     0.052 C 
ENDBRANCH   7  10
BRANCH   9  20
ATOM     20  S   UNL d   1       7.750   6.056 -12.379  0.00  0.00     0.271 S 
ATOM     21  O   UNL d   1       8.765   6.852 -13.031  0.00  0.00    -0.200 OA
ATOM     22  O   UNL d   1       6.348   6.476 -12.296  0.00  0.00    -0.200 OA
BRANCH  20  23
ATOM     23  C   UNL d   1       8.519   5.792 -10.870  0.00  0.00     0.104 A 
ATOM     24  C   UNL d   1       8.111   4.684 -10.146  0.00  0.00     0.013 A 
ATOM     25  C   UNL d   1       8.679   4.410  -8.898  0.00  0.00     0.001 A 
ATOM     26  C   UNL d   1       9.664   5.291  -8.421  0.00  0.00     0.000 A 
ATOM     27  C   UNL d   1      10.157   6.340  -9.178  0.00  0.00     0.001 A 
ATOM     28  C   UNL d   1       9.588   6.605 -10.428  0.00  0.00     0.013 A 
ENDBRANCH  20  23
ENDBRANCH   9  20
BRANCH   1  29
ATOM     29  O   UNL d   1       4.433   0.228 -13.461  0.00  0.00    -0.328 OA
ATOM     30  C   UNL d   1       4.665  -0.796 -14.402  0.00  0.00     0.181 C 
ENDBRANCH   1  29
TORSDOF 4
