REMARK  7 active torsions:
REMARK  status: ('A' for Active; 'I' for Inactive)
REMARK       I    between atoms: C_2  and  N_3 
REMARK    1  A    between atoms: C_2  and  C_27 
REMARK    2  A    between atoms: N_3  and  C_4 
REMARK    3  A    between atoms: C_7  and  C_8 
REMARK    4  A    between atoms: C_8  and  C_9 
REMARK    5  A    between atoms: C_9  and  N_10 
REMARK    6  A    between atoms: N_13  and  C_14 
REMARK    7  A    between atoms: C_30  and  N_31 
ROOT
ATOM      1  C   UNL d   1       8.261   4.986 -12.810  0.00  0.00     0.107 C 
ATOM      2  C   UNL d   1       9.386   4.081 -13.353  0.00  0.00     0.024 C 
ATOM      3  C   UNL d   1       8.941   3.356 -14.628  0.00  0.00     0.002 C 
ATOM      4  C   UNL d   1       7.657   2.534 -14.381  0.00  0.00     0.002 C 
ATOM      5  C   UNL d   1       6.530   3.425 -13.805  0.00  0.00     0.002 C 
ATOM      6  C   UNL d   1       6.964   4.200 -12.558  0.00  0.00     0.024 C 
ENDROOT
BRANCH   4   7
ATOM      7  C   UNL d   1       7.204   1.811 -15.660  0.00  0.00     0.035 C 
BRANCH   7   8
ATOM      8  C   UNL d   1       6.307   0.589 -15.386  0.00  0.00     0.250 C 
BRANCH   8   9
ATOM      9  N   UNL d   1       5.714   0.072 -16.618  0.00  0.00     0.141 N 
ATOM     10  C   UNL d   1       6.742  -0.442 -17.533  0.00  0.00     0.274 C 
ATOM     11  C   UNL d   1       6.101  -0.981 -18.822  0.00  0.00     0.137 C 
ATOM     12  N   UNL d   1       5.105  -1.993 -18.503  0.00  0.00    -0.343 N 
ATOM     13  C   UNL d   1       4.111  -1.578 -17.519  0.00  0.00     0.137 C 
ATOM     14  C   UNL d   1       4.806  -1.026 -16.264  0.00  0.00     0.274 C 
BRANCH  12  15
ATOM     15  C   UNL d   1       5.108  -3.274 -19.085  0.00  0.00     0.081 A 
ATOM     16  C   UNL d   1       3.913  -4.000 -19.275  0.00  0.00     0.135 A 
ATOM     17  C   UNL d   1       3.900  -5.262 -19.830  0.00  0.00     0.121 A 
ATOM     18  O   UNL d   1       2.636  -3.625 -18.995  0.00  0.00    -0.298 OA
ATOM     19  C   UNL d   1       5.072  -5.898 -20.259  0.00  0.00     0.026 A 
ATOM     20  O   UNL d   1       2.622  -5.720 -19.898  0.00  0.00    -0.299 OA
ATOM     21  C   UNL d   1       6.289  -5.196 -20.098  0.00  0.00     0.004 A 
ATOM     22  C   UNL d   1       6.304  -3.905 -19.513  0.00  0.00     0.019 A 
ATOM     23  C   UNL d   1       1.821  -4.712 -19.338  0.00  0.00     0.304 A 
ENDBRANCH  12  15
ENDBRANCH   8   9
ENDBRANCH   7   8
ENDBRANCH   4   7
BRANCH   1  24
ATOM     24  N   UNL d   1       8.695   5.586 -11.560  0.00  0.00    -0.236 NA
ATOM     25  C   UNL d   1       9.252   6.793 -11.406  0.00  0.00     0.275 C 
ATOM     26  O   UNL d   1       9.380   7.600 -12.329  0.00  0.00    -0.266 OA
BRANCH  25  27
ATOM     27  C   UNL d   1       9.780   7.087 -10.027  0.00  0.00     0.058 A 
ATOM     28  C   UNL d   1       9.367   6.312  -8.919  0.00  0.00     0.006 A 
ATOM     29  C   UNL d   1       9.840   6.595  -7.630  0.00  0.00     0.017 A 
ATOM     30  C   UNL d   1      10.729   7.671  -7.399  0.00  0.00     0.056 A 
ATOM     31  C   UNL d   1      11.127   8.456  -8.502  0.00  0.00     0.017 A 
ATOM     32  C   UNL d   1      10.653   8.174  -9.802  0.00  0.00     0.006 A 
BRANCH  30  33
ATOM     33  N   UNL d   1      11.213   7.959  -6.107  0.00  0.00    -0.343 N 
ATOM     34  C   UNL d   1      11.064   6.927  -5.087  0.00  0.00     0.134 C 
ATOM     35  C   UNL d   1      11.874   7.272  -3.825  0.00  0.00     0.167 C 
ATOM     36  O   UNL d   1      11.504   8.566  -3.358  0.00  0.00    -0.350 OA
ATOM     37  C   UNL d   1      11.747   9.571  -4.335  0.00  0.00     0.167 C 
ATOM     38  C   UNL d   1      10.926   9.298  -5.610  0.00  0.00     0.134 C 
ENDBRANCH  30  33
ENDBRANCH  25  27
ENDBRANCH   1  24
TORSDOF 7
