REMARK  7 active torsions:
REMARK  status: ('A' for Active; 'I' for Inactive)
REMARK    1  A    between atoms: S_2  and  N_4 
REMARK    2  A    between atoms: S_2  and  C_22 
REMARK    3  A    between atoms: N_4  and  C_5 
REMARK    4  A    between atoms: N_8  and  C_9 
REMARK    5  A    between atoms: C_9  and  C_10 
REMARK    6  A    between atoms: C_10  and  C_11 
REMARK    7  A    between atoms: C_11  and  C_12 
ROOT
ATOM      1  C   UNL d   1       8.314   5.130 -12.048  0.00  0.00     0.151 C 
ATOM      2  C   UNL d   1       9.575   4.662 -11.298  0.00  0.00     0.063 C 
ATOM      3  C   UNL d   1       9.889   5.789 -10.312  0.00  0.00     0.252 C 
ATOM      4  N   UNL d   1       9.414   6.919 -11.077  0.00  0.00     0.139 N 
ATOM      5  C   UNL d   1       8.059   6.498 -11.435  0.00  0.00     0.275 C 
ENDROOT
BRANCH   1   6
ATOM      6  N   UNL d   1       7.187   4.214 -11.877  0.00  0.00    -0.185 NA
BRANCH   6   7
ATOM      7  S   UNL d   1       6.540   3.370 -13.254  0.00  0.00     0.282 S 
ATOM      8  O   UNL d   1       5.801   2.177 -12.790  0.00  0.00    -0.199 OA
ATOM      9  O   UNL d   1       5.771   4.349 -14.021  0.00  0.00    -0.199 OA
BRANCH   7  10
ATOM     10  C   UNL d   1       7.973   2.835 -14.255  0.00  0.00     0.112 A 
ATOM     11  C   UNL d   1       7.771   1.829 -15.281  0.00  0.00     0.019 A 
ATOM     12  C   UNL d   1       8.989   1.533 -15.979  0.00  0.00     0.030 A 
ATOM     13  C   UNL d   1       6.636   1.097 -15.731  0.00  0.00     0.001 A 
ATOM     14  S   UNL d   1      10.320   2.452 -15.366  0.00  0.00    -0.086 SA
ATOM     15  C   UNL d   1       9.115   0.621 -17.023  0.00  0.00     0.006 A 
ATOM     16  C   UNL d   1       9.296   3.264 -14.234  0.00  0.00     0.048 A 
ATOM     17  C   UNL d   1       7.974  -0.064 -17.433  0.00  0.00     0.001 A 
ATOM     18  C   UNL d   1       6.744   0.174 -16.794  0.00  0.00     0.000 A 
ENDBRANCH   7  10
ENDBRANCH   6   7
ENDBRANCH   1   6
BRANCH   4  19
ATOM     19  C   UNL d   1       9.409   8.072 -10.198  0.00  0.00     0.251 C 
BRANCH  19  20
ATOM     20  C   UNL d   1      10.778   8.556  -9.697  0.00  0.00     0.042 C 
BRANCH  20  21
ATOM     21  C   UNL d   1      10.591   9.197  -8.321  0.00  0.00     0.050 C 
BRANCH  21  22
ATOM     22  C   UNL d   1      10.657   8.235  -7.175  0.00  0.00     0.088 A 
ATOM     23  C   UNL d   1      11.277   8.342  -5.911  0.00  0.00     0.041 A 
ATOM     24  C   UNL d   1      11.033   7.172  -5.192  0.00  0.00     0.126 A 
ATOM     25  C   UNL d   1      12.022   9.381  -5.310  0.00  0.00     0.003 A 
ATOM     26  O   UNL d   1      10.251   6.392  -6.021  0.00  0.00    -0.211 OA
ATOM     27  C   UNL d   1      11.500   6.952  -3.893  0.00  0.00     0.027 A 
ATOM     28  N   UNL d   1       9.997   7.086  -7.230  0.00  0.00    -0.131 NA
ATOM     29  C   UNL d   1      12.244   7.984  -3.287  0.00  0.00     0.002 A 
ATOM     30  C   UNL d   1      12.497   9.187  -3.991  0.00  0.00     0.000 A 
ENDBRANCH  21  22
ENDBRANCH  20  21
ENDBRANCH  19  20
ENDBRANCH   4  19
TORSDOF 7
