REMARK  8 active torsions:
REMARK  status: ('A' for Active; 'I' for Inactive)
REMARK    1  A    between atoms: S_2  and  N_5 
REMARK    2  A    between atoms: N_5  and  C_6 
REMARK    3  A    between atoms: C_8  and  O_9 
REMARK    4  A    between atoms: O_9  and  C_10 
REMARK    5  A    between atoms: C_10  and  C_11 
REMARK    6  A    between atoms: C_11  and  N_12 
REMARK    7  A    between atoms: N_12  and  C_13 
REMARK    8  A    between atoms: C_13  and  C_14 
ROOT
ATOM      1  C   UNL d   1       7.626   1.814 -14.630  0.00  0.00     0.106 A 
ATOM      2  C   UNL d   1       8.283   3.062 -14.491  0.00  0.00     0.045 A 
ATOM      3  C   UNL d   1       7.762   4.069 -13.651  0.00  0.00     0.096 A 
ATOM      4  C   UNL d   1       6.496   3.889 -13.024  0.00  0.00     0.025 A 
ATOM      5  C   UNL d   1       5.804   2.693 -13.230  0.00  0.00     0.015 A 
ATOM      6  C   UNL d   1       6.347   1.632 -13.999  0.00  0.00     0.076 A 
ATOM      7 CL   UNL d   1       5.440   0.151 -14.164  0.00  0.00    -0.081 Cl
ENDROOT
BRANCH   3   8
ATOM      8  O   UNL d   1       8.471   5.237 -13.483  0.00  0.00    -0.329 OA
BRANCH   8   9
ATOM      9  C   UNL d   1       8.193   6.129 -12.402  0.00  0.00     0.187 C 
BRANCH   9  10
ATOM     10  C   UNL d   1       8.837   5.572 -11.120  0.00  0.00     0.323 C 
BRANCH  10  11
ATOM     11  N   UNL d   1       9.137   6.676 -10.220  0.00  0.00     0.347 N 
BRANCH  11  12
ATOM     12  C   UNL d   1       9.563   6.169  -8.929  0.00  0.00     0.323 C 
BRANCH  12  13
ATOM     13  C   UNL d   1      10.085   7.268  -8.072  0.00  0.00     0.043 A 
ATOM     14  S   UNL d   1      11.625   8.015  -8.412  0.00  0.00    -0.089 SA
ATOM     15  C   UNL d   1      11.460   9.072  -7.038  0.00  0.00     0.035 A 
ATOM     16  C   UNL d   1      10.276   8.859  -6.384  0.00  0.00     0.007 A 
ATOM     17  C   UNL d   1       9.485   7.835  -6.978  0.00  0.00     0.005 A 
ENDBRANCH  12  13
ENDBRANCH  11  12
ENDBRANCH  10  11
ENDBRANCH   9  10
ENDBRANCH   8   9
ENDBRANCH   3   8
BRANCH   1  18
ATOM     18  N   UNL d   1       8.174   0.733 -15.327  0.00  0.00    -0.161 NA
BRANCH  18  19
ATOM     19  S   UNL d   1       9.649   0.649 -16.236  0.00  0.00     0.266 S 
ATOM     20  C   UNL d   1      10.970   1.251 -15.087  0.00  0.00     0.165 C 
ATOM     21  O   UNL d   1       9.467   1.589 -17.354  0.00  0.00    -0.203 OA
ATOM     22  O   UNL d   1       9.848  -0.779 -16.510  0.00  0.00    -0.203 OA
ENDBRANCH  18  19
ENDBRANCH   1  18
TORSDOF 8
