REMARK  3 active torsions:
REMARK  status: ('A' for Active; 'I' for Inactive)
REMARK    1  A    between atoms: C_5  and  C_6 
REMARK    2  A    between atoms: N_8  and  C_9 
REMARK    3  A    between atoms: C_19  and  C_20 
ROOT
ATOM      1  C   UNL d   1       9.401   0.987 -17.384  0.00  0.00    -0.003 A 
ATOM      2  C   UNL d   1       9.553   1.898 -16.380  0.00  0.00     0.076 A 
ATOM      3  N   UNL d   1       8.435   1.919 -15.553  0.00  0.00    -0.305 N 
ATOM      4  C   UNL d   1       7.526   0.961 -16.013  0.00  0.00     0.064 A 
ATOM      5  C   UNL d   1       6.267   0.533 -15.546  0.00  0.00     0.018 A 
ATOM      6  C   UNL d   1       5.549  -0.434 -16.271  0.00  0.00     0.005 A 
ATOM      7  C   UNL d   1       6.093  -1.018 -17.435  0.00  0.00     0.040 A 
ATOM      8  C   UNL d   1       7.375  -0.607 -17.868  0.00  0.00     0.004 A 
ATOM      9  C   UNL d   1       8.117   0.387 -17.185  0.00  0.00     0.014 A 
ENDROOT
BRANCH   1  10
ATOM     10  C   UNL d   1      10.414   0.679 -18.467  0.00  0.00     0.028 C 
ATOM     11  C   UNL d   1      11.440  -0.354 -17.979  0.00  0.00     0.040 C 
ATOM     12  C   UNL d   1      12.553  -0.583 -19.022  0.00  0.00     0.251 C 
ATOM     13  N   UNL d   1      13.216   0.680 -19.330  0.00  0.00     0.139 N 
ATOM     14  C   UNL d   1      14.312   0.435 -20.264  0.00  0.00     0.285 C 
ATOM     15  C   UNL d   1      12.271   1.612 -19.939  0.00  0.00     0.251 C 
ATOM     16  C   UNL d   1      11.154   1.946 -18.937  0.00  0.00     0.040 C 
ENDBRANCH   1  10
BRANCH   3  17
ATOM     17  C   UNL d   1       8.287   2.782 -14.430  0.00  0.00     0.064 A 
ATOM     18  C   UNL d   1       7.013   3.256 -14.037  0.00  0.00     0.020 A 
ATOM     19  C   UNL d   1       6.876   4.075 -12.899  0.00  0.00     0.031 A 
ATOM     20  C   UNL d   1       8.013   4.470 -12.175  0.00  0.00     0.140 A 
ATOM     21  C   UNL d   1       9.290   4.043 -12.582  0.00  0.00     0.031 A 
ATOM     22  F   UNL d   1       7.879   5.262 -11.087  0.00  0.00    -0.204 F 
ATOM     23  C   UNL d   1       9.431   3.191 -13.698  0.00  0.00     0.020 A 
ENDBRANCH   3  17
BRANCH   7  24
ATOM     24  C   UNL d   1       5.345  -2.062 -18.160  0.00  0.00     0.206 A 
ATOM     25  N   UNL d   1       4.034  -2.205 -18.040  0.00  0.00    -0.130 NA
ATOM     26  N   UNL d   1       3.870  -3.272 -18.843  0.00  0.00    -0.149 N 
ATOM     27  N   UNL d   1       5.005  -3.714 -19.430  0.00  0.00    -0.045 NA
ATOM     28  C   UNL d   1       2.585  -3.895 -19.073  0.00  0.00     0.180 C 
ATOM     29  N   UNL d   1       5.954  -2.947 -18.997  0.00  0.00    -0.108 NA
ENDBRANCH   7  24
TORSDOF 3
