REMARK  8 active torsions:
REMARK  status: ('A' for Active; 'I' for Inactive)
REMARK    1  A    between atoms: C_3  and  S_4 
REMARK    2  A    between atoms: S_4  and  N_7 
REMARK    3  A    between atoms: N_7  and  C_8 
REMARK    4  A    between atoms: C_8  and  C_9 
REMARK    5  A    between atoms: C_9  and  C_10 
REMARK    6  A    between atoms: C_10  and  C_11 
REMARK    7  A    between atoms: C_11  and  N_12 
REMARK    8  A    between atoms: C_15  and  C_16 
ROOT
ATOM      1  C   UNL d   1       8.845   6.041 -12.274  0.00  0.00     0.037 C 
ENDROOT
BRANCH   1   2
ATOM      2  C   UNL d   1       8.778   4.950 -13.351  0.00  0.00     0.029 C 
BRANCH   2   3
ATOM      3  C   UNL d   1       9.888   3.879 -13.206  0.00  0.00     0.139 C 
BRANCH   3   4
ATOM      4  N   UNL d   1       9.413   2.604 -13.717  0.00  0.00    -0.184 NA
BRANCH   4   5
ATOM      5  S   UNL d   1       9.657   2.198 -15.364  0.00  0.00     0.287 S 
ATOM      6  O   UNL d   1      10.825   1.306 -15.436  0.00  0.00    -0.198 OA
ATOM      7  O   UNL d   1       9.598   3.443 -16.142  0.00  0.00    -0.198 OA
BRANCH   5   8
ATOM      8  C   UNL d   1       8.228   1.226 -15.819  0.00  0.00     0.130 A 
ATOM      9  C   UNL d   1       7.801   0.947 -17.103  0.00  0.00    -0.003 A 
ATOM     10  C   UNL d   1       8.459   1.411 -18.373  0.00  0.00     0.032 C 
ATOM     11  C   UNL d   1       6.622   0.101 -17.078  0.00  0.00     0.004 A 
ATOM     12  C   UNL d   1       6.185  -0.205 -15.751  0.00  0.00     0.030 A 
ATOM     13  C   UNL d   1       5.864  -0.449 -18.140  0.00  0.00     0.012 A 
ATOM     14  S   UNL d   1       7.238   0.535 -14.562  0.00  0.00    -0.074 SA
ATOM     15  C   UNL d   1       5.059  -1.017 -15.508  0.00  0.00     0.007 A 
ATOM     16  C   UNL d   1       4.336  -1.547 -16.590  0.00  0.00     0.012 A 
ATOM     17  C   UNL d   1       4.738  -1.263 -17.905  0.00  0.00     0.058 A 
ATOM     18 CL   UNL d   1       3.861  -1.915 -19.235  0.00  0.00    -0.082 Cl
ENDBRANCH   5   8
ENDBRANCH   4   5
ENDBRANCH   3   4
ENDBRANCH   2   3
ENDBRANCH   1   2
BRANCH   1  19
ATOM     19  C   UNL d   1       8.618   5.478 -10.845  0.00  0.00     0.250 C 
BRANCH  19  20
ATOM     20  N   UNL d   1       9.070   6.389  -9.799  0.00  0.00     0.137 N 
ATOM     21  C   UNL d   1       8.620   5.873  -8.502  0.00  0.00     0.251 C 
ATOM     22  C   UNL d   1       8.978   6.856  -7.379  0.00  0.00     0.041 C 
ATOM     23  C   UNL d   1      10.491   7.124  -7.338  0.00  0.00     0.047 C 
ATOM     24  C   UNL d   1      10.983   7.531  -8.737  0.00  0.00     0.041 C 
ATOM     25  C   UNL d   1      10.524   6.535  -9.790  0.00  0.00     0.251 C 
BRANCH  23  26
ATOM     26  C   UNL d   1      10.856   8.173  -6.321  0.00  0.00     0.087 A 
ATOM     27  C   UNL d   1      11.432   8.064  -5.035  0.00  0.00     0.041 A 
ATOM     28  C   UNL d   1      11.547   9.342  -4.486  0.00  0.00     0.129 A 
ATOM     29  C   UNL d   1      11.855   6.946  -4.286  0.00  0.00     0.006 A 
ATOM     30  O   UNL d   1      11.043  10.206  -5.438  0.00  0.00    -0.211 OA
ATOM     31  C   UNL d   1      12.074   9.579  -3.212  0.00  0.00     0.057 A 
ATOM     32  N   UNL d   1      10.616   9.463  -6.569  0.00  0.00    -0.131 NA
ATOM     33  C   UNL d   1      12.508   8.470  -2.462  0.00  0.00     0.142 A 
ATOM     34  F   UNL d   1      13.052   8.656  -1.233  0.00  0.00    -0.204 F 
ATOM     35  C   UNL d   1      12.393   7.160  -2.995  0.00  0.00     0.030 A 
ENDBRANCH  23  26
ENDBRANCH  19  20
ENDBRANCH   1  19
TORSDOF 8
