REMARK  4 active torsions:
REMARK  status: ('A' for Active; 'I' for Inactive)
REMARK    1  A    between atoms: C_2  and  C_3 
REMARK    2  A    between atoms: C_3  and  N_4 
REMARK    3  A    between atoms: C_9  and  O_10 
REMARK    4  A    between atoms: C_16  and  C_17 
ROOT
ATOM      1  N   UNL d   1       8.660   3.193 -14.001  0.00  0.00     0.142 N 
ATOM      2  C   UNL d   1      10.033   3.427 -14.452  0.00  0.00     0.255 C 
ATOM      3  C   UNL d   1      10.839   2.129 -14.555  0.00  0.00     0.061 C 
ATOM      4  C   UNL d   1      10.650   1.357 -15.859  0.00  0.00    -0.022 C 
ATOM      5  C   UNL d   1      11.768   1.208 -16.712  0.00  0.00     0.022 C 
ATOM      6  C   UNL d   1      11.678   0.460 -17.901  0.00  0.00     0.119 C 
ATOM      7  C   UNL d   1      10.424  -0.107 -18.259  0.00  0.00     0.153 C 
ATOM      8  O   UNL d   1      10.191  -0.702 -19.466  0.00  0.00    -0.188 OA
ATOM      9  C   UNL d   1       9.342  -0.028 -17.358  0.00  0.00     0.025 C 
ATOM     10  C   UNL d   1       9.394   0.784 -16.195  0.00  0.00    -0.018 C 
ATOM     11  C   UNL d   1       8.136   1.041 -15.326  0.00  0.00     0.079 C 
ATOM     12  C   UNL d   1       7.844   2.541 -15.040  0.00  0.00     0.259 C 
ENDROOT
BRANCH  11  13
ATOM     13  C   UNL d   1       6.825   0.340 -15.790  0.00  0.00     0.005 A 
ATOM     14  C   UNL d   1       6.269   0.496 -17.093  0.00  0.00     0.055 A 
ATOM     15  C   UNL d   1       5.140  -0.240 -17.502  0.00  0.00     0.011 A 
ATOM     16 CL   UNL d   1       6.964   1.531 -18.280  0.00  0.00    -0.083 Cl
ATOM     17  C   UNL d   1       4.538  -1.161 -16.634  0.00  0.00     0.002 A 
ATOM     18  C   UNL d   1       5.035  -1.281 -15.331  0.00  0.00     0.011 A 
ATOM     19  C   UNL d   1       6.131  -0.512 -14.888  0.00  0.00     0.055 A 
ATOM     20 CL   UNL d   1       6.665  -0.696 -13.238  0.00  0.00    -0.083 Cl
ENDBRANCH  11  13
BRANCH   1  21
ATOM     21  C   UNL d   1       8.008   4.449 -13.591  0.00  0.00     0.277 C 
BRANCH  21  22
ATOM     22  C   UNL d   1       8.640   5.135 -12.381  0.00  0.00     0.009 C 
ATOM     23  C   UNL d   1       7.955   5.580 -11.316  0.00  0.00    -0.003 C 
ENDBRANCH  21  22
ENDBRANCH   1  21
BRANCH   6  24
ATOM     24  O   UNL d   1      12.829   0.317 -18.650  0.00  0.00    -0.326 OA
ATOM     25  C   UNL d   1      13.186  -1.030 -18.990  0.00  0.00     0.181 C 
ENDBRANCH   6  24
TORSDOF 4
