REMARK  8 active torsions:
REMARK  status: ('A' for Active; 'I' for Inactive)
REMARK    1  A    between atoms: C_2  and  C_3 
REMARK       I    between atoms: C_2  and  N_14 
REMARK    2  A    between atoms: C_3  and  C_4 
REMARK    3  A    between atoms: C_4  and  C_5 
REMARK    4  A    between atoms: C_5  and  C_6 
REMARK    5  A    between atoms: C_6  and  C_8 
REMARK    6  A    between atoms: N_14  and  C_15 
REMARK    7  A    between atoms: C_15  and  C_16 
REMARK    8  A    between atoms: C_16  and  C_17 
ROOT
ATOM      1  O   UNL d   1      10.030   7.006 -10.216  0.00  0.00    -0.271 OA
ATOM      2  C   UNL d   1       9.401   6.148  -9.600  0.00  0.00     0.251 C 
ATOM      3  N   UNL d   1       8.318   5.554 -10.087  0.00  0.00    -0.238 NA
ENDROOT
BRANCH   2   4
ATOM      4  C   UNL d   1       9.865   5.608  -8.267  0.00  0.00     0.090 C 
BRANCH   4   5
ATOM      5  C   UNL d   1      10.886   6.487  -7.558  0.00  0.00     0.013 C 
BRANCH   5   6
ATOM      6  C   UNL d   1      10.221   7.714  -6.869  0.00  0.00     0.038 C 
BRANCH   6   7
ATOM      7  C   UNL d   1      11.236   8.720  -6.281  0.00  0.00     0.174 C 
ATOM      8  O   UNL d   1      10.671   9.987  -6.438  0.00  0.00    -0.219 OA
BRANCH   7   9
ATOM      9  C   UNL d   1      11.604   8.422  -4.824  0.00  0.00     0.008 A 
ATOM     10  C   UNL d   1      11.855   7.085  -4.390  0.00  0.00    -0.002 A 
ATOM     11  C   UNL d   1      12.208   6.831  -3.052  0.00  0.00    -0.000 A 
ATOM     12  C   UNL d   1      12.287   7.877  -2.115  0.00  0.00    -0.000 A 
ATOM     13  C   UNL d   1      12.020   9.197  -2.526  0.00  0.00    -0.000 A 
ATOM     14  C   UNL d   1      11.664   9.477  -3.868  0.00  0.00    -0.002 A 
ENDBRANCH   7   9
ENDBRANCH   6   7
ENDBRANCH   5   6
ENDBRANCH   4   5
ENDBRANCH   2   4
BRANCH   3  15
ATOM     15  C   UNL d   1       7.947   5.646 -11.482  0.00  0.00     0.129 C 
BRANCH  15  16
ATOM     16  C   UNL d   1       8.735   4.588 -12.296  0.00  0.00     0.035 C 
BRANCH  16  17
ATOM     17  C   UNL d   1       8.132   4.315 -13.681  0.00  0.00     0.046 A 
ATOM     18  C   UNL d   1       8.824   3.189 -14.434  0.00  0.00    -0.018 A 
ATOM     19  C   UNL d   1       7.939   2.133 -14.659  0.00  0.00    -0.004 A 
ATOM     20  C   UNL d   1      10.147   3.134 -14.911  0.00  0.00    -0.004 A 
ATOM     21  C   UNL d   1       6.646   2.491 -14.109  0.00  0.00    -0.005 A 
ATOM     22  C   UNL d   1       8.329   0.972 -15.345  0.00  0.00    -0.000 A 
ATOM     23  C   UNL d   1       6.732   3.718 -13.581  0.00  0.00    -0.022 A 
ATOM     24  C   UNL d   1       9.655   0.899 -15.821  0.00  0.00    -0.000 A 
ATOM     25  C   UNL d   1      10.554   1.973 -15.612  0.00  0.00    -0.000 A 
ENDBRANCH  16  17
ENDBRANCH  15  16
ENDBRANCH   3  15
TORSDOF 8
