REMARK  8 active torsions:
REMARK  status: ('A' for Active; 'I' for Inactive)
REMARK    1  A    between atoms: C_3  and  S_4 
REMARK    2  A    between atoms: S_4  and  C_5 
REMARK    3  A    between atoms: C_5  and  C_6 
REMARK    4  A    between atoms: C_6  and  C_7 
REMARK    5  A    between atoms: C_7  and  N_8 
REMARK    6  A    between atoms: C_13  and  C_14 
REMARK    7  A    between atoms: C_17  and  C_18 
REMARK    8  A    between atoms: C_27  and  C_28 
ROOT
ATOM      1  N   UNL d   1       9.610   4.396 -14.548  0.00  0.00     0.137 N 
ATOM      2  C   UNL d   1       8.757   3.217 -14.349  0.00  0.00     0.250 C 
ATOM      3  C   UNL d   1       7.514   3.776 -13.598  0.00  0.00     0.038 C 
ATOM      4  C   UNL d   1       8.044   5.002 -12.903  0.00  0.00     0.037 A 
ATOM      5  C   UNL d   1       7.187   6.247 -12.748  0.00  0.00     0.007 A 
ATOM      6  C   UNL d   1       7.592   5.463 -11.528  0.00  0.00     0.024 A 
ATOM      7  C   UNL d   1       9.516   5.072 -13.275  0.00  0.00     0.251 C 
ENDROOT
BRANCH   1   8
ATOM      8  C   UNL d   1      11.007   4.120 -14.842  0.00  0.00     0.251 C 
BRANCH   8   9
ATOM      9  C   UNL d   1      11.124   3.506 -16.241  0.00  0.00     0.047 C 
BRANCH   9  10
ATOM     10  C   UNL d   1      12.498   2.902 -16.572  0.00  0.00     0.067 C 
BRANCH  10  11
ATOM     11  S   UNL d   1      12.539   2.214 -18.261  0.00  0.00    -0.075 SA
BRANCH  11  12
ATOM     12  C   UNL d   1      11.231   1.018 -18.175  0.00  0.00     0.193 A 
ATOM     13  N   UNL d   1       9.923   1.333 -18.273  0.00  0.00    -0.287 N 
ATOM     14  C   UNL d   1       9.307   2.644 -18.452  0.00  0.00     0.134 C 
ATOM     15  C   UNL d   1       9.319   0.137 -18.106  0.00  0.00     0.190 A 
ATOM     16  N   UNL d   1      10.194  -0.867 -17.996  0.00  0.00    -0.126 NA
ATOM     17  N   UNL d   1      11.444  -0.292 -18.038  0.00  0.00    -0.122 NA
BRANCH  15  18
ATOM     18  C   UNL d   1       7.876  -0.081 -18.070  0.00  0.00     0.136 A 
ATOM     19  O   UNL d   1       7.082   1.026 -18.042  0.00  0.00    -0.302 OA
ATOM     20  C   UNL d   1       5.796   0.598 -18.035  0.00  0.00     0.123 A 
ATOM     21  C   UNL d   1       5.744  -0.765 -18.025  0.00  0.00     0.029 A 
ATOM     22  C   UNL d   1       7.098  -1.208 -18.050  0.00  0.00     0.030 A 
ENDBRANCH  15  18
ENDBRANCH  11  12
ENDBRANCH  10  11
ENDBRANCH   9  10
ENDBRANCH   8   9
ENDBRANCH   1   8
BRANCH   6  23
ATOM     23  C   UNL d   1       8.613   5.992 -10.546  0.00  0.00    -0.022 A 
ATOM     24  C   UNL d   1       8.676   5.467  -9.228  0.00  0.00    -0.004 A 
ATOM     25  C   UNL d   1       9.607   5.992  -8.309  0.00  0.00     0.004 A 
ATOM     26  C   UNL d   1      10.486   7.025  -8.693  0.00  0.00     0.071 A 
ATOM     27  C   UNL d   1      10.427   7.545 -10.002  0.00  0.00     0.004 A 
ATOM     28  C   UNL d   1       9.489   7.031 -10.907  0.00  0.00    -0.004 A 
BRANCH  26  29
ATOM     29  C   UNL d   1      11.505   7.592  -7.722  0.00  0.00     0.419 C 
ATOM     30  F   UNL d   1      12.598   7.994  -8.376  0.00  0.00    -0.166 F 
ATOM     31  F   UNL d   1      10.978   8.641  -7.089  0.00  0.00    -0.166 F 
ATOM     32  F   UNL d   1      11.852   6.665  -6.826  0.00  0.00    -0.166 F 
ENDBRANCH  26  29
ENDBRANCH   6  23
TORSDOF 8
