REMARK  10 active torsions:
REMARK  status: ('A' for Active; 'I' for Inactive)
REMARK    1  A    between atoms: O_2  and  C_3 
REMARK    2  A    between atoms: C_8  and  C_9 
REMARK    3  A    between atoms: C_11  and  C_12 
REMARK    4  A    between atoms: C_12  and  N_13 
REMARK    5  A    between atoms: N_13  and  C_14 
REMARK    6  A    between atoms: C_14  and  C_15 
REMARK    7  A    between atoms: C_15  and  C_16 
REMARK    8  A    between atoms: C_16  and  C_17 
REMARK    9  A    between atoms: C_17  and  O_18 
REMARK   10  A    between atoms: O_18  and  C_19 
ROOT
ATOM      1  C   UNL d   1       9.623   7.666 -10.836  0.00  0.00     0.041 C 
ENDROOT
BRANCH   1   2
ATOM      2  C   UNL d   1       9.653   6.237 -11.348  0.00  0.00     0.290 C 
BRANCH   2   3
ATOM      3  N   UNL d   1       8.662   6.117 -12.398  0.00  0.00     0.339 N 
BRANCH   3   4
ATOM      4  C   UNL d   1       8.134   4.770 -12.336  0.00  0.00     0.290 C 
BRANCH   4   5
ATOM      5  C   UNL d   1       6.735   4.756 -12.952  0.00  0.00     0.041 A 
ATOM      6  C   UNL d   1       6.288   3.664 -13.900  0.00  0.00     0.026 A 
ATOM      7  C   UNL d   1       5.738   3.705 -12.495  0.00  0.00     0.007 A 
BRANCH   6   8
ATOM      8  C   UNL d   1       7.207   2.565 -14.360  0.00  0.00    -0.000 A 
ATOM      9  C   UNL d   1       6.810   1.216 -14.265  0.00  0.00     0.090 A 
ATOM     10  C   UNL d   1       7.747   0.215 -14.600  0.00  0.00     0.024 A 
ATOM     11  C   UNL d   1       9.064   0.534 -15.000  0.00  0.00     0.002 A 
ATOM     12  C   UNL d   1       9.447   1.872 -15.110  0.00  0.00    -0.000 A 
ATOM     13  C   UNL d   1       8.500   2.872 -14.838  0.00  0.00    -0.002 A 
BRANCH   9  14
ATOM     14  O   UNL d   1       5.535   0.949 -13.805  0.00  0.00    -0.328 OA
ATOM     15  C   UNL d   1       5.039  -0.371 -13.966  0.00  0.00     0.181 C 
ENDBRANCH   9  14
ENDBRANCH   6   8
ENDBRANCH   4   5
ENDBRANCH   3   4
ENDBRANCH   2   3
ENDBRANCH   1   2
BRANCH   1  16
ATOM     16  C   UNL d   1      10.853   7.971  -9.987  0.00  0.00     0.035 C 
BRANCH  16  17
ATOM     17  C   UNL d   1      10.646   9.299  -9.217  0.00  0.00     0.149 C 
BRANCH  17  18
ATOM     18  O   UNL d   1      11.567   9.535  -8.177  0.00  0.00    -0.331 OA
BRANCH  18  19
ATOM     19  C   UNL d   1      11.496   8.796  -7.046  0.00  0.00     0.096 C 
ATOM     20  C   UNL d   1      12.206   9.264  -5.902  0.00  0.00     0.043 C 
ATOM     21  C   UNL d   1      12.156   8.533  -4.702  0.00  0.00     0.082 C 
ATOM     22  C   UNL d   1      11.468   7.305  -4.682  0.00  0.00    -0.004 C 
ATOM     23  N   UNL d   1      12.794   8.991  -3.539  0.00  0.00    -0.212 NA
ATOM     24  C   UNL d   1      10.776   6.867  -5.804  0.00  0.00    -0.001 C 
ATOM     25  C   UNL d   1      11.440   6.485  -3.414  0.00  0.00     0.038 C 
ATOM     26  C   UNL d   1      10.710   7.640  -6.938  0.00  0.00     0.024 C 
ATOM     27  C   UNL d   1      11.594   7.355  -2.182  0.00  0.00     0.095 C 
ATOM     28  C   UNL d   1      12.612   8.425  -2.348  0.00  0.00     0.256 C 
ATOM     29  O   UNL d   1      13.225   8.743  -1.346  0.00  0.00    -0.270 OA
ENDBRANCH  18  19
ENDBRANCH  17  18
ENDBRANCH  16  17
ENDBRANCH   1  16
TORSDOF 10
