REMARK  7 active torsions:
REMARK  status: ('A' for Active; 'I' for Inactive)
REMARK       I    between atoms: C_2  and  N_3 
REMARK    1  A    between atoms: C_2  and  C_23 
REMARK    2  A    between atoms: N_3  and  C_4 
REMARK    3  A    between atoms: C_4  and  C_5 
REMARK    4  A    between atoms: C_5  and  C_6 
REMARK    5  A    between atoms: C_6  and  C_8 
REMARK    6  A    between atoms: C_8  and  N_9 
REMARK    7  A    between atoms: N_12  and  C_13 
ROOT
ATOM      1  C   UNL d   1       9.565   5.604 -11.572  0.00  0.00     0.196 C 
ATOM      2  F   UNL d   1       9.561   4.354 -11.103  0.00  0.00    -0.235 F 
ENDROOT
BRANCH   1   3
ATOM      3  C   UNL d   1       8.749   5.636 -12.858  0.00  0.00     0.064 C 
BRANCH   3   4
ATOM      4  C   UNL d   1       9.374   4.710 -13.924  0.00  0.00     0.132 C 
BRANCH   4   5
ATOM      5  N   UNL d   1      10.659   5.167 -14.423  0.00  0.00    -0.233 NA
ATOM      6  C   UNL d   1      11.560   4.443 -15.087  0.00  0.00     0.298 C 
ATOM      7  O   UNL d   1      12.680   4.901 -15.288  0.00  0.00    -0.263 OA
BRANCH   6   8
ATOM      8  C   UNL d   1      11.157   3.139 -15.664  0.00  0.00     0.157 A 
ATOM      9  O   UNL d   1      11.942   2.604 -16.675  0.00  0.00    -0.302 OA
ATOM     10  C   UNL d   1      11.370   1.420 -17.073  0.00  0.00     0.100 A 
ATOM     11  C   UNL d   1      10.217   1.194 -16.284  0.00  0.00     0.025 A 
ATOM     12  C   UNL d   1      11.802   0.537 -18.081  0.00  0.00     0.025 A 
ATOM     13  C   UNL d   1      10.104   2.293 -15.389  0.00  0.00     0.032 A 
ATOM     14  C   UNL d   1       9.480   0.021 -16.520  0.00  0.00     0.002 A 
ATOM     15  C   UNL d   1       9.872  -0.886 -17.515  0.00  0.00     0.000 A 
ATOM     16  C   UNL d   1      11.029  -0.632 -18.292  0.00  0.00     0.002 A 
ENDBRANCH   6   8
ENDBRANCH   4   5
ENDBRANCH   3   4
ENDBRANCH   1   3
BRANCH   1  17
ATOM     17  C   UNL d   1       8.985   6.518 -10.505  0.00  0.00     0.285 C 
BRANCH  17  18
ATOM     18  N   UNL d   1       9.655   6.353  -9.207  0.00  0.00     0.144 N 
ATOM     19  C   UNL d   1      10.871   7.165  -9.151  0.00  0.00     0.274 C 
ATOM     20  C   UNL d   1      11.534   7.014  -7.771  0.00  0.00     0.137 C 
ATOM     21  N   UNL d   1      10.595   7.356  -6.735  0.00  0.00    -0.344 N 
ATOM     22  C   UNL d   1       9.321   6.678  -6.787  0.00  0.00     0.137 C 
ATOM     23  C   UNL d   1       8.734   6.830  -8.179  0.00  0.00     0.274 C 
BRANCH  21  24
ATOM     24  C   UNL d   1      10.919   8.261  -5.727  0.00  0.00     0.068 A 
ATOM     25  C   UNL d   1      11.484   7.848  -4.506  0.00  0.00     0.084 A 
ATOM     26  C   UNL d   1      11.761   8.731  -3.458  0.00  0.00     0.070 A 
ATOM     27 CL   UNL d   1      11.850   6.251  -4.220  0.00  0.00    -0.080 Cl
ATOM     28  C   UNL d   1      11.438  10.061  -3.632  0.00  0.00     0.012 A 
ATOM     29 CL   UNL d   1      12.487   8.229  -1.981  0.00  0.00    -0.081 Cl
ATOM     30  C   UNL d   1      10.868  10.490  -4.843  0.00  0.00     0.002 A 
ATOM     31  C   UNL d   1      10.644   9.614  -5.919  0.00  0.00     0.018 A 
ENDBRANCH  21  24
ENDBRANCH  17  18
ENDBRANCH   1  17
TORSDOF 7
