REMARK  7 active torsions:
REMARK  status: ('A' for Active; 'I' for Inactive)
REMARK    1  A    between atoms: S_2  and  C_5 
REMARK    2  A    between atoms: C_5  and  C_6 
REMARK       I    between atoms: C_6  and  N_8 
REMARK    3  A    between atoms: N_8  and  C_9 
REMARK    4  A    between atoms: C_12  and  C_13 
REMARK    5  A    between atoms: C_13  and  C_14 
REMARK    6  A    between atoms: C_14  and  N_15 
REMARK    7  A    between atoms: N_18  and  C_19 
ROOT
ATOM      1  C   UNL d   1       9.416   2.527 -14.753  0.00  0.00     0.250 C 
ENDROOT
BRANCH   1   2
ATOM      2  C   UNL d   1       9.348   4.050 -14.596  0.00  0.00     0.035 C 
BRANCH   2   3
ATOM      3  C   UNL d   1       8.831   4.521 -13.224  0.00  0.00     0.002 C 
ATOM      4  C   UNL d   1       9.648   3.888 -12.107  0.00  0.00     0.002 C 
ATOM      5  C   UNL d   1       9.215   4.402 -10.742  0.00  0.00     0.024 C 
ATOM      6  C   UNL d   1       9.291   5.927 -10.665  0.00  0.00     0.106 C 
ATOM      7  C   UNL d   1       8.465   6.577 -11.786  0.00  0.00     0.024 C 
ATOM      8  C   UNL d   1       8.897   6.048 -13.155  0.00  0.00     0.002 C 
BRANCH   6   9
ATOM      9  N   UNL d   1       8.809   6.400  -9.382  0.00  0.00    -0.239 NA
ATOM     10  C   UNL d   1       9.521   6.380  -8.259  0.00  0.00     0.268 C 
ATOM     11  O   UNL d   1      10.477   5.620  -8.093  0.00  0.00    -0.269 OA
BRANCH  10  12
ATOM     12  C   UNL d   1       9.152   7.374  -7.170  0.00  0.00     0.212 C 
BRANCH  12  13
ATOM     13  S   UNL d   1      10.675   8.156  -6.465  0.00  0.00     0.180 S 
ATOM     14  C   UNL d   1      11.312   6.851  -5.331  0.00  0.00     0.140 C 
ATOM     15  O   UNL d   1      10.270   9.302  -5.652  0.00  0.00    -0.225 OA
ATOM     16  O   UNL d   1      11.678   8.357  -7.527  0.00  0.00    -0.225 OA
ENDBRANCH  12  13
ENDBRANCH  10  12
ENDBRANCH   6   9
ENDBRANCH   2   3
ENDBRANCH   1   2
BRANCH   1  17
ATOM     17  N   UNL d   1       8.130   1.879 -14.454  0.00  0.00     0.141 N 
ATOM     18  C   UNL d   1       6.961   2.424 -15.152  0.00  0.00     0.274 C 
ATOM     19  C   UNL d   1       7.165   2.317 -16.683  0.00  0.00     0.137 C 
ATOM     20  N   UNL d   1       7.402   0.942 -17.009  0.00  0.00    -0.343 N 
ATOM     21  C   UNL d   1       8.400   0.218 -16.266  0.00  0.00     0.137 C 
ATOM     22  C   UNL d   1       8.191   0.446 -14.741  0.00  0.00     0.274 C 
BRANCH  20  23
ATOM     23  C   UNL d   1       6.643   0.330 -18.048  0.00  0.00     0.081 A 
ATOM     24  C   UNL d   1       5.951  -0.870 -17.837  0.00  0.00     0.135 A 
ATOM     25  C   UNL d   1       5.215  -1.448 -18.849  0.00  0.00     0.121 A 
ATOM     26  O   UNL d   1       5.850  -1.625 -16.714  0.00  0.00    -0.298 OA
ATOM     27  C   UNL d   1       5.123  -0.861 -20.124  0.00  0.00     0.026 A 
ATOM     28  O   UNL d   1       4.644  -2.596 -18.402  0.00  0.00    -0.299 OA
ATOM     29  C   UNL d   1       5.812   0.354 -20.347  0.00  0.00     0.004 A 
ATOM     30  C   UNL d   1       6.577   0.939 -19.300  0.00  0.00     0.019 A 
ATOM     31  C   UNL d   1       5.047  -2.724 -17.060  0.00  0.00     0.304 A 
ENDBRANCH  20  23
ENDBRANCH   1  17
TORSDOF 7
