REMARK  9 active torsions:
REMARK  status: ('A' for Active; 'I' for Inactive)
REMARK    1  A    between atoms: C_8  and  O_9 
REMARK    2  A    between atoms: O_9  and  C_10 
REMARK    3  A    between atoms: C_10  and  C_11 
REMARK    4  A    between atoms: C_11  and  C_12 
REMARK    5  A    between atoms: C_12  and  C_13 
REMARK    6  A    between atoms: C_13  and  N_14 
REMARK    7  A    between atoms: C_17  and  C_18 
REMARK    8  A    between atoms: N_20  and  S_21 
REMARK    9  A    between atoms: S_21  and  C_24 
ROOT
ATOM      1  N   UNL d   1      10.118  -0.218 -18.310  0.00  0.00     0.142 N 
ATOM      2  C   UNL d   1       8.774  -0.483 -17.785  0.00  0.00     0.276 C 
ATOM      3  C   UNL d   1       8.333   0.494 -16.715  0.00  0.00     0.005 C 
ATOM      4  C   UNL d   1       9.168   1.334 -16.072  0.00  0.00    -0.021 C 
ATOM      5  C   UNL d   1      10.657   1.300 -16.383  0.00  0.00     0.061 C 
ATOM      6  C   UNL d   1      11.031   0.040 -17.189  0.00  0.00     0.255 C 
ENDROOT
BRANCH   4   7
ATOM      7  C   UNL d   1       8.659   2.294 -15.089  0.00  0.00     0.015 A 
ATOM      8  C   UNL d   1       7.468   2.199 -14.303  0.00  0.00     0.018 A 
ATOM      9  C   UNL d   1       7.377   3.406 -13.540  0.00  0.00     0.075 A 
ATOM     10  C   UNL d   1       6.464   1.226 -14.063  0.00  0.00     0.002 A 
ATOM     11  N   UNL d   1       8.504   4.127 -13.833  0.00  0.00    -0.231 N 
ATOM     12  C   UNL d   1       6.368   3.646 -12.604  0.00  0.00     0.018 A 
ATOM     13  C   UNL d   1       9.271   3.475 -14.793  0.00  0.00     0.091 A 
ATOM     14  C   UNL d   1       5.405   2.654 -12.407  0.00  0.00     0.002 A 
ATOM     15  C   UNL d   1       5.448   1.458 -13.135  0.00  0.00     0.000 A 
BRANCH  11  16
ATOM     16  S   UNL d   1       8.946   5.579 -13.094  0.00  0.00     0.271 S 
ATOM     17  O   UNL d   1      10.312   5.716 -13.635  0.00  0.00    -0.200 OA
ATOM     18  O   UNL d   1       7.844   6.533 -13.183  0.00  0.00    -0.200 OA
BRANCH  16  19
ATOM     19  C   UNL d   1       9.142   5.333 -11.409  0.00  0.00     0.104 A 
ATOM     20  C   UNL d   1       9.718   4.183 -10.966  0.00  0.00     0.013 A 
ATOM     21  C   UNL d   1       9.848   4.024  -9.589  0.00  0.00     0.001 A 
ATOM     22  C   UNL d   1       9.357   4.960  -8.684  0.00  0.00     0.000 A 
ATOM     23  C   UNL d   1       8.816   6.151  -9.146  0.00  0.00     0.001 A 
ATOM     24  C   UNL d   1       8.725   6.342 -10.537  0.00  0.00     0.013 A 
ENDBRANCH  16  19
ENDBRANCH  11  16
ENDBRANCH   4   7
BRANCH   1  25
ATOM     25  C   UNL d   1      10.085   0.894 -19.265  0.00  0.00     0.251 C 
BRANCH  25  26
ATOM     26  C   UNL d   1      11.399   0.953 -20.084  0.00  0.00     0.038 C 
BRANCH  26  27
ATOM     27  C   UNL d   1      11.505   2.207 -20.966  0.00  0.00     0.035 C 
BRANCH  27  28
ATOM     28  C   UNL d   1      11.845   3.451 -20.122  0.00  0.00     0.149 C 
BRANCH  28  29
ATOM     29  O   UNL d   1      11.660   4.622 -20.924  0.00  0.00    -0.331 OA
BRANCH  29  30
ATOM     30  C   UNL d   1      10.519   5.401 -20.829  0.00  0.00     0.096 A 
ATOM     31  C   UNL d   1       9.603   5.340 -19.748  0.00  0.00     0.024 A 
ATOM     32  C   UNL d   1       8.493   6.174 -19.707  0.00  0.00    -0.001 A 
ATOM     33  C   UNL d   1       8.241   7.091 -20.728  0.00  0.00    -0.004 A 
ATOM     34  C   UNL d   1       7.041   8.003 -20.648  0.00  0.00     0.038 C 
ATOM     35  C   UNL d   1       9.132   7.187 -21.820  0.00  0.00     0.082 A 
ATOM     36  C   UNL d   1       6.545   8.390 -22.047  0.00  0.00     0.095 C 
ATOM     37  C   UNL d   1       7.698   8.774 -22.985  0.00  0.00     0.256 C 
ATOM     38  O   UNL d   1       7.521   9.626 -23.849  0.00  0.00    -0.270 OA
ATOM     39  N   UNL d   1       8.874   8.132 -22.844  0.00  0.00    -0.212 NA
ATOM     40  C   UNL d   1      10.275   6.347 -21.864  0.00  0.00     0.043 A 
ENDBRANCH  29  30
ENDBRANCH  28  29
ENDBRANCH  27  28
ENDBRANCH  26  27
ENDBRANCH  25  26
ENDBRANCH   1  25
TORSDOF 9
