REMARK  6 active torsions:
REMARK  status: ('A' for Active; 'I' for Inactive)
REMARK    1  A    between atoms: C_2  and  N_3 
REMARK    2  A    between atoms: C_7  and  C_8 
REMARK    3  A    between atoms: C_8  and  N_9 
REMARK       I    between atoms: N_9  and  C_10 
REMARK    4  A    between atoms: C_10  and  C_12 
REMARK    5  A    between atoms: C_13  and  O_14 
REMARK    6  A    between atoms: C_21  and  O_22 
ROOT
ATOM      1  C   UNL d   1       9.686   6.535  -9.285  0.00  0.00     0.104 A 
ATOM      2  C   UNL d   1       9.329   5.274  -9.821  0.00  0.00     0.126 A 
ATOM      3  C   UNL d   1       8.913   5.199 -11.170  0.00  0.00     0.154 A 
ATOM      4  O   UNL d   1       8.639   4.027 -11.787  0.00  0.00    -0.188 OA
ATOM      5  C   UNL d   1       8.768   6.369 -11.934  0.00  0.00     0.038 A 
ATOM      6  C   UNL d   1       9.087   7.617 -11.383  0.00  0.00     0.059 A 
ATOM      7 BR   UNL d   1       8.611   9.166 -12.324  0.00  0.00    -0.047 Br
ATOM      8  C   UNL d   1       9.625   7.710 -10.094  0.00  0.00     0.107 A 
ENDROOT
BRANCH   1   9
ATOM      9  C   UNL d   1      10.024   6.659  -7.857  0.00  0.00     0.279 C 
ATOM     10  N   UNL d   1      11.200   7.215  -7.630  0.00  0.00    -0.232 NA
ATOM     11  O   UNL d   1       9.246   6.281  -6.977  0.00  0.00    -0.265 OA
BRANCH  10  12
ATOM     12  C   UNL d   1      11.782   7.564  -6.378  0.00  0.00     0.162 C 
BRANCH  12  13
ATOM     13  C   UNL d   1      10.823   8.180  -5.352  0.00  0.00     0.243 C 
ATOM     14  N   UNL d   1      11.494   8.584  -4.105  0.00  0.00     0.137 N 
ATOM     15  C   UNL d   1      12.131   9.855  -4.390  0.00  0.00     0.250 C 
ATOM     16  C   UNL d   1      11.101  10.573  -5.261  0.00  0.00     0.037 C 
ATOM     17  C   UNL d   1      10.266   9.490  -5.909  0.00  0.00     0.037 C 
BRANCH  14  18
ATOM     18  C   UNL d   1      12.399   7.599  -3.500  0.00  0.00     0.250 C 
ATOM     19  C   UNL d   1      11.616   6.429  -2.942  0.00  0.00     0.037 C 
ENDBRANCH  14  18
ENDBRANCH  12  13
ENDBRANCH  10  12
ENDBRANCH   1   9
BRANCH   8  20
ATOM     20  O   UNL d   1       9.902   8.935  -9.541  0.00  0.00    -0.327 OA
ATOM     21  C   UNL d   1      11.217   9.409  -9.771  0.00  0.00     0.181 C 
ENDBRANCH   8  20
BRANCH   2  22
ATOM     22  O   UNL d   1       9.435   4.154  -9.022  0.00  0.00    -0.326 OA
ATOM     23  C   UNL d   1       8.236   3.622  -8.547  0.00  0.00     0.181 C 
ENDBRANCH   2  22
TORSDOF 6
