REMARK  3 active torsions:
REMARK  status: ('A' for Active; 'I' for Inactive)
REMARK    1  A    between atoms: C_4  and  C_5 
REMARK    2  A    between atoms: C_5  and  N_6 
REMARK    3  A    between atoms: N_9  and  C_10 
ROOT
ATOM      1  N   UNL d   1       9.464   7.080  -9.080  0.00  0.00     0.141 N 
ATOM      2  C   UNL d   1       9.461   8.421  -8.491  0.00  0.00     0.274 C 
ATOM      3  C   UNL d   1       9.236   8.331  -6.972  0.00  0.00     0.138 C 
ATOM      4  N   UNL d   1      10.266   7.490  -6.365  0.00  0.00    -0.330 N 
ATOM      5  C   UNL d   1      10.345   6.177  -6.979  0.00  0.00     0.138 C 
ATOM      6  C   UNL d   1      10.556   6.320  -8.479  0.00  0.00     0.274 C 
ENDROOT
BRANCH   1   7
ATOM      7  C   UNL d   1       9.631   7.176 -10.527  0.00  0.00     0.251 C 
BRANCH   7   8
ATOM      8  C   UNL d   1       9.142   5.898 -11.247  0.00  0.00     0.045 C 
ATOM      9  C   UNL d   1       9.906   5.704 -12.569  0.00  0.00     0.071 C 
ATOM     10  C   UNL d   1       9.509   4.451 -13.328  0.00  0.00     0.173 C 
ATOM     11  O   UNL d   1      10.369   3.824 -13.950  0.00  0.00    -0.291 OA
ATOM     12  C   UNL d   1       8.083   4.093 -13.277  0.00  0.00     0.031 A 
ATOM     13  C   UNL d   1       7.190   4.812 -12.440  0.00  0.00    -0.019 A 
ATOM     14  C   UNL d   1       7.622   3.017 -14.062  0.00  0.00     0.003 A 
ATOM     15  C   UNL d   1       7.641   5.966 -11.555  0.00  0.00     0.029 C 
ATOM     16  C   UNL d   1       5.833   4.452 -12.421  0.00  0.00    -0.004 A 
ATOM     17  C   UNL d   1       5.376   3.387 -13.209  0.00  0.00    -0.000 A 
ATOM     18  C   UNL d   1       6.263   2.668 -14.030  0.00  0.00     0.000 A 
ENDBRANCH   7   8
ENDBRANCH   1   7
BRANCH   4  19
ATOM     19  C   UNL d   1      11.060   7.897  -5.264  0.00  0.00     0.140 A 
ATOM     20  N   UNL d   1      11.007   9.201  -4.916  0.00  0.00    -0.227 NA
ATOM     21  C   UNL d   1      11.676   9.633  -3.833  0.00  0.00     0.101 A 
ATOM     22  C   UNL d   1      12.527   8.813  -3.072  0.00  0.00     0.021 A 
ATOM     23  C   UNL d   1      12.607   7.459  -3.421  0.00  0.00     0.005 A 
ATOM     24  C   UNL d   1      11.849   6.984  -4.508  0.00  0.00     0.037 A 
ENDBRANCH   4  19
TORSDOF 3
