REMARK  4 active torsions:
REMARK  status: ('A' for Active; 'I' for Inactive)
REMARK    1  A    between atoms: N_12  and  C_13 
REMARK    2  A    between atoms: C_13  and  C_14 
REMARK    3  A    between atoms: C_14  and  N_15 
REMARK    4  A    between atoms: N_18  and  C_19 
ROOT
ATOM      1  N   UNL d   1       8.332   4.364 -13.066  0.00  0.00     0.143 N 
ATOM      2  C   UNL d   1       6.962   3.986 -12.680  0.00  0.00     0.274 C 
ATOM      3  C   UNL d   1       6.178   3.514 -13.898  0.00  0.00     0.137 C 
ATOM      4  N   UNL d   1       6.897   2.415 -14.551  0.00  0.00    -0.342 N 
ATOM      5  C   UNL d   1       8.292   2.703 -14.879  0.00  0.00     0.137 C 
ATOM      6  C   UNL d   1       9.028   3.205 -13.635  0.00  0.00     0.274 C 
ENDROOT
BRANCH   1   7
ATOM      7  C   UNL d   1       9.079   4.789 -11.893  0.00  0.00     0.275 C 
BRANCH   7   8
ATOM      8  C   UNL d   1       8.470   6.050 -11.272  0.00  0.00     0.147 C 
BRANCH   8   9
ATOM      9  N   UNL d   1       9.390   6.614 -10.287  0.00  0.00    -0.268 N 
ATOM     10  C   UNL d   1       9.530   5.973  -9.097  0.00  0.00     0.239 C 
ATOM     11  O   UNL d   1       8.925   4.936  -8.808  0.00  0.00    -0.272 OA
ATOM     12  C   UNL d   1      10.508   6.521  -8.066  0.00  0.00     0.089 C 
ATOM     13  C   UNL d   1      10.765   8.042  -8.196  0.00  0.00     0.018 C 
ATOM     14  C   UNL d   1      11.919   8.437  -7.280  0.00  0.00     0.001 C 
ATOM     15  C   UNL d   1       9.572   8.814  -7.612  0.00  0.00     0.001 C 
ATOM     16  C   UNL d   1      11.045   8.404  -9.658  0.00  0.00     0.089 C 
ATOM     17  C   UNL d   1      11.282   8.664  -5.900  0.00  0.00     0.000 C 
ATOM     18  C   UNL d   1       9.782   8.720  -6.128  0.00  0.00     0.000 C 
ATOM     19  C   UNL d   1      10.004   7.786 -10.590  0.00  0.00     0.239 C 
ATOM     20  O   UNL d   1       9.791   8.382 -11.636  0.00  0.00    -0.272 OA
ENDBRANCH   8   9
ENDBRANCH   7   8
ENDBRANCH   1   7
BRANCH   4  21
ATOM     21  C   UNL d   1       6.277   1.191 -14.886  0.00  0.00     0.086 A 
ATOM     22  C   UNL d   1       6.613   0.471 -16.066  0.00  0.00     0.156 A 
ATOM     23  C   UNL d   1       5.935  -0.721 -16.388  0.00  0.00     0.033 A 
ATOM     24  F   UNL d   1       7.532   0.934 -16.951  0.00  0.00    -0.203 F 
ATOM     25  C   UNL d   1       4.896  -1.196 -15.570  0.00  0.00     0.032 A 
ATOM     26  C   UNL d   1       4.529  -0.473 -14.424  0.00  0.00     0.142 A 
ATOM     27  C   UNL d   1       5.239   0.686 -14.064  0.00  0.00     0.049 A 
ATOM     28  F   UNL d   1       3.487  -0.874 -13.661  0.00  0.00    -0.204 F 
ENDBRANCH   4  21
TORSDOF 4
