REMARK  5 active torsions:
REMARK  status: ('A' for Active; 'I' for Inactive)
REMARK    1  A    between atoms: O_2  and  C_3 
REMARK    2  A    between atoms: C_8  and  S_9 
REMARK    3  A    between atoms: S_9  and  C_11 
REMARK    4  A    between atoms: C_11  and  C_12 
REMARK    5  A    between atoms: C_17  and  O_18 
ROOT
ATOM      1  S   UNL d   1       8.072   4.567 -12.519  0.00  0.00     0.107 S 
ATOM      2  O   UNL d   1       7.960   5.593 -13.644  0.00  0.00    -0.248 OA
ENDROOT
BRANCH   1   3
ATOM      3  C   UNL d   1       8.815   5.474 -11.125  0.00  0.00     0.221 A 
ATOM      4  N   UNL d   1       8.332   5.287  -9.886  0.00  0.00    -0.218 NA
ATOM      5  C   UNL d   1       9.072   6.101  -9.060  0.00  0.00     0.101 A 
ATOM      6  C   UNL d   1       9.014   6.374  -7.692  0.00  0.00     0.023 A 
ATOM      7  C   UNL d   1      10.021   6.743  -9.910  0.00  0.00     0.103 A 
ATOM      8  C   UNL d   1       9.926   7.282  -7.124  0.00  0.00     0.026 A 
ATOM      9  C   UNL d   1      10.907   7.926  -7.937  0.00  0.00     0.096 A 
ATOM     10  C   UNL d   1      10.934   7.643  -9.325  0.00  0.00     0.045 A 
ATOM     11  N   UNL d   1       9.851   6.318 -11.231  0.00  0.00    -0.218 NA
BRANCH   9  12
ATOM     12  O   UNL d   1      11.845   8.814  -7.458  0.00  0.00    -0.328 OA
ATOM     13  C   UNL d   1      11.786   9.148  -6.077  0.00  0.00     0.181 C 
ENDBRANCH   9  12
ENDBRANCH   1   3
BRANCH   1  14
ATOM     14  C   UNL d   1       9.552   3.490 -12.841  0.00  0.00     0.145 C 
BRANCH  14  15
ATOM     15  C   UNL d   1      10.208   3.830 -14.164  0.00  0.00     0.071 A 
ATOM     16  C   UNL d   1       9.901   3.146 -15.370  0.00  0.00     0.015 A 
ATOM     17  C   UNL d   1      10.538   3.575 -16.562  0.00  0.00     0.089 A 
ATOM     18  C   UNL d   1       8.903   1.992 -15.408  0.00  0.00     0.034 C 
ATOM     19  C   UNL d   1      11.476   4.633 -16.491  0.00  0.00     0.019 A 
ATOM     20  C   UNL d   1      11.706   5.229 -15.238  0.00  0.00     0.096 A 
ATOM     21  C   UNL d   1      12.253   5.117 -17.703  0.00  0.00     0.035 C 
ATOM     22  N   UNL d   1      11.108   4.829 -14.098  0.00  0.00    -0.248 NA
BRANCH  17  23
ATOM     23  O   UNL d   1      10.280   2.945 -17.754  0.00  0.00    -0.329 OA
ATOM     24  C   UNL d   1       9.425   3.668 -18.625  0.00  0.00     0.181 C 
ENDBRANCH  17  23
ENDBRANCH  14  15
ENDBRANCH   1  14
TORSDOF 5
