REMARK  6 active torsions:
REMARK  status: ('A' for Active; 'I' for Inactive)
REMARK    1  A    between atoms: C_6  and  C_7 
REMARK       I    between atoms: C_7  and  N_9 
REMARK    2  A    between atoms: N_9  and  C_10 
REMARK    3  A    between atoms: C_13  and  C_14 
REMARK    4  A    between atoms: C_14  and  C_15 
REMARK    5  A    between atoms: C_15  and  N_16 
REMARK    6  A    between atoms: N_19  and  C_20 
ROOT
ATOM      1  C   UNL d   1       8.338   4.701 -12.244  0.00  0.00     0.035 C 
ENDROOT
BRANCH   1   2
ATOM      2  C   UNL d   1       8.510   5.595 -10.994  0.00  0.00     0.002 C 
ATOM      3  C   UNL d   1       8.732   4.701  -9.751  0.00  0.00     0.002 C 
ATOM      4  C   UNL d   1       8.942   5.531  -8.482  0.00  0.00     0.024 C 
ATOM      5  C   UNL d   1      10.108   6.524  -8.624  0.00  0.00     0.107 C 
ATOM      6  C   UNL d   1       9.912   7.407  -9.867  0.00  0.00     0.024 C 
ATOM      7  C   UNL d   1       9.692   6.574 -11.114  0.00  0.00     0.002 C 
BRANCH   5   8
ATOM      8  N   UNL d   1      10.220   7.311  -7.402  0.00  0.00    -0.236 NA
ATOM      9  C   UNL d   1      11.194   8.179  -7.124  0.00  0.00     0.281 C 
ATOM     10  O   UNL d   1      12.030   8.581  -7.936  0.00  0.00    -0.265 OA
BRANCH   9  11
ATOM     11  C   UNL d   1      11.294   8.566  -5.726  0.00  0.00     0.083 A 
ATOM     12  C   UNL d   1      11.569   7.828  -4.601  0.00  0.00    -0.011 A 
ATOM     13  C   UNL d   1      11.758   6.351  -4.587  0.00  0.00     0.032 C 
ATOM     14  C   UNL d   1      11.677   8.646  -3.445  0.00  0.00     0.003 A 
ATOM     15  C   UNL d   1      11.456   9.967  -3.703  0.00  0.00     0.035 A 
ATOM     16  S   UNL d   1      11.120  10.253  -5.388  0.00  0.00    -0.082 SA
ENDBRANCH   9  11
ENDBRANCH   5   8
ENDBRANCH   1   2
BRANCH   1  17
ATOM     17  C   UNL d   1       8.812   5.321 -13.586  0.00  0.00     0.250 C 
BRANCH  17  18
ATOM     18  N   UNL d   1       9.002   4.363 -14.663  0.00  0.00     0.141 N 
ATOM     19  C   UNL d   1       9.434   5.104 -15.863  0.00  0.00     0.274 C 
ATOM     20  C   UNL d   1       9.615   4.173 -17.075  0.00  0.00     0.137 C 
ATOM     21  N   UNL d   1      10.490   3.078 -16.706  0.00  0.00    -0.344 N 
ATOM     22  C   UNL d   1      10.184   2.389 -15.473  0.00  0.00     0.137 C 
ATOM     23  C   UNL d   1      10.043   3.384 -14.337  0.00  0.00     0.274 C 
BRANCH  21  24
ATOM     24  C   UNL d   1      11.575   2.692 -17.512  0.00  0.00     0.068 A 
ATOM     25  C   UNL d   1      11.746   1.344 -17.932  0.00  0.00     0.084 A 
ATOM     26  C   UNL d   1      12.856   1.010 -18.736  0.00  0.00     0.070 A 
ATOM     27 CL   UNL d   1      10.604   0.099 -17.534  0.00  0.00    -0.080 Cl
ATOM     28  C   UNL d   1      13.790   1.991 -19.095  0.00  0.00     0.012 A 
ATOM     29 CL   UNL d   1      13.071  -0.619 -19.266  0.00  0.00    -0.081 Cl
ATOM     30  C   UNL d   1      13.634   3.321 -18.667  0.00  0.00     0.002 A 
ATOM     31  C   UNL d   1      12.519   3.670 -17.878  0.00  0.00     0.018 A 
ENDBRANCH  21  24
ENDBRANCH  17  18
ENDBRANCH   1  17
TORSDOF 6
