REMARK  7 active torsions:
REMARK  status: ('A' for Active; 'I' for Inactive)
REMARK    1  A    between atoms: C_4  and  C_5 
REMARK    2  A    between atoms: N_13  and  C_14 
REMARK    3  A    between atoms: C_14  and  C_15 
REMARK    4  A    between atoms: C_15  and  C_16 
REMARK    5  A    between atoms: C_16  and  S_17 
REMARK    6  A    between atoms: S_17  and  C_18 
REMARK    7  A    between atoms: C_21  and  C_22 
ROOT
ATOM      1  C   UNL d   1       6.622  -0.291 -17.171  0.00  0.00     0.020 A 
ATOM      2  C   UNL d   1       7.871   0.312 -17.446  0.00  0.00     0.001 A 
ATOM      3  C   UNL d   1       8.480   1.155 -16.503  0.00  0.00    -0.004 A 
ATOM      4  C   UNL d   1       7.849   1.394 -15.271  0.00  0.00    -0.024 A 
ATOM      5  C   UNL d   1       6.601   0.816 -14.980  0.00  0.00    -0.024 A 
ATOM      6  C   UNL d   1       5.999  -0.030 -15.932  0.00  0.00    -0.003 A 
ATOM      7  C   UNL d   1       5.890   1.082 -13.658  0.00  0.00     0.061 C 
ATOM      8  C   UNL d   1       5.525   2.559 -13.413  0.00  0.00     0.255 C 
ATOM      9  N   UNL d   1       6.638   3.348 -12.917  0.00  0.00     0.138 N 
ATOM     10  C   UNL d   1       7.660   3.533 -13.981  0.00  0.00     0.255 C 
ATOM     11  C   UNL d   1       8.513   2.302 -14.288  0.00  0.00     0.061 C 
ENDROOT
BRANCH   9  12
ATOM     12  C   UNL d   1       6.123   4.652 -12.462  0.00  0.00     0.251 C 
BRANCH  12  13
ATOM     13  C   UNL d   1       7.150   5.447 -11.651  0.00  0.00     0.047 C 
BRANCH  13  14
ATOM     14  C   UNL d   1       8.434   5.811 -12.377  0.00  0.00     0.067 C 
BRANCH  14  15
ATOM     15  S   UNL d   1       9.164   7.366 -11.945  0.00  0.00    -0.075 SA
BRANCH  15  16
ATOM     16  C   UNL d   1       9.489   6.969 -10.263  0.00  0.00     0.193 A 
ATOM     17  N   UNL d   1      10.053   7.854  -9.433  0.00  0.00    -0.289 N 
ATOM     18  C   UNL d   1      10.050   7.176  -8.267  0.00  0.00     0.167 A 
ATOM     19  C   UNL d   1      10.533   9.182  -9.746  0.00  0.00     0.134 C 
ATOM     20  N   UNL d   1       9.554   5.940  -8.371  0.00  0.00    -0.128 NA
ATOM     21  N   UNL d   1       9.223   5.792  -9.695  0.00  0.00    -0.122 NA
BRANCH  18  22
ATOM     22  C   UNL d   1      10.546   7.671  -6.997  0.00  0.00     0.036 A 
ATOM     23  C   UNL d   1      10.524   9.044  -6.694  0.00  0.00     0.004 A 
ATOM     24  C   UNL d   1      11.031   9.518  -5.475  0.00  0.00     0.011 A 
ATOM     25  C   UNL d   1      11.542   8.610  -4.531  0.00  0.00     0.058 A 
ATOM     26  C   UNL d   1      11.548   7.232  -4.812  0.00  0.00     0.011 A 
ATOM     27 CL   UNL d   1      12.148   9.187  -3.029  0.00  0.00    -0.082 Cl
ATOM     28  C   UNL d   1      11.063   6.767  -6.046  0.00  0.00     0.004 A 
ENDBRANCH  18  22
ENDBRANCH  15  16
ENDBRANCH  14  15
ENDBRANCH  13  14
ENDBRANCH  12  13
ENDBRANCH   9  12
BRANCH   1  29
ATOM     29  C   UNL d   1       5.976  -1.184 -18.143  0.00  0.00     0.110 A 
ATOM     30  C   UNL d   1       4.904  -2.100 -17.935  0.00  0.00     0.044 A 
ATOM     31  C   UNL d   1       4.699  -2.660 -19.163  0.00  0.00     0.105 A 
ATOM     32  C   UNL d   1       3.747  -3.691 -19.665  0.00  0.00     0.061 C 
ATOM     33  O   UNL d   1       5.566  -2.137 -20.065  0.00  0.00    -0.215 OA
ATOM     34  N   UNL d   1       6.372  -1.201 -19.409  0.00  0.00    -0.127 NA
ENDBRANCH   1  29
TORSDOF 7
