REMARK  0 active torsions:
REMARK  status: ('A' for Active; 'I' for Inactive)
ROOT
ATOM      1  C   UNL d   1       9.918   6.613  -9.492  0.00  0.00     0.002 A 
ATOM      2  C   UNL d   1       9.864   7.984  -9.778  0.00  0.00     0.001 A 
ATOM      3  C   UNL d   1      10.215   8.917  -8.790  0.00  0.00     0.008 A 
ATOM      4  C   UNL d   1      10.626   8.497  -7.505  0.00  0.00     0.047 A 
ATOM      5  C   UNL d   1      10.679   7.117  -7.213  0.00  0.00     0.087 A 
ATOM      6  C   UNL d   1      10.306   6.188  -8.210  0.00  0.00     0.020 A 
ATOM      7  N   UNL d   1      11.100   6.632  -5.969  0.00  0.00    -0.245 NA
ATOM      8  C   UNL d   1      11.469   7.375  -4.850  0.00  0.00     0.087 A 
ATOM      9  C   UNL d   1      11.858   6.684  -3.683  0.00  0.00     0.020 A 
ATOM     10  C   UNL d   1      12.257   7.373  -2.524  0.00  0.00     0.002 A 
ATOM     11  C   UNL d   1      12.253   8.777  -2.517  0.00  0.00     0.001 A 
ATOM     12  C   UNL d   1      11.845   9.470  -3.669  0.00  0.00     0.008 A 
ATOM     13  C   UNL d   1      11.486   8.784  -4.849  0.00  0.00     0.047 A 
ATOM     14  S   UNL d   1      11.081   9.723  -6.300  0.00  0.00    -0.084 SA
ENDROOT
TORSDOF 0
