REMARK  4 active torsions:
REMARK  status: ('A' for Active; 'I' for Inactive)
REMARK    1  A    between atoms: C_2  and  N_3 
REMARK    2  A    between atoms: C_6  and  N_7 
REMARK    3  A    between atoms: N_10  and  C_11 
REMARK    4  A    between atoms: C_11  and  C_12 
ROOT
ATOM      1  N   UNL d   1       9.753   6.393 -11.159  0.00  0.00     0.149 N 
ATOM      2  C   UNL d   1       9.865   7.819 -11.497  0.00  0.00     0.286 C 
ATOM      3  C   UNL d   1      10.867   8.554 -10.552  0.00  0.00     0.286 C 
ATOM      4  N   UNL d   1      10.481   8.446  -9.148  0.00  0.00     0.146 N 
ATOM      5  C   UNL d   1      10.348   7.029  -8.915  0.00  0.00     0.286 C 
ATOM      6  C   UNL d   1       9.386   6.300  -9.756  0.00  0.00     0.286 C 
ENDROOT
BRANCH   1   7
ATOM      7  C   UNL d   1       8.884   5.654 -12.084  0.00  0.00     0.301 C 
ATOM      8  C   UNL d   1       9.672   4.874 -13.122  0.00  0.00     0.269 C 
ATOM      9  N   UNL d   1       9.031   4.011 -13.920  0.00  0.00    -0.298 N 
ATOM     10  O   UNL d   1      10.894   5.177 -13.291  0.00  0.00    -0.270 OA
ATOM     11  C   UNL d   1       7.711   3.604 -13.592  0.00  0.00     0.058 A 
ATOM     12  C   UNL d   1       7.089   3.975 -12.367  0.00  0.00    -0.004 A 
ATOM     13  C   UNL d   1       7.053   2.634 -14.393  0.00  0.00     0.017 A 
ATOM     14  C   UNL d   1       7.877   4.744 -11.377  0.00  0.00     0.071 C 
ATOM     15  C   UNL d   1       5.863   3.429 -11.980  0.00  0.00    -0.003 A 
ATOM     16  C   UNL d   1       5.228   2.495 -12.818  0.00  0.00    -0.000 A 
ATOM     17  C   UNL d   1       5.866   2.068 -13.992  0.00  0.00     0.002 A 
BRANCH   9  18
ATOM     18  C   UNL d   1       9.739   3.346 -15.015  0.00  0.00     0.109 C 
ATOM     19  C   UNL d   1      10.187   1.909 -14.671  0.00  0.00     0.027 C 
ENDBRANCH   9  18
ENDBRANCH   1   7
BRANCH   4  20
ATOM     20  C   UNL d   1      11.479   9.039  -8.241  0.00  0.00     0.277 C 
BRANCH  20  21
ATOM     21  C   UNL d   1      11.464   8.585  -6.754  0.00  0.00     0.011 C 
ATOM     22  C   UNL d   1      11.450   9.564  -5.719  0.00  0.00    -0.002 C 
ATOM     23  C   UNL d   1      11.466   9.142  -4.348  0.00  0.00     0.011 C 
ATOM     24  C   UNL d   1      11.475   7.744  -4.039  0.00  0.00     0.058 C 
ATOM     25  C   UNL d   1      11.443   6.799  -5.065  0.00  0.00     0.011 C 
ATOM     26 CL   UNL d   1      11.543   7.171  -2.375  0.00  0.00    -0.082 Cl
ATOM     27  C   UNL d   1      11.523   7.210  -6.411  0.00  0.00    -0.002 C 
ENDBRANCH  20  21
ENDBRANCH   4  20
TORSDOF 4
