REMARK  2 active torsions:
REMARK  status: ('A' for Active; 'I' for Inactive)
REMARK    1  A    between atoms: C_9  and  C_10 
REMARK    2  A    between atoms: C_10  and  N_11 
ROOT
ATOM      1  O   UNL d   1      10.880  10.537  -4.721  0.00  0.00    -0.190 OA
ATOM      2  C   UNL d   1      10.850   9.386  -5.435  0.00  0.00     0.133 A 
ATOM      3  C   UNL d   1      11.198   8.170  -4.838  0.00  0.00     0.027 A 
ATOM      4  C   UNL d   1      11.086   6.982  -5.573  0.00  0.00    -0.000 A 
ATOM      5  C   UNL d   1      10.651   7.037  -6.915  0.00  0.00     0.000 A 
ATOM      6  C   UNL d   1      10.297   8.251  -7.531  0.00  0.00     0.092 A 
ATOM      7  C   UNL d   1      10.433   9.422  -6.774  0.00  0.00     0.051 A 
ATOM      8  O   UNL d   1       9.852   8.343  -8.838  0.00  0.00    -0.332 OA
ATOM      9  C   UNL d   1       9.438   7.127  -9.475  0.00  0.00     0.155 C 
ATOM     10  C   UNL d   1      10.475   6.046  -9.210  0.00  0.00     0.037 C 
ATOM     11  C   UNL d   1      10.572   5.777  -7.716  0.00  0.00     0.031 C 
ENDROOT
BRANCH   9  12
ATOM     12  C   UNL d   1       9.320   7.372 -10.994  0.00  0.00     0.280 C 
BRANCH  12  13
ATOM     13  N   UNL d   1       8.962   6.145 -11.714  0.00  0.00     0.144 N 
ATOM     14  C   UNL d   1       7.543   5.814 -11.558  0.00  0.00     0.277 C 
ATOM     15  C   UNL d   1       7.102   4.629 -12.412  0.00  0.00     0.007 A 
ATOM     16  C   UNL d   1       7.860   4.245 -13.543  0.00  0.00    -0.022 A 
ATOM     17  C   UNL d   1       5.917   3.934 -12.101  0.00  0.00    -0.003 A 
ATOM     18  C   UNL d   1       9.129   5.002 -13.873  0.00  0.00     0.061 C 
ATOM     19  C   UNL d   1       7.451   3.155 -14.337  0.00  0.00    -0.004 A 
ATOM     20  C   UNL d   1       9.196   6.338 -13.124  0.00  0.00     0.255 C 
ATOM     21  C   UNL d   1       6.263   2.464 -14.025  0.00  0.00    -0.000 A 
ATOM     22  C   UNL d   1       5.500   2.852 -12.902  0.00  0.00    -0.000 A 
ENDBRANCH  12  13
ENDBRANCH   9  12
TORSDOF 2
