REMARK  8 active torsions:
REMARK  status: ('A' for Active; 'I' for Inactive)
REMARK    1  A    between atoms: O_2  and  C_3 
REMARK    2  A    between atoms: C_3  and  C_4 
REMARK    3  A    between atoms: C_4  and  C_5 
REMARK    4  A    between atoms: C_5  and  O_6 
REMARK    5  A    between atoms: O_6  and  C_7 
REMARK    6  A    between atoms: C_11  and  C_12 
REMARK    7  A    between atoms: C_12  and  S_13 
REMARK    8  A    between atoms: S_13  and  C_15 
ROOT
ATOM      1  C   UNL d   1      10.733   8.513  -6.818  0.00  0.00     0.093 A 
ATOM      2  C   UNL d   1      11.958   8.936  -7.386  0.00  0.00     0.044 A 
ATOM      3  C   UNL d   1      12.332   8.441  -8.637  0.00  0.00     0.101 A 
ATOM      4  N   UNL d   1      11.574   7.589  -9.342  0.00  0.00    -0.248 NA
ATOM      5  C   UNL d   1      10.437   7.136  -8.797  0.00  0.00     0.071 A 
ATOM      6  C   UNL d   1       9.966   7.562  -7.532  0.00  0.00     0.015 A 
ATOM      7  C   UNL d   1       8.676   7.021  -6.942  0.00  0.00     0.034 C 
ENDROOT
BRANCH   5   8
ATOM      8  C   UNL d   1       9.728   6.113  -9.669  0.00  0.00     0.145 C 
BRANCH   8   9
ATOM      9  S   UNL d   1       9.044   6.944 -11.174  0.00  0.00     0.107 S 
ATOM     10  O   UNL d   1       9.841   8.159 -11.715  0.00  0.00    -0.248 OA
BRANCH   9  11
ATOM     11  C   UNL d   1       9.159   5.543 -12.327  0.00  0.00     0.221 A 
ATOM     12  N   UNL d   1       8.042   4.841 -12.571  0.00  0.00    -0.218 NA
ATOM     13  C   UNL d   1       8.414   3.822 -13.429  0.00  0.00     0.101 A 
ATOM     14  C   UNL d   1       9.820   4.011 -13.588  0.00  0.00     0.101 A 
ATOM     15  C   UNL d   1       7.741   2.773 -14.061  0.00  0.00     0.021 A 
ATOM     16  N   UNL d   1      10.262   5.136 -12.920  0.00  0.00    -0.218 NA
ATOM     17  C   UNL d   1      10.554   3.099 -14.357  0.00  0.00     0.021 A 
ATOM     18  C   UNL d   1       9.893   2.035 -14.996  0.00  0.00     0.002 A 
ATOM     19  C   UNL d   1       8.495   1.877 -14.857  0.00  0.00     0.002 A 
ENDBRANCH   9  11
ENDBRANCH   8   9
ENDBRANCH   5   8
BRANCH   1  20
ATOM     20  O   UNL d   1      10.258   8.977  -5.608  0.00  0.00    -0.331 OA
BRANCH  20  21
ATOM     21  C   UNL d   1      11.069   9.860  -4.827  0.00  0.00     0.151 C 
BRANCH  21  22
ATOM     22  C   UNL d   1      12.191   9.087  -4.098  0.00  0.00     0.065 C 
BRANCH  22  23
ATOM     23  C   UNL d   1      11.876   8.840  -2.606  0.00  0.00     0.145 C 
BRANCH  23  24
ATOM     24  O   UNL d   1      12.645   7.789  -2.051  0.00  0.00    -0.351 OA
ATOM     25  C   UNL d   1      12.162   6.491  -2.382  0.00  0.00     0.174 C 
ENDBRANCH  23  24
ENDBRANCH  22  23
ENDBRANCH  21  22
ENDBRANCH  20  21
ENDBRANCH   1  20
TORSDOF 8
