REMARK  5 active torsions:
REMARK  status: ('A' for Active; 'I' for Inactive)
REMARK    1  A    between atoms: C_7  and  C_8 
REMARK       I    between atoms: C_8  and  N_10 
REMARK    2  A    between atoms: N_10  and  C_11 
REMARK    3  A    between atoms: C_11  and  C_12 
REMARK    4  A    between atoms: C_12  and  N_13 
REMARK    5  A    between atoms: N_16  and  C_17 
ROOT
ATOM      1  C   UNL d   1      12.065   6.502  -2.574  0.00  0.00    -0.009 C 
ATOM      2  C   UNL d   1      11.793   7.071  -3.618  0.00  0.00    -0.051 C 
ATOM      3  C   UNL d   1      11.466   7.764  -4.851  0.00  0.00     0.043 A 
ATOM      4  C   UNL d   1      11.761   9.137  -4.992  0.00  0.00     0.008 A 
ATOM      5  C   UNL d   1      11.470   9.806  -6.201  0.00  0.00     0.001 A 
ATOM      6  C   UNL d   1      10.890   9.093  -7.271  0.00  0.00     0.005 A 
ATOM      7  C   UNL d   1      10.612   7.711  -7.138  0.00  0.00     0.058 A 
ATOM      8  C   UNL d   1      10.898   7.056  -5.925  0.00  0.00     0.013 A 
ENDROOT
BRANCH   7   9
ATOM      9  C   UNL d   1       9.916   6.968  -8.237  0.00  0.00     0.275 C 
ATOM     10  O   UNL d   1       9.122   6.065  -7.971  0.00  0.00    -0.266 OA
ATOM     11  N   UNL d   1      10.234   7.348  -9.485  0.00  0.00    -0.232 NA
BRANCH  11  12
ATOM     12  C   UNL d   1       9.566   6.971 -10.725  0.00  0.00     0.164 C 
BRANCH  12  13
ATOM     13  C   UNL d   1       9.243   5.482 -10.799  0.00  0.00     0.277 C 
BRANCH  13  14
ATOM     14  N   UNL d   1       8.639   5.135 -12.082  0.00  0.00     0.143 N 
ATOM     15  C   UNL d   1       9.391   4.014 -12.638  0.00  0.00     0.274 C 
ATOM     16  C   UNL d   1       8.786   3.581 -13.981  0.00  0.00     0.137 C 
ATOM     17  N   UNL d   1       7.363   3.276 -13.845  0.00  0.00    -0.344 N 
ATOM     18  C   UNL d   1       6.568   4.294 -13.156  0.00  0.00     0.137 C 
ATOM     19  C   UNL d   1       7.245   4.720 -11.846  0.00  0.00     0.274 C 
BRANCH  17  20
ATOM     20  C   UNL d   1       6.802   2.070 -14.309  0.00  0.00     0.068 A 
ATOM     21  C   UNL d   1       7.149   1.491 -15.565  0.00  0.00     0.084 A 
ATOM     22  C   UNL d   1       6.551   0.273 -15.960  0.00  0.00     0.070 A 
ATOM     23 CL   UNL d   1       8.254   2.243 -16.675  0.00  0.00    -0.080 Cl
ATOM     24  C   UNL d   1       5.632  -0.376 -15.123  0.00  0.00     0.012 A 
ATOM     25 CL   UNL d   1       6.916  -0.414 -17.499  0.00  0.00    -0.081 Cl
ATOM     26  C   UNL d   1       5.279   0.190 -13.890  0.00  0.00     0.002 A 
ATOM     27  C   UNL d   1       5.859   1.404 -13.485  0.00  0.00     0.018 A 
ENDBRANCH  17  20
ENDBRANCH  13  14
ENDBRANCH  12  13
ENDBRANCH  11  12
ENDBRANCH   7   9
TORSDOF 5
