REMARK  7 active torsions:
REMARK  status: ('A' for Active; 'I' for Inactive)
REMARK    1  A    between atoms: C_3  and  S_4 
REMARK    2  A    between atoms: S_4  and  C_5 
REMARK    3  A    between atoms: C_5  and  C_6 
REMARK    4  A    between atoms: C_6  and  C_7 
REMARK    5  A    between atoms: C_7  and  N_8 
REMARK    6  A    between atoms: N_13  and  C_14 
REMARK    7  A    between atoms: C_26  and  C_27 
ROOT
ATOM      1  C   UNL d   1      12.910   4.664 -17.548  0.00  0.00     0.057 A 
ATOM      2  C   UNL d   1      12.192   5.875 -17.730  0.00  0.00     0.017 A 
ATOM      3  C   UNL d   1      12.868   7.110 -17.773  0.00  0.00     0.002 A 
ATOM      4  C   UNL d   1      14.270   7.165 -17.619  0.00  0.00     0.010 A 
ATOM      5  C   UNL d   1      14.990   5.970 -17.413  0.00  0.00     0.070 A 
ATOM      6  C   UNL d   1      16.424   5.994 -17.223  0.00  0.00     0.101 C 
ATOM      7  N   UNL d   1      17.571   6.010 -17.071  0.00  0.00    -0.191 NA
ATOM      8  C   UNL d   1      14.312   4.734 -17.381  0.00  0.00     0.027 A 
ENDROOT
BRANCH   1   9
ATOM      9  N   UNL d   1      12.264   3.410 -17.529  0.00  0.00    -0.348 N 
ATOM     10  C   UNL d   1      12.921   2.270 -18.143  0.00  0.00     0.102 C 
ATOM     11  C   UNL d   1      11.885   1.141 -18.063  0.00  0.00     0.028 C 
ATOM     12  C   UNL d   1      10.543   1.874 -18.204  0.00  0.00     0.058 C 
ATOM     13  C   UNL d   1       9.452   1.479 -17.201  0.00  0.00     0.252 C 
ATOM     14  C   UNL d   1      10.852   3.337 -17.892  0.00  0.00     0.117 C 
ATOM     15  N   UNL d   1       9.642   2.417 -16.095  0.00  0.00     0.139 N 
ATOM     16  C   UNL d   1       9.936   3.702 -16.728  0.00  0.00     0.272 C 
BRANCH  15  17
ATOM     17  C   UNL d   1       8.473   2.472 -15.224  0.00  0.00     0.251 C 
BRANCH  17  18
ATOM     18  C   UNL d   1       8.679   3.388 -13.998  0.00  0.00     0.047 C 
BRANCH  18  19
ATOM     19  C   UNL d   1       7.466   4.295 -13.766  0.00  0.00     0.067 C 
BRANCH  19  20
ATOM     20  S   UNL d   1       7.047   4.445 -12.009  0.00  0.00    -0.075 SA
BRANCH  20  21
ATOM     21  C   UNL d   1       8.193   5.695 -11.498  0.00  0.00     0.193 A 
ATOM     22  N   UNL d   1       8.680   5.786 -10.242  0.00  0.00    -0.287 N 
ATOM     23  C   UNL d   1       8.437   4.914  -9.094  0.00  0.00     0.134 C 
ATOM     24  C   UNL d   1       9.463   6.879 -10.326  0.00  0.00     0.186 A 
ATOM     25  N   UNL d   1       9.454   7.429 -11.549  0.00  0.00    -0.127 NA
ATOM     26  N   UNL d   1       8.642   6.643 -12.321  0.00  0.00    -0.122 NA
BRANCH  24  27
ATOM     27  C   UNL d   1      10.255   7.463  -9.246  0.00  0.00     0.136 A 
ATOM     28  N   UNL d   1      11.512   7.859  -9.547  0.00  0.00    -0.238 NA
ATOM     29  C   UNL d   1      12.237   8.432  -8.565  0.00  0.00     0.120 A 
ATOM     30  C   UNL d   1      11.707   8.608  -7.267  0.00  0.00     0.120 A 
ATOM     31  N   UNL d   1      10.454   8.218  -6.944  0.00  0.00    -0.239 NA
ATOM     32  C   UNL d   1       9.729   7.648  -7.940  0.00  0.00     0.121 A 
ENDBRANCH  24  27
ENDBRANCH  20  21
ENDBRANCH  19  20
ENDBRANCH  18  19
ENDBRANCH  17  18
ENDBRANCH  15  17
ENDBRANCH   1   9
TORSDOF 7
