REMARK  9 active torsions:
REMARK  status: ('A' for Active; 'I' for Inactive)
REMARK    1  A    between atoms: O_2  and  C_3 
REMARK    2  A    between atoms: C_8  and  N_9 
REMARK    3  A    between atoms: N_12  and  C_13 
REMARK    4  A    between atoms: C_13  and  C_14 
REMARK    5  A    between atoms: C_14  and  C_15 
REMARK    6  A    between atoms: C_15  and  C_16 
REMARK    7  A    between atoms: C_16  and  O_17 
REMARK    8  A    between atoms: O_17  and  C_18 
REMARK    9  A    between atoms: C_23  and  C_24 
ROOT
ATOM      1  C   UNL d   1       9.162   3.967 -14.162  0.00  0.00     0.251 C 
ENDROOT
BRANCH   1   2
ATOM      2  N   UNL d   1       8.703   4.611 -12.939  0.00  0.00     0.141 N 
ATOM      3  C   UNL d   1       8.799   6.062 -13.114  0.00  0.00     0.274 C 
ATOM      4  C   UNL d   1       8.312   6.793 -11.853  0.00  0.00     0.137 C 
ATOM      5  N   UNL d   1       9.077   6.342 -10.701  0.00  0.00    -0.343 N 
ATOM      6  C   UNL d   1       9.123   4.905 -10.512  0.00  0.00     0.137 C 
ATOM      7  C   UNL d   1       9.578   4.238 -11.826  0.00  0.00     0.274 C 
BRANCH   5   8
ATOM      8  C   UNL d   1       9.728   7.245  -9.850  0.00  0.00     0.079 A 
ATOM      9  C   UNL d   1       9.560   7.207  -8.439  0.00  0.00     0.110 A 
ATOM     10  C   UNL d   1      10.219   8.179  -7.647  0.00  0.00     0.026 A 
ATOM     11  C   UNL d   1      11.043   9.151  -8.233  0.00  0.00     0.002 A 
ATOM     12  C   UNL d   1      11.205   9.189  -9.628  0.00  0.00     0.002 A 
ATOM     13  C   UNL d   1      10.530   8.255 -10.428  0.00  0.00     0.019 A 
BRANCH   9  14
ATOM     14  O   UNL d   1       8.737   6.236  -7.898  0.00  0.00    -0.327 OA
ATOM     15  C   UNL d   1       8.261   6.429  -6.579  0.00  0.00     0.181 C 
ENDBRANCH   9  14
ENDBRANCH   5   8
ENDBRANCH   1   2
BRANCH   1  16
ATOM     16  C   UNL d   1       8.762   2.480 -14.212  0.00  0.00     0.038 C 
BRANCH  16  17
ATOM     17  C   UNL d   1       9.431   1.726 -15.363  0.00  0.00     0.035 C 
BRANCH  17  18
ATOM     18  C   UNL d   1       8.955   2.199 -16.756  0.00  0.00     0.149 C 
BRANCH  18  19
ATOM     19  O   UNL d   1       9.843   1.735 -17.767  0.00  0.00    -0.331 OA
BRANCH  19  20
ATOM     20  C   UNL d   1      11.074   2.343 -17.897  0.00  0.00     0.097 A 
ATOM     21  C   UNL d   1      11.470   3.474 -17.193  0.00  0.00     0.043 A 
ATOM     22  C   UNL d   1      12.758   4.018 -17.409  0.00  0.00     0.086 A 
ATOM     23  N   UNL d   1      13.596   3.390 -18.343  0.00  0.00    -0.228 N 
ATOM     24  C   UNL d   1      13.461   5.082 -16.918  0.00  0.00     0.043 A 
ATOM     25  C   UNL d   1      13.225   2.282 -19.039  0.00  0.00     0.102 A 
ATOM     26  N   UNL d   1      14.796   4.037 -18.447  0.00  0.00    -0.162 NA
ATOM     27  C   UNL d   1      11.972   1.754 -18.823  0.00  0.00     0.045 A 
ATOM     28  C   UNL d   1      14.710   5.040 -17.595  0.00  0.00     0.145 A 
BRANCH  28  29
ATOM     29  C   UNL d   1      15.774   5.999 -17.353  0.00  0.00     0.255 C 
ATOM     30  O   UNL d   1      16.898   5.988 -17.855  0.00  0.00    -0.281 OA
ENDBRANCH  28  29
ENDBRANCH  19  20
ENDBRANCH  18  19
ENDBRANCH  17  18
ENDBRANCH  16  17
ENDBRANCH   1  16
TORSDOF 9
