REMARK  11 active torsions:
REMARK  status: ('A' for Active; 'I' for Inactive)
REMARK    1  A    between atoms: C_2  and  C_3 
REMARK    2  A    between atoms: C_3  and  N_4 
REMARK    3  A    between atoms: N_4  and  C_5 
REMARK    4  A    between atoms: N_4  and  C_24 
REMARK    5  A    between atoms: C_5  and  C_6 
REMARK    6  A    between atoms: C_6  and  C_7 
REMARK    7  A    between atoms: C_7  and  C_8 
REMARK    8  A    between atoms: C_8  and  N_9 
REMARK       I    between atoms: N_9  and  C_10 
REMARK    9  A    between atoms: C_10  and  C_12 
REMARK   10  A    between atoms: C_15  and  C_16 
REMARK   11  A    between atoms: C_32  and  O_33 
ROOT
ATOM      1  C   UNL d   1       8.872   4.226 -14.083  0.00  0.00     0.037 C 
ENDROOT
BRANCH   1   2
ATOM      2  C   UNL d   1       9.031   2.717 -14.339  0.00  0.00     0.250 C 
BRANCH   2   3
ATOM      3  N   UNL d   1       8.572   2.330 -15.671  0.00  0.00     0.135 N 
BRANCH   3   4
ATOM      4  C   UNL d   1       7.271   1.652 -15.558  0.00  0.00     0.250 C 
BRANCH   4   5
ATOM      5  C   UNL d   1       7.386   0.284 -14.850  0.00  0.00     0.035 C 
ATOM      6  C   UNL d   1       6.041  -0.418 -14.671  0.00  0.00     0.002 C 
ENDBRANCH   4   5
ENDBRANCH   3   4
BRANCH   3   7
ATOM      7  C   UNL d   1       9.560   1.572 -16.469  0.00  0.00     0.224 C 
ATOM      8  C   UNL d   1       9.004   1.244 -17.872  0.00  0.00     0.059 C 
ATOM      9  C   UNL d   1      10.028   0.661 -18.837  0.00  0.00    -0.022 A 
ATOM     10  C   UNL d   1      11.419   0.751 -18.593  0.00  0.00    -0.004 A 
ATOM     11  C   UNL d   1       9.553   0.036 -20.007  0.00  0.00    -0.004 A 
ATOM     12  C   UNL d   1      11.936   1.416 -17.321  0.00  0.00     0.030 C 
ATOM     13  C   UNL d   1      12.337   0.207 -19.514  0.00  0.00     0.090 A 
ATOM     14  C   UNL d   1      10.904   2.307 -16.606  0.00  0.00     0.038 C 
ATOM     15  C   UNL d   1      11.851  -0.414 -20.696  0.00  0.00     0.024 A 
ATOM     16  C   UNL d   1      10.461  -0.497 -20.936  0.00  0.00     0.002 A 
BRANCH  13  17
ATOM     17  O   UNL d   1      13.678   0.301 -19.242  0.00  0.00    -0.328 OA
ATOM     18  C   UNL d   1      14.593  -0.394 -20.077  0.00  0.00     0.181 C 
ENDBRANCH  13  17
ENDBRANCH   3   7
ENDBRANCH   2   3
ENDBRANCH   1   2
BRANCH   1  19
ATOM     19  C   UNL d   1       9.313   4.583 -12.661  0.00  0.00     0.029 C 
BRANCH  19  20
ATOM     20  C   UNL d   1       9.196   6.080 -12.349  0.00  0.00     0.129 C 
BRANCH  20  21
ATOM     21  N   UNL d   1       9.608   6.371 -10.982  0.00  0.00    -0.234 NA
ATOM     22  C   UNL d   1       9.853   7.604 -10.512  0.00  0.00     0.275 C 
ATOM     23  O   UNL d   1       9.792   8.612 -11.211  0.00  0.00    -0.266 OA
BRANCH  22  24
ATOM     24  C   UNL d   1      10.282   7.679  -9.077  0.00  0.00     0.058 A 
ATOM     25  C   UNL d   1      11.104   8.736  -8.639  0.00  0.00     0.005 A 
ATOM     26  C   UNL d   1      11.491   8.824  -7.284  0.00  0.00     0.000 A 
ATOM     27  C   UNL d   1      11.055   7.868  -6.340  0.00  0.00     0.000 A 
ATOM     28  C   UNL d   1      10.218   6.825  -6.788  0.00  0.00     0.000 A 
ATOM     29  C   UNL d   1       9.829   6.729  -8.138  0.00  0.00     0.005 A 
BRANCH  27  30
ATOM     30  C   UNL d   1      11.463   7.955  -4.920  0.00  0.00     0.000 A 
ATOM     31  C   UNL d   1      11.690   9.209  -4.309  0.00  0.00     0.000 A 
ATOM     32  C   UNL d   1      12.086   9.294  -2.960  0.00  0.00     0.000 A 
ATOM     33  C   UNL d   1      12.257   8.127  -2.198  0.00  0.00     0.000 A 
ATOM     34  C   UNL d   1      12.034   6.871  -2.787  0.00  0.00     0.000 A 
ATOM     35  C   UNL d   1      11.642   6.791  -4.139  0.00  0.00     0.000 A 
ENDBRANCH  27  30
ENDBRANCH  22  24
ENDBRANCH  20  21
ENDBRANCH  19  20
ENDBRANCH   1  19
TORSDOF 11
