REMARK  6 active torsions:
REMARK  status: ('A' for Active; 'I' for Inactive)
REMARK    1  A    between atoms: C_2  and  C_3 
REMARK    2  A    between atoms: C_3  and  N_4 
REMARK    3  A    between atoms: N_7  and  C_8 
REMARK    4  A    between atoms: C_8  and  C_9 
REMARK    5  A    between atoms: C_9  and  C_10 
REMARK    6  A    between atoms: C_10  and  N_11 
ROOT
ATOM      1  N   UNL d   1       8.589   3.553 -14.441  0.00  0.00    -0.327 N 
ATOM      2  C   UNL d   1       7.658   2.505 -14.181  0.00  0.00     0.066 A 
ATOM      3  C   UNL d   1       6.359   2.749 -13.640  0.00  0.00     0.018 A 
ATOM      4  C   UNL d   1       5.463   1.715 -13.331  0.00  0.00     0.002 A 
ATOM      5  C   UNL d   1       5.798   0.387 -13.628  0.00  0.00     0.001 A 
ATOM      6  C   UNL d   1       7.056   0.105 -14.173  0.00  0.00     0.008 A 
ATOM      7  C   UNL d   1       7.981   1.142 -14.442  0.00  0.00     0.045 A 
ATOM      8  S   UNL d   1       9.535   0.640 -15.102  0.00  0.00    -0.084 SA
ATOM      9  C   UNL d   1      10.302   2.146 -15.581  0.00  0.00     0.045 A 
ATOM     10  C   UNL d   1      11.477   2.025 -16.361  0.00  0.00     0.009 A 
ATOM     11  C   UNL d   1      12.169   3.164 -16.800  0.00  0.00     0.012 A 
ATOM     12  C   UNL d   1      11.678   4.431 -16.458  0.00  0.00     0.059 A 
ATOM     13 CL   UNL d   1      12.501   5.854 -16.982  0.00  0.00    -0.082 Cl
ATOM     14  C   UNL d   1      10.513   4.549 -15.686  0.00  0.00     0.029 A 
ATOM     15  C   UNL d   1       9.781   3.419 -15.214  0.00  0.00     0.067 A 
ENDROOT
BRANCH   1  16
ATOM     16  C   UNL d   1       8.403   4.833 -13.723  0.00  0.00     0.108 C 
BRANCH  16  17
ATOM     17  C   UNL d   1       9.149   4.907 -12.389  0.00  0.00     0.060 C 
BRANCH  17  18
ATOM     18  C   UNL d   1       9.082   6.312 -11.771  0.00  0.00     0.252 C 
BRANCH  18  19
ATOM     19  N   UNL d   1       9.812   6.464 -10.509  0.00  0.00     0.141 N 
ATOM     20  C   UNL d   1       9.086   5.874  -9.378  0.00  0.00     0.285 C 
ATOM     21  C   UNL d   1       9.855   6.061  -8.045  0.00  0.00     0.286 C 
ATOM     22  N   UNL d   1      10.100   7.471  -7.739  0.00  0.00     0.144 N 
ATOM     23  C   UNL d   1      10.800   8.063  -8.876  0.00  0.00     0.286 C 
ATOM     24  C   UNL d   1      10.027   7.877 -10.201  0.00  0.00     0.285 C 
BRANCH  22  25
ATOM     25  C   UNL d   1      10.858   7.627  -6.495  0.00  0.00     0.286 C 
BRANCH  25  26
ATOM     26  C   UNL d   1      10.885   9.065  -5.947  0.00  0.00     0.218 C 
ATOM     27  O   UNL d   1      11.679   9.129  -4.782  0.00  0.00    -0.218 OA
ENDBRANCH  25  26
ENDBRANCH  22  25
ENDBRANCH  18  19
ENDBRANCH  17  18
ENDBRANCH  16  17
ENDBRANCH   1  16
TORSDOF 6
