REMARK  8 active torsions:
REMARK  status: ('A' for Active; 'I' for Inactive)
REMARK    1  A    between atoms: O_2  and  C_3 
REMARK    2  A    between atoms: C_8  and  N_9 
REMARK    3  A    between atoms: N_12  and  C_13 
REMARK    4  A    between atoms: C_13  and  C_14 
REMARK    5  A    between atoms: C_14  and  C_15 
REMARK    6  A    between atoms: C_15  and  C_16 
REMARK    7  A    between atoms: C_16  and  O_17 
REMARK    8  A    between atoms: O_17  and  C_18 
ROOT
ATOM      1  N   UNL d   1       7.934   4.199 -13.580  0.00  0.00    -0.343 N 
ATOM      2  C   UNL d   1       7.246   4.633 -12.380  0.00  0.00     0.137 C 
ATOM      3  C   UNL d   1       8.246   5.232 -11.365  0.00  0.00     0.274 C 
ATOM      4  N   UNL d   1       9.052   6.310 -11.975  0.00  0.00     0.141 N 
ATOM      5  C   UNL d   1       9.775   5.724 -13.111  0.00  0.00     0.274 C 
ATOM      6  C   UNL d   1       8.829   5.168 -14.176  0.00  0.00     0.137 C 
ENDROOT
BRANCH   4   7
ATOM      7  C   UNL d   1       9.994   6.888 -11.024  0.00  0.00     0.251 C 
BRANCH   7   8
ATOM      8  C   UNL d   1       9.362   7.759  -9.966  0.00  0.00     0.038 C 
BRANCH   8   9
ATOM      9  C   UNL d   1      10.289   8.465  -8.997  0.00  0.00     0.035 C 
BRANCH   9  10
ATOM     10  C   UNL d   1       9.497   9.009  -7.775  0.00  0.00     0.149 C 
BRANCH  10  11
ATOM     11  O   UNL d   1      10.361   9.624  -6.821  0.00  0.00    -0.329 OA
BRANCH  11  12
ATOM     12  C   UNL d   1      10.902   8.828  -5.842  0.00  0.00     0.113 A 
ATOM     13  C   UNL d   1      11.376   9.467  -4.708  0.00  0.00     0.124 A 
ATOM     14  N   UNL d   1      11.839   8.701  -3.674  0.00  0.00    -0.226 N 
ATOM     15  C   UNL d   1      11.874   7.292  -3.730  0.00  0.00     0.085 A 
ATOM     16  N   UNL d   1      12.277   9.148  -2.460  0.00  0.00    -0.164 NA
ATOM     17  C   UNL d   1      11.449   6.659  -4.902  0.00  0.00     0.021 A 
ATOM     18  C   UNL d   1      12.354   6.858  -2.535  0.00  0.00     0.042 A 
ATOM     19  C   UNL d   1      10.970   7.408  -5.929  0.00  0.00     0.027 A 
ATOM     20  C   UNL d   1      12.597   8.050  -1.820  0.00  0.00     0.122 A 
ENDBRANCH  11  12
ENDBRANCH  10  11
ENDBRANCH   9  10
ENDBRANCH   8   9
ENDBRANCH   7   8
ENDBRANCH   4   7
BRANCH   1  21
ATOM     21  C   UNL d   1       7.848   2.860 -14.056  0.00  0.00     0.079 A 
ATOM     22  C   UNL d   1       8.992   2.124 -14.446  0.00  0.00     0.110 A 
ATOM     23  C   UNL d   1       8.831   0.798 -14.906  0.00  0.00     0.026 A 
ATOM     24  C   UNL d   1       7.554   0.207 -14.966  0.00  0.00     0.002 A 
ATOM     25  C   UNL d   1       6.428   0.939 -14.561  0.00  0.00     0.002 A 
ATOM     26  C   UNL d   1       6.574   2.256 -14.103  0.00  0.00     0.019 A 
BRANCH  22  27
ATOM     27  O   UNL d   1      10.225   2.739 -14.325  0.00  0.00    -0.327 OA
ATOM     28  C   UNL d   1      11.372   2.017 -14.696  0.00  0.00     0.181 C 
ENDBRANCH  22  27
ENDBRANCH   1  21
TORSDOF 8
