REMARK  10 active torsions:
REMARK  status: ('A' for Active; 'I' for Inactive)
REMARK    1  A    between atoms: O_2  and  C_3 
REMARK    2  A    between atoms: C_8  and  N_9 
REMARK    3  A    between atoms: N_13  and  C_14 
REMARK    4  A    between atoms: C_14  and  C_15 
REMARK    5  A    between atoms: C_15  and  C_16 
REMARK    6  A    between atoms: C_16  and  C_17 
REMARK    7  A    between atoms: C_17  and  N_18 
REMARK       I    between atoms: N_18  and  C_19 
REMARK    8  A    between atoms: C_19  and  C_21 
REMARK    9  A    between atoms: C_25  and  O_26 
REMARK   10  A    between atoms: C_28  and  O_29 
ROOT
ATOM      1  C   UNL d   1       5.478   3.180 -12.875  0.00  0.00     0.250 C 
ENDROOT
BRANCH   1   2
ATOM      2  N   UNL d   1       6.430   2.244 -13.476  0.00  0.00     0.139 N 
ATOM      3  C   UNL d   1       6.142   0.869 -13.074  0.00  0.00     0.252 C 
ATOM      4  C   UNL d   1       7.324  -0.025 -13.321  0.00  0.00     0.059 C 
ATOM      5  C   UNL d   1       7.367  -0.670 -14.675  0.00  0.00     0.104 C 
ATOM      6  N   UNL d   1       7.173   0.229 -15.777  0.00  0.00    -0.345 N 
ATOM      7  C   UNL d   1       7.540   1.624 -15.682  0.00  0.00     0.137 C 
ATOM      8  C   UNL d   1       6.413   2.365 -14.928  0.00  0.00     0.274 C 
BRANCH   6   9
ATOM      9  C   UNL d   1       6.529  -0.310 -16.907  0.00  0.00     0.079 A 
ATOM     10  C   UNL d   1       5.213  -0.814 -16.794  0.00  0.00     0.110 A 
ATOM     11  C   UNL d   1       4.614  -1.364 -17.947  0.00  0.00     0.026 A 
ATOM     12  C   UNL d   1       5.316  -1.406 -19.170  0.00  0.00     0.002 A 
ATOM     13  C   UNL d   1       6.633  -0.922 -19.248  0.00  0.00     0.002 A 
ATOM     14  C   UNL d   1       7.247  -0.382 -18.108  0.00  0.00     0.019 A 
BRANCH  10  15
ATOM     15  O   UNL d   1       4.580  -0.731 -15.558  0.00  0.00    -0.327 OA
ATOM     16  C   UNL d   1       3.231  -1.143 -15.444  0.00  0.00     0.181 C 
ENDBRANCH  10  15
ENDBRANCH   6   9
ENDBRANCH   1   2
BRANCH   1  17
ATOM     17  C   UNL d   1       6.107   4.583 -12.778  0.00  0.00     0.037 C 
BRANCH  17  18
ATOM     18  C   UNL d   1       6.717   4.841 -11.403  0.00  0.00     0.029 C 
BRANCH  18  19
ATOM     19  C   UNL d   1       8.186   5.170 -11.306  0.00  0.00     0.129 C 
BRANCH  19  20
ATOM     20  N   UNL d   1       8.458   5.840 -10.027  0.00  0.00    -0.234 NA
ATOM     21  C   UNL d   1       9.633   6.508  -9.905  0.00  0.00     0.277 C 
ATOM     22  O   UNL d   1      10.448   6.515 -10.804  0.00  0.00    -0.266 OA
BRANCH  21  23
ATOM     23  C   UNL d   1       9.868   7.293  -8.632  0.00  0.00     0.082 A 
ATOM     24  C   UNL d   1      11.025   8.107  -8.414  0.00  0.00     0.121 A 
ATOM     25  C   UNL d   1      11.207   8.789  -7.168  0.00  0.00     0.116 A 
ATOM     26  C   UNL d   1      10.213   8.692  -6.170  0.00  0.00     0.026 A 
ATOM     27  C   UNL d   1       9.055   7.932  -6.409  0.00  0.00     0.002 A 
ATOM     28  C   UNL d   1       8.911   7.238  -7.593  0.00  0.00     0.007 A 
BRANCH  24  29
ATOM     29  O   UNL d   1      12.011   8.226  -9.359  0.00  0.00    -0.326 OA
ATOM     30  C   UNL d   1      11.743   9.185 -10.361  0.00  0.00     0.181 C 
ENDBRANCH  24  29
BRANCH  25  31
ATOM     31  O   UNL d   1      12.353   9.520  -6.926  0.00  0.00    -0.326 OA
ATOM     32  C   UNL d   1      12.390  10.224  -5.686  0.00  0.00     0.181 C 
ENDBRANCH  25  31
ENDBRANCH  21  23
ENDBRANCH  19  20
ENDBRANCH  18  19
ENDBRANCH  17  18
ENDBRANCH   1  17
TORSDOF 10
