REMARK  1 active torsions:
REMARK  status: ('A' for Active; 'I' for Inactive)
REMARK    1  A    between atoms: O_2  and  C_3 
ROOT
ATOM      1  C   UNL d   1       9.290   6.268 -10.460  0.00  0.00     0.119 A 
ATOM      2  C   UNL d   1       9.515   7.647 -10.257  0.00  0.00     0.022 A 
ATOM      3  C   UNL d   1      10.112   8.094  -9.059  0.00  0.00    -0.020 A 
ATOM      4  C   UNL d   1      10.503   7.200  -8.052  0.00  0.00     0.007 A 
ATOM      5  C   UNL d   1      10.306   5.859  -8.281  0.00  0.00     0.027 A 
ATOM      6  C   UNL d   1       9.732   5.395  -9.450  0.00  0.00     0.153 A 
ATOM      7  O   UNL d   1       9.677   4.061  -9.602  0.00  0.00    -0.188 OA
ATOM      8  C   UNL d   1      11.241   7.656  -6.808  0.00  0.00     0.246 C 
ATOM      9  C   UNL d   1      10.838   6.891  -5.521  0.00  0.00     0.070 C 
ATOM     10  C   UNL d   1      11.473   7.476  -4.301  0.00  0.00     0.007 A 
ATOM     11  S   UNL d   1      11.610   6.705  -2.755  0.00  0.00    -0.091 SA
ATOM     12  C   UNL d   1      12.367   8.081  -2.064  0.00  0.00     0.035 A 
ATOM     13  C   UNL d   1      12.532   9.050  -2.999  0.00  0.00     0.005 A 
ATOM     14  C   UNL d   1      12.018   8.715  -4.262  0.00  0.00     0.013 A 
ATOM     15  C   UNL d   1      12.046   9.516  -5.508  0.00  0.00     0.277 C 
ATOM     16  N   UNL d   1      11.105   9.090  -6.543  0.00  0.00     0.144 N 
ATOM     17  C   UNL d   1      11.408   9.794  -7.748  0.00  0.00     0.256 C 
ATOM     18  C   UNL d   1      10.318   9.536  -8.803  0.00  0.00     0.061 C 
ENDROOT
BRANCH   1  19
ATOM     19  O   UNL d   1       8.692   5.730 -11.579  0.00  0.00    -0.326 OA
ATOM     20  C   UNL d   1       8.107   6.644 -12.496  0.00  0.00     0.181 C 
ENDBRANCH   1  19
TORSDOF 1
