REMARK  4 active torsions:
REMARK  status: ('A' for Active; 'I' for Inactive)
REMARK    1  A    between atoms: C_9  and  C_10 
REMARK    2  A    between atoms: C_10  and  N_11 
REMARK    3  A    between atoms: N_11  and  C_12 
REMARK    4  A    between atoms: C_12  and  C_13 
ROOT
ATOM      1  O   UNL d   1       9.030   1.456 -14.711  0.00  0.00    -0.190 OA
ATOM      2  C   UNL d   1       8.348   2.529 -14.218  0.00  0.00     0.133 A 
ATOM      3  C   UNL d   1       6.947   2.453 -14.060  0.00  0.00     0.027 A 
ATOM      4  C   UNL d   1       6.241   3.546 -13.525  0.00  0.00    -0.000 A 
ATOM      5  C   UNL d   1       6.922   4.722 -13.151  0.00  0.00     0.000 A 
ATOM      6  C   UNL d   1       8.325   4.801 -13.305  0.00  0.00     0.092 A 
ATOM      7  C   UNL d   1       9.034   3.700 -13.839  0.00  0.00     0.051 A 
ATOM      8  O   UNL d   1       9.027   5.939 -12.981  0.00  0.00    -0.331 OA
ATOM      9  C   UNL d   1       8.365   6.883 -12.141  0.00  0.00     0.158 C 
ATOM     10  C   UNL d   1       6.958   7.192 -12.649  0.00  0.00     0.037 C 
ATOM     11  C   UNL d   1       6.128   5.907 -12.630  0.00  0.00     0.031 C 
ENDROOT
BRANCH   9  12
ATOM     12  C   UNL d   1       9.249   8.148 -12.072  0.00  0.00     0.320 C 
BRANCH  12  13
ATOM     13  N   UNL d   1       9.461   8.544 -10.694  0.00  0.00     0.346 N 
BRANCH  13  14
ATOM     14  C   UNL d   1      10.449   7.690 -10.072  0.00  0.00     0.317 C 
BRANCH  14  15
ATOM     15  C   UNL d   1      10.511   7.841  -8.568  0.00  0.00     0.019 A 
ATOM     16  C   UNL d   1       9.826   6.956  -7.706  0.00  0.00     0.028 A 
ATOM     17  C   UNL d   1       9.939   7.117  -6.313  0.00  0.00     0.005 A 
ATOM     18  I   UNL d   1       8.659   5.373  -8.435  0.00  0.00    -0.043 I 
ATOM     19  C   UNL d   1      10.733   8.150  -5.777  0.00  0.00     0.000 A 
ATOM     20  C   UNL d   1      11.415   9.033  -6.632  0.00  0.00    -0.000 A 
ATOM     21  C   UNL d   1      11.300   8.877  -8.027  0.00  0.00    -0.002 A 
ENDBRANCH  14  15
ENDBRANCH  13  14
ENDBRANCH  12  13
ENDBRANCH   9  12
TORSDOF 4
