REMARK  8 active torsions:
REMARK  status: ('A' for Active; 'I' for Inactive)
REMARK    1  A    between atoms: O_2  and  C_3 
REMARK    2  A    between atoms: C_8  and  N_9 
REMARK    3  A    between atoms: N_12  and  C_13 
REMARK    4  A    between atoms: C_13  and  C_14 
REMARK    5  A    between atoms: C_14  and  C_15 
REMARK    6  A    between atoms: C_15  and  C_16 
REMARK    7  A    between atoms: N_18  and  C_19 
REMARK    8  A    between atoms: C_24  and  O_25 
ROOT
ATOM      1  C   UNL d   1      12.953   4.102 -16.999  0.00  0.00     0.251 C 
ENDROOT
BRANCH   1   2
ATOM      2  N   UNL d   1      12.278   3.912 -15.719  0.00  0.00     0.141 N 
ATOM      3  C   UNL d   1      11.431   2.714 -15.782  0.00  0.00     0.274 C 
ATOM      4  C   UNL d   1      10.713   2.480 -14.437  0.00  0.00     0.137 C 
ATOM      5  N   UNL d   1       9.957   3.672 -14.073  0.00  0.00    -0.343 N 
ATOM      6  C   UNL d   1      10.736   4.900 -14.084  0.00  0.00     0.137 C 
ATOM      7  C   UNL d   1      11.447   5.080 -15.429  0.00  0.00     0.274 C 
BRANCH   5   8
ATOM      8  C   UNL d   1       8.599   3.633 -13.707  0.00  0.00     0.079 A 
ATOM      9  C   UNL d   1       8.073   4.474 -12.685  0.00  0.00     0.110 A 
ATOM     10  C   UNL d   1       6.689   4.405 -12.376  0.00  0.00     0.026 A 
ATOM     11  C   UNL d   1       5.848   3.498 -13.040  0.00  0.00     0.002 A 
ATOM     12  C   UNL d   1       6.372   2.653 -14.032  0.00  0.00     0.002 A 
ATOM     13  C   UNL d   1       7.733   2.734 -14.373  0.00  0.00     0.019 A 
BRANCH   9  14
ATOM     14  O   UNL d   1       8.944   5.296 -11.997  0.00  0.00    -0.327 OA
ATOM     15  C   UNL d   1       8.409   6.332 -11.194  0.00  0.00     0.181 C 
ENDBRANCH   9  14
ENDBRANCH   5   8
ENDBRANCH   1   2
BRANCH   1  16
ATOM     16  C   UNL d   1      14.135   5.085 -16.863  0.00  0.00     0.042 C 
BRANCH  16  17
ATOM     17  C   UNL d   1      15.296   4.724 -17.799  0.00  0.00     0.051 C 
BRANCH  17  18
ATOM     18  C   UNL d   1      16.491   5.609 -17.611  0.00  0.00     0.101 A 
ATOM     19  N   UNL d   1      17.250   5.592 -16.439  0.00  0.00    -0.133 NA
ATOM     20  N   UNL d   1      18.252   6.402 -16.570  0.00  0.00    -0.060 NA
ATOM     21  N   UNL d   1      18.151   6.973 -17.794  0.00  0.00    -0.207 N 
ATOM     22  C   UNL d   1      17.063   6.483 -18.490  0.00  0.00     0.119 A 
BRANCH  21  23
ATOM     23  C   UNL d   1      19.078   7.950 -18.213  0.00  0.00     0.107 A 
ATOM     24  C   UNL d   1      20.000   7.673 -19.249  0.00  0.00     0.112 A 
ATOM     25  C   UNL d   1      20.907   8.691 -19.642  0.00  0.00     0.026 A 
ATOM     26  C   UNL d   1      20.887   9.954 -19.017  0.00  0.00     0.002 A 
ATOM     27  C   UNL d   1      19.963  10.218 -17.991  0.00  0.00     0.002 A 
ATOM     28  C   UNL d   1      19.059   9.218 -17.594  0.00  0.00     0.021 A 
BRANCH  24  29
ATOM     29  O   UNL d   1      19.970   6.417 -19.824  0.00  0.00    -0.327 OA
ATOM     30  C   UNL d   1      20.850   6.155 -20.909  0.00  0.00     0.181 C 
ENDBRANCH  24  29
ENDBRANCH  21  23
ENDBRANCH  17  18
ENDBRANCH  16  17
ENDBRANCH   1  16
TORSDOF 8
