REMARK  4 active torsions:
REMARK  status: ('A' for Active; 'I' for Inactive)
REMARK    1  A    between atoms: N_2  and  C_4 
REMARK    2  A    between atoms: C_4  and  C_5 
REMARK    3  A    between atoms: N_9  and  S_10 
REMARK    4  A    between atoms: S_10  and  C_13 
ROOT
ATOM      1  C   UNL d   1       9.368   2.144 -16.430  0.00  0.00     0.105 C 
ATOM      2  C   UNL d   1       9.850   3.247 -15.803  0.00  0.00     0.019 C 
ATOM      3  C   UNL d   1       9.197   3.671 -14.578  0.00  0.00     0.006 C 
ATOM      4  C   UNL d   1       9.220   4.792 -13.868  0.00  0.00     0.087 C 
ATOM      5  N   UNL d   1       8.217   4.778 -12.866  0.00  0.00    -0.235 N 
ATOM      6  C   UNL d   1       7.466   3.599 -13.091  0.00  0.00     0.059 C 
ATOM      7  C   UNL d   1       6.212   3.234 -12.733  0.00  0.00     0.014 C 
ATOM      8  C   UNL d   1       5.700   1.955 -13.256  0.00  0.00    -0.001 C 
ATOM      9  C   UNL d   1       6.259   1.389 -14.363  0.00  0.00     0.004 C 
ATOM     10  C   UNL d   1       7.392   2.113 -15.068  0.00  0.00     0.152 C 
ATOM     11  O   UNL d   1       8.216   1.450 -16.036  0.00  0.00    -0.331 OA
ATOM     12  C   UNL d   1       8.264   2.716 -13.990  0.00  0.00     0.095 C 
ENDROOT
BRANCH   5  13
ATOM     13  S   UNL d   1       7.629   6.222 -12.157  0.00  0.00     0.271 S 
ATOM     14  O   UNL d   1       7.482   7.187 -13.232  0.00  0.00    -0.200 OA
ATOM     15  O   UNL d   1       6.461   5.894 -11.333  0.00  0.00    -0.200 OA
BRANCH  13  16
ATOM     16  C   UNL d   1       8.955   6.697 -11.059  0.00  0.00     0.104 A 
ATOM     17  C   UNL d   1       9.265   5.869  -9.963  0.00  0.00     0.013 A 
ATOM     18  C   UNL d   1      10.260   6.271  -9.054  0.00  0.00     0.001 A 
ATOM     19  C   UNL d   1      10.941   7.492  -9.244  0.00  0.00     0.000 A 
ATOM     20  C   UNL d   1      10.612   8.324 -10.333  0.00  0.00     0.001 A 
ATOM     21  C   UNL d   1       9.610   7.931 -11.240  0.00  0.00     0.013 A 
ENDBRANCH  13  16
ENDBRANCH   5  13
BRANCH   1  22
ATOM     22  C   UNL d   1      10.054   1.486 -17.608  0.00  0.00     0.301 C 
BRANCH  22  23
ATOM     23  N   UNL d   1      10.086   0.024 -17.511  0.00  0.00     0.148 N 
ATOM     24  C   UNL d   1      11.021  -0.507 -18.500  0.00  0.00     0.286 C 
ATOM     25  C   UNL d   1      10.478  -0.439 -16.188  0.00  0.00     0.286 C 
ENDBRANCH  22  23
ENDBRANCH   1  22
TORSDOF 4
