REMARK  0 active torsions:
REMARK  status: ('A' for Active; 'I' for Inactive)
ROOT
ATOM      1  O   UNL d   1       9.015   4.509 -11.230  0.00  0.00    -0.188 OA
ATOM      2  C   UNL d   1       9.363   5.296 -10.195  0.00  0.00     0.156 A 
ATOM      3  C   UNL d   1      10.165   6.390 -10.536  0.00  0.00     0.025 A 
ATOM      4  C   UNL d   1      10.586   7.275  -9.563  0.00  0.00    -0.024 A 
ATOM      5  C   UNL d   1      10.180   7.109  -8.197  0.00  0.00    -0.018 A 
ATOM      6  C   UNL d   1       9.332   6.038  -7.867  0.00  0.00     0.025 A 
ATOM      7  C   UNL d   1       8.975   5.086  -8.842  0.00  0.00     0.156 A 
ATOM      8  O   UNL d   1       8.271   4.006  -8.443  0.00  0.00    -0.188 OA
ATOM      9  C   UNL d   1      10.471   8.190  -7.159  0.00  0.00     0.078 C 
ATOM     10  C   UNL d   1      11.101   7.870  -5.806  0.00  0.00    -0.018 A 
ATOM     11  C   UNL d   1      11.281   6.570  -5.361  0.00  0.00    -0.004 A 
ATOM     12  C   UNL d   1      11.911   6.371  -4.128  0.00  0.00    -0.000 A 
ATOM     13  C   UNL d   1      12.350   7.389  -3.295  0.00  0.00    -0.000 A 
ATOM     14  C   UNL d   1      12.252   8.709  -3.750  0.00  0.00    -0.003 A 
ATOM     15  C   UNL d   1      11.658   8.917  -5.010  0.00  0.00     0.010 A 
ATOM     16  C   UNL d   1      11.728  10.288  -5.564  0.00  0.00     0.316 C 
ATOM     17  N   UNL d   1      11.101  10.420  -6.846  0.00  0.00     0.342 N 
ATOM     18  C   UNL d   1      11.341   9.309  -7.737  0.00  0.00     0.265 C 
ATOM     19  C   UNL d   1      10.931   9.583  -9.191  0.00  0.00     0.041 C 
ATOM     20  C   UNL d   1      11.340   8.460 -10.075  0.00  0.00     0.028 C 
ENDROOT
TORSDOF 0
