REMARK  4 active torsions:
REMARK  status: ('A' for Active; 'I' for Inactive)
REMARK    1  A    between atoms: C_16  and  C_17 
REMARK       I    between atoms: C_17  and  N_19 
REMARK    2  A    between atoms: N_19  and  C_20 
REMARK    3  A    between atoms: C_20  and  C_21 
REMARK    4  A    between atoms: C_21  and  C_22 
ROOT
ATOM      1  C   UNL d   1      13.854   5.421 -19.214  0.00  0.00     0.134 C 
ATOM      2  N   UNL d   1      13.393   4.035 -19.384  0.00  0.00    -0.293 N 
ATOM      3  C   UNL d   1      14.222   3.188 -20.059  0.00  0.00     0.261 C 
ATOM      4  O   UNL d   1      15.273   3.568 -20.582  0.00  0.00    -0.267 OA
ATOM      5  C   UNL d   1      13.955   1.704 -20.089  0.00  0.00     0.065 A 
ATOM      6  C   UNL d   1      15.040   0.831 -19.845  0.00  0.00     0.005 A 
ATOM      7  C   UNL d   1      14.872  -0.562 -19.926  0.00  0.00     0.000 A 
ATOM      8  C   UNL d   1      13.621  -1.100 -20.259  0.00  0.00     0.001 A 
ATOM      9  C   UNL d   1      12.536  -0.248 -20.528  0.00  0.00     0.009 A 
ATOM     10  C   UNL d   1      12.707   1.149 -20.454  0.00  0.00     0.065 A 
ATOM     11  S   UNL d   1      11.294   2.220 -20.834  0.00  0.00     0.090 S 
ATOM     12  O   UNL d   1      10.096   1.289 -20.999  0.00  0.00    -0.247 OA
ATOM     13  C   UNL d   1      11.192   2.856 -19.146  0.00  0.00     0.076 A 
ATOM     14  C   UNL d   1      10.042   2.560 -18.381  0.00  0.00     0.011 A 
ATOM     15  C   UNL d   1       9.922   3.063 -17.079  0.00  0.00     0.005 A 
ATOM     16  C   UNL d   1      10.960   3.844 -16.530  0.00  0.00     0.059 A 
ATOM     17  C   UNL d   1      12.104   4.133 -17.302  0.00  0.00     0.023 A 
ATOM     18  C   UNL d   1      12.246   3.639 -18.619  0.00  0.00     0.071 A 
ENDROOT
BRANCH  16  19
ATOM     19  C   UNL d   1      10.859   4.412 -15.150  0.00  0.00     0.275 C 
ATOM     20  O   UNL d   1      11.495   5.422 -14.839  0.00  0.00    -0.266 OA
ATOM     21  N   UNL d   1      10.098   3.716 -14.302  0.00  0.00    -0.234 NA
BRANCH  21  22
ATOM     22  C   UNL d   1       9.947   3.994 -12.886  0.00  0.00     0.134 C 
BRANCH  22  23
ATOM     23  C   UNL d   1       9.220   5.327 -12.627  0.00  0.00     0.059 C 
BRANCH  23  24
ATOM     24  C   UNL d   1       9.371   5.806 -11.226  0.00  0.00     0.009 A 
ATOM     25  S   UNL d   1       8.931   4.812  -9.862  0.00  0.00    -0.091 SA
ATOM     26  C   UNL d   1       9.420   6.050  -8.747  0.00  0.00     0.035 A 
ATOM     27  C   UNL d   1       9.880   7.163  -9.398  0.00  0.00     0.007 A 
ATOM     28  C   UNL d   1       9.857   7.021 -10.815  0.00  0.00     0.003 A 
ENDBRANCH  23  24
ENDBRANCH  22  23
ENDBRANCH  21  22
ENDBRANCH  16  19
TORSDOF 4
