REMARK  5 active torsions:
REMARK  status: ('A' for Active; 'I' for Inactive)
REMARK    1  A    between atoms: N_10  and  C_11 
REMARK    2  A    between atoms: N_14  and  C_15 
REMARK    3  A    between atoms: N_18  and  C_19 
REMARK    4  A    between atoms: C_19  and  C_20 
REMARK    5  A    between atoms: C_25  and  N_26 
ROOT
ATOM      1  C   UNL d   1      10.222   8.743  -6.495  0.00  0.00     0.094 C 
ATOM      2  C   UNL d   1       9.224   7.584  -6.428  0.00  0.00     0.058 C 
ATOM      3  C   UNL d   1       8.718   7.220  -7.792  0.00  0.00     0.252 C 
ATOM      4  N   UNL d   1       9.804   6.963  -8.743  0.00  0.00     0.135 N 
ATOM      5  C   UNL d   1      10.591   8.197  -8.879  0.00  0.00     0.252 C 
ATOM      6  C   UNL d   1      11.264   8.552  -7.569  0.00  0.00     0.058 C 
ENDROOT
BRANCH   4   7
ATOM      7  C   UNL d   1       9.188   6.546 -10.018  0.00  0.00     0.223 C 
ATOM      8  C   UNL d   1      10.027   6.838 -11.223  0.00  0.00     0.069 C 
ATOM      9  C   UNL d   1       9.430   6.339 -12.528  0.00  0.00     0.253 C 
ATOM     10  N   UNL d   1       9.218   4.907 -12.459  0.00  0.00     0.141 N 
ATOM     11  C   UNL d   1       8.243   4.662 -11.398  0.00  0.00     0.253 C 
ATOM     12  C   UNL d   1       8.818   5.066 -10.023  0.00  0.00     0.069 C 
BRANCH  10  13
ATOM     13  C   UNL d   1       8.737   4.447 -13.756  0.00  0.00     0.278 C 
BRANCH  13  14
ATOM     14  C   UNL d   1       9.150   3.024 -14.078  0.00  0.00     0.033 A 
ATOM     15  C   UNL d   1      10.485   2.714 -14.443  0.00  0.00     0.124 A 
ATOM     16  C   UNL d   1      10.813   1.384 -14.772  0.00  0.00     0.023 A 
ATOM     17  C   UNL d   1       9.845   0.368 -14.735  0.00  0.00     0.002 A 
ATOM     18  C   UNL d   1       8.518   0.681 -14.398  0.00  0.00    -0.000 A 
ATOM     19  C   UNL d   1       8.172   2.008 -14.080  0.00  0.00    -0.001 A 
BRANCH  15  20
ATOM     20  N   UNL d   1      11.529   3.746 -14.564  0.00  0.00    -0.114 N 
ATOM     21  O   UNL d   1      11.944   4.306 -13.563  0.00  0.00    -0.532 OA
ATOM     22  O   UNL d   1      11.960   3.982 -15.683  0.00  0.00    -0.532 OA
ENDBRANCH  15  20
ENDBRANCH  13  14
ENDBRANCH  10  13
ENDBRANCH   4   7
BRANCH   1  23
ATOM     23  N   UNL d   1      10.873   9.005  -5.215  0.00  0.00    -0.281 N 
ATOM     24  C   UNL d   1      10.893  10.144  -4.532  0.00  0.00     0.350 A 
ATOM     25  O   UNL d   1      10.415  11.174  -4.876  0.00  0.00    -0.244 OA
ATOM     26  N   UNL d   1      11.539   9.980  -3.357  0.00  0.00    -0.191 NA
ATOM     27  C   UNL d   1      11.918   8.666  -3.274  0.00  0.00     0.102 A 
ATOM     28  C   UNL d   1      11.478   8.053  -4.432  0.00  0.00     0.082 A 
ATOM     29  C   UNL d   1      12.582   8.008  -2.243  0.00  0.00     0.021 A 
ATOM     30  C   UNL d   1      11.652   6.710  -4.666  0.00  0.00     0.019 A 
ATOM     31  C   UNL d   1      12.271   6.082  -3.611  0.00  0.00     0.002 A 
ATOM     32  C   UNL d   1      12.678   6.622  -2.417  0.00  0.00     0.002 A 
ENDBRANCH   1  23
TORSDOF 5
