REMARK  6 active torsions:
REMARK  status: ('A' for Active; 'I' for Inactive)
REMARK    1  A    between atoms: C_2  and  C_3 
REMARK    2  A    between atoms: N_13  and  C_14 
REMARK    3  A    between atoms: C_14  and  C_15 
REMARK    4  A    between atoms: C_15  and  C_17 
REMARK    5  A    between atoms: C_17  and  N_18 
REMARK    6  A    between atoms: N_21  and  C_22 
ROOT
ATOM      1  C   UNL d   1       8.702   4.462 -12.707  0.00  0.00     0.208 C 
ATOM      2  O   UNL d   1       7.405   5.008 -12.585  0.00  0.00    -0.219 OA
ENDROOT
BRANCH   1   3
ATOM      3  C   UNL d   1       8.943   4.031 -14.158  0.00  0.00     0.148 C 
BRANCH   3   4
ATOM      4  N   UNL d   1       8.533   2.641 -14.389  0.00  0.00    -0.247 N 
ATOM      5  C   UNL d   1       9.373   1.601 -14.511  0.00  0.00     0.348 A 
ATOM      6  N   UNL d   1       8.644   0.489 -14.690  0.00  0.00    -0.209 NA
ATOM      7  O   UNL d   1      10.600   1.642 -14.465  0.00  0.00    -0.245 OA
ATOM      8  C   UNL d   1       7.209   0.727 -14.693  0.00  0.00     0.179 A 
ATOM      9  C   UNL d   1       6.519  -0.021 -13.524  0.00  0.00     0.039 C 
ATOM     10  C   UNL d   1       7.254   2.238 -14.451  0.00  0.00     0.265 A 
ATOM     11  O   UNL d   1       6.255   2.943 -14.351  0.00  0.00    -0.269 OA
BRANCH   8  12
ATOM     12  C   UNL d   1       6.571   0.423 -16.059  0.00  0.00     0.006 A 
ATOM     13  C   UNL d   1       7.124   0.955 -17.248  0.00  0.00     0.000 A 
ATOM     14  C   UNL d   1       6.537   0.680 -18.500  0.00  0.00     0.029 A 
ATOM     15  C   UNL d   1       5.395  -0.137 -18.581  0.00  0.00     0.140 A 
ATOM     16  C   UNL d   1       4.843  -0.685 -17.412  0.00  0.00     0.029 A 
ATOM     17  F   UNL d   1       4.828  -0.394 -19.780  0.00  0.00    -0.204 F 
ATOM     18  C   UNL d   1       5.421  -0.403 -16.163  0.00  0.00     0.000 A 
ENDBRANCH   8  12
ENDBRANCH   3   4
ENDBRANCH   1   3
BRANCH   1  19
ATOM     19  C   UNL d   1       9.680   5.575 -12.295  0.00  0.00     0.285 C 
BRANCH  19  20
ATOM     20  N   UNL d   1       9.279   6.311 -11.090  0.00  0.00     0.144 N 
ATOM     21  C   UNL d   1      10.079   7.527 -10.933  0.00  0.00     0.274 C 
ATOM     22  C   UNL d   1       9.681   8.377  -9.726  0.00  0.00     0.137 C 
ATOM     23  N   UNL d   1       9.721   7.539  -8.516  0.00  0.00    -0.344 N 
ATOM     24  C   UNL d   1       8.956   6.287  -8.626  0.00  0.00     0.137 C 
ATOM     25  C   UNL d   1       9.401   5.507  -9.867  0.00  0.00     0.274 C 
BRANCH  23  26
ATOM     26  C   UNL d   1      10.400   7.957  -7.328  0.00  0.00     0.057 A 
ATOM     27  C   UNL d   1      10.589   7.082  -6.239  0.00  0.00     0.029 A 
ATOM     28  C   UNL d   1      11.285   7.507  -5.076  0.00  0.00     0.070 A 
ATOM     29  C   UNL d   1      11.782   8.823  -4.999  0.00  0.00     0.068 A 
ATOM     30 CL   UNL d   1      11.541   6.419  -3.770  0.00  0.00    -0.081 Cl
ATOM     31  C   UNL d   1      11.599   9.710  -6.076  0.00  0.00     0.014 A 
ATOM     32 CL   UNL d   1      12.620   9.306  -3.584  0.00  0.00    -0.082 Cl
ATOM     33  C   UNL d   1      10.910   9.264  -7.227  0.00  0.00     0.018 A 
ENDBRANCH  23  26
ENDBRANCH  19  20
ENDBRANCH   1  19
TORSDOF 6
