REMARK  5 active torsions:
REMARK  status: ('A' for Active; 'I' for Inactive)
REMARK    1  A    between atoms: N_2  and  C_4 
REMARK    2  A    between atoms: C_4  and  C_5 
REMARK    3  A    between atoms: C_5  and  C_6 
REMARK    4  A    between atoms: N_8  and  S_9 
REMARK    5  A    between atoms: S_9  and  C_12 
ROOT
ATOM      1  C   UNL d   1       8.557   4.522 -13.645  0.00  0.00    -0.001 A 
ATOM      2  C   UNL d   1       9.596   4.014 -14.379  0.00  0.00     0.087 A 
ATOM      3  N   UNL d   1       9.280   2.737 -14.821  0.00  0.00    -0.231 N 
ATOM      4  C   UNL d   1       8.011   2.391 -14.387  0.00  0.00     0.075 A 
ATOM      5  C   UNL d   1       7.229   1.227 -14.549  0.00  0.00     0.018 A 
ATOM      6  C   UNL d   1       5.945   1.157 -13.977  0.00  0.00     0.002 A 
ATOM      7  C   UNL d   1       5.462   2.252 -13.240  0.00  0.00     0.000 A 
ATOM      8  C   UNL d   1       6.216   3.431 -13.116  0.00  0.00     0.001 A 
ATOM      9  C   UNL d   1       7.525   3.523 -13.654  0.00  0.00     0.014 A 
ENDROOT
BRANCH   3  10
ATOM     10  S   UNL d   1      10.328   1.756 -15.774  0.00  0.00     0.271 S 
ATOM     11  O   UNL d   1      11.594   2.497 -15.873  0.00  0.00    -0.200 OA
ATOM     12  O   UNL d   1      10.280   0.407 -15.183  0.00  0.00    -0.200 OA
BRANCH  10  13
ATOM     13  C   UNL d   1       9.526   1.743 -17.374  0.00  0.00     0.104 A 
ATOM     14  C   UNL d   1       8.649   0.692 -17.712  0.00  0.00     0.013 A 
ATOM     15  C   UNL d   1       7.990   0.706 -18.956  0.00  0.00     0.001 A 
ATOM     16  C   UNL d   1       8.227   1.755 -19.865  0.00  0.00     0.000 A 
ATOM     17  C   UNL d   1       9.111   2.799 -19.528  0.00  0.00     0.001 A 
ATOM     18  C   UNL d   1       9.760   2.799 -18.277  0.00  0.00     0.013 A 
ENDBRANCH  10  13
ENDBRANCH   3  10
BRANCH   1  19
ATOM     19  C   UNL d   1       8.509   5.869 -12.992  0.00  0.00     0.063 C 
BRANCH  19  20
ATOM     20  C   UNL d   1       8.039   5.808 -11.521  0.00  0.00     0.255 C 
BRANCH  20  21
ATOM     21  N   UNL d   1       9.093   5.359 -10.616  0.00  0.00     0.142 N 
ATOM     22  C   UNL d   1       8.491   4.894  -9.372  0.00  0.00     0.285 C 
ATOM     23  C   UNL d   1       9.958   6.488 -10.293  0.00  0.00     0.285 C 
ENDBRANCH  20  21
ENDBRANCH  19  20
ENDBRANCH   1  19
TORSDOF 5
