REMARK  0 active torsions:
REMARK  status: ('A' for Active; 'I' for Inactive)
ROOT
ATOM      1  C   UNL d   1       7.687   6.303 -12.250  0.00  0.00     0.038 C 
ATOM      2  C   UNL d   1       8.061   5.053 -12.975  0.00  0.00     0.003 A 
ATOM      3  S   UNL d   1       9.694   4.786 -13.502  0.00  0.00    -0.096 SA
ATOM      4  C   UNL d   1       9.290   3.218 -14.149  0.00  0.00     0.008 A 
ATOM      5  C   UNL d   1      10.397   2.360 -14.666  0.00  0.00     0.038 C 
ATOM      6  C   UNL d   1       7.938   2.960 -14.039  0.00  0.00     0.015 A 
ATOM      7  C   UNL d   1       7.257   3.991 -13.303  0.00  0.00    -0.018 A 
ATOM      8  C   UNL d   1       5.788   3.880 -12.940  0.00  0.00     0.031 C 
ATOM      9  C   UNL d   1       5.292   2.414 -12.807  0.00  0.00     0.034 C 
ATOM     10  C   UNL d   1       5.915   1.553 -13.873  0.00  0.00     0.016 A 
ATOM     11  C   UNL d   1       5.460   0.387 -14.546  0.00  0.00     0.117 A 
ATOM     12  N   UNL d   1       6.298   0.006 -15.497  0.00  0.00    -0.168 NA
ATOM     13  N   UNL d   1       7.313   0.903 -15.469  0.00  0.00    -0.249 N 
ATOM     14  C   UNL d   1       8.327   0.816 -16.500  0.00  0.00     0.154 C 
ATOM     15  C   UNL d   1       7.124   1.812 -14.440  0.00  0.00     0.075 A 
ENDROOT
TORSDOF 0
