REMARK  7 active torsions:
REMARK  status: ('A' for Active; 'I' for Inactive)
REMARK    1  A    between atoms: C_2  and  C_3 
REMARK    2  A    between atoms: C_3  and  C_4 
REMARK    3  A    between atoms: C_4  and  C_5 
REMARK    4  A    between atoms: C_5  and  N_6 
REMARK    5  A    between atoms: N_6  and  C_7 
REMARK    6  A    between atoms: N_6  and  C_18 
REMARK    7  A    between atoms: C_7  and  C_8 
ROOT
ATOM      1  N   UNL d   1      10.761   4.259 -15.271  0.00  0.00     0.143 N 
ENDROOT
BRANCH   1   2
ATOM      2  C   UNL d   1      10.961   4.259 -13.803  0.00  0.00     0.251 C 
BRANCH   2   3
ATOM      3  C   UNL d   1      10.056   5.238 -13.005  0.00  0.00     0.038 C 
BRANCH   3   4
ATOM      4  C   UNL d   1       8.803   4.621 -12.350  0.00  0.00     0.043 C 
BRANCH   4   5
ATOM      5  C   UNL d   1       8.123   5.484 -11.298  0.00  0.00     0.339 C 
ATOM      6  N   UNL d   1       7.535   6.589 -12.037  0.00  0.00     0.618 N 
ENDBRANCH   4   5
ENDBRANCH   3   4
ENDBRANCH   2   3
ENDBRANCH   1   2
BRANCH   1   7
ATOM      7  C   UNL d   1      10.867   2.918 -15.892  0.00  0.00     0.287 C 
BRANCH   7   8
ATOM      8  C   UNL d   1       9.798   1.885 -15.491  0.00  0.00     0.294 C 
ATOM      9  N   UNL d   1       9.474   0.965 -16.578  0.00  0.00     0.346 N 
ATOM     10  C   UNL d   1       8.544  -0.088 -16.134  0.00  0.00     0.335 C 
ATOM     11  C   UNL d   1       7.354   0.372 -15.295  0.00  0.00     0.091 A 
ATOM     12  C   UNL d   1       7.365   1.675 -14.721  0.00  0.00    -0.004 A 
ATOM     13  N   UNL d   1       6.351  -0.485 -15.062  0.00  0.00    -0.247 NA
ATOM     14  C   UNL d   1       8.531   2.558 -14.980  0.00  0.00     0.066 C 
ATOM     15  C   UNL d   1       6.324   2.069 -13.885  0.00  0.00    -0.001 A 
ATOM     16  C   UNL d   1       5.305   1.156 -13.608  0.00  0.00     0.020 A 
ATOM     17  C   UNL d   1       5.351  -0.109 -14.240  0.00  0.00     0.099 A 
ENDBRANCH   7   8
ENDBRANCH   1   7
BRANCH   1  18
ATOM     18  C   UNL d   1      11.525   5.296 -16.007  0.00  0.00     0.259 C 
ATOM     19  C   UNL d   1      11.043   5.484 -17.463  0.00  0.00     0.086 A 
ATOM     20  C   UNL d   1      11.864   5.168 -18.583  0.00  0.00    -0.007 A 
ATOM     21  N   UNL d   1       9.778   5.942 -17.616  0.00  0.00    -0.247 NA
ATOM     22  C   UNL d   1      13.294   4.656 -18.446  0.00  0.00     0.028 C 
ATOM     23  C   UNL d   1      11.335   5.359 -19.878  0.00  0.00    -0.002 A 
ATOM     24  C   UNL d   1      13.654   4.190 -17.041  0.00  0.00     0.007 C 
ATOM     25  C   UNL d   1      13.072   5.117 -15.957  0.00  0.00     0.040 C 
ATOM     26  C   UNL d   1      10.024   5.845 -20.026  0.00  0.00     0.020 A 
ATOM     27  C   UNL d   1       9.287   6.119 -18.860  0.00  0.00     0.099 A 
ENDBRANCH   1  18
TORSDOF 7
