REMARK  2 active torsions:
REMARK  status: ('A' for Active; 'I' for Inactive)
REMARK    1  A    between atoms: C_4  and  C_5 
REMARK    2  A    between atoms: C_5  and  N_6 
ROOT
ATOM      1  N   UNL d   1       9.086   6.202 -11.639  0.00  0.00     0.142 N 
ATOM      2  C   UNL d   1       8.603   5.380 -10.537  0.00  0.00     0.254 C 
ATOM      3  C   UNL d   1       9.755   5.497  -9.608  0.00  0.00     0.070 C 
ATOM      4  C   UNL d   1       9.426   5.192  -8.178  0.00  0.00     0.151 C 
ATOM      5  O   UNL d   1       8.746   6.240  -7.557  0.00  0.00    -0.331 OA
ATOM      6  C   UNL d   1       9.562   7.317  -7.534  0.00  0.00     0.090 A 
ATOM      7  C   UNL d   1       9.534   8.053  -6.364  0.00  0.00     0.024 A 
ATOM      8  C   UNL d   1      10.276   9.212  -6.249  0.00  0.00     0.002 A 
ATOM      9  C   UNL d   1      11.078   9.612  -7.323  0.00  0.00    -0.000 A 
ATOM     10  C   UNL d   1      11.172   8.865  -8.529  0.00  0.00    -0.002 A 
ATOM     11  C   UNL d   1      10.400   7.694  -8.599  0.00  0.00     0.002 A 
ATOM     12  C   UNL d   1      10.419   6.824  -9.858  0.00  0.00     0.062 C 
ATOM     13  C   UNL d   1       9.610   7.397 -11.009  0.00  0.00     0.255 C 
ENDROOT
BRANCH   1  14
ATOM     14  C   UNL d   1       7.961   6.519 -12.490  0.00  0.00     0.277 C 
BRANCH  14  15
ATOM     15  C   UNL d   1       7.292   5.280 -12.993  0.00  0.00     0.011 A 
ATOM     16  C   UNL d   1       5.914   5.111 -12.752  0.00  0.00    -0.002 A 
ATOM     17  C   UNL d   1       5.257   3.976 -13.218  0.00  0.00    -0.000 A 
ATOM     18  C   UNL d   1       5.987   2.961 -13.899  0.00  0.00    -0.000 A 
ATOM     19  C   UNL d   1       7.359   3.147 -14.154  0.00  0.00    -0.000 A 
ATOM     20  C   UNL d   1       8.021   4.288 -13.712  0.00  0.00    -0.002 A 
ENDBRANCH  14  15
ENDBRANCH   1  14
TORSDOF 2
