REMARK  10 active torsions:
REMARK  status: ('A' for Active; 'I' for Inactive)
REMARK    1  A    between atoms: C_6  and  C_7 
REMARK    2  A    between atoms: C_7  and  N_8 
REMARK       I    between atoms: N_8  and  C_9 
REMARK    3  A    between atoms: C_9  and  C_11 
REMARK    4  A    between atoms: C_11  and  C_12 
REMARK    5  A    between atoms: C_12  and  O_13 
REMARK    6  A    between atoms: O_13  and  C_14 
REMARK    7  A    between atoms: C_14  and  C_15 
REMARK    8  A    between atoms: C_15  and  N_16 
REMARK    9  A    between atoms: N_19  and  C_20 
REMARK   10  A    between atoms: C_25  and  C_26 
ROOT
ATOM      1  N   UNL d   1      11.826   7.913  -4.304  0.00  0.00    -0.191 NA
ATOM      2  C   UNL d   1      11.461   7.912  -5.404  0.00  0.00     0.101 C 
ATOM      3  C   UNL d   1      11.007   7.909  -6.785  0.00  0.00     0.068 A 
ATOM      4  C   UNL d   1      11.714   8.631  -7.772  0.00  0.00     0.010 A 
ATOM      5  C   UNL d   1      11.272   8.627  -9.110  0.00  0.00    -0.002 A 
ATOM      6  C   UNL d   1      10.124   7.897  -9.480  0.00  0.00     0.002 A 
ATOM      7  C   UNL d   1       9.424   7.172  -8.486  0.00  0.00    -0.002 A 
ATOM      8  C   UNL d   1       9.858   7.181  -7.149  0.00  0.00     0.010 A 
ENDROOT
BRANCH   6   9
ATOM      9  C   UNL d   1       9.633   7.941 -10.927  0.00  0.00     0.155 C 
BRANCH   9  10
ATOM     10  N   UNL d   1       8.684   6.884 -11.261  0.00  0.00    -0.233 NA
ATOM     11  C   UNL d   1       8.916   5.780 -11.972  0.00  0.00     0.254 C 
ATOM     12  O   UNL d   1       9.987   5.569 -12.541  0.00  0.00    -0.270 OA
BRANCH  11  13
ATOM     13  C   UNL d   1       7.784   4.759 -12.048  0.00  0.00     0.122 C 
BRANCH  13  14
ATOM     14  C   UNL d   1       7.853   3.907 -13.320  0.00  0.00     0.152 C 
BRANCH  14  15
ATOM     15  O   UNL d   1       9.050   3.143 -13.318  0.00  0.00    -0.352 OA
BRANCH  15  16
ATOM     16  C   UNL d   1       9.525   2.788 -14.604  0.00  0.00     0.178 C 
BRANCH  16  17
ATOM     17  C   UNL d   1       8.489   1.920 -15.345  0.00  0.00     0.282 C 
BRANCH  17  18
ATOM     18  N   UNL d   1       9.049   1.043 -16.352  0.00  0.00     0.144 N 
ATOM     19  C   UNL d   1       8.029   0.144 -16.895  0.00  0.00     0.274 C 
ATOM     20  C   UNL d   1       8.608  -0.838 -17.931  0.00  0.00     0.137 C 
ATOM     21  N   UNL d   1       9.335  -0.098 -18.958  0.00  0.00    -0.343 N 
ATOM     22  C   UNL d   1      10.292   0.890 -18.458  0.00  0.00     0.137 C 
ATOM     23  C   UNL d   1       9.654   1.808 -17.436  0.00  0.00     0.274 C 
BRANCH  21  24
ATOM     24  C   UNL d   1       9.135  -0.331 -20.341  0.00  0.00     0.074 A 
ATOM     25  C   UNL d   1      10.195  -0.324 -21.297  0.00  0.00     0.097 A 
ATOM     26  N   UNL d   1       9.965  -0.475 -22.625  0.00  0.00    -0.243 NA
ATOM     27  C   UNL d   1       8.698  -0.624 -23.061  0.00  0.00     0.099 A 
ATOM     28  C   UNL d   1       7.594  -0.671 -22.200  0.00  0.00     0.022 A 
ATOM     29  C   UNL d   1       7.816  -0.524 -20.822  0.00  0.00     0.020 A 
BRANCH  25  30
ATOM     30  C   UNL d   1      11.641  -0.172 -20.958  0.00  0.00     0.019 A 
ATOM     31  C   UNL d   1      12.186  -0.813 -19.826  0.00  0.00     0.002 A 
ATOM     32  C   UNL d   1      13.529  -0.678 -19.461  0.00  0.00     0.000 A 
ATOM     33  C   UNL d   1      14.389   0.116 -20.238  0.00  0.00     0.000 A 
ATOM     34  C   UNL d   1      13.883   0.752 -21.386  0.00  0.00     0.000 A 
ATOM     35  C   UNL d   1      12.522   0.607 -21.743  0.00  0.00     0.002 A 
ENDBRANCH  25  30
ENDBRANCH  21  24
ENDBRANCH  17  18
ENDBRANCH  16  17
ENDBRANCH  15  16
ENDBRANCH  14  15
ENDBRANCH  13  14
ENDBRANCH  11  13
ENDBRANCH   9  10
ENDBRANCH   6   9
TORSDOF 10
