REMARK  3 active torsions:
REMARK  status: ('A' for Active; 'I' for Inactive)
REMARK    1  A    between atoms: C_2  and  C_3 
REMARK    2  A    between atoms: C_3  and  N_4 
REMARK    3  A    between atoms: C_14  and  O_15 
ROOT
ATOM      1  N   UNL d   1       5.613  -0.585 -16.305  0.00  0.00     0.133 N 
ATOM      2  C   UNL d   1       4.993  -1.786 -16.882  0.00  0.00     0.219 C 
ATOM      3  C   UNL d   1       3.468  -1.678 -17.106  0.00  0.00     0.035 C 
ATOM      4  C   UNL d   1       5.753  -1.917 -18.201  0.00  0.00     0.035 C 
ATOM      5  C   UNL d   1       5.933  -0.475 -18.673  0.00  0.00     0.038 C 
ATOM      6  C   UNL d   1       7.244  -0.274 -19.465  0.00  0.00     0.028 C 
ATOM      7  C   UNL d   1       8.448  -0.103 -18.552  0.00  0.00    -0.024 A 
ATOM      8  C   UNL d   1       9.671  -0.727 -18.852  0.00  0.00    -0.004 A 
ATOM      9  C   UNL d   1      10.766  -0.565 -17.980  0.00  0.00     0.002 A 
ATOM     10  C   UNL d   1      10.631   0.206 -16.808  0.00  0.00     0.024 A 
ATOM     11  C   UNL d   1       9.399   0.838 -16.492  0.00  0.00     0.090 A 
ATOM     12  C   UNL d   1       8.316   0.686 -17.388  0.00  0.00    -0.002 A 
ATOM     13  C   UNL d   1       6.970   1.359 -17.145  0.00  0.00     0.061 C 
ATOM     14  C   UNL d   1       5.784   0.388 -17.392  0.00  0.00     0.224 C 
ENDROOT
BRANCH   1  15
ATOM     15  C   UNL d   1       4.967  -0.075 -15.093  0.00  0.00     0.250 C 
BRANCH  15  16
ATOM     16  C   UNL d   1       5.955   0.512 -14.063  0.00  0.00     0.035 C 
ATOM     17  C   UNL d   1       7.051  -0.494 -13.684  0.00  0.00     0.002 C 
ENDBRANCH  15  16
ENDBRANCH   1  15
BRANCH  11  18
ATOM     18  O   UNL d   1       9.208   1.597 -15.355  0.00  0.00    -0.328 OA
ATOM     19  C   UNL d   1      10.292   1.752 -14.449  0.00  0.00     0.181 C 
ENDBRANCH  11  18
TORSDOF 3
