REMARK  7 active torsions:
REMARK  status: ('A' for Active; 'I' for Inactive)
REMARK    1  A    between atoms: O_2  and  C_3 
REMARK    2  A    between atoms: C_8  and  N_9 
REMARK    3  A    between atoms: N_12  and  C_13 
REMARK    4  A    between atoms: C_13  and  C_14 
REMARK    5  A    between atoms: C_14  and  C_16 
REMARK    6  A    between atoms: C_16  and  N_17 
REMARK    7  A    between atoms: C_21  and  C_23 
ROOT
ATOM      1  C   UNL d   1       9.738   0.716 -15.060  0.00  0.00     0.208 C 
ATOM      2  O   UNL d   1      10.605  -0.365 -15.235  0.00  0.00    -0.219 OA
ENDROOT
BRANCH   1   3
ATOM      3  C   UNL d   1      10.588   2.010 -15.012  0.00  0.00     0.285 C 
BRANCH   3   4
ATOM      4  N   UNL d   1       9.866   3.190 -14.563  0.00  0.00     0.144 N 
ATOM      5  C   UNL d   1      10.750   4.330 -14.503  0.00  0.00     0.274 C 
ATOM      6  C   UNL d   1       9.950   5.535 -14.063  0.00  0.00     0.137 C 
ATOM      7  N   UNL d   1       9.290   5.343 -12.776  0.00  0.00    -0.343 N 
ATOM      8  C   UNL d   1       8.430   4.167 -12.768  0.00  0.00     0.137 C 
ATOM      9  C   UNL d   1       9.288   2.989 -13.232  0.00  0.00     0.274 C 
BRANCH   7  10
ATOM     10  C   UNL d   1       9.438   6.211 -11.689  0.00  0.00     0.079 A 
ATOM     11  C   UNL d   1       9.643   5.703 -10.378  0.00  0.00     0.110 A 
ATOM     12  C   UNL d   1       9.855   6.585  -9.297  0.00  0.00     0.026 A 
ATOM     13  C   UNL d   1       9.855   7.971  -9.499  0.00  0.00     0.002 A 
ATOM     14  C   UNL d   1       9.616   8.470 -10.792  0.00  0.00     0.002 A 
ATOM     15  C   UNL d   1       9.425   7.609 -11.878  0.00  0.00     0.019 A 
BRANCH  11  16
ATOM     16  O   UNL d   1       9.669   4.343 -10.247  0.00  0.00    -0.327 OA
ATOM     17  C   UNL d   1       9.842   3.826  -8.952  0.00  0.00     0.181 C 
ENDBRANCH  11  16
ENDBRANCH   7  10
ENDBRANCH   3   4
ENDBRANCH   1   3
BRANCH   1  18
ATOM     18  C   UNL d   1       8.670   0.680 -16.181  0.00  0.00     0.148 C 
BRANCH  18  19
ATOM     19  N   UNL d   1       9.213   0.830 -17.546  0.00  0.00    -0.247 N 
ATOM     20  C   UNL d   1       9.926  -0.112 -18.172  0.00  0.00     0.265 A 
ATOM     21  C   UNL d   1      10.382   0.435 -19.525  0.00  0.00     0.179 A 
ATOM     22  O   UNL d   1      10.175  -1.239 -17.745  0.00  0.00    -0.269 OA
ATOM     23  N   UNL d   1       9.678   1.713 -19.493  0.00  0.00    -0.209 NA
ATOM     24  C   UNL d   1       9.820  -0.456 -20.650  0.00  0.00     0.039 C 
ATOM     25  C   UNL d   1       9.045   1.907 -18.328  0.00  0.00     0.348 A 
ATOM     26  O   UNL d   1       8.407   2.912 -18.034  0.00  0.00    -0.245 OA
BRANCH  21  27
ATOM     27  C   UNL d   1      11.918   0.573 -19.562  0.00  0.00     0.006 A 
ATOM     28  C   UNL d   1      12.734  -0.581 -19.627  0.00  0.00     0.000 A 
ATOM     29  C   UNL d   1      14.135  -0.477 -19.703  0.00  0.00     0.029 A 
ATOM     30  C   UNL d   1      14.748   0.789 -19.688  0.00  0.00     0.140 A 
ATOM     31  C   UNL d   1      13.955   1.946 -19.587  0.00  0.00     0.029 A 
ATOM     32  F   UNL d   1      16.097   0.894 -19.756  0.00  0.00    -0.204 F 
ATOM     33  C   UNL d   1      12.551   1.841 -19.520  0.00  0.00     0.000 A 
ENDBRANCH  21  27
ENDBRANCH  18  19
ENDBRANCH   1  18
TORSDOF 7
