REMARK  3 active torsions:
REMARK  status: ('A' for Active; 'I' for Inactive)
REMARK    1  A    between atoms: N_3  and  C_4 
REMARK    2  A    between atoms: C_4  and  C_5 
REMARK    3  A    between atoms: N_13  and  C_14 
ROOT
ATOM      1  O   UNL d   1       9.194   8.355  -7.800  0.00  0.00    -0.247 OA
ATOM      2  C   UNL d   1      10.319   8.327  -8.298  0.00  0.00     0.328 A 
ATOM      3  N   UNL d   1      10.632   8.330  -9.601  0.00  0.00    -0.298 N 
ATOM      4  C   UNL d   1      12.060   8.320  -9.850  0.00  0.00     0.131 A 
ATOM      5  C   UNL d   1      12.652   8.320  -8.439  0.00  0.00     0.135 A 
ATOM      6  N   UNL d   1      11.462   8.291  -7.605  0.00  0.00    -0.278 N 
ENDROOT
BRANCH   3   7
ATOM      7  C   UNL d   1       9.689   8.328 -10.712  0.00  0.00     0.142 C 
BRANCH   7   8
ATOM      8  C   UNL d   1       8.987   6.962 -10.858  0.00  0.00     0.279 C 
ATOM      9  N   UNL d   1       8.161   7.006 -12.056  0.00  0.00     0.339 N 
ATOM     10  C   UNL d   1       7.347   5.800 -12.180  0.00  0.00     0.290 C 
ATOM     11  C   UNL d   1       8.247   4.569 -12.354  0.00  0.00     0.038 C 
ATOM     12  C   UNL d   1       9.191   4.460 -11.157  0.00  0.00     0.004 C 
ATOM     13  C   UNL d   1       9.931   5.779 -10.954  0.00  0.00     0.038 C 
ENDBRANCH   7   8
ENDBRANCH   3   7
BRANCH   6  14
ATOM     14  C   UNL d   1      11.492   8.308  -6.196  0.00  0.00     0.083 A 
ATOM     15  C   UNL d   1      11.661   9.518  -5.507  0.00  0.00     0.116 A 
ATOM     16  N   UNL d   1      11.749   9.585  -4.161  0.00  0.00    -0.241 NA
ATOM     17  C   UNL d   1      11.677   8.437  -3.458  0.00  0.00     0.099 A 
ATOM     18  C   UNL d   1      11.491   7.175  -4.058  0.00  0.00     0.022 A 
ATOM     19  C   UNL d   1      11.402   7.113  -5.463  0.00  0.00     0.021 A 
ENDBRANCH   6  14
TORSDOF 3
