REMARK  4 active torsions:
REMARK  status: ('A' for Active; 'I' for Inactive)
REMARK    1  A    between atoms: C_2  and  C_3 
REMARK    2  A    between atoms: C_3  and  O_4 
REMARK    3  A    between atoms: O_4  and  C_5 
REMARK    4  A    between atoms: C_13  and  O_14 
ROOT
ATOM      1  C   UNL d   1       8.363   4.973 -12.346  0.00  0.00     0.094 A 
ATOM      2  C   UNL d   1       7.167   5.349 -11.678  0.00  0.00     0.024 A 
ATOM      3  C   UNL d   1       5.934   4.824 -12.045  0.00  0.00     0.002 A 
ATOM      4  C   UNL d   1       5.833   3.860 -13.053  0.00  0.00    -0.004 A 
ATOM      5  C   UNL d   1       6.997   3.490 -13.739  0.00  0.00    -0.018 A 
ATOM      6  C   UNL d   1       8.249   4.081 -13.451  0.00  0.00     0.018 A 
ATOM      7  C   UNL d   1       9.404   3.704 -14.299  0.00  0.00     0.001 A 
ATOM      8  C   UNL d   1      10.523   4.544 -14.503  0.00  0.00     0.024 A 
ATOM      9  C   UNL d   1      11.616   4.211 -15.329  0.00  0.00     0.094 A 
ATOM     10  C   UNL d   1      11.592   2.976 -16.015  0.00  0.00     0.020 A 
ATOM     11  C   UNL d   1      10.494   2.116 -15.878  0.00  0.00    -0.020 A 
ATOM     12  C   UNL d   1       9.415   2.498 -15.038  0.00  0.00     0.005 A 
ATOM     13  C   UNL d   1       8.197   1.570 -14.857  0.00  0.00     0.246 C 
ATOM     14  C   UNL d   1       6.880   2.362 -14.742  0.00  0.00     0.064 C 
ATOM     15  N   UNL d   1       8.037   0.595 -15.931  0.00  0.00     0.142 N 
ATOM     16  C   UNL d   1       6.963  -0.354 -15.645  0.00  0.00     0.286 C 
ATOM     17  C   UNL d   1       9.288  -0.137 -16.026  0.00  0.00     0.255 C 
ATOM     18  C   UNL d   1      10.329   0.802 -16.619  0.00  0.00     0.061 C 
ENDROOT
BRANCH   1  19
ATOM     19  O   UNL d   1       9.605   5.394 -11.913  0.00  0.00    -0.326 OA
BRANCH  19  20
ATOM     20  C   UNL d   1       9.723   6.123 -10.684  0.00  0.00     0.175 C 
BRANCH  20  21
ATOM     21  C   UNL d   1       9.470   7.602 -10.847  0.00  0.00     0.006 C 
ATOM     22  C   UNL d   1      10.226   8.555 -10.286  0.00  0.00    -0.002 C 
ENDBRANCH  20  21
ENDBRANCH  19  20
ENDBRANCH   1  19
BRANCH   9  23
ATOM     23  O   UNL d   1      12.642   5.124 -15.413  0.00  0.00    -0.328 OA
ATOM     24  C   UNL d   1      13.577   4.974 -16.473  0.00  0.00     0.181 C 
ENDBRANCH   9  23
TORSDOF 4
