REMARK  2 active torsions:
REMARK  status: ('A' for Active; 'I' for Inactive)
REMARK    1  A    between atoms: N_10  and  C_11 
REMARK    2  A    between atoms: C_11  and  C_12 
ROOT
ATOM      1  F   UNL d   1      14.877   4.544 -19.489  0.00  0.00    -0.204 F 
ATOM      2  C   UNL d   1      14.112   4.706 -18.384  0.00  0.00     0.140 A 
ATOM      3  C   UNL d   1      13.977   5.980 -17.799  0.00  0.00     0.032 A 
ATOM      4  C   UNL d   1      13.186   6.148 -16.647  0.00  0.00     0.026 A 
ATOM      5  C   UNL d   1      12.532   5.041 -16.069  0.00  0.00     0.090 A 
ATOM      6  C   UNL d   1      12.646   3.766 -16.675  0.00  0.00     0.004 A 
ATOM      7  C   UNL d   1      13.442   3.601 -17.827  0.00  0.00     0.027 A 
ATOM      8  C   UNL d   1      11.861   2.592 -16.119  0.00  0.00     0.062 C 
ATOM      9  C   UNL d   1      10.627   2.271 -16.972  0.00  0.00     0.255 C 
ATOM     10  N   UNL d   1       9.653   1.782 -16.006  0.00  0.00     0.142 N 
ATOM     11  C   UNL d   1       9.799   2.736 -14.911  0.00  0.00     0.254 C 
ATOM     12  C   UNL d   1      11.300   2.828 -14.718  0.00  0.00     0.070 C 
ATOM     13  C   UNL d   1      11.777   4.121 -14.042  0.00  0.00     0.151 C 
ATOM     14  O   UNL d   1      11.784   5.228 -14.932  0.00  0.00    -0.331 OA
ENDROOT
BRANCH  10  15
ATOM     15  C   UNL d   1       8.309   1.758 -16.578  0.00  0.00     0.277 C 
BRANCH  15  16
ATOM     16  C   UNL d   1       7.236   1.262 -15.618  0.00  0.00     0.011 A 
ATOM     17  C   UNL d   1       6.803   2.077 -14.546  0.00  0.00    -0.002 A 
ATOM     18  C   UNL d   1       5.849   1.599 -13.639  0.00  0.00    -0.000 A 
ATOM     19  C   UNL d   1       5.267   0.331 -13.819  0.00  0.00    -0.000 A 
ATOM     20  C   UNL d   1       5.668  -0.475 -14.901  0.00  0.00    -0.000 A 
ATOM     21  C   UNL d   1       6.654  -0.011 -15.797  0.00  0.00    -0.002 A 
ENDBRANCH  15  16
ENDBRANCH  10  15
TORSDOF 2
