REMARK  9 active torsions:
REMARK  status: ('A' for Active; 'I' for Inactive)
REMARK    1  A    between atoms: C_3  and  S_4 
REMARK    2  A    between atoms: S_4  and  C_5 
REMARK    3  A    between atoms: C_5  and  C_6 
REMARK    4  A    between atoms: C_6  and  C_7 
REMARK    5  A    between atoms: C_7  and  N_8 
REMARK    6  A    between atoms: C_12  and  C_13 
REMARK    7  A    between atoms: C_16  and  C_17 
REMARK    8  A    between atoms: C_26  and  C_27 
REMARK    9  A    between atoms: C_30  and  S_31 
ROOT
ATOM      1  C   UNL d   1       6.591   5.250 -12.703  0.00  0.00     0.067 C 
ENDROOT
BRANCH   1   2
ATOM      2  S   UNL d   1       8.040   6.357 -12.699  0.00  0.00    -0.075 SA
BRANCH   2   3
ATOM      3  C   UNL d   1       8.696   6.070 -11.079  0.00  0.00     0.193 A 
ATOM      4  N   UNL d   1       9.365   7.025 -10.416  0.00  0.00    -0.289 N 
ATOM      5  C   UNL d   1       9.507   8.429 -10.776  0.00  0.00     0.134 C 
ATOM      6  C   UNL d   1       9.580   6.425  -9.219  0.00  0.00     0.167 A 
ATOM      7  N   UNL d   1       9.164   5.161  -9.177  0.00  0.00    -0.128 NA
ATOM      8  N   UNL d   1       8.601   4.932 -10.397  0.00  0.00    -0.122 NA
BRANCH   6   9
ATOM      9  C   UNL d   1      10.221   7.046  -8.071  0.00  0.00     0.036 A 
ATOM     10  C   UNL d   1       9.792   6.688  -6.779  0.00  0.00     0.004 A 
ATOM     11  C   UNL d   1      10.457   7.174  -5.644  0.00  0.00     0.013 A 
ATOM     12  C   UNL d   1      11.441   8.152  -5.801  0.00  0.00     0.107 A 
ATOM     13  C   UNL d   1      11.838   8.582  -7.083  0.00  0.00     0.013 A 
ATOM     14  C   UNL d   1      11.259   7.987  -8.219  0.00  0.00     0.004 A 
BRANCH  12  15
ATOM     15  S   UNL d   1      12.209   8.844  -4.370  0.00  0.00     0.302 S 
ATOM     16  N   UNL d   1      11.064   9.986  -3.847  0.00  0.00    -0.043 N 
ATOM     17  O   UNL d   1      12.302   7.812  -3.318  0.00  0.00    -0.197 OA
ATOM     18  O   UNL d   1      13.391   9.586  -4.827  0.00  0.00    -0.197 OA
ENDBRANCH  12  15
ENDBRANCH   6   9
ENDBRANCH   2   3
ENDBRANCH   1   2
BRANCH   1  19
ATOM     19  C   UNL d   1       7.053   3.833 -12.949  0.00  0.00     0.047 C 
BRANCH  19  20
ATOM     20  C   UNL d   1       5.918   2.843 -13.286  0.00  0.00     0.251 C 
BRANCH  20  21
ATOM     21  N   UNL d   1       6.319   1.497 -13.685  0.00  0.00     0.143 N 
ATOM     22  C   UNL d   1       7.299   1.485 -14.780  0.00  0.00     0.284 C 
ATOM     23  C   UNL d   1       7.688   0.098 -15.260  0.00  0.00     0.171 C 
ATOM     24  O   UNL d   1       6.476  -0.563 -15.606  0.00  0.00    -0.348 OA
ATOM     25  C   UNL d   1       5.587  -0.739 -14.520  0.00  0.00     0.178 C 
ATOM     26  C   UNL d   1       5.186   0.654 -14.046  0.00  0.00     0.282 C 
BRANCH  23  27
ATOM     27  C   UNL d   1       8.691   0.186 -16.397  0.00  0.00     0.007 A 
ATOM     28  C   UNL d   1      10.062   0.444 -16.152  0.00  0.00    -0.002 A 
ATOM     29  C   UNL d   1      10.962   0.546 -17.237  0.00  0.00     0.004 A 
ATOM     30  C   UNL d   1      10.500   0.394 -18.560  0.00  0.00     0.071 A 
ATOM     31  C   UNL d   1       9.130   0.130 -18.795  0.00  0.00     0.004 A 
ATOM     32  C   UNL d   1       8.239   0.037 -17.713  0.00  0.00    -0.002 A 
BRANCH  30  33
ATOM     33  C   UNL d   1      11.482   0.498 -19.716  0.00  0.00     0.419 C 
ATOM     34  F   UNL d   1      10.840   0.590 -20.889  0.00  0.00    -0.166 F 
ATOM     35  F   UNL d   1      12.252   1.577 -19.576  0.00  0.00    -0.166 F 
ATOM     36  F   UNL d   1      12.256  -0.588 -19.740  0.00  0.00    -0.166 F 
ENDBRANCH  30  33
ENDBRANCH  23  27
ENDBRANCH  20  21
ENDBRANCH  19  20
ENDBRANCH   1  19
TORSDOF 9
