REMARK  7 active torsions:
REMARK  status: ('A' for Active; 'I' for Inactive)
REMARK    1  A    between atoms: O_2  and  C_3 
REMARK    2  A    between atoms: C_8  and  O_9 
REMARK    3  A    between atoms: N_12  and  C_13 
REMARK    4  A    between atoms: C_13  and  C_14 
REMARK    5  A    between atoms: C_19  and  C_20 
REMARK    6  A    between atoms: C_20  and  N_21 
REMARK       I    between atoms: N_21  and  C_22 
REMARK    7  A    between atoms: C_22  and  C_24 
ROOT
ATOM      1  C   UNL d   1      10.146   7.644  -9.057  0.00  0.00     0.058 A 
ATOM      2  C   UNL d   1      11.285   8.468  -8.869  0.00  0.00     0.005 A 
ATOM      3  C   UNL d   1      11.635   8.902  -7.574  0.00  0.00     0.010 A 
ATOM      4  C   UNL d   1      10.847   8.534  -6.467  0.00  0.00     0.068 A 
ATOM      5  C   UNL d   1      11.192   9.011  -5.140  0.00  0.00     0.101 C 
ATOM      6  N   UNL d   1      11.467   9.393  -4.083  0.00  0.00    -0.191 NA
ATOM      7  C   UNL d   1       9.715   7.713  -6.653  0.00  0.00     0.010 A 
ATOM      8  C   UNL d   1       9.376   7.268  -7.943  0.00  0.00     0.005 A 
ENDROOT
BRANCH   1   9
ATOM      9  C   UNL d   1       9.757   7.208 -10.438  0.00  0.00     0.275 C 
ATOM     10  N   UNL d   1       9.518   5.891 -10.556  0.00  0.00    -0.229 NA
ATOM     11  O   UNL d   1       9.770   8.006 -11.366  0.00  0.00    -0.266 OA
BRANCH  10  12
ATOM     12  C   UNL d   1       9.564   5.149 -11.818  0.00  0.00     0.155 C 
BRANCH  12  13
ATOM     13  C   UNL d   1       8.208   4.625 -12.289  0.00  0.00     0.000 A 
ATOM     14  C   UNL d   1       7.926   4.308 -13.645  0.00  0.00     0.009 A 
ATOM     15  C   UNL d   1       6.645   3.784 -13.955  0.00  0.00    -0.003 A 
ATOM     16  C   UNL d   1       5.677   3.533 -12.961  0.00  0.00    -0.000 A 
ATOM     17  C   UNL d   1       5.989   3.827 -11.629  0.00  0.00    -0.000 A 
ATOM     18  C   UNL d   1       7.233   4.380 -11.300  0.00  0.00    -0.003 A 
BRANCH  14  19
ATOM     19  C   UNL d   1       8.974   4.480 -14.769  0.00  0.00     0.277 C 
BRANCH  19  20
ATOM     20  N   UNL d   1       9.458   3.243 -15.403  0.00  0.00     0.146 N 
ATOM     21  C   UNL d   1      10.517   3.583 -16.352  0.00  0.00     0.277 C 
ATOM     22  C   UNL d   1      11.041   2.406 -17.164  0.00  0.00     0.009 A 
ATOM     23  C   UNL d   1      10.241   1.258 -17.326  0.00  0.00    -0.020 A 
ATOM     24  C   UNL d   1      12.291   2.473 -17.815  0.00  0.00     0.024 A 
ATOM     25  C   UNL d   1      10.699   0.182 -18.108  0.00  0.00     0.022 A 
ATOM     26  C   UNL d   1       8.911   1.165 -16.615  0.00  0.00     0.061 C 
ATOM     27  C   UNL d   1      11.954   0.228 -18.744  0.00  0.00     0.116 A 
ATOM     28  C   UNL d   1      12.744   1.411 -18.625  0.00  0.00     0.116 A 
ATOM     29  C   UNL d   1       8.408   2.521 -16.136  0.00  0.00     0.256 C 
BRANCH  27  30
ATOM     30  O   UNL d   1      12.336  -0.873 -19.465  0.00  0.00    -0.326 OA
ATOM     31  C   UNL d   1      13.599  -1.459 -19.159  0.00  0.00     0.181 C 
ENDBRANCH  27  30
BRANCH  28  32
ATOM     32  O   UNL d   1      13.960   1.581 -19.248  0.00  0.00    -0.326 OA
ATOM     33  C   UNL d   1      13.966   1.460 -20.662  0.00  0.00     0.181 C 
ENDBRANCH  28  32
ENDBRANCH  19  20
ENDBRANCH  14  19
ENDBRANCH  12  13
ENDBRANCH  10  12
ENDBRANCH   1   9
TORSDOF 7
