REMARK  5 active torsions:
REMARK  status: ('A' for Active; 'I' for Inactive)
REMARK    1  A    between atoms: C_6  and  C_7 
REMARK    2  A    between atoms: C_7  and  C_8 
REMARK    3  A    between atoms: C_8  and  C_9 
REMARK    4  A    between atoms: C_9  and  N_10 
REMARK    5  A    between atoms: N_10  and  C_11 
ROOT
ATOM      1  C   UNL d   1      10.110   7.795 -10.275  0.00  0.00     0.098 C 
ATOM      2  C   UNL d   1       9.626   8.719  -9.123  0.00  0.00     0.022 C 
ATOM      3  C   UNL d   1       9.119   7.965  -7.800  0.00  0.00     0.002 C 
ATOM      4  C   UNL d   1       9.155   6.415  -7.889  0.00  0.00     0.000 C 
ATOM      5  C   UNL d   1      10.619   6.212  -8.246  0.00  0.00     0.002 A 
ATOM      6  C   UNL d   1      11.336   7.242  -7.384  0.00  0.00     0.000 A 
ATOM      7  C   UNL d   1      10.295   8.194  -6.812  0.00  0.00     0.000 C 
ATOM      8  C   UNL d   1      10.808   9.574  -7.164  0.00  0.00     0.000 C 
ATOM      9  C   UNL d   1      11.009   9.247  -8.636  0.00  0.00     0.002 C 
ATOM     10  C   UNL d   1      11.825   7.970  -8.623  0.00  0.00     0.002 A 
ATOM     11  C   UNL d   1      11.127   6.958  -9.528  0.00  0.00     0.022 A 
ENDROOT
BRANCH   1  12
ATOM     12  N   UNL d   1       9.063   6.971 -10.879  0.00  0.00    -0.297 NA
BRANCH  12  13
ATOM     13  C   UNL d   1       9.380   6.356 -12.141  0.00  0.00     0.120 C 
BRANCH  13  14
ATOM     14  C   UNL d   1       8.311   5.300 -12.450  0.00  0.00     0.030 C 
BRANCH  14  15
ATOM     15  C   UNL d   1       8.237   4.978 -13.940  0.00  0.00     0.029 C 
BRANCH  15  16
ATOM     16  C   UNL d   1       9.368   4.096 -14.430  0.00  0.00    -0.020 A 
ATOM     17  C   UNL d   1      10.576   4.663 -14.893  0.00  0.00    -0.004 A 
ATOM     18  C   UNL d   1      11.617   3.830 -15.343  0.00  0.00     0.002 A 
ATOM     19  C   UNL d   1      11.451   2.433 -15.338  0.00  0.00     0.030 A 
ATOM     20  C   UNL d   1      10.251   1.863 -14.871  0.00  0.00     0.140 A 
ATOM     21  F   UNL d   1      10.099   0.517 -14.855  0.00  0.00    -0.204 F 
ATOM     22  C   UNL d   1       9.208   2.696 -14.422  0.00  0.00     0.025 A 
ENDBRANCH  15  16
ENDBRANCH  14  15
ENDBRANCH  13  14
ENDBRANCH  12  13
ENDBRANCH   1  12
TORSDOF 5
