REMARK  3 active torsions:
REMARK  status: ('A' for Active; 'I' for Inactive)
REMARK    1  A    between atoms: C_8  and  O_9 
REMARK    2  A    between atoms: O_9  and  C_10 
REMARK    3  A    between atoms: C_10  and  C_12 
ROOT
ATOM      1  C   UNL d   1       7.665   2.013 -15.235  0.00  0.00     0.299 C 
ATOM      2  O   UNL d   1       8.316   1.878 -16.267  0.00  0.00    -0.259 OA
ENDROOT
BRANCH   1   3
ATOM      3  O   UNL d   1       7.934   2.941 -14.311  0.00  0.00    -0.301 OA
BRANCH   3   4
ATOM      4  C   UNL d   1       9.152   3.667 -14.245  0.00  0.00     0.129 C 
ATOM      5  C   UNL d   1       9.665   3.457 -12.819  0.00  0.00     0.064 C 
ATOM      6  C   UNL d   1       9.019   4.400 -11.765  0.00  0.00     0.222 C 
ATOM      7  N   UNL d   1       9.355   5.751 -12.204  0.00  0.00     0.135 N 
ATOM      8  C   UNL d   1       7.474   4.370 -11.751  0.00  0.00     0.035 C 
ATOM      9  C   UNL d   1       9.165   6.734 -11.137  0.00  0.00     0.285 C 
ATOM     10  C   UNL d   1       8.404   5.952 -13.290  0.00  0.00     0.222 C 
ATOM     11  C   UNL d   1       8.994   5.183 -14.501  0.00  0.00     0.064 C 
ATOM     12  C   UNL d   1       7.064   5.393 -12.798  0.00  0.00     0.035 C 
ENDBRANCH   3   4
ENDBRANCH   1   3
BRANCH   1  13
ATOM     13  C   UNL d   1       6.500   1.224 -14.853  0.00  0.00     0.102 A 
ATOM     14  C   UNL d   1       5.871   0.318 -15.664  0.00  0.00     0.090 A 
ATOM     15  N   UNL d   1       4.812  -0.212 -14.888  0.00  0.00    -0.228 N 
ATOM     16  C   UNL d   1       6.022  -0.161 -16.992  0.00  0.00     0.019 A 
ATOM     17  N   UNL d   1       4.766   0.342 -13.642  0.00  0.00    -0.163 NA
ATOM     18  C   UNL d   1       3.950  -1.151 -15.355  0.00  0.00     0.101 A 
ATOM     19  C   UNL d   1       5.757   1.199 -13.645  0.00  0.00     0.127 A 
ATOM     20  C   UNL d   1       4.109  -1.616 -16.639  0.00  0.00     0.021 A 
ATOM     21  C   UNL d   1       5.155  -1.121 -17.464  0.00  0.00     0.003 A 
ENDBRANCH   1  13
TORSDOF 3
