REMARK  6 active torsions:
REMARK  status: ('A' for Active; 'I' for Inactive)
REMARK    1  A    between atoms: C_8  and  O_9 
REMARK    2  A    between atoms: O_9  and  C_10 
REMARK    3  A    between atoms: C_10  and  C_11 
REMARK    4  A    between atoms: C_11  and  C_12 
REMARK    5  A    between atoms: C_12  and  N_13 
REMARK    6  A    between atoms: N_16  and  C_17 
ROOT
ATOM      1  N   UNL d   1       9.128   5.998 -11.154  0.00  0.00     0.141 N 
ATOM      2  C   UNL d   1       9.008   6.686 -12.450  0.00  0.00     0.274 C 
ATOM      3  C   UNL d   1       8.141   5.835 -13.430  0.00  0.00     0.137 C 
ATOM      4  N   UNL d   1       8.537   4.425 -13.501  0.00  0.00    -0.344 N 
ATOM      5  C   UNL d   1       8.643   3.790 -12.211  0.00  0.00     0.137 C 
ATOM      6  C   UNL d   1       9.594   4.613 -11.364  0.00  0.00     0.274 C 
ENDROOT
BRANCH   1   7
ATOM      7  C   UNL d   1      10.106   6.691 -10.313  0.00  0.00     0.253 C 
BRANCH   7   8
ATOM      8  C   UNL d   1       9.505   7.979  -9.790  0.00  0.00     0.068 C 
BRANCH   8   9
ATOM      9  C   UNL d   1      10.498   8.876  -9.101  0.00  0.00     0.151 C 
BRANCH   9  10
ATOM     10  O   UNL d   1      11.168   8.128  -8.108  0.00  0.00    -0.330 OA
BRANCH  10  11
ATOM     11  C   UNL d   1      11.179   8.599  -6.816  0.00  0.00     0.105 C 
ATOM     12  C   UNL d   1      11.116   9.971  -6.475  0.00  0.00     0.025 C 
ATOM     13  C   UNL d   1      11.187  10.384  -5.134  0.00  0.00    -0.000 C 
ATOM     14  C   UNL d   1      11.561   9.413  -4.199  0.00  0.00     0.008 A 
ATOM     15  C   UNL d   1      11.887   9.591  -2.761  0.00  0.00     0.155 A 
ATOM     16  C   UNL d   1      11.677   8.072  -4.498  0.00  0.00     0.068 A 
ATOM     17  N   UNL d   1      12.248   8.261  -2.295  0.00  0.00    -0.229 NA
ATOM     18  C   UNL d   1      12.126   7.347  -3.267  0.00  0.00     0.276 A 
ATOM     19  O   UNL d   1      12.321   6.147  -3.143  0.00  0.00    -0.266 OA
ATOM     20  C   UNL d   1      11.440   7.638  -5.821  0.00  0.00     0.084 C 
ATOM     21 CL   UNL d   1      11.754   6.053  -6.382  0.00  0.00    -0.080 Cl
ENDBRANCH  10  11
ENDBRANCH   9  10
ENDBRANCH   8   9
ENDBRANCH   7   8
ENDBRANCH   1   7
BRANCH   4  22
ATOM     22  C   UNL d   1       8.771   3.672 -14.661  0.00  0.00     0.058 A 
ATOM     23  C   UNL d   1       9.927   3.850 -15.500  0.00  0.00     0.043 A 
ATOM     24  C   UNL d   1      10.042   3.080 -16.710  0.00  0.00     0.004 A 
ATOM     25  C   UNL d   1      10.982   4.732 -15.178  0.00  0.00     0.141 A 
ATOM     26  C   UNL d   1       9.039   2.140 -17.062  0.00  0.00     0.000 A 
ATOM     27  C   UNL d   1      11.177   3.211 -17.555  0.00  0.00     0.000 A 
ATOM     28  C   UNL d   1       7.930   1.946 -16.219  0.00  0.00     0.002 A 
ATOM     29  C   UNL d   1       7.804   2.685 -15.024  0.00  0.00     0.017 A 
ATOM     30  C   UNL d   1      12.207   4.134 -17.236  0.00  0.00     0.002 A 
ATOM     31  C   UNL d   1      12.062   4.904 -16.052  0.00  0.00     0.030 A 
ATOM     32  F   UNL d   1      11.062   5.338 -13.997  0.00  0.00    -0.204 F 
ENDBRANCH   4  22
TORSDOF 6
