REMARK  6 active torsions:
REMARK  status: ('A' for Active; 'I' for Inactive)
REMARK    1  A    between atoms: C_2  and  N_5 
REMARK    2  A    between atoms: N_5  and  C_6 
REMARK    3  A    between atoms: C_6  and  C_7 
REMARK    4  A    between atoms: C_7  and  C_9 
REMARK    5  A    between atoms: C_9  and  O_10 
REMARK    6  A    between atoms: O_10  and  C_11 
ROOT
ATOM      1  C   UNL d   1      10.326   6.791  -9.372  0.00  0.00     0.090 A 
ATOM      2  C   UNL d   1      11.004   7.983  -9.636  0.00  0.00     0.024 A 
ATOM      3  C   UNL d   1      10.635   8.719 -10.744  0.00  0.00     0.002 A 
ATOM      4  C   UNL d   1       9.618   8.237 -11.610  0.00  0.00     0.003 A 
ATOM      5  C   UNL d   1       8.967   7.009 -11.351  0.00  0.00     0.033 A 
ATOM      6  C   UNL d   1       9.313   6.283 -10.202  0.00  0.00     0.003 A 
ATOM      7  C   UNL d   1       8.565   5.028  -9.783  0.00  0.00     0.029 C 
ATOM      8  C   UNL d   1       7.825   4.394 -10.961  0.00  0.00     0.013 C 
ATOM      9  C   UNL d   1       7.000   5.396 -11.748  0.00  0.00     0.070 C 
ATOM     10  C   UNL d   1       7.846   6.575 -12.213  0.00  0.00     0.173 C 
ATOM     11  O   UNL d   1       7.493   7.191 -13.210  0.00  0.00    -0.291 OA
ENDROOT
BRANCH   1  12
ATOM     12  O   UNL d   1      10.681   6.140  -8.266  0.00  0.00    -0.328 OA
BRANCH  12  13
ATOM     13  C   UNL d   1       9.909   6.465  -7.155  0.00  0.00     0.184 C 
BRANCH  13  14
ATOM     14  C   UNL d   1      10.734   7.334  -6.159  0.00  0.00     0.206 C 
ATOM     15  O   UNL d   1       9.995   8.541  -6.085  0.00  0.00    -0.219 OA
BRANCH  14  16
ATOM     16  C   UNL d   1      10.865   6.686  -4.762  0.00  0.00     0.155 C 
BRANCH  16  17
ATOM     17  N   UNL d   1      11.539   7.582  -3.806  0.00  0.00    -0.297 NA
BRANCH  17  18
ATOM     18  C   UNL d   1      11.815   7.111  -2.434  0.00  0.00     0.080 C 
ATOM     19  C   UNL d   1      12.981   6.118  -2.455  0.00  0.00     0.024 C 
ATOM     20  C   UNL d   1      10.539   6.482  -1.791  0.00  0.00     0.024 C 
ATOM     21  C   UNL d   1      12.320   8.323  -1.640  0.00  0.00     0.024 C 
ENDBRANCH  17  18
ENDBRANCH  16  17
ENDBRANCH  14  16
ENDBRANCH  13  14
ENDBRANCH  12  13
ENDBRANCH   1  12
TORSDOF 6
