REMARK  5 active torsions:
REMARK  status: ('A' for Active; 'I' for Inactive)
REMARK    1  A    between atoms: C_12  and  C_13 
REMARK    2  A    between atoms: C_13  and  N_14 
REMARK    3  A    between atoms: N_14  and  C_15 
REMARK    4  A    between atoms: C_15  and  C_16 
REMARK    5  A    between atoms: C_16  and  C_17 
ROOT
ATOM      1  N   UNL d   1       6.649   5.075 -12.929  0.00  0.00     0.342 N 
ENDROOT
BRANCH   1   2
ATOM      2  C   UNL d   1       7.581   3.996 -13.232  0.00  0.00     0.323 C 
BRANCH   2   3
ATOM      3  C   UNL d   1       6.954   3.012 -14.191  0.00  0.00     0.188 C 
ATOM      4  C   UNL d   1       8.075   2.366 -15.041  0.00  0.00     0.181 C 
ATOM      5  O   UNL d   1       7.465   1.606 -16.053  0.00  0.00    -0.326 OA
ATOM      6  C   UNL d   1       6.484   0.793 -15.598  0.00  0.00     0.114 A 
ATOM      7  C   UNL d   1       5.993  -0.219 -16.389  0.00  0.00     0.029 A 
ATOM      8  C   UNL d   1       5.869   0.973 -14.321  0.00  0.00     0.116 A 
ATOM      9  C   UNL d   1       6.506  -0.545 -17.744  0.00  0.00     0.120 A 
ATOM     10  C   UNL d   1       4.976  -1.059 -15.989  0.00  0.00     0.083 A 
ATOM     11  C   UNL d   1       5.597  -1.747 -18.031  0.00  0.00     0.260 A 
ATOM     12  O   UNL d   1       5.645  -2.404 -19.057  0.00  0.00    -0.270 OA
ATOM     13  N   UNL d   1       4.742  -1.984 -16.993  0.00  0.00    -0.212 NA
ATOM     14  C   UNL d   1       4.360  -0.937 -14.748  0.00  0.00     0.021 A 
ATOM     15  C   UNL d   1       4.832   0.090 -13.923  0.00  0.00     0.028 A 
ATOM     16  O   UNL d   1       6.199   2.004 -13.523  0.00  0.00    -0.327 OA
ENDBRANCH   2   3
ENDBRANCH   1   2
BRANCH   1  17
ATOM     17  C   UNL d   1       7.085   5.796 -11.754  0.00  0.00     0.290 C 
BRANCH  17  18
ATOM     18  C   UNL d   1       8.549   6.378 -11.818  0.00  0.00     0.038 C 
BRANCH  18  19
ATOM     19  C   UNL d   1       9.376   6.336 -10.496  0.00  0.00     0.008 C 
ATOM     20  C   UNL d   1       9.902   7.724 -10.135  0.00  0.00     0.046 C 
ATOM     21  C   UNL d   1      10.392   7.831  -8.752  0.00  0.00     0.055 A 
ATOM     22  C   UNL d   1      10.242   6.929  -7.749  0.00  0.00    -0.007 A 
ATOM     23  N   UNL d   1      11.074   8.930  -8.301  0.00  0.00    -0.250 NA
ATOM     24  C   UNL d   1       9.533   5.625  -7.993  0.00  0.00     0.028 C 
ATOM     25  C   UNL d   1      10.867   7.506  -6.586  0.00  0.00     0.017 A 
ATOM     26  C   UNL d   1       8.729   5.646  -9.281  0.00  0.00     0.005 C 
ATOM     27  C   UNL d   1      11.371   8.782  -6.991  0.00  0.00     0.081 A 
ATOM     28  C   UNL d   1      11.097   7.145  -5.226  0.00  0.00     0.031 A 
ATOM     29  C   UNL d   1      12.062   9.660  -6.116  0.00  0.00     0.021 A 
ATOM     30  C   UNL d   1      12.263   9.269  -4.822  0.00  0.00     0.031 A 
ATOM     31  C   UNL d   1      11.790   8.004  -4.353  0.00  0.00     0.140 A 
ATOM     32  F   UNL d   1      12.001   7.619  -3.072  0.00  0.00    -0.204 F 
ENDBRANCH  18  19
ENDBRANCH  17  18
ENDBRANCH   1  17
TORSDOF 5
