REMARK  0 active torsions:
REMARK  status: ('A' for Active; 'I' for Inactive)
ROOT
ATOM      1  N   UNL d   1      12.267   8.389  -8.527  0.00  0.00     0.616 N 
ATOM      2  C   UNL d   1      11.012   8.930  -8.030  0.00  0.00     0.307 C 
ATOM      3  C   UNL d   1       9.995   7.798  -7.851  0.00  0.00     0.044 C 
ATOM      4  C   UNL d   1      10.463   6.793  -6.793  0.00  0.00     0.028 C 
ATOM      5  C   UNL d   1      11.062   7.438  -5.550  0.00  0.00    -0.024 A 
ATOM      6  C   UNL d   1      11.302   6.638  -4.422  0.00  0.00     0.025 A 
ATOM      7  C   UNL d   1      11.850   7.173  -3.240  0.00  0.00     0.156 A 
ATOM      8  O   UNL d   1      11.980   6.390  -2.129  0.00  0.00    -0.188 OA
ATOM      9  C   UNL d   1      12.174   8.541  -3.184  0.00  0.00     0.156 A 
ATOM     10  O   UNL d   1      12.656   9.084  -2.025  0.00  0.00    -0.188 OA
ATOM     11  C   UNL d   1      11.950   9.341  -4.320  0.00  0.00     0.025 A 
ATOM     12  C   UNL d   1      11.420   8.800  -5.507  0.00  0.00    -0.022 A 
ATOM     13  C   UNL d   1      11.238   9.698  -6.713  0.00  0.00     0.065 C 
ENDROOT
TORSDOF 0
