REMARK  7 active torsions:
REMARK  status: ('A' for Active; 'I' for Inactive)
REMARK    1  A    between atoms: C_3  and  C_4 
REMARK    2  A    between atoms: N_18  and  C_19 
REMARK    3  A    between atoms: C_19  and  C_20 
REMARK    4  A    between atoms: C_20  and  C_21 
REMARK    5  A    between atoms: C_21  and  C_22 
REMARK    6  A    between atoms: C_22  and  N_23 
REMARK    7  A    between atoms: C_27  and  C_28 
ROOT
ATOM      1  C   UNL d   1      10.728   4.207 -14.128  0.00  0.00     0.114 C 
ENDROOT
BRANCH   1   2
ATOM      2  N   UNL d   1      10.844   4.389 -15.567  0.00  0.00    -0.249 N 
ATOM      3  C   UNL d   1      11.831   5.279 -16.038  0.00  0.00     0.266 A 
ATOM      4  O   UNL d   1      12.565   5.879 -15.253  0.00  0.00    -0.267 OA
ATOM      5  C   UNL d   1      11.910   5.439 -17.497  0.00  0.00     0.072 A 
ATOM      6  C   UNL d   1      11.027   4.777 -18.302  0.00  0.00     0.073 A 
ATOM      7  N   UNL d   1      10.045   3.913 -17.785  0.00  0.00    -0.259 N 
ATOM      8  C   UNL d   1      11.087   4.920 -19.765  0.00  0.00     0.018 A 
ATOM      9  C   UNL d   1       9.182   3.245 -18.645  0.00  0.00     0.085 A 
ATOM     10  C   UNL d   1       9.933   3.712 -16.395  0.00  0.00     0.338 A 
ATOM     11  C   UNL d   1       9.245   3.396 -19.982  0.00  0.00     0.019 A 
ATOM     12  C   UNL d   1      10.234   4.268 -20.566  0.00  0.00     0.003 A 
ATOM     13  O   UNL d   1       9.059   2.973 -15.930  0.00  0.00    -0.246 OA
BRANCH   5  14
ATOM     14  C   UNL d   1      12.921   6.373 -18.044  0.00  0.00     0.006 A 
ATOM     15  C   UNL d   1      14.295   6.091 -17.881  0.00  0.00     0.000 A 
ATOM     16  C   UNL d   1      15.264   6.958 -18.423  0.00  0.00     0.000 A 
ATOM     17  C   UNL d   1      14.864   8.107 -19.132  0.00  0.00     0.000 A 
ATOM     18  C   UNL d   1      13.495   8.389 -19.296  0.00  0.00     0.000 A 
ATOM     19  C   UNL d   1      12.524   7.536 -18.740  0.00  0.00     0.000 A 
ENDBRANCH   5  14
ENDBRANCH   1   2
BRANCH   1  20
ATOM     20  C   UNL d   1       9.839   5.265 -13.451  0.00  0.00     0.027 C 
BRANCH  20  21
ATOM     21  C   UNL d   1       9.626   4.968 -11.959  0.00  0.00     0.037 C 
BRANCH  21  22
ATOM     22  C   UNL d   1       9.973   6.163 -11.040  0.00  0.00     0.250 C 
BRANCH  22  23
ATOM     23  N   UNL d   1       9.852   5.842  -9.629  0.00  0.00     0.137 N 
ATOM     24  C   UNL d   1      10.385   6.976  -8.861  0.00  0.00     0.255 C 
ATOM     25  C   UNL d   1      10.317   6.716  -7.341  0.00  0.00     0.057 C 
ATOM     26  C   UNL d   1       8.868   6.425  -6.944  0.00  0.00     0.009 C 
ATOM     27  C   UNL d   1       8.306   5.330  -7.851  0.00  0.00     0.036 C 
ATOM     28  C   UNL d   1       8.440   5.647  -9.310  0.00  0.00     0.250 C 
BRANCH  25  29
ATOM     29  C   UNL d   1      10.882   7.843  -6.526  0.00  0.00     0.000 A 
ATOM     30  C   UNL d   1      11.355   7.776  -5.170  0.00  0.00     0.015 A 
ATOM     31  C   UNL d   1      11.773   9.080  -4.776  0.00  0.00     0.081 A 
ATOM     32  C   UNL d   1      11.462   6.752  -4.204  0.00  0.00     0.001 A 
ATOM     33  N   UNL d   1      11.571   9.885  -5.877  0.00  0.00    -0.244 NA
ATOM     34  C   UNL d   1      12.273   9.333  -3.485  0.00  0.00     0.019 A 
ATOM     35  C   UNL d   1      11.037   9.146  -6.921  0.00  0.00     0.095 A 
ATOM     36  C   UNL d   1      12.374   8.289  -2.550  0.00  0.00     0.002 A 
ATOM     37  C   UNL d   1      11.965   6.992  -2.909  0.00  0.00     0.000 A 
ENDBRANCH  25  29
ENDBRANCH  22  23
ENDBRANCH  21  22
ENDBRANCH  20  21
ENDBRANCH   1  20
TORSDOF 7
