REMARK  7 active torsions:
REMARK  status: ('A' for Active; 'I' for Inactive)
REMARK    1  A    between atoms: C_2  and  O_3 
REMARK    2  A    between atoms: O_3  and  N_4 
REMARK    3  A    between atoms: C_5  and  C_6 
REMARK    4  A    between atoms: C_5  and  C_22 
REMARK    5  A    between atoms: C_6  and  C_7 
REMARK    6  A    between atoms: C_7  and  N_8 
REMARK    7  A    between atoms: N_11  and  C_12 
ROOT
ATOM      1  C   UNL d   1       7.106   0.334 -15.989  0.00  0.00     0.066 A 
ATOM      2  C   UNL d   1       7.288  -0.009 -17.345  0.00  0.00     0.018 A 
ATOM      3  C   UNL d   1       6.272  -0.667 -18.066  0.00  0.00     0.002 A 
ATOM      4  C   UNL d   1       5.064  -1.005 -17.433  0.00  0.00     0.001 A 
ATOM      5  C   UNL d   1       4.871  -0.684 -16.079  0.00  0.00     0.012 A 
ATOM      6  C   UNL d   1       5.879  -0.012 -15.355  0.00  0.00     0.084 A 
ATOM      7  C   UNL d   1       5.635   0.283 -13.947  0.00  0.00     0.102 C 
ATOM      8  N   UNL d   1       5.451   0.519 -12.837  0.00  0.00    -0.191 NA
ENDROOT
BRANCH   1   9
ATOM      9  N   UNL d   1       8.136   0.976 -15.301  0.00  0.00    -0.344 N 
ATOM     10  C   UNL d   1       7.986   2.314 -14.748  0.00  0.00     0.137 C 
ATOM     11  C   UNL d   1       9.130   3.212 -15.242  0.00  0.00     0.274 C 
ATOM     12  N   UNL d   1      10.431   2.592 -14.964  0.00  0.00     0.141 N 
ATOM     13  C   UNL d   1      10.545   1.265 -15.576  0.00  0.00     0.274 C 
ATOM     14  C   UNL d   1       9.427   0.338 -15.084  0.00  0.00     0.137 C 
BRANCH  12  15
ATOM     15  C   UNL d   1      11.522   3.453 -15.413  0.00  0.00     0.257 C 
BRANCH  15  16
ATOM     16  C   UNL d   1      11.418   3.862 -16.908  0.00  0.00     0.083 C 
BRANCH  16  17
ATOM     17  C   UNL d   1      12.782   4.255 -17.470  0.00  0.00     0.087 C 
ATOM     18  N   UNL d   1      13.379   5.324 -17.117  0.00  0.00    -0.136 NA
BRANCH  18  19
ATOM     19  O   UNL d   1      12.629   6.102 -16.217  0.00  0.00    -0.237 OA
BRANCH  19  20
ATOM     20  C   UNL d   1      13.305   7.325 -16.003  0.00  0.00     0.176 C 
ATOM     21  C   UNL d   1      13.291   8.191 -17.270  0.00  0.00     0.038 C 
ENDBRANCH  19  20
ENDBRANCH  18  19
BRANCH  17  22
ATOM     22  C   UNL d   1      13.374   3.342 -18.484  0.00  0.00     0.016 A 
ATOM     23  C   UNL d   1      13.098   1.952 -18.489  0.00  0.00     0.001 A 
ATOM     24  C   UNL d   1      13.668   1.102 -19.456  0.00  0.00     0.000 A 
ATOM     25  C   UNL d   1      14.541   1.624 -20.427  0.00  0.00     0.000 A 
ATOM     26  C   UNL d   1      14.830   3.002 -20.436  0.00  0.00     0.000 A 
ATOM     27  C   UNL d   1      14.249   3.853 -19.474  0.00  0.00     0.001 A 
ENDBRANCH  17  22
ENDBRANCH  16  17
ENDBRANCH  15  16
ENDBRANCH  12  15
ENDBRANCH   1   9
TORSDOF 7
