REMARK  8 active torsions:
REMARK  status: ('A' for Active; 'I' for Inactive)
REMARK    1  A    between atoms: C_2  and  C_3 
REMARK    2  A    between atoms: C_7  and  N_8 
REMARK    3  A    between atoms: N_11  and  C_12 
REMARK    4  A    between atoms: C_12  and  C_13 
REMARK    5  A    between atoms: C_13  and  C_15 
REMARK    6  A    between atoms: C_15  and  C_16 
REMARK    7  A    between atoms: C_16  and  N_17 
REMARK       I    between atoms: N_17  and  C_18 
REMARK    8  A    between atoms: C_18  and  C_20 
ROOT
ATOM      1  C   UNL d   1       8.190   5.224 -10.857  0.00  0.00     0.283 C 
ENDROOT
BRANCH   1   2
ATOM      2  N   UNL d   1       9.306   5.585  -9.979  0.00  0.00     0.144 N 
ATOM      3  C   UNL d   1       9.828   6.921 -10.293  0.00  0.00     0.274 C 
ATOM      4  C   UNL d   1      11.018   7.315  -9.393  0.00  0.00     0.137 C 
ATOM      5  N   UNL d   1      10.628   7.148  -7.961  0.00  0.00    -0.344 N 
ATOM      6  C   UNL d   1       9.994   5.927  -7.608  0.00  0.00     0.137 C 
ATOM      7  C   UNL d   1       8.856   5.562  -8.585  0.00  0.00     0.274 C 
BRANCH   5   8
ATOM      8  C   UNL d   1      10.837   8.188  -6.994  0.00  0.00     0.067 C 
ATOM      9  C   UNL d   1      10.826   9.485  -7.396  0.00  0.00     0.018 C 
ATOM     10  C   UNL d   1      11.087  10.521  -6.455  0.00  0.00     0.001 C 
ATOM     11  C   UNL d   1      11.170  10.285  -5.100  0.00  0.00    -0.003 C 
ATOM     12  C   UNL d   1      11.229   8.941  -4.653  0.00  0.00    -0.010 C 
ATOM     13  C   UNL d   1      11.101   7.926  -5.630  0.00  0.00     0.069 C 
ATOM     14 CL   UNL d   1      11.443   6.374  -5.100  0.00  0.00    -0.081 Cl
BRANCH  12  15
ATOM     15  C   UNL d   1      11.499   8.657  -3.196  0.00  0.00     0.027 C 
ATOM     16  C   UNL d   1      12.991   8.602  -2.932  0.00  0.00     0.005 C 
ENDBRANCH  12  15
ENDBRANCH   5   8
ENDBRANCH   1   2
BRANCH   1  17
ATOM     17  C   UNL d   1       8.589   4.912 -12.310  0.00  0.00     0.188 C 
ATOM     18  O   UNL d   1       8.620   6.119 -13.043  0.00  0.00    -0.221 OA
BRANCH  17  19
ATOM     19  C   UNL d   1       7.571   3.993 -13.014  0.00  0.00     0.061 C 
BRANCH  19  20
ATOM     20  C   UNL d   1       8.228   3.066 -14.049  0.00  0.00     0.132 C 
BRANCH  20  21
ATOM     21  N   UNL d   1       7.223   2.273 -14.740  0.00  0.00    -0.234 NA
ATOM     22  C   UNL d   1       7.032   0.940 -14.606  0.00  0.00     0.275 C 
ATOM     23  O   UNL d   1       7.552   0.244 -13.751  0.00  0.00    -0.266 OA
BRANCH  22  24
ATOM     24  C   UNL d   1       6.095   0.347 -15.609  0.00  0.00     0.060 A 
ATOM     25  C   UNL d   1       6.161   0.742 -16.965  0.00  0.00     0.031 A 
ATOM     26  C   UNL d   1       5.286   0.129 -17.873  0.00  0.00     0.119 A 
ATOM     27  C   UNL d   1       4.391  -0.844 -17.468  0.00  0.00     0.119 A 
ATOM     28  O   UNL d   1       5.132   0.371 -19.197  0.00  0.00    -0.300 OA
ATOM     29  C   UNL d   1       4.311  -1.266 -16.136  0.00  0.00     0.026 A 
ATOM     30  O   UNL d   1       3.648  -1.240 -18.534  0.00  0.00    -0.300 OA
ATOM     31  C   UNL d   1       5.185  -0.666 -15.198  0.00  0.00     0.007 A 
ATOM     32  C   UNL d   1       4.099  -0.479 -19.624  0.00  0.00     0.304 A 
ENDBRANCH  22  24
ENDBRANCH  20  21
ENDBRANCH  19  20
ENDBRANCH  17  19
ENDBRANCH   1  17
TORSDOF 8
