REMARK  10 active torsions:
REMARK  status: ('A' for Active; 'I' for Inactive)
REMARK    1  A    between atoms: O_2  and  C_3 
REMARK    2  A    between atoms: C_8  and  N_9 
REMARK    3  A    between atoms: N_12  and  C_13 
REMARK    4  A    between atoms: C_13  and  C_14 
REMARK    5  A    between atoms: C_15  and  C_16 
REMARK    6  A    between atoms: C_16  and  N_17 
REMARK       I    between atoms: N_17  and  C_18 
REMARK    7  A    between atoms: C_18  and  C_20 
REMARK    8  A    between atoms: C_24  and  O_25 
REMARK    9  A    between atoms: O_25  and  C_26 
REMARK   10  A    between atoms: C_26  and  C_27 
ROOT
ATOM      1  C   UNL d   1       9.326   2.894 -13.818  0.00  0.00     0.006 C 
ATOM      2  C   UNL d   1       9.138   4.110 -13.288  0.00  0.00    -0.003 C 
ENDROOT
BRANCH   2   3
ATOM      3  C   UNL d   1       7.965   4.516 -12.402  0.00  0.00     0.155 C 
BRANCH   3   4
ATOM      4  N   UNL d   1       8.391   5.257 -11.221  0.00  0.00    -0.228 NA
ATOM      5  C   UNL d   1       9.100   6.393 -11.246  0.00  0.00     0.293 C 
ATOM      6  O   UNL d   1       9.408   6.985 -12.282  0.00  0.00    -0.264 OA
BRANCH   5   7
ATOM      7  C   UNL d   1       9.610   6.839  -9.945  0.00  0.00     0.139 A 
ATOM      8  N   UNL d   1      10.752   7.614  -9.922  0.00  0.00    -0.241 NA
ATOM      9  C   UNL d   1      11.042   8.011  -8.634  0.00  0.00     0.082 A 
ATOM     10  C   UNL d   1      10.012   7.456  -7.820  0.00  0.00     0.021 A 
ATOM     11  C   UNL d   1      12.074   8.789  -8.098  0.00  0.00     0.021 A 
ATOM     12  C   UNL d   1       9.131   6.709  -8.665  0.00  0.00     0.026 A 
ATOM     13  C   UNL d   1      10.069   7.737  -6.436  0.00  0.00     0.026 A 
ATOM     14  C   UNL d   1      11.089   8.534  -5.873  0.00  0.00     0.094 A 
ATOM     15  C   UNL d   1      12.079   9.090  -6.723  0.00  0.00     0.026 A 
BRANCH  14  16
ATOM     16  O   UNL d   1      11.071   8.682  -4.501  0.00  0.00    -0.328 OA
BRANCH  16  17
ATOM     17  C   UNL d   1      12.168   9.300  -3.835  0.00  0.00     0.187 C 
BRANCH  17  18
ATOM     18  C   UNL d   1      12.366   8.646  -2.467  0.00  0.00     0.226 C 
ATOM     19  F   UNL d   1      12.655   7.353  -2.623  0.00  0.00    -0.232 F 
ENDBRANCH  17  18
ENDBRANCH  16  17
ENDBRANCH  14  16
ENDBRANCH   5   7
ENDBRANCH   3   4
ENDBRANCH   2   3
BRANCH   1  20
ATOM     20  C   UNL d   1      10.513   2.536 -14.700  0.00  0.00     0.276 C 
BRANCH  20  21
ATOM     21  N   UNL d   1      10.139   1.970 -15.999  0.00  0.00     0.145 N 
ATOM     22  C   UNL d   1       9.407   0.704 -15.832  0.00  0.00     0.275 C 
ATOM     23  C   UNL d   1       9.094   0.082 -17.203  0.00  0.00     0.137 C 
ATOM     24  N   UNL d   1       8.357   1.033 -18.029  0.00  0.00    -0.343 N 
ATOM     25  C   UNL d   1       8.983   2.342 -18.167  0.00  0.00     0.137 C 
ATOM     26  C   UNL d   1       9.317   2.913 -16.773  0.00  0.00     0.275 C 
BRANCH  24  27
ATOM     27  C   UNL d   1       7.099   0.746 -18.579  0.00  0.00     0.079 A 
ATOM     28  C   UNL d   1       6.070   0.126 -17.816  0.00  0.00     0.110 A 
ATOM     29  C   UNL d   1       4.835  -0.178 -18.442  0.00  0.00     0.026 A 
ATOM     30  C   UNL d   1       4.608   0.155 -19.789  0.00  0.00     0.002 A 
ATOM     31  C   UNL d   1       5.615   0.786 -20.533  0.00  0.00     0.002 A 
ATOM     32  C   UNL d   1       6.854   1.079 -19.933  0.00  0.00     0.019 A 
BRANCH  28  33
ATOM     33  O   UNL d   1       6.317  -0.124 -16.480  0.00  0.00    -0.327 OA
ATOM     34  C   UNL d   1       5.377  -0.891 -15.746  0.00  0.00     0.181 C 
ENDBRANCH  28  33
ENDBRANCH  24  27
ENDBRANCH  20  21
ENDBRANCH   1  20
TORSDOF 10
