REMARK  5 active torsions:
REMARK  status: ('A' for Active; 'I' for Inactive)
REMARK    1  A    between atoms: C_8  and  N_9 
REMARK    2  A    between atoms: N_12  and  C_13 
REMARK    3  A    between atoms: C_13  and  C_14 
REMARK    4  A    between atoms: C_14  and  N_15 
REMARK    5  A    between atoms: N_18  and  C_19 
ROOT
ATOM      1  N   UNL d   1      10.129  -1.063 -18.831  0.00  0.00    -0.191 NA
ATOM      2  C   UNL d   1       8.983  -0.912 -18.853  0.00  0.00     0.104 C 
ATOM      3  C   UNL d   1       7.536  -0.707 -18.858  0.00  0.00     0.102 A 
ATOM      4  C   UNL d   1       6.778  -1.383 -19.841  0.00  0.00     0.015 A 
ATOM      5  C   UNL d   1       5.397  -1.164 -19.909  0.00  0.00     0.021 A 
ATOM      6  C   UNL d   1       4.802  -0.281 -18.995  0.00  0.00     0.101 A 
ATOM      7  N   UNL d   1       5.512   0.374 -18.051  0.00  0.00    -0.227 NA
ATOM      8  C   UNL d   1       6.842   0.157 -17.955  0.00  0.00     0.150 A 
ENDROOT
BRANCH   8   9
ATOM      9  N   UNL d   1       7.483   0.853 -16.923  0.00  0.00    -0.329 N 
ATOM     10  C   UNL d   1       7.121   2.234 -16.616  0.00  0.00     0.138 C 
ATOM     11  C   UNL d   1       6.845   2.369 -15.114  0.00  0.00     0.274 C 
ATOM     12  N   UNL d   1       7.996   1.899 -14.325  0.00  0.00     0.143 N 
ATOM     13  C   UNL d   1       8.173   0.474 -14.582  0.00  0.00     0.274 C 
ATOM     14  C   UNL d   1       8.489   0.226 -16.064  0.00  0.00     0.138 C 
BRANCH  12  15
ATOM     15  C   UNL d   1       9.248   2.635 -14.525  0.00  0.00     0.286 C 
BRANCH  15  16
ATOM     16  C   UNL d   1       9.143   4.154 -14.448  0.00  0.00     0.286 C 
BRANCH  16  17
ATOM     17  N   UNL d   1       8.736   4.664 -13.153  0.00  0.00     0.143 N 
ATOM     18  C   UNL d   1       8.674   6.116 -13.207  0.00  0.00     0.274 C 
ATOM     19  C   UNL d   1       8.283   6.757 -11.876  0.00  0.00     0.137 C 
ATOM     20  N   UNL d   1       9.214   6.270 -10.866  0.00  0.00    -0.344 N 
ATOM     21  C   UNL d   1       9.321   4.826 -10.763  0.00  0.00     0.137 C 
ATOM     22  C   UNL d   1       9.682   4.260 -12.123  0.00  0.00     0.274 C 
BRANCH  20  23
ATOM     23  C   UNL d   1       9.814   7.130  -9.950  0.00  0.00     0.068 A 
ATOM     24  C   UNL d   1       9.714   6.929  -8.557  0.00  0.00     0.084 A 
ATOM     25  C   UNL d   1      10.379   7.808  -7.670  0.00  0.00     0.070 A 
ATOM     26 CL   UNL d   1       8.700   5.669  -7.955  0.00  0.00    -0.080 Cl
ATOM     27  C   UNL d   1      11.114   8.890  -8.170  0.00  0.00     0.012 A 
ATOM     28 CL   UNL d   1      10.284   7.583  -5.971  0.00  0.00    -0.081 Cl
ATOM     29  C   UNL d   1      11.194   9.113  -9.553  0.00  0.00     0.002 A 
ATOM     30  C   UNL d   1      10.529   8.239 -10.445  0.00  0.00     0.018 A 
ENDBRANCH  20  23
ENDBRANCH  16  17
ENDBRANCH  15  16
ENDBRANCH  12  15
ENDBRANCH   8   9
TORSDOF 5
