REMARK  7 active torsions:
REMARK  status: ('A' for Active; 'I' for Inactive)
REMARK    1  A    between atoms: C_2  and  C_4 
REMARK    2  A    between atoms: C_8  and  C_9 
REMARK    3  A    between atoms: C_10  and  C_11 
REMARK       I    between atoms: C_11  and  N_13 
REMARK    4  A    between atoms: N_13  and  C_14 
REMARK    5  A    between atoms: C_17  and  C_18 
REMARK    6  A    between atoms: C_18  and  C_19 
REMARK    7  A    between atoms: C_19  and  N_20 
ROOT
ATOM      1  N   UNL d   1       4.692  -1.673 -17.697  0.00  0.00     0.138 N 
ATOM      2  C   UNL d   1       4.070  -1.022 -18.849  0.00  0.00     0.255 C 
ATOM      3  C   UNL d   1       4.812   0.235 -19.367  0.00  0.00     0.061 C 
ATOM      4  C   UNL d   1       6.116  -0.049 -20.106  0.00  0.00    -0.024 A 
ATOM      5  C   UNL d   1       6.278   0.622 -21.349  0.00  0.00    -0.004 A 
ATOM      6  C   UNL d   1       7.445   0.470 -22.123  0.00  0.00     0.010 A 
ATOM      7  C   UNL d   1       8.482  -0.363 -21.650  0.00  0.00     0.068 A 
ATOM      8  C   UNL d   1       9.699  -0.537 -22.428  0.00  0.00     0.101 C 
ATOM      9  N   UNL d   1      10.664  -0.675 -23.047  0.00  0.00    -0.191 NA
ATOM     10  C   UNL d   1       8.339  -1.030 -20.419  0.00  0.00     0.006 A 
ATOM     11  C   UNL d   1       7.161  -0.887 -19.634  0.00  0.00    -0.023 A 
ATOM     12  C   UNL d   1       7.157  -1.652 -18.318  0.00  0.00     0.061 C 
ATOM     13  C   UNL d   1       5.867  -2.470 -18.064  0.00  0.00     0.255 C 
ENDROOT
BRANCH   1  14
ATOM     14  C   UNL d   1       4.981  -0.679 -16.668  0.00  0.00     0.250 C 
BRANCH  14  15
ATOM     15  C   UNL d   1       5.454  -1.272 -15.322  0.00  0.00     0.035 C 
BRANCH  15  16
ATOM     16  C   UNL d   1       6.059  -0.189 -14.401  0.00  0.00     0.002 C 
ATOM     17  C   UNL d   1       6.818   0.927 -15.170  0.00  0.00     0.002 C 
ATOM     18  C   UNL d   1       7.369   2.009 -14.254  0.00  0.00     0.024 C 
ATOM     19  C   UNL d   1       6.222   2.631 -13.413  0.00  0.00     0.107 C 
ATOM     20  C   UNL d   1       5.471   1.529 -12.625  0.00  0.00     0.024 C 
ATOM     21  C   UNL d   1       4.944   0.414 -13.536  0.00  0.00     0.002 C 
BRANCH  19  22
ATOM     22  N   UNL d   1       6.711   3.666 -12.507  0.00  0.00    -0.236 NA
ATOM     23  C   UNL d   1       7.560   4.654 -12.841  0.00  0.00     0.275 C 
ATOM     24  O   UNL d   1       7.893   4.894 -14.002  0.00  0.00    -0.266 OA
BRANCH  23  25
ATOM     25  C   UNL d   1       8.064   5.336 -11.664  0.00  0.00     0.062 C 
ATOM     26  C   UNL d   1       8.945   6.347 -11.789  0.00  0.00     0.005 C 
BRANCH  26  27
ATOM     27  C   UNL d   1       9.534   7.086 -10.667  0.00  0.00     0.000 A 
ATOM     28  C   UNL d   1      10.137   8.339 -10.884  0.00  0.00     0.000 A 
ATOM     29  C   UNL d   1      10.706   9.073  -9.826  0.00  0.00     0.000 A 
ATOM     30  C   UNL d   1      10.627   8.584  -8.514  0.00  0.00     0.003 A 
ATOM     31  C   UNL d   1       9.990   7.350  -8.289  0.00  0.00     0.035 A 
ATOM     32  C   UNL d   1       9.464   6.596  -9.352  0.00  0.00     0.003 A 
BRANCH  31  33
ATOM     33  C   UNL d   1       9.892   6.824  -6.936  0.00  0.00     0.173 C 
ATOM     34  C   UNL d   1       8.507   6.379  -6.493  0.00  0.00     0.077 C 
ATOM     35  O   UNL d   1      10.846   6.780  -6.161  0.00  0.00    -0.291 OA
ENDBRANCH  31  33
ENDBRANCH  26  27
ENDBRANCH  23  25
ENDBRANCH  19  22
ENDBRANCH  15  16
ENDBRANCH  14  15
ENDBRANCH   1  14
TORSDOF 7
