REMARK  5 active torsions:
REMARK  status: ('A' for Active; 'I' for Inactive)
REMARK    1  A    between atoms: O_2  and  C_3 
REMARK    2  A    between atoms: C_8  and  N_9 
REMARK    3  A    between atoms: N_12  and  C_13 
REMARK    4  A    between atoms: C_13  and  C_14 
REMARK    5  A    between atoms: C_16  and  C_17 
ROOT
ATOM      1  N   UNL d   1       8.066   5.560 -11.837  0.00  0.00    -0.343 N 
ATOM      2  C   UNL d   1       7.835   5.359 -10.425  0.00  0.00     0.137 C 
ATOM      3  C   UNL d   1       9.046   5.745  -9.588  0.00  0.00     0.274 C 
ATOM      4  N   UNL d   1       9.488   7.111  -9.896  0.00  0.00     0.141 N 
ATOM      5  C   UNL d   1       9.829   7.198 -11.321  0.00  0.00     0.274 C 
ATOM      6  C   UNL d   1       8.602   6.858 -12.195  0.00  0.00     0.137 C 
ENDROOT
BRANCH   4   7
ATOM      7  C   UNL d   1      10.649   7.475  -9.094  0.00  0.00     0.251 C 
BRANCH   7   8
ATOM      8  C   UNL d   1      10.292   7.553  -7.618  0.00  0.00     0.038 A 
ATOM      9  C   UNL d   1      11.225   6.991  -6.552  0.00  0.00     0.024 A 
ATOM     10  C   UNL d   1       9.903   6.356  -6.779  0.00  0.00     0.007 A 
BRANCH   9  11
ATOM     11  C   UNL d   1      11.461   7.677  -5.256  0.00  0.00    -0.022 A 
ATOM     12  C   UNL d   1      11.853   6.948  -4.105  0.00  0.00    -0.004 A 
ATOM     13  C   UNL d   1      12.065   7.620  -2.888  0.00  0.00    -0.000 A 
ATOM     14  C   UNL d   1      11.874   9.012  -2.819  0.00  0.00    -0.000 A 
ATOM     15  C   UNL d   1      11.470   9.730  -3.961  0.00  0.00    -0.000 A 
ATOM     16  C   UNL d   1      11.285   9.068  -5.177  0.00  0.00    -0.004 A 
ENDBRANCH   9  11
ENDBRANCH   7   8
ENDBRANCH   4   7
BRANCH   1  17
ATOM     17  C   UNL d   1       7.871   4.514 -12.743  0.00  0.00     0.079 A 
ATOM     18  C   UNL d   1       8.936   4.062 -13.556  0.00  0.00     0.110 A 
ATOM     19  C   UNL d   1       8.697   3.004 -14.470  0.00  0.00     0.026 A 
ATOM     20  C   UNL d   1       7.427   2.403 -14.554  0.00  0.00     0.002 A 
ATOM     21  C   UNL d   1       6.385   2.837 -13.720  0.00  0.00     0.002 A 
ATOM     22  C   UNL d   1       6.605   3.889 -12.810  0.00  0.00     0.019 A 
BRANCH  18  23
ATOM     23  O   UNL d   1      10.170   4.669 -13.398  0.00  0.00    -0.327 OA
ATOM     24  C   UNL d   1      11.258   4.196 -14.168  0.00  0.00     0.181 C 
ENDBRANCH  18  23
ENDBRANCH   1  17
TORSDOF 5
