REMARK  5 active torsions:
REMARK  status: ('A' for Active; 'I' for Inactive)
REMARK       I    between atoms: C_2  and  N_3 
REMARK    1  A    between atoms: C_2  and  C_16 
REMARK    2  A    between atoms: N_3  and  C_4 
REMARK    3  A    between atoms: N_7  and  C_8 
REMARK    4  A    between atoms: C_8  and  C_9 
REMARK    5  A    between atoms: C_19  and  C_20 
ROOT
ATOM      1  O   UNL d   1       9.833   5.969 -12.859  0.00  0.00    -0.266 OA
ATOM      2  C   UNL d   1       9.165   5.766 -11.843  0.00  0.00     0.275 C 
ATOM      3  N   UNL d   1       8.008   5.101 -11.844  0.00  0.00    -0.234 NA
ENDROOT
BRANCH   2   4
ATOM      4  C   UNL d   1       9.601   6.279 -10.510  0.00  0.00     0.058 A 
ATOM      5  C   UNL d   1      10.250   7.526 -10.395  0.00  0.00     0.005 A 
ATOM      6  C   UNL d   1      10.679   7.990  -9.139  0.00  0.00     0.000 A 
ATOM      7  C   UNL d   1      10.469   7.219  -7.971  0.00  0.00     0.000 A 
ATOM      8  C   UNL d   1       9.820   5.973  -8.104  0.00  0.00     0.000 A 
ATOM      9  C   UNL d   1       9.403   5.495  -9.355  0.00  0.00     0.005 A 
BRANCH   7  10
ATOM     10  C   UNL d   1      10.916   7.697  -6.648  0.00  0.00     0.000 A 
ATOM     11  C   UNL d   1      10.848   9.069  -6.316  0.00  0.00     0.001 A 
ATOM     12  C   UNL d   1      11.271   9.532  -5.056  0.00  0.00     0.011 A 
ATOM     13  C   UNL d   1      11.765   8.619  -4.102  0.00  0.00     0.058 A 
ATOM     14  C   UNL d   1      11.831   7.250  -4.413  0.00  0.00     0.011 A 
ATOM     15 CL   UNL d   1      12.262   9.162  -2.545  0.00  0.00    -0.082 Cl
ATOM     16  C   UNL d   1      11.415   6.793  -5.677  0.00  0.00     0.001 A 
ENDBRANCH   7  10
ENDBRANCH   2   4
BRANCH   3  17
ATOM     17  C   UNL d   1       7.374   4.620 -13.055  0.00  0.00     0.142 C 
ATOM     18  C   UNL d   1       8.091   3.411 -13.675  0.00  0.00     0.275 C 
ATOM     19  N   UNL d   1       6.996   2.635 -14.248  0.00  0.00     0.143 N 
ATOM     20  C   UNL d   1       5.942   2.728 -13.245  0.00  0.00     0.253 C 
ATOM     21  C   UNL d   1       5.937   4.174 -12.794  0.00  0.00     0.062 C 
BRANCH  19  22
ATOM     22  C   UNL d   1       7.400   1.251 -14.532  0.00  0.00     0.277 C 
BRANCH  22  23
ATOM     23  C   UNL d   1       6.298   0.373 -15.112  0.00  0.00     0.011 A 
ATOM     24  C   UNL d   1       5.233  -0.075 -14.300  0.00  0.00    -0.002 A 
ATOM     25  C   UNL d   1       4.188  -0.842 -14.851  0.00  0.00    -0.000 A 
ATOM     26  C   UNL d   1       4.237  -1.224 -16.206  0.00  0.00    -0.000 A 
ATOM     27  C   UNL d   1       5.316  -0.817 -17.012  0.00  0.00    -0.000 A 
ATOM     28  C   UNL d   1       6.342  -0.013 -16.470  0.00  0.00    -0.002 A 
ENDBRANCH  22  23
ENDBRANCH  19  22
ENDBRANCH   3  17
TORSDOF 5
