REMARK  4 active torsions:
REMARK  status: ('A' for Active; 'I' for Inactive)
REMARK    1  A    between atoms: C_2  and  O_3 
REMARK    2  A    between atoms: C_2  and  C_11 
REMARK    3  A    between atoms: O_3  and  C_4 
REMARK    4  A    between atoms: C_16  and  N_17 
ROOT
ATOM      1  C   UNL d   1      10.363   7.397  -9.468  0.00  0.00     0.203 C 
ATOM      2  N   UNL d   1      11.521   7.651 -10.033  0.00  0.00    -0.039 NA
ATOM      3  C   UNL d   1      12.455   8.044  -9.193  0.00  0.00     0.785 C 
ATOM      4  N   UNL d   1      13.732   7.910  -9.662  0.00  0.00     0.063 N 
ATOM      5  N   UNL d   1      12.303   8.333  -7.907  0.00  0.00     0.134 NA
ATOM      6  C   UNL d   1      11.091   7.987  -7.457  0.00  0.00     0.744 C 
ATOM      7  N   UNL d   1      10.073   7.486  -8.164  0.00  0.00    -0.043 NA
ENDROOT
BRANCH   1   8
ATOM      8  C   UNL d   1       9.274   6.973 -10.439  0.00  0.00     0.181 C 
ATOM      9  C   UNL d   1       8.996   8.155 -11.417  0.00  0.00     0.041 C 
BRANCH   8  10
ATOM     10  O   UNL d   1       9.590   5.801 -11.205  0.00  0.00    -0.325 OA
BRANCH  10  11
ATOM     11  C   UNL d   1       8.570   5.195 -11.930  0.00  0.00     0.105 A 
ATOM     12  C   UNL d   1       8.938   4.362 -13.012  0.00  0.00     0.080 A 
ATOM     13  C   UNL d   1       7.963   3.687 -13.772  0.00  0.00     0.013 A 
ATOM     14 CL   UNL d   1      10.590   4.193 -13.481  0.00  0.00    -0.080 Cl
ATOM     15  C   UNL d   1       6.597   3.843 -13.484  0.00  0.00     0.001 A 
ATOM     16  C   UNL d   1       6.209   4.682 -12.427  0.00  0.00     0.002 A 
ATOM     17  C   UNL d   1       7.182   5.351 -11.654  0.00  0.00     0.025 A 
ENDBRANCH  10  11
ENDBRANCH   8  10
ENDBRANCH   1   8
BRANCH   6  18
ATOM     18  N   UNL d   1      10.906   8.103  -6.105  0.00  0.00    -0.178 N 
ATOM     19  C   UNL d   1      10.912   9.407  -5.474  0.00  0.00     0.155 C 
ATOM     20  C   UNL d   1      11.868   9.422  -4.266  0.00  0.00     0.275 C 
ATOM     21  N   UNL d   1      11.528   8.355  -3.325  0.00  0.00     0.143 N 
ATOM     22  C   UNL d   1      11.627   7.049  -3.997  0.00  0.00     0.275 C 
ATOM     23  C   UNL d   1      12.406   8.410  -2.170  0.00  0.00     0.286 C 
ATOM     24  C   UNL d   1      10.668   6.974  -5.213  0.00  0.00     0.155 C 
ENDBRANCH   6  18
TORSDOF 4
