REMARK  6 active torsions:
REMARK  status: ('A' for Active; 'I' for Inactive)
REMARK    1  A    between atoms: O_2  and  C_3 
REMARK    2  A    between atoms: N_11  and  C_12 
REMARK    3  A    between atoms: C_12  and  C_13 
REMARK    4  A    between atoms: C_18  and  C_19 
REMARK    5  A    between atoms: C_19  and  N_20 
REMARK       I    between atoms: N_20  and  C_21 
REMARK    6  A    between atoms: C_21  and  C_23 
ROOT
ATOM      1  C   UNL d   1      12.634   5.122 -18.201  0.00  0.00     0.009 A 
ATOM      2  C   UNL d   1      13.526   5.637 -17.216  0.00  0.00    -0.003 A 
ATOM      3  C   UNL d   1      13.941   6.988 -17.261  0.00  0.00    -0.000 A 
ATOM      4  C   UNL d   1      13.473   7.816 -18.315  0.00  0.00    -0.000 A 
ATOM      5  C   UNL d   1      12.608   7.335 -19.310  0.00  0.00    -0.003 A 
ATOM      6  C   UNL d   1      12.155   5.990 -19.252  0.00  0.00     0.000 A 
ENDROOT
BRANCH   1   7
ATOM      7  C   UNL d   1      12.233   3.644 -18.094  0.00  0.00     0.277 C 
BRANCH   7   8
ATOM      8  N   UNL d   1      10.895   3.423 -17.535  0.00  0.00     0.146 N 
ATOM      9  C   UNL d   1      10.883   3.800 -16.116  0.00  0.00     0.277 C 
ATOM     10  C   UNL d   1       9.582   3.478 -15.406  0.00  0.00     0.009 A 
ATOM     11  C   UNL d   1       8.723   2.479 -15.914  0.00  0.00    -0.020 A 
ATOM     12  C   UNL d   1       9.253   4.142 -14.210  0.00  0.00     0.027 A 
ATOM     13  C   UNL d   1       7.527   2.165 -15.238  0.00  0.00     0.022 A 
ATOM     14  C   UNL d   1       9.070   1.803 -17.229  0.00  0.00     0.061 C 
ATOM     15  C   UNL d   1       7.174   2.855 -14.052  0.00  0.00     0.119 A 
ATOM     16  C   UNL d   1       8.068   3.827 -13.521  0.00  0.00     0.153 A 
ATOM     17  O   UNL d   1       7.845   4.434 -12.308  0.00  0.00    -0.188 OA
ATOM     18  C   UNL d   1      10.543   2.003 -17.631  0.00  0.00     0.256 C 
BRANCH  15  19
ATOM     19  O   UNL d   1       6.001   2.502 -13.443  0.00  0.00    -0.326 OA
ATOM     20  C   UNL d   1       5.083   3.539 -13.118  0.00  0.00     0.181 C 
ENDBRANCH  15  19
ENDBRANCH   7   8
ENDBRANCH   1   7
BRANCH   6  21
ATOM     21  C   UNL d   1      11.180   5.486 -20.333  0.00  0.00     0.155 C 
BRANCH  21  22
ATOM     22  N   UNL d   1      10.001   6.321 -20.514  0.00  0.00    -0.229 NA
ATOM     23  C   UNL d   1       9.970   7.477 -21.188  0.00  0.00     0.275 C 
ATOM     24  O   UNL d   1      10.958   7.941 -21.735  0.00  0.00    -0.266 OA
BRANCH  23  25
ATOM     25  C   UNL d   1       8.622   8.141 -21.283  0.00  0.00     0.058 A 
ATOM     26  C   UNL d   1       7.524   7.786 -20.457  0.00  0.00     0.006 A 
ATOM     27  C   UNL d   1       6.267   8.411 -20.630  0.00  0.00     0.012 A 
ATOM     28  C   UNL d   1       6.115   9.415 -21.609  0.00  0.00     0.058 A 
ATOM     29  C   UNL d   1       7.209   9.819 -22.397  0.00  0.00     0.012 A 
ATOM     30 CL   UNL d   1       4.577  10.155 -21.856  0.00  0.00    -0.082 Cl
ATOM     31  C   UNL d   1       8.451   9.187 -22.223  0.00  0.00     0.006 A 
ENDBRANCH  23  25
ENDBRANCH  21  22
ENDBRANCH   6  21
TORSDOF 6
