REMARK  3 active torsions:
REMARK  status: ('A' for Active; 'I' for Inactive)
REMARK    1  A    between atoms: C_2  and  C_3 
REMARK    2  A    between atoms: N_14  and  C_15 
REMARK    3  A    between atoms: C_15  and  C_16 
ROOT
ATOM      1  C   UNL d   1       8.903   6.315  -8.869  0.00  0.00     0.008 C 
ATOM      2  C   UNL d   1       9.417   6.490 -10.114  0.00  0.00     0.019 C 
ATOM      3  C   UNL d   1      10.273   7.704 -10.361  0.00  0.00     0.065 C 
ATOM      4  C   UNL d   1      10.210   8.756  -9.232  0.00  0.00     0.256 C 
ATOM      5  N   UNL d   1      10.345   8.076  -7.936  0.00  0.00     0.146 N 
ATOM      6  C   UNL d   1       9.153   7.229  -7.692  0.00  0.00     0.277 C 
ENDROOT
BRANCH   2   7
ATOM      7  C   UNL d   1       9.013   5.616 -11.200  0.00  0.00     0.178 A 
ATOM      8  O   UNL d   1       7.727   5.158 -11.252  0.00  0.00    -0.288 OA
ATOM      9  C   UNL d   1       7.710   4.383 -12.388  0.00  0.00     0.119 A 
ATOM     10  C   UNL d   1       9.021   4.388 -12.924  0.00  0.00     0.106 A 
ATOM     11  C   UNL d   1       6.664   3.648 -12.955  0.00  0.00     0.026 A 
ATOM     12  N   UNL d   1       9.838   5.202 -12.187  0.00  0.00    -0.220 NA
ATOM     13  C   UNL d   1       9.293   3.602 -14.054  0.00  0.00     0.021 A 
ATOM     14  C   UNL d   1       8.262   2.842 -14.633  0.00  0.00     0.002 A 
ATOM     15  C   UNL d   1       6.954   2.865 -14.090  0.00  0.00     0.002 A 
ENDBRANCH   2   7
BRANCH   5  16
ATOM     16  C   UNL d   1      10.545   9.052  -6.863  0.00  0.00     0.277 C 
BRANCH  16  17
ATOM     17  C   UNL d   1      11.169   8.499  -5.577  0.00  0.00     0.011 A 
ATOM     18  C   UNL d   1      11.757   9.419  -4.659  0.00  0.00    -0.002 A 
ATOM     19  C   UNL d   1      12.328   8.952  -3.445  0.00  0.00    -0.000 A 
ATOM     20  C   UNL d   1      12.274   7.576  -3.102  0.00  0.00    -0.000 A 
ATOM     21  C   UNL d   1      11.696   6.689  -4.038  0.00  0.00    -0.000 A 
ATOM     22  C   UNL d   1      11.198   7.096  -5.291  0.00  0.00    -0.002 A 
ENDBRANCH  16  17
ENDBRANCH   5  16
TORSDOF 3
