REMARK  6 active torsions:
REMARK  status: ('A' for Active; 'I' for Inactive)
REMARK    1  A    between atoms: C_2  and  O_4 
REMARK    2  A    between atoms: O_4  and  C_5 
REMARK    3  A    between atoms: C_10  and  N_11 
REMARK    4  A    between atoms: N_14  and  C_15 
REMARK    5  A    between atoms: C_18  and  N_19 
REMARK       I    between atoms: N_19  and  C_20 
REMARK       I    between atoms: C_20  and  N_22 
REMARK    6  A    between atoms: N_22  and  C_23 
ROOT
ATOM      1  C   UNL d   1       9.062   3.609 -14.246  0.00  0.00     0.220 C 
ATOM      2  C   UNL d   1       9.916   3.402 -13.000  0.00  0.00     0.035 C 
ATOM      3  C   UNL d   1       9.758   4.500 -11.968  0.00  0.00     0.026 C 
ATOM      4  C   UNL d   1       8.299   4.798 -11.569  0.00  0.00     0.108 C 
ATOM      5  C   UNL d   1       7.477   5.087 -12.822  0.00  0.00     0.026 C 
ATOM      6  C   UNL d   1       7.590   3.894 -13.784  0.00  0.00     0.035 C 
ENDROOT
BRANCH   1   7
ATOM      7  N   UNL d   1       9.229   2.444 -15.137  0.00  0.00     0.139 N 
ATOM      8  C   UNL d   1       8.647   1.209 -14.603  0.00  0.00     0.274 C 
ATOM      9  C   UNL d   1       8.876   0.055 -15.573  0.00  0.00     0.137 C 
ATOM     10  N   UNL d   1       8.297   0.349 -16.880  0.00  0.00    -0.343 N 
ATOM     11  C   UNL d   1       8.769   1.600 -17.456  0.00  0.00     0.137 C 
ATOM     12  C   UNL d   1       8.554   2.710 -16.416  0.00  0.00     0.274 C 
BRANCH  10  13
ATOM     13  C   UNL d   1       7.324  -0.414 -17.500  0.00  0.00     0.079 A 
ATOM     14  C   UNL d   1       6.161  -0.922 -16.809  0.00  0.00     0.109 A 
ATOM     15  C   UNL d   1       5.305  -1.836 -17.474  0.00  0.00     0.026 A 
ATOM     16  C   UNL d   1       5.544  -2.167 -18.826  0.00  0.00     0.002 A 
ATOM     17  C   UNL d   1       6.653  -1.657 -19.517  0.00  0.00     0.002 A 
ATOM     18  C   UNL d   1       7.541  -0.787 -18.864  0.00  0.00     0.019 A 
BRANCH  14  19
ATOM     19  O   UNL d   1       6.000  -0.619 -15.464  0.00  0.00    -0.332 OA
BRANCH  19  20
ATOM     20  C   UNL d   1       4.771  -0.060 -15.009  0.00  0.00     0.122 C 
ATOM     21  C   UNL d   1       5.039   0.606 -13.639  0.00  0.00     0.033 C 
ATOM     22  C   UNL d   1       3.641  -1.094 -14.863  0.00  0.00     0.033 C 
ENDBRANCH  19  20
ENDBRANCH  14  19
ENDBRANCH  10  13
ENDBRANCH   1   7
BRANCH   4  23
ATOM     23  N   UNL d   1       8.264   5.905 -10.623  0.00  0.00    -0.219 NA
ATOM     24  C   UNL d   1       8.979   5.947  -9.486  0.00  0.00     0.364 C 
ATOM     25  O   UNL d   1       9.520   4.982  -8.949  0.00  0.00    -0.243 OA
ATOM     26  N   UNL d   1       9.057   7.202  -9.036  0.00  0.00    -0.191 NA
BRANCH  26  27
ATOM     27  C   UNL d   1       9.922   7.714  -8.039  0.00  0.00     0.087 A 
ATOM     28  C   UNL d   1      10.230   6.968  -6.894  0.00  0.00     0.031 A 
ATOM     29  C   UNL d   1      11.062   7.501  -5.897  0.00  0.00     0.059 A 
ATOM     30  C   UNL d   1      11.587   8.804  -6.032  0.00  0.00     0.011 A 
ATOM     31 CL   UNL d   1      11.451   6.592  -4.499  0.00  0.00    -0.082 Cl
ATOM     32  C   UNL d   1      11.268   9.559  -7.167  0.00  0.00     0.002 A 
ATOM     33  C   UNL d   1      10.445   9.022  -8.180  0.00  0.00     0.019 A 
ENDBRANCH  26  27
ENDBRANCH   4  23
TORSDOF 6
