REMARK  5 active torsions:
REMARK  status: ('A' for Active; 'I' for Inactive)
REMARK    1  A    between atoms: C_2  and  C_3 
REMARK    2  A    between atoms: C_3  and  C_4 
REMARK    3  A    between atoms: C_4  and  C_5 
REMARK    4  A    between atoms: C_4  and  N_14 
REMARK    5  A    between atoms: C_5  and  C_7 
ROOT
ATOM      1  C   UNL d   1       8.796   3.563 -13.142  0.00  0.00     0.280 C 
ENDROOT
BRANCH   1   2
ATOM      2  C   UNL d   1       7.287   3.731 -12.732  0.00  0.00     0.041 C 
BRANCH   2   3
ATOM      3  C   UNL d   1       6.589   5.016 -13.230  0.00  0.00     0.003 C 
ATOM      4  C   UNL d   1       5.861   5.732 -12.095  0.00  0.00     0.000 C 
ENDBRANCH   2   3
ENDBRANCH   1   2
BRANCH   1   5
ATOM      5  C   UNL d   1       9.604   4.896 -12.973  0.00  0.00     0.204 C 
ATOM      6  O   UNL d   1      10.345   5.325 -13.854  0.00  0.00    -0.289 OA
BRANCH   5   7
ATOM      7  C   UNL d   1       9.446   5.682 -11.713  0.00  0.00     0.036 C 
ATOM      8  C   UNL d   1       9.227   5.037 -10.476  0.00  0.00    -0.001 C 
ATOM      9  C   UNL d   1       9.174   5.788  -9.287  0.00  0.00    -0.022 C 
ATOM     10  C   UNL d   1       9.534   7.157  -9.281  0.00  0.00    -0.004 C 
ATOM     11  C   UNL d   1       8.740   5.130  -8.029  0.00  0.00     0.031 C 
ATOM     12  C   UNL d   1       9.827   7.792 -10.498  0.00  0.00    -0.000 C 
ATOM     13  C   UNL d   1       9.704   7.072 -11.689  0.00  0.00     0.003 C 
ENDBRANCH   5   7
ENDBRANCH   1   5
BRANCH   1  14
ATOM     14  N   UNL d   1       8.969   2.835 -14.456  0.00  0.00     0.142 N 
ATOM     15  C   UNL d   1      10.364   2.541 -14.831  0.00  0.00     0.251 C 
ATOM     16  C   UNL d   1      10.254   1.522 -15.967  0.00  0.00     0.037 C 
ATOM     17  C   UNL d   1       8.925   0.835 -15.746  0.00  0.00     0.037 C 
ATOM     18  C   UNL d   1       8.364   1.508 -14.504  0.00  0.00     0.251 C 
ENDBRANCH   1  14
TORSDOF 5
